MODEL 1
REMARK VINA RESULT:     -13.9      0.000      0.000
REMARK SMILES Cc1ccc(C(=O)N2CCC3(CCC(=O)N(CC(=O)NCCCNC(=O)c4ccc(-c5c6nc(c(-c7c(F)c(F)c(F)c(F)c7F)c7ccc([nH]7)c(-c7c(F)c(F)c(F)c(F)c7F)c7nc(c(-c8c(F)c(F)c(F)c(F)c8F)c8ccc5[nH]8)C=C7)C=C6)cc4)C3)CC2)cc1O
REMARK SMILES IDX 21 1 20 2 18 3 19 4 17 6 16 7 6 8 7 9 8 10 9 11 92 12 10 13
REMARK SMILES IDX 91 14 11 15 12 16 90 17 13 18 14 19 15 20 5 21 1 22 2 23
REMARK SMILES IDX 3 24 94 25 4 26 93 27 95 28 22 30 23 31 24 32 25 33 26 35
REMARK SMILES IDX 27 36 28 37 89 38 29 39 88 40 30 41 31 42 32 43 82 44 33 45
REMARK SMILES IDX 87 46 81 47 83 48 34 49 86 50 80 51 79 52 35 54 67 55 47 56
REMARK SMILES IDX 66 57 48 58 51 59 65 60 84 61 49 62 50 63 64 65 85 66 52 67
REMARK SMILES IDX 36 68 37 69 45 70 38 71 39 72 43 73 46 74 40 75 41 76 44 77
REMARK SMILES IDX 42 78 68 79 69 80 77 81 70 82 71 83 75 84 78 85 72 86 73 87
REMARK SMILES IDX 76 88 74 89 53 90 54 91 62 92 55 93 56 94 60 95 63 96 57 97
REMARK SMILES IDX 58 98 61 99 59 100
REMARK H PARENT 20 5 95 29 24 34 83 53 51 64
REMARK Flexibility Score: inf
ROOT
ATOM      1  C   UNL A   1      31.368  31.101  25.766  1.00  0.00     0.117 C 
ENDROOT
BRANCH   1   2
ATOM      2  N   UNL A   1      32.412  30.127  25.981  1.00  0.00    -0.354 N 
ATOM      3  C   UNL A   1      32.968  29.253  25.095  1.00  0.00     0.239 C 
ATOM      4  O   UNL A   1      33.992  28.664  25.451  1.00  0.00    -0.273 OA
ATOM      5  H   UNL A   1      32.773  30.090  26.896  1.00  0.00     0.163 HD
BRANCH   3   6
ATOM      6  C   UNL A   1      32.446  29.160  23.656  1.00  0.00     0.219 C 
BRANCH   6   7
ATOM      7  N   UNL A   1      31.546  28.053  23.312  1.00  0.00    -0.333 N 
ATOM      8  C   UNL A   1      32.568  22.687  26.721  1.00  0.00     0.253 C 
ATOM      9  O   UNL A   1      32.244  22.680  27.907  1.00  0.00    -0.269 OA
ATOM     10  N   UNL A   1      31.912  23.490  25.793  1.00  0.00    -0.339 N 
ATOM     11  C   UNL A   1      31.286  24.710  26.275  1.00  0.00     0.120 C 
ATOM     12  C   UNL A   1      31.575  23.114  24.424  1.00  0.00     0.120 C 
ATOM     13  C   UNL A   1      31.727  25.865  25.385  1.00  0.00     0.030 C 
ATOM     14  C   UNL A   1      31.915  24.240  23.442  1.00  0.00     0.030 C 
ATOM     15  C   UNL A   1      31.391  25.633  23.889  1.00  0.00    -0.008 C 
ATOM     16  C   UNL A   1      29.883  25.738  23.582  1.00  0.00     0.019 C 
ATOM     17  C   UNL A   1      32.080  26.724  23.052  1.00  0.00     0.127 C 
ATOM     18  C   UNL A   1      29.320  27.126  23.847  1.00  0.00     0.101 C 
ATOM     19  C   UNL A   1      30.187  28.291  23.407  1.00  0.00     0.223 C 
ATOM     20  O   UNL A   1      29.705  29.417  23.307  1.00  0.00    -0.275 OA
BRANCH   8  21
ATOM     21  C   UNL A   1      33.800  21.939  26.323  1.00  0.00     0.043 A 
ATOM     22  C   UNL A   1      37.392  20.172  24.674  1.00  0.00     0.048 C 
ATOM     23  C   UNL A   1      36.167  20.788  25.282  1.00  0.00    -0.009 A 
ATOM     24  C   UNL A   1      34.923  20.185  25.068  1.00  0.00     0.008 A 
ATOM     25  C   UNL A   1      36.206  21.975  26.021  1.00  0.00     0.119 A 
ATOM     26  C   UNL A   1      33.753  20.767  25.562  1.00  0.00     0.014 A 
ATOM     27  C   UNL A   1      35.044  22.539  26.549  1.00  0.00     0.060 A 
BRANCH  25  28
ATOM     28  O   UNL A   1      37.364  22.667  26.240  1.00  0.00    -0.508 OA
ATOM     29  H   UNL A   1      37.392  23.339  26.892  1.00  0.00     0.293 HD
ENDBRANCH  25  28
ENDBRANCH   8  21
ENDBRANCH   6   7
ENDBRANCH   3   6
ENDBRANCH   1   2
BRANCH   1  30
ATOM     30  C   UNL A   1      31.295  32.120  26.895  1.00  0.00     0.042 C 
BRANCH  30  31
ATOM     31  C   UNL A   1      32.604  32.864  27.135  1.00  0.00     0.118 C 
BRANCH  31  32
ATOM     32  N   UNL A   1      32.394  34.237  27.575  1.00  0.00    -0.352 N 
ATOM     33  C   UNL A   1      32.982  34.944  28.591  1.00  0.00     0.251 C 
ATOM     34  H   UNL A   1      31.722  34.739  27.058  1.00  0.00     0.163 HD
ATOM     35  O   UNL A   1      32.513  36.035  28.921  1.00  0.00    -0.269 OA
BRANCH  33  36
ATOM     36  C   UNL A   1      34.155  34.404  29.307  1.00  0.00     0.039 A 
ATOM     37  C   UNL A   1      33.956  33.740  30.521  1.00  0.00     0.014 A 
ATOM     38  C   UNL A   1      35.449  34.575  28.809  1.00  0.00     0.014 A 
ATOM     39  C   UNL A   1      35.046  33.190  31.198  1.00  0.00     0.010 A 
ATOM     40  C   UNL A   1      36.523  33.953  29.439  1.00  0.00     0.010 A 
ATOM     41  C   UNL A   1      36.334  33.259  30.642  1.00  0.00    -0.014 A 
BRANCH  41  42
ATOM     42  C   UNL A   1      37.493  32.610  31.305  1.00  0.00     0.031 A 
ATOM     43  C   UNL A   1      38.217  31.479  30.629  1.00  0.00     0.074 A 
ATOM     44  C   UNL A   1      37.853  32.999  32.542  1.00  0.00     0.049 A 
ATOM     45  N   UNL A   1      39.209  30.747  31.073  1.00  0.00    -0.248 NA
ATOM     46  C   UNL A   1      37.750  31.105  29.285  1.00  0.00     0.031 C 
ATOM     47  C   UNL A   1      37.203  34.056  33.319  1.00  0.00     0.029 A 
ATOM     48  N   UNL A   1      38.850  32.545  33.370  1.00  0.00    -0.354 N 
ATOM     49  C   UNL A   1      39.473  29.822  30.071  1.00  0.00     0.074 A 
ATOM     50  C   UNL A   1      38.501  30.046  29.023  1.00  0.00     0.031 C 
ATOM     51  C   UNL A   1      37.834  34.189  34.496  1.00  0.00     0.029 A 
ATOM     52  C   UNL A   1      38.903  33.198  34.577  1.00  0.00     0.049 A 
ATOM     53  H   UNL A   1      39.468  31.820  33.122  1.00  0.00     0.167 HD
ATOM     54  C   UNL A   1      40.454  28.889  30.019  1.00  0.00     0.037 A 
ATOM     55  C   UNL A   1      39.717  33.014  35.633  1.00  0.00     0.037 A 
ATOM     56  C   UNL A   1      41.426  28.679  31.060  1.00  0.00     0.049 A 
ATOM     57  C   UNL A   1      40.778  31.949  35.563  1.00  0.00     0.074 A 
ATOM     58  C   UNL A   1      42.488  27.793  31.084  1.00  0.00     0.029 A 
ATOM     59  N   UNL A   1      41.447  29.360  32.269  1.00  0.00    -0.354 N 
ATOM     60  N   UNL A   1      41.063  31.127  34.584  1.00  0.00    -0.248 NA
ATOM     61  C   UNL A   1      41.635  31.792  36.746  1.00  0.00     0.031 C 
ATOM     62  C   UNL A   1      43.119  27.899  32.327  1.00  0.00     0.029 A 
ATOM     63  C   UNL A   1      42.489  28.895  33.056  1.00  0.00     0.049 A 
ATOM     64  H   UNL A   1      40.815  30.069  32.529  1.00  0.00     0.167 HD
ATOM     65  C   UNL A   1      42.148  30.378  35.016  1.00  0.00     0.074 A 
ATOM     66  C   UNL A   1      42.480  30.855  36.343  1.00  0.00     0.031 C 
ATOM     67  C   UNL A   1      42.812  29.386  34.374  1.00  0.00     0.037 A 
BRANCH  54  68
ATOM     68  C   UNL A   1      40.522  28.024  28.791  1.00  0.00     0.064 A 
ATOM     69  C   UNL A   1      41.286  28.391  27.672  1.00  0.00     0.173 A 
ATOM     70  C   UNL A   1      39.833  26.803  28.739  1.00  0.00     0.173 A 
ATOM     71  F   UNL A   1      41.956  29.554  27.663  1.00  0.00    -0.203 F 
ATOM     72  C   UNL A   1      41.326  27.588  26.535  1.00  0.00     0.198 A 
ATOM     73  C   UNL A   1      39.905  25.985  27.615  1.00  0.00     0.198 A 
ATOM     74  F   UNL A   1      39.093  26.398  29.783  1.00  0.00    -0.203 F 
ATOM     75  F   UNL A   1      42.015  27.990  25.457  1.00  0.00    -0.200 F 
ATOM     76  C   UNL A   1      40.642  26.383  26.510  1.00  0.00     0.200 A 
ATOM     77  F   UNL A   1      39.256  24.813  27.598  1.00  0.00    -0.200 F 
ATOM     78  F   UNL A   1      40.687  25.608  25.418  1.00  0.00    -0.200 F 
ENDBRANCH  54  68
BRANCH  55  79
ATOM     79  C   UNL A   1      39.580  33.876  36.837  1.00  0.00     0.064 A 
ATOM     80  C   UNL A   1      40.227  35.118  36.909  1.00  0.00     0.173 A 
ATOM     81  C   UNL A   1      38.802  33.482  37.936  1.00  0.00     0.173 A 
ATOM     82  F   UNL A   1      40.996  35.529  35.890  1.00  0.00    -0.203 F 
ATOM     83  C   UNL A   1      40.121  35.921  38.041  1.00  0.00     0.198 A 
ATOM     84  C   UNL A   1      38.671  34.301  39.055  1.00  0.00     0.198 A 
ATOM     85  F   UNL A   1      38.154  32.308  37.915  1.00  0.00    -0.203 F 
ATOM     86  F   UNL A   1      40.788  37.082  38.101  1.00  0.00    -0.200 F 
ATOM     87  C   UNL A   1      39.338  35.516  39.111  1.00  0.00     0.200 A 
ATOM     88  F   UNL A   1      37.898  33.914  40.079  1.00  0.00    -0.200 F 
ATOM     89  F   UNL A   1      39.229  36.293  40.197  1.00  0.00    -0.200 F 
ENDBRANCH  55  79
BRANCH  67  90
ATOM     90  C   UNL A   1      43.991  28.776  35.077  1.00  0.00     0.064 A 
ATOM     91  C   UNL A   1      43.852  27.674  35.934  1.00  0.00     0.173 A 
ATOM     92  C   UNL A   1      45.283  29.280  34.860  1.00  0.00     0.173 A 
ATOM     93  F   UNL A   1      42.637  27.165  36.187  1.00  0.00    -0.203 F 
ATOM     94  C   UNL A   1      44.960  27.119  36.571  1.00  0.00     0.198 A 
ATOM     95  C   UNL A   1      46.392  28.700  35.471  1.00  0.00     0.198 A 
ATOM     96  F   UNL A   1      45.472  30.329  34.044  1.00  0.00    -0.203 F 
ATOM     97  F   UNL A   1      44.796  26.102  37.428  1.00  0.00    -0.200 F 
ATOM     98  C   UNL A   1      46.228  27.627  36.332  1.00  0.00     0.200 A 
ATOM     99  F   UNL A   1      47.617  29.182  35.226  1.00  0.00    -0.200 F 
ATOM    100  F   UNL A   1      47.293  27.085  36.938  1.00  0.00    -0.200 F 
ENDBRANCH  67  90
ENDBRANCH  41  42
ENDBRANCH  33  36
ENDBRANCH  31  32
ENDBRANCH  30  31
ENDBRANCH   1  30
TORSDOF 13
ENDMDL
MODEL 2
REMARK VINA RESULT:     -13.8      4.971      9.819
REMARK SMILES Cc1ccc(C(=O)N2CCC3(CCC(=O)N(CC(=O)NCCCNC(=O)c4ccc(-c5c6nc(c(-c7c(F)c(F)c(F)c(F)c7F)c7ccc([nH]7)c(-c7c(F)c(F)c(F)c(F)c7F)c7nc(c(-c8c(F)c(F)c(F)c(F)c8F)c8ccc5[nH]8)C=C7)C=C6)cc4)C3)CC2)cc1O
REMARK SMILES IDX 21 1 20 2 18 3 19 4 17 6 16 7 6 8 7 9 8 10 9 11 92 12 10 13
REMARK SMILES IDX 91 14 11 15 12 16 90 17 13 18 14 19 15 20 5 21 1 22 2 23
REMARK SMILES IDX 3 24 94 25 4 26 93 27 95 28 22 30 23 31 24 32 25 33 26 35
REMARK SMILES IDX 27 36 28 37 89 38 29 39 88 40 30 41 31 42 32 43 82 44 33 45
REMARK SMILES IDX 87 46 81 47 83 48 34 49 86 50 80 51 79 52 35 54 67 55 47 56
REMARK SMILES IDX 66 57 48 58 51 59 65 60 84 61 49 62 50 63 64 65 85 66 52 67
REMARK SMILES IDX 36 68 37 69 45 70 38 71 39 72 43 73 46 74 40 75 41 76 44 77
REMARK SMILES IDX 42 78 68 79 69 80 77 81 70 82 71 83 75 84 78 85 72 86 73 87
REMARK SMILES IDX 76 88 74 89 53 90 54 91 62 92 55 93 56 94 60 95 63 96 57 97
REMARK SMILES IDX 58 98 61 99 59 100
REMARK H PARENT 20 5 95 29 24 34 83 53 51 64
REMARK Flexibility Score: inf
ROOT
ATOM      1  C   UNL A   1      36.674  19.919  25.005  1.00  0.00     0.117 C 
ENDROOT
BRANCH   1   2
ATOM      2  N   UNL A   1      36.492  21.286  25.429  1.00  0.00    -0.354 N 
ATOM      3  C   UNL A   1      35.406  21.870  26.011  1.00  0.00     0.239 C 
ATOM      4  O   UNL A   1      35.557  23.000  26.480  1.00  0.00    -0.273 OA
ATOM      5  H   UNL A   1      37.261  21.881  25.277  1.00  0.00     0.163 HD
BRANCH   3   6
ATOM      6  C   UNL A   1      34.117  21.071  26.238  1.00  0.00     0.219 C 
BRANCH   6   7
ATOM      7  N   UNL A   1      32.980  21.315  25.343  1.00  0.00    -0.333 N 
ATOM      8  C   UNL A   1      33.047  27.112  22.543  1.00  0.00     0.253 C 
ATOM      9  O   UNL A   1      33.880  27.325  21.663  1.00  0.00    -0.269 OA
ATOM     10  N   UNL A   1      32.560  25.832  22.787  1.00  0.00    -0.339 N 
ATOM     11  C   UNL A   1      33.417  24.706  22.456  1.00  0.00     0.120 C 
ATOM     12  C   UNL A   1      31.180  25.492  23.118  1.00  0.00     0.120 C 
ATOM     13  C   UNL A   1      33.475  23.771  23.658  1.00  0.00     0.030 C 
ATOM     14  C   UNL A   1      31.120  24.493  24.279  1.00  0.00     0.030 C 
ATOM     15  C   UNL A   1      32.074  23.278  24.103  1.00  0.00    -0.008 C 
ATOM     16  C   UNL A   1      31.445  22.268  23.122  1.00  0.00     0.019 C 
ATOM     17  C   UNL A   1      32.211  22.547  25.449  1.00  0.00     0.127 C 
ATOM     18  C   UNL A   1      32.241  20.976  23.010  1.00  0.00     0.101 C 
ATOM     19  C   UNL A   1      32.783  20.415  24.311  1.00  0.00     0.223 C 
ATOM     20  O   UNL A   1      33.174  19.251  24.366  1.00  0.00    -0.275 OA
BRANCH   8  21
ATOM     21  C   UNL A   1      32.691  28.236  23.461  1.00  0.00     0.043 A 
ATOM     22  C   UNL A   1      31.565  31.039  26.564  1.00  0.00     0.048 C 
ATOM     23  C   UNL A   1      31.990  30.090  25.483  1.00  0.00    -0.009 A 
ATOM     24  C   UNL A   1      31.061  29.705  24.510  1.00  0.00     0.008 A 
ATOM     25  C   UNL A   1      33.271  29.530  25.430  1.00  0.00     0.119 A 
ATOM     26  C   UNL A   1      31.401  28.772  23.527  1.00  0.00     0.014 A 
ATOM     27  C   UNL A   1      33.626  28.627  24.427  1.00  0.00     0.060 A 
BRANCH  25  28
ATOM     28  O   UNL A   1      34.232  29.801  26.363  1.00  0.00    -0.508 OA
ATOM     29  H   UNL A   1      34.851  30.486  26.212  1.00  0.00     0.293 HD
ENDBRANCH  25  28
ENDBRANCH   8  21
ENDBRANCH   6   7
ENDBRANCH   3   6
ENDBRANCH   1   2
BRANCH   1  30
ATOM     30  C   UNL A   1      38.130  19.606  24.691  1.00  0.00     0.042 C 
BRANCH  30  31
ATOM     31  C   UNL A   1      39.097  20.008  25.799  1.00  0.00     0.118 C 
BRANCH  31  32
ATOM     32  N   UNL A   1      40.219  19.087  25.924  1.00  0.00    -0.352 N 
ATOM     33  C   UNL A   1      41.556  19.334  26.094  1.00  0.00     0.251 C 
ATOM     34  H   UNL A   1      39.978  18.133  25.881  1.00  0.00     0.163 HD
ATOM     35  O   UNL A   1      42.363  18.411  25.975  1.00  0.00    -0.269 OA
BRANCH  33  36
ATOM     36  C   UNL A   1      42.040  20.696  26.396  1.00  0.00     0.039 A 
ATOM     37  C   UNL A   1      42.335  21.557  25.335  1.00  0.00     0.014 A 
ATOM     38  C   UNL A   1      42.236  21.119  27.714  1.00  0.00     0.014 A 
ATOM     39  C   UNL A   1      42.760  22.861  25.597  1.00  0.00     0.010 A 
ATOM     40  C   UNL A   1      42.576  22.444  27.974  1.00  0.00     0.010 A 
ATOM     41  C   UNL A   1      42.846  23.327  26.918  1.00  0.00    -0.014 A 
BRANCH  41  42
ATOM     42  C   UNL A   1      43.217  24.733  27.216  1.00  0.00     0.031 A 
ATOM     43  C   UNL A   1      44.618  25.217  26.965  1.00  0.00     0.074 A 
ATOM     44  C   UNL A   1      42.308  25.556  27.770  1.00  0.00     0.049 A 
ATOM     45  N   UNL A   1      45.149  26.388  27.219  1.00  0.00    -0.248 NA
ATOM     46  C   UNL A   1      45.555  24.250  26.373  1.00  0.00     0.031 C 
ATOM     47  C   UNL A   1      40.929  25.192  28.100  1.00  0.00     0.029 A 
ATOM     48  N   UNL A   1      42.407  26.867  28.164  1.00  0.00    -0.354 N 
ATOM     49  C   UNL A   1      46.478  26.292  26.829  1.00  0.00     0.074 A 
ATOM     50  C   UNL A   1      46.689  24.933  26.379  1.00  0.00     0.031 C 
ATOM     51  C   UNL A   1      40.303  26.260  28.618  1.00  0.00     0.029 A 
ATOM     52  C   UNL A   1      41.247  27.370  28.700  1.00  0.00     0.049 A 
ATOM     53  H   UNL A   1      43.232  27.396  28.072  1.00  0.00     0.167 HD
ATOM     54  C   UNL A   1      47.429  27.257  26.823  1.00  0.00     0.037 A 
ATOM     55  C   UNL A   1      40.978  28.588  29.208  1.00  0.00     0.037 A 
ATOM     56  C   UNL A   1      47.210  28.610  27.262  1.00  0.00     0.049 A 
ATOM     57  C   UNL A   1      42.061  29.632  29.220  1.00  0.00     0.074 A 
ATOM     58  C   UNL A   1      48.093  29.676  27.253  1.00  0.00     0.029 A 
ATOM     59  N   UNL A   1      46.021  29.083  27.800  1.00  0.00    -0.354 N 
ATOM     60  N   UNL A   1      43.294  29.552  28.786  1.00  0.00    -0.248 NA
ATOM     61  C   UNL A   1      41.709  30.941  29.788  1.00  0.00     0.031 C 
ATOM     62  C   UNL A   1      47.457  30.777  27.833  1.00  0.00     0.029 A 
ATOM     63  C   UNL A   1      46.157  30.418  28.149  1.00  0.00     0.049 A 
ATOM     64  H   UNL A   1      45.202  28.549  27.916  1.00  0.00     0.167 HD
ATOM     65  C   UNL A   1      43.857  30.803  28.998  1.00  0.00     0.074 A 
ATOM     66  C   UNL A   1      42.823  31.629  29.587  1.00  0.00     0.031 C 
ATOM     67  C   UNL A   1      45.115  31.230  28.728  1.00  0.00     0.037 A 
BRANCH  54  68
ATOM     68  C   UNL A   1      48.796  26.878  26.325  1.00  0.00     0.064 A 
ATOM     69  C   UNL A   1      49.743  26.268  27.163  1.00  0.00     0.173 A 
ATOM     70  C   UNL A   1      49.158  27.106  24.989  1.00  0.00     0.173 A 
ATOM     71  F   UNL A   1      49.454  26.036  28.453  1.00  0.00    -0.203 F 
ATOM     72  C   UNL A   1      51.011  25.936  26.692  1.00  0.00     0.198 A 
ATOM     73  C   UNL A   1      50.414  26.740  24.512  1.00  0.00     0.198 A 
ATOM     74  F   UNL A   1      48.289  27.679  24.141  1.00  0.00    -0.203 F 
ATOM     75  F   UNL A   1      51.917  25.410  27.528  1.00  0.00    -0.200 F 
ATOM     76  C   UNL A   1      51.342  26.166  25.366  1.00  0.00     0.200 A 
ATOM     77  F   UNL A   1      50.728  26.948  23.226  1.00  0.00    -0.200 F 
ATOM     78  F   UNL A   1      52.561  25.842  24.914  1.00  0.00    -0.200 F 
ENDBRANCH  54  68
BRANCH  55  79
ATOM     79  C   UNL A   1      39.616  28.894  29.721  1.00  0.00     0.064 A 
ATOM     80  C   UNL A   1      38.642  29.455  28.882  1.00  0.00     0.173 A 
ATOM     81  C   UNL A   1      39.259  28.635  31.053  1.00  0.00     0.173 A 
ATOM     82  F   UNL A   1      38.942  29.737  27.607  1.00  0.00    -0.203 F 
ATOM     83  C   UNL A   1      37.371  29.764  29.361  1.00  0.00     0.198 A 
ATOM     84  C   UNL A   1      37.978  28.917  31.522  1.00  0.00     0.198 A 
ATOM     85  F   UNL A   1      40.151  28.092  31.895  1.00  0.00    -0.203 F 
ATOM     86  F   UNL A   1      36.475  30.341  28.550  1.00  0.00    -0.200 F 
ATOM     87  C   UNL A   1      37.038  29.489  30.679  1.00  0.00     0.200 A 
ATOM     88  F   UNL A   1      37.654  28.631  32.790  1.00  0.00    -0.200 F 
ATOM     89  F   UNL A   1      35.813  29.780  31.137  1.00  0.00    -0.200 F 
ENDBRANCH  55  79
BRANCH  67  90
ATOM     90  C   UNL A   1      45.434  32.667  29.027  1.00  0.00     0.064 A 
ATOM     91  C   UNL A   1      45.997  33.061  30.251  1.00  0.00     0.173 A 
ATOM     92  C   UNL A   1      45.208  33.658  28.060  1.00  0.00     0.173 A 
ATOM     93  F   UNL A   1      46.217  32.154  31.215  1.00  0.00    -0.203 F 
ATOM     94  C   UNL A   1      46.293  34.398  30.506  1.00  0.00     0.198 A 
ATOM     95  C   UNL A   1      45.538  34.989  28.305  1.00  0.00     0.198 A 
ATOM     96  F   UNL A   1      44.679  33.336  26.870  1.00  0.00    -0.203 F 
ATOM     97  F   UNL A   1      46.778  34.758  31.702  1.00  0.00    -0.200 F 
ATOM     98  C   UNL A   1      46.071  35.359  29.530  1.00  0.00     0.200 A 
ATOM     99  F   UNL A   1      45.338  35.913  27.356  1.00  0.00    -0.200 F 
ATOM    100  F   UNL A   1      46.365  36.643  29.774  1.00  0.00    -0.200 F 
ENDBRANCH  67  90
ENDBRANCH  41  42
ENDBRANCH  33  36
ENDBRANCH  31  32
ENDBRANCH  30  31
ENDBRANCH   1  30
TORSDOF 13
ENDMDL
MODEL 3
REMARK VINA RESULT:     -13.7      5.142     11.084
REMARK SMILES Cc1ccc(C(=O)N2CCC3(CCC(=O)N(CC(=O)NCCCNC(=O)c4ccc(-c5c6nc(c(-c7c(F)c(F)c(F)c(F)c7F)c7ccc([nH]7)c(-c7c(F)c(F)c(F)c(F)c7F)c7nc(c(-c8c(F)c(F)c(F)c(F)c8F)c8ccc5[nH]8)C=C7)C=C6)cc4)C3)CC2)cc1O
REMARK SMILES IDX 21 1 20 2 18 3 19 4 17 6 16 7 6 8 7 9 8 10 9 11 92 12 10 13
REMARK SMILES IDX 91 14 11 15 12 16 90 17 13 18 14 19 15 20 5 21 1 22 2 23
REMARK SMILES IDX 3 24 94 25 4 26 93 27 95 28 22 30 23 31 24 32 25 33 26 35
REMARK SMILES IDX 27 36 28 37 89 38 29 39 88 40 30 41 31 42 32 43 82 44 33 45
REMARK SMILES IDX 87 46 81 47 83 48 34 49 86 50 80 51 79 52 35 54 67 55 47 56
REMARK SMILES IDX 66 57 48 58 51 59 65 60 84 61 49 62 50 63 64 65 85 66 52 67
REMARK SMILES IDX 36 68 37 69 45 70 38 71 39 72 43 73 46 74 40 75 41 76 44 77
REMARK SMILES IDX 42 78 68 79 69 80 77 81 70 82 71 83 75 84 78 85 72 86 73 87
REMARK SMILES IDX 76 88 74 89 53 90 54 91 62 92 55 93 56 94 60 95 63 96 57 97
REMARK SMILES IDX 58 98 61 99 59 100
REMARK H PARENT 20 5 95 29 24 34 83 53 51 64
REMARK Flexibility Score: inf
ROOT
ATOM      1  C   UNL A   1      36.673  20.040  25.000  1.00  0.00     0.117 C 
ENDROOT
BRANCH   1   2
ATOM      2  N   UNL A   1      36.467  21.392  25.461  1.00  0.00    -0.354 N 
ATOM      3  C   UNL A   1      35.375  21.937  26.069  1.00  0.00     0.239 C 
ATOM      4  O   UNL A   1      35.507  23.058  26.566  1.00  0.00    -0.273 OA
ATOM      5  H   UNL A   1      37.222  22.007  25.317  1.00  0.00     0.163 HD
BRANCH   3   6
ATOM      6  C   UNL A   1      34.106  21.105  26.288  1.00  0.00     0.219 C 
BRANCH   6   7
ATOM      7  N   UNL A   1      32.970  21.318  25.384  1.00  0.00    -0.333 N 
ATOM      8  C   UNL A   1      32.959  27.076  22.503  1.00  0.00     0.253 C 
ATOM      9  O   UNL A   1      33.793  27.290  21.623  1.00  0.00    -0.269 OA
ATOM     10  N   UNL A   1      32.491  25.792  22.763  1.00  0.00    -0.339 N 
ATOM     11  C   UNL A   1      33.367  24.675  22.452  1.00  0.00     0.120 C 
ATOM     12  C   UNL A   1      31.115  25.435  23.092  1.00  0.00     0.120 C 
ATOM     13  C   UNL A   1      33.434  23.758  23.666  1.00  0.00     0.030 C 
ATOM     14  C   UNL A   1      31.065  24.452  24.267  1.00  0.00     0.030 C 
ATOM     15  C   UNL A   1      32.038  23.249  24.113  1.00  0.00    -0.008 C 
ATOM     16  C   UNL A   1      31.430  22.216  23.143  1.00  0.00     0.019 C 
ATOM     17  C   UNL A   1      32.181  22.539  25.469  1.00  0.00     0.127 C 
ATOM     18  C   UNL A   1      32.246  20.936  23.053  1.00  0.00     0.101 C 
ATOM     19  C   UNL A   1      32.792  20.401  24.364  1.00  0.00     0.223 C 
ATOM     20  O   UNL A   1      33.200  19.244  24.438  1.00  0.00    -0.275 OA
BRANCH   8  21
ATOM     21  C   UNL A   1      32.582  28.207  23.404  1.00  0.00     0.043 A 
ATOM     22  C   UNL A   1      31.388  31.034  26.458  1.00  0.00     0.048 C 
ATOM     23  C   UNL A   1      31.836  30.077  25.394  1.00  0.00    -0.009 A 
ATOM     24  C   UNL A   1      30.926  29.677  24.410  1.00  0.00     0.008 A 
ATOM     25  C   UNL A   1      33.121  29.524  25.368  1.00  0.00     0.119 A 
ATOM     26  C   UNL A   1      31.288  28.736  23.442  1.00  0.00     0.014 A 
ATOM     27  C   UNL A   1      33.498  28.613  24.381  1.00  0.00     0.060 A 
BRANCH  25  28
ATOM     28  O   UNL A   1      34.064  29.810  26.314  1.00  0.00    -0.508 OA
ATOM     29  H   UNL A   1      33.942  29.529  27.198  1.00  0.00     0.293 HD
ENDBRANCH  25  28
ENDBRANCH   8  21
ENDBRANCH   6   7
ENDBRANCH   3   6
ENDBRANCH   1   2
BRANCH   1  30
ATOM     30  C   UNL A   1      38.130  19.770  24.650  1.00  0.00     0.042 C 
BRANCH  30  31
ATOM     31  C   UNL A   1      39.107  20.142  25.759  1.00  0.00     0.118 C 
BRANCH  31  32
ATOM     32  N   UNL A   1      40.163  19.152  25.930  1.00  0.00    -0.352 N 
ATOM     33  C   UNL A   1      41.509  19.315  26.130  1.00  0.00     0.251 C 
ATOM     34  H   UNL A   1      39.860  18.216  25.897  1.00  0.00     0.163 HD
ATOM     35  O   UNL A   1      42.256  18.339  26.048  1.00  0.00    -0.269 OA
BRANCH  33  36
ATOM     36  C   UNL A   1      42.074  20.648  26.421  1.00  0.00     0.039 A 
ATOM     37  C   UNL A   1      42.513  21.440  25.356  1.00  0.00     0.014 A 
ATOM     38  C   UNL A   1      42.203  21.109  27.734  1.00  0.00     0.014 A 
ATOM     39  C   UNL A   1      43.018  22.717  25.604  1.00  0.00     0.010 A 
ATOM     40  C   UNL A   1      42.625  22.413  27.973  1.00  0.00     0.010 A 
ATOM     41  C   UNL A   1      43.042  23.229  26.911  1.00  0.00    -0.014 A 
BRANCH  41  42
ATOM     42  C   UNL A   1      43.498  24.615  27.187  1.00  0.00     0.031 A 
ATOM     43  C   UNL A   1      42.538  25.635  27.732  1.00  0.00     0.074 A 
ATOM     44  C   UNL A   1      44.761  24.969  26.886  1.00  0.00     0.049 A 
ATOM     45  N   UNL A   1      42.731  26.907  27.977  1.00  0.00    -0.248 NA
ATOM     46  C   UNL A   1      41.171  25.170  28.017  1.00  0.00     0.031 C 
ATOM     47  C   UNL A   1      45.775  24.082  26.314  1.00  0.00     0.029 A 
ATOM     48  N   UNL A   1      45.408  26.174  27.012  1.00  0.00    -0.354 N 
ATOM     49  C   UNL A   1      41.511  27.393  28.432  1.00  0.00     0.074 A 
ATOM     50  C   UNL A   1      40.571  26.295  28.372  1.00  0.00     0.031 C 
ATOM     51  C   UNL A   1      46.922  24.762  26.165  1.00  0.00     0.029 A 
ATOM     52  C   UNL A   1      46.714  26.143  26.587  1.00  0.00     0.049 A 
ATOM     53  H   UNL A   1      44.977  26.982  27.371  1.00  0.00     0.167 HD
ATOM     54  C   UNL A   1      41.212  28.635  28.883  1.00  0.00     0.037 A 
ATOM     55  C   UNL A   1      47.637  27.122  26.537  1.00  0.00     0.037 A 
ATOM     56  C   UNL A   1      42.155  29.720  28.951  1.00  0.00     0.049 A 
ATOM     57  C   UNL A   1      47.270  28.501  27.014  1.00  0.00     0.074 A 
ATOM     58  C   UNL A   1      41.964  31.002  29.435  1.00  0.00     0.029 A 
ATOM     59  N   UNL A   1      43.470  29.652  28.511  1.00  0.00    -0.354 N 
ATOM     60  N   UNL A   1      46.134  28.933  27.506  1.00  0.00    -0.248 NA
ATOM     61  C   UNL A   1      48.316  29.529  26.934  1.00  0.00     0.031 C 
ATOM     62  C   UNL A   1      43.145  31.724  29.240  1.00  0.00     0.029 A 
ATOM     63  C   UNL A   1      44.093  30.877  28.690  1.00  0.00     0.049 A 
ATOM     64  H   UNL A   1      43.897  28.851  28.129  1.00  0.00     0.167 HD
ATOM     65  C   UNL A   1      46.337  30.268  27.822  1.00  0.00     0.074 A 
ATOM     66  C   UNL A   1      47.711  30.572  27.480  1.00  0.00     0.031 C 
ATOM     67  C   UNL A   1      45.466  31.163  28.350  1.00  0.00     0.037 A 
BRANCH  54  68
ATOM     68  C   UNL A   1      39.801  28.883  29.338  1.00  0.00     0.064 A 
ATOM     69  C   UNL A   1      38.813  29.351  28.456  1.00  0.00     0.173 A 
ATOM     70  C   UNL A   1      39.423  28.630  30.665  1.00  0.00     0.173 A 
ATOM     71  F   UNL A   1      39.122  29.620  27.177  1.00  0.00    -0.203 F 
ATOM     72  C   UNL A   1      37.514  29.591  28.895  1.00  0.00     0.198 A 
ATOM     73  C   UNL A   1      38.113  28.837  31.091  1.00  0.00     0.198 A 
ATOM     74  F   UNL A   1      40.323  28.174  31.550  1.00  0.00    -0.203 F 
ATOM     75  F   UNL A   1      36.605  30.095  28.047  1.00  0.00    -0.200 F 
ATOM     76  C   UNL A   1      37.164  29.328  30.209  1.00  0.00     0.200 A 
ATOM     77  F   UNL A   1      37.773  28.567  32.359  1.00  0.00    -0.200 F 
ATOM     78  F   UNL A   1      35.911  29.555  30.629  1.00  0.00    -0.200 F 
ENDBRANCH  54  68
BRANCH  55  79
ATOM     79  C   UNL A   1      49.008  26.826  26.042  1.00  0.00     0.064 A 
ATOM     80  C   UNL A   1      49.998  26.348  26.913  1.00  0.00     0.173 A 
ATOM     81  C   UNL A   1      49.358  27.013  24.697  1.00  0.00     0.173 A 
ATOM     82  F   UNL A   1      49.716  26.170  28.211  1.00  0.00    -0.203 F 
ATOM     83  C   UNL A   1      51.290  26.088  26.461  1.00  0.00     0.198 A 
ATOM     84  C   UNL A   1      50.642  26.724  24.241  1.00  0.00     0.198 A 
ATOM     85  F   UNL A   1      48.446  27.461  23.821  1.00  0.00    -0.203 F 
ATOM     86  F   UNL A   1      52.227  25.676  27.324  1.00  0.00    -0.200 F 
ATOM     87  C   UNL A   1      51.610  26.270  25.124  1.00  0.00     0.200 A 
ATOM     88  F   UNL A   1      50.941  26.882  22.944  1.00  0.00    -0.200 F 
ATOM     89  F   UNL A   1      52.850  26.013  24.689  1.00  0.00    -0.200 F 
ENDBRANCH  55  79
BRANCH  67  90
ATOM     90  C   UNL A   1      45.982  32.546  28.631  1.00  0.00     0.064 A 
ATOM     91  C   UNL A   1      45.887  33.577  27.684  1.00  0.00     0.173 A 
ATOM     92  C   UNL A   1      46.545  32.850  29.879  1.00  0.00     0.173 A 
ATOM     93  F   UNL A   1      45.370  33.332  26.470  1.00  0.00    -0.203 F 
ATOM     94  C   UNL A   1      46.364  34.854  27.967  1.00  0.00     0.198 A 
ATOM     95  C   UNL A   1      46.990  34.138  30.171  1.00  0.00     0.198 A 
ATOM     96  F   UNL A   1      46.654  31.903  30.823  1.00  0.00    -0.203 F 
ATOM     97  F   UNL A   1      46.312  35.809  27.028  1.00  0.00    -0.200 F 
ATOM     98  C   UNL A   1      46.907  35.135  29.212  1.00  0.00     0.200 A 
ATOM     99  F   UNL A   1      47.499  34.411  31.379  1.00  0.00    -0.200 F 
ATOM    100  F   UNL A   1      47.357  36.367  29.485  1.00  0.00    -0.200 F 
ENDBRANCH  67  90
ENDBRANCH  41  42
ENDBRANCH  33  36
ENDBRANCH  31  32
ENDBRANCH  30  31
ENDBRANCH   1  30
TORSDOF 13
ENDMDL
