MODEL 1
REMARK VINA RESULT:     -14.6      0.000      0.000
REMARK SMILES CN1C(=O)C[C@@H](C(=O)NCCCNC(=O)c2ccc(-c3c4nc(c(-c5c(F)c(F)c(F)c(F)c5F)c5ccc([nH]5)c(-c5c(F)c(F)c(F)c(F)c5F)c5nc(c(-c6c(F)c(F)c(F)c(F)c6F)c6ccc3[nH]6)C=C5)C=C4)cc2)C12CCN(C(=O)c1cccc3ccccc13)CC2
REMARK SMILES IDX 11 1 10 2 9 3 7 4 8 5 6 7 1 8 2 9 3 10 79 11 4 12 5 13 80 14
REMARK SMILES IDX 96 15 81 16 95 17 82 18 83 19 84 20 85 21 86 22 94 23 87 24
REMARK SMILES IDX 89 25 93 26 88 27 90 28 92 29 91 30 12 31 13 32 14 33 15 35
REMARK SMILES IDX 16 36 17 37 78 38 18 39 77 40 19 41 20 42 21 43 71 44 22 45
REMARK SMILES IDX 76 46 70 47 72 48 23 49 75 50 69 51 68 52 24 54 56 55 36 56
REMARK SMILES IDX 55 57 37 58 40 59 54 60 73 61 38 62 39 63 53 65 74 66 41 67
REMARK SMILES IDX 25 68 26 69 34 70 27 71 28 72 32 73 35 74 29 75 30 76 33 77
REMARK SMILES IDX 31 78 57 79 58 80 66 81 59 82 60 83 64 84 67 85 61 86 62 87
REMARK SMILES IDX 65 88 63 89 42 90 43 91 51 92 44 93 45 94 49 95 52 96 46 97
REMARK SMILES IDX 47 98 50 99 48 100
REMARK H PARENT 9 6 13 34 72 53 40 64
REMARK Flexibility Score: inf
ROOT
ATOM      1  C   UNL A   1      31.075  31.799  26.045  1.00  0.00     0.042 C 
ENDROOT
BRANCH   1   2
ATOM      2  C   UNL A   1      31.137  30.401  25.427  1.00  0.00     0.117 C 
BRANCH   2   3
ATOM      3  N   UNL A   1      32.467  29.990  24.999  1.00  0.00    -0.356 N 
ATOM      4  C   UNL A   1      32.963  29.338  23.920  1.00  0.00     0.226 C 
ATOM      5  O   UNL A   1      34.196  29.239  23.876  1.00  0.00    -0.275 OA
ATOM      6  H   UNL A   1      33.168  30.245  25.642  1.00  0.00     0.163 HD
BRANCH   4   7
ATOM      7  C   UNL A   1      32.140  28.674  22.815  1.00  0.00     0.113 C 
ATOM      8  C   UNL A   1      29.203  26.723  24.062  1.00  0.00     0.147 C 
ATOM      9  N   UNL A   1      30.153  27.627  23.440  1.00  0.00    -0.339 N 
ATOM     10  C   UNL A   1      29.760  28.846  22.898  1.00  0.00     0.223 C 
ATOM     11  C   UNL A   1      31.549  27.279  23.123  1.00  0.00     0.058 C 
ATOM     12  O   UNL A   1      28.637  29.316  22.901  1.00  0.00    -0.275 OA
ATOM     13  C   UNL A   1      30.974  29.533  22.335  1.00  0.00     0.116 C 
ATOM     14  C   UNL A   1      32.298  26.532  24.250  1.00  0.00     0.051 C 
ATOM     15  C   UNL A   1      31.539  26.366  21.857  1.00  0.00     0.051 C 
ATOM     16  C   UNL A   1      33.686  26.053  23.820  1.00  0.00     0.122 C 
ATOM     17  C   UNL A   1      32.896  25.743  21.528  1.00  0.00     0.122 C 
ATOM     18  N   UNL A   1      33.514  25.143  22.709  1.00  0.00    -0.338 N 
ATOM     19  C   UNL A   1      33.825  23.786  22.705  1.00  0.00     0.254 C 
ATOM     20  O   UNL A   1      33.466  23.036  21.796  1.00  0.00    -0.269 OA
BRANCH  19  21
ATOM     21  C   UNL A   1      34.724  23.183  23.727  1.00  0.00     0.047 A 
ATOM     22  C   UNL A   1      35.988  22.828  23.223  1.00  0.00     0.014 A 
ATOM     23  C   UNL A   1      34.322  22.762  25.027  1.00  0.00    -0.006 A 
ATOM     24  C   UNL A   1      36.844  22.020  23.960  1.00  0.00     0.001 A 
ATOM     25  C   UNL A   1      35.204  21.918  25.754  1.00  0.00    -0.018 A 
ATOM     26  C   UNL A   1      33.106  23.110  25.662  1.00  0.00     0.009 A 
ATOM     27  C   UNL A   1      36.439  21.546  25.204  1.00  0.00     0.009 A 
ATOM     28  C   UNL A   1      34.843  21.437  27.024  1.00  0.00     0.009 A 
ATOM     29  C   UNL A   1      32.800  22.695  26.962  1.00  0.00     0.001 A 
ATOM     30  C   UNL A   1      33.659  21.838  27.634  1.00  0.00     0.001 A 
ENDBRANCH  19  21
ENDBRANCH   4   7
ENDBRANCH   2   3
ENDBRANCH   1   2
BRANCH   1  31
ATOM     31  C   UNL A   1      32.295  32.163  26.883  1.00  0.00     0.118 C 
BRANCH  31  32
ATOM     32  N   UNL A   1      32.295  33.577  27.222  1.00  0.00    -0.352 N 
ATOM     33  C   UNL A   1      32.996  34.249  28.192  1.00  0.00     0.251 C 
ATOM     34  H   UNL A   1      31.703  34.138  26.671  1.00  0.00     0.163 HD
ATOM     35  O   UNL A   1      32.606  35.357  28.552  1.00  0.00    -0.269 OA
BRANCH  33  36
ATOM     36  C   UNL A   1      34.212  33.665  28.805  1.00  0.00     0.039 A 
ATOM     37  C   UNL A   1      34.061  32.643  29.746  1.00  0.00     0.014 A 
ATOM     38  C   UNL A   1      35.487  34.166  28.527  1.00  0.00     0.014 A 
ATOM     39  C   UNL A   1      35.184  32.108  30.380  1.00  0.00     0.010 A 
ATOM     40  C   UNL A   1      36.614  33.573  29.096  1.00  0.00     0.010 A 
ATOM     41  C   UNL A   1      36.475  32.550  30.043  1.00  0.00    -0.014 A 
BRANCH  41  42
ATOM     42  C   UNL A   1      37.671  31.942  30.685  1.00  0.00     0.031 A 
ATOM     43  C   UNL A   1      38.090  32.346  32.073  1.00  0.00     0.074 A 
ATOM     44  C   UNL A   1      38.394  31.034  30.002  1.00  0.00     0.049 A 
ATOM     45  N   UNL A   1      39.081  31.894  32.802  1.00  0.00    -0.248 NA
ATOM     46  C   UNL A   1      37.314  33.413  32.721  1.00  0.00     0.031 C 
ATOM     47  C   UNL A   1      38.128  30.609  28.625  1.00  0.00     0.029 A 
ATOM     48  N   UNL A   1      39.491  30.297  30.370  1.00  0.00    -0.354 N 
ATOM     49  C   UNL A   1      39.048  32.623  33.984  1.00  0.00     0.074 A 
ATOM     50  C   UNL A   1      37.982  33.591  33.851  1.00  0.00     0.031 C 
ATOM     51  C   UNL A   1      39.008  29.656  28.283  1.00  0.00     0.029 A 
ATOM     52  C   UNL A   1      39.919  29.425  29.399  1.00  0.00     0.049 A 
ATOM     53  H   UNL A   1      39.930  30.385  31.248  1.00  0.00     0.167 HD
ATOM     54  C   UNL A   1      39.817  32.479  35.090  1.00  0.00     0.037 A 
ATOM     55  C   UNL A   1      40.927  28.533  29.410  1.00  0.00     0.037 A 
ATOM     56  C   UNL A   1      40.865  31.500  35.226  1.00  0.00     0.049 A 
ATOM     57  C   UNL A   1      41.757  28.385  30.656  1.00  0.00     0.074 A 
ATOM     58  C   UNL A   1      41.661  31.231  36.326  1.00  0.00     0.029 A 
ATOM     59  N   UNL A   1      41.268  30.630  34.222  1.00  0.00    -0.354 N 
ATOM     60  N   UNL A   1      41.660  29.022  31.798  1.00  0.00    -0.248 NA
ATOM     61  C   UNL A   1      42.829  27.382  30.617  1.00  0.00     0.031 C 
ATOM     62  C   UNL A   1      42.579  30.236  35.972  1.00  0.00     0.029 A 
ATOM     63  C   UNL A   1      42.319  29.843  34.669  1.00  0.00     0.049 A 
ATOM     64  H   UNL A   1      40.866  30.580  33.325  1.00  0.00     0.167 HD
ATOM     65  C   UNL A   1      42.642  28.486  32.618  1.00  0.00     0.074 A 
ATOM     66  C   UNL A   1      43.304  27.449  31.852  1.00  0.00     0.031 C 
ATOM     67  C   UNL A   1      42.973  28.824  33.890  1.00  0.00     0.037 A 
BRANCH  54  68
ATOM     68  C   UNL A   1      39.551  33.401  36.249  1.00  0.00     0.064 A 
ATOM     69  C   UNL A   1      38.714  33.026  37.311  1.00  0.00     0.173 A 
ATOM     70  C   UNL A   1      40.169  34.658  36.318  1.00  0.00     0.173 A 
ATOM     71  F   UNL A   1      38.089  31.839  37.294  1.00  0.00    -0.203 F 
ATOM     72  C   UNL A   1      38.482  33.887  38.382  1.00  0.00     0.198 A 
ATOM     73  C   UNL A   1      39.962  35.503  37.405  1.00  0.00     0.198 A 
ATOM     74  F   UNL A   1      40.985  35.067  35.334  1.00  0.00    -0.203 F 
ATOM     75  F   UNL A   1      37.638  33.527  39.358  1.00  0.00    -0.200 F 
ATOM     76  C   UNL A   1      39.112  35.121  38.433  1.00  0.00     0.200 A 
ATOM     77  F   UNL A   1      40.582  36.690  37.459  1.00  0.00    -0.200 F 
ATOM     78  F   UNL A   1      38.894  35.945  39.467  1.00  0.00    -0.200 F 
ENDBRANCH  54  68
BRANCH  55  79
ATOM     79  C   UNL A   1      41.183  27.686  28.215  1.00  0.00     0.064 A 
ATOM     80  C   UNL A   1      40.596  26.420  28.088  1.00  0.00     0.173 A 
ATOM     81  C   UNL A   1      42.019  28.123  27.178  1.00  0.00     0.173 A 
ATOM     82  F   UNL A   1      39.802  25.949  29.062  1.00  0.00    -0.203 F 
ATOM     83  C   UNL A   1      40.855  25.613  26.982  1.00  0.00     0.198 A 
ATOM     84  C   UNL A   1      42.253  27.330  26.057  1.00  0.00     0.198 A 
ATOM     85  F   UNL A   1      42.600  29.331  27.246  1.00  0.00    -0.203 F 
ATOM     86  F   UNL A   1      40.320  24.386  26.911  1.00  0.00    -0.200 F 
ATOM     87  C   UNL A   1      41.678  26.071  25.964  1.00  0.00     0.200 A 
ATOM     88  F   UNL A   1      43.033  27.785  25.068  1.00  0.00    -0.200 F 
ATOM     89  F   UNL A   1      41.922  25.298  24.897  1.00  0.00    -0.200 F 
ENDBRANCH  55  79
BRANCH  67  90
ATOM     90  C   UNL A   1      44.092  28.051  34.530  1.00  0.00     0.064 A 
ATOM     91  C   UNL A   1      45.424  28.487  34.455  1.00  0.00     0.173 A 
ATOM     92  C   UNL A   1      43.829  26.864  35.229  1.00  0.00     0.173 A 
ATOM     93  F   UNL A   1      45.731  29.609  33.786  1.00  0.00    -0.203 F 
ATOM     94  C   UNL A   1      46.455  27.740  35.017  1.00  0.00     0.198 A 
ATOM     95  C   UNL A   1      44.858  26.138  35.822  1.00  0.00     0.198 A 
ATOM     96  F   UNL A   1      42.572  26.406  35.339  1.00  0.00    -0.203 F 
ATOM     97  F   UNL A   1      47.726  28.140  34.873  1.00  0.00    -0.200 F 
ATOM     98  C   UNL A   1      46.171  26.569  35.705  1.00  0.00     0.200 A 
ATOM     99  F   UNL A   1      44.581  25.015  36.499  1.00  0.00    -0.200 F 
ATOM    100  F   UNL A   1      47.164  25.850  36.245  1.00  0.00    -0.200 F 
ENDBRANCH  67  90
ENDBRANCH  41  42
ENDBRANCH  33  36
ENDBRANCH  31  32
ENDBRANCH   1  31
TORSDOF 11
ENDMDL
MODEL 2
REMARK VINA RESULT:     -14.5      1.870      2.820
REMARK SMILES CN1C(=O)C[C@@H](C(=O)NCCCNC(=O)c2ccc(-c3c4nc(c(-c5c(F)c(F)c(F)c(F)c5F)c5ccc([nH]5)c(-c5c(F)c(F)c(F)c(F)c5F)c5nc(c(-c6c(F)c(F)c(F)c(F)c6F)c6ccc3[nH]6)C=C5)C=C4)cc2)C12CCN(C(=O)c1cccc3ccccc13)CC2
REMARK SMILES IDX 11 1 10 2 9 3 7 4 8 5 6 7 1 8 2 9 3 10 79 11 4 12 5 13 80 14
REMARK SMILES IDX 96 15 81 16 95 17 82 18 83 19 84 20 85 21 86 22 94 23 87 24
REMARK SMILES IDX 89 25 93 26 88 27 90 28 92 29 91 30 12 31 13 32 14 33 15 35
REMARK SMILES IDX 16 36 17 37 78 38 18 39 77 40 19 41 20 42 21 43 71 44 22 45
REMARK SMILES IDX 76 46 70 47 72 48 23 49 75 50 69 51 68 52 24 54 56 55 36 56
REMARK SMILES IDX 55 57 37 58 40 59 54 60 73 61 38 62 39 63 53 65 74 66 41 67
REMARK SMILES IDX 25 68 26 69 34 70 27 71 28 72 32 73 35 74 29 75 30 76 33 77
REMARK SMILES IDX 31 78 57 79 58 80 66 81 59 82 60 83 64 84 67 85 61 86 62 87
REMARK SMILES IDX 65 88 63 89 42 90 43 91 51 92 44 93 45 94 49 95 52 96 46 97
REMARK SMILES IDX 47 98 50 99 48 100
REMARK H PARENT 9 6 13 34 72 53 40 64
REMARK Flexibility Score: inf
ROOT
ATOM      1  C   UNL A   1      33.823  28.853  23.482  1.00  0.00     0.042 C 
ENDROOT
BRANCH   1   2
ATOM      2  C   UNL A   1      32.705  28.129  22.729  1.00  0.00     0.117 C 
BRANCH   2   3
ATOM      3  N   UNL A   1      33.152  26.996  21.931  1.00  0.00    -0.356 N 
ATOM      4  C   UNL A   1      32.799  25.690  21.846  1.00  0.00     0.226 C 
ATOM      5  O   UNL A   1      33.375  25.037  20.967  1.00  0.00    -0.275 OA
ATOM      6  H   UNL A   1      33.878  27.232  21.309  1.00  0.00     0.163 HD
BRANCH   4   7
ATOM      7  C   UNL A   1      31.820  24.963  22.769  1.00  0.00     0.113 C 
ATOM      8  C   UNL A   1      31.863  26.182  26.304  1.00  0.00     0.147 C 
ATOM      9  N   UNL A   1      31.580  25.784  24.938  1.00  0.00    -0.339 N 
ATOM     10  C   UNL A   1      30.466  26.256  24.252  1.00  0.00     0.223 C 
ATOM     11  C   UNL A   1      32.285  24.707  24.221  1.00  0.00     0.058 C 
ATOM     12  O   UNL A   1      29.641  27.051  24.662  1.00  0.00    -0.275 OA
ATOM     13  C   UNL A   1      30.464  25.655  22.873  1.00  0.00     0.116 C 
ATOM     14  C   UNL A   1      33.821  24.723  24.385  1.00  0.00     0.051 C 
ATOM     15  C   UNL A   1      31.752  23.344  24.764  1.00  0.00     0.051 C 
ATOM     16  C   UNL A   1      34.495  23.501  23.757  1.00  0.00     0.122 C 
ATOM     17  C   UNL A   1      32.540  22.129  24.273  1.00  0.00     0.122 C 
ATOM     18  N   UNL A   1      33.981  22.324  24.423  1.00  0.00    -0.338 N 
ATOM     19  C   UNL A   1      34.715  21.440  25.208  1.00  0.00     0.254 C 
ATOM     20  O   UNL A   1      34.173  20.578  25.902  1.00  0.00    -0.269 OA
BRANCH  19  21
ATOM     21  C   UNL A   1      36.202  21.389  25.154  1.00  0.00     0.047 A 
ATOM     22  C   UNL A   1      36.705  20.159  24.693  1.00  0.00     0.014 A 
ATOM     23  C   UNL A   1      37.077  22.359  25.722  1.00  0.00    -0.006 A 
ATOM     24  C   UNL A   1      38.051  19.848  24.831  1.00  0.00     0.001 A 
ATOM     25  C   UNL A   1      38.446  22.009  25.874  1.00  0.00    -0.018 A 
ATOM     26  C   UNL A   1      36.697  23.650  26.158  1.00  0.00     0.009 A 
ATOM     27  C   UNL A   1      38.907  20.756  25.445  1.00  0.00     0.009 A 
ATOM     28  C   UNL A   1      39.348  22.909  26.467  1.00  0.00     0.009 A 
ATOM     29  C   UNL A   1      37.623  24.567  26.666  1.00  0.00     0.001 A 
ATOM     30  C   UNL A   1      38.946  24.188  26.842  1.00  0.00     0.001 A 
ENDBRANCH  19  21
ENDBRANCH   4   7
ENDBRANCH   2   3
ENDBRANCH   1   2
BRANCH   1  31
ATOM     31  C   UNL A   1      33.678  28.811  25.000  1.00  0.00     0.118 C 
BRANCH  31  32
ATOM     32  N   UNL A   1      33.116  30.051  25.507  1.00  0.00    -0.352 N 
ATOM     33  C   UNL A   1      33.392  30.734  26.664  1.00  0.00     0.251 C 
ATOM     34  H   UNL A   1      32.433  30.465  24.931  1.00  0.00     0.163 HD
ATOM     35  O   UNL A   1      32.581  31.556  27.083  1.00  0.00    -0.269 OA
BRANCH  33  36
ATOM     36  C   UNL A   1      34.651  30.502  27.411  1.00  0.00     0.039 A 
ATOM     37  C   UNL A   1      34.862  29.248  27.991  1.00  0.00     0.014 A 
ATOM     38  C   UNL A   1      35.581  31.524  27.618  1.00  0.00     0.014 A 
ATOM     39  C   UNL A   1      36.014  29.013  28.744  1.00  0.00     0.010 A 
ATOM     40  C   UNL A   1      36.771  31.264  28.298  1.00  0.00     0.010 A 
ATOM     41  C   UNL A   1      36.993  30.011  28.884  1.00  0.00    -0.014 A 
BRANCH  41  42
ATOM     42  C   UNL A   1      38.240  29.741  29.648  1.00  0.00     0.031 A 
ATOM     43  C   UNL A   1      38.443  30.312  31.025  1.00  0.00     0.074 A 
ATOM     44  C   UNL A   1      39.206  28.988  29.084  1.00  0.00     0.049 A 
ATOM     45  N   UNL A   1      39.448  30.150  31.849  1.00  0.00    -0.248 NA
ATOM     46  C   UNL A   1      37.392  31.204  31.538  1.00  0.00     0.031 C 
ATOM     47  C   UNL A   1      39.157  28.432  27.729  1.00  0.00     0.029 A 
ATOM     48  N   UNL A   1      40.409  28.553  29.578  1.00  0.00    -0.354 N 
ATOM     49  C   UNL A   1      39.154  30.919  32.967  1.00  0.00     0.074 A 
ATOM     50  C   UNL A   1      37.908  31.601  32.692  1.00  0.00     0.031 C 
ATOM     51  C   UNL A   1      40.257  27.694  27.518  1.00  0.00     0.029 A 
ATOM     52  C   UNL A   1      41.103  27.750  28.706  1.00  0.00     0.049 A 
ATOM     53  H   UNL A   1      40.744  28.793  30.472  1.00  0.00     0.167 HD
ATOM     54  C   UNL A   1      39.843  31.026  34.129  1.00  0.00     0.037 A 
ATOM     55  C   UNL A   1      42.285  27.122  28.850  1.00  0.00     0.037 A 
ATOM     56  C   UNL A   1      41.074  30.330  34.406  1.00  0.00     0.049 A 
ATOM     57  C   UNL A   1      43.023  27.246  30.154  1.00  0.00     0.074 A 
ATOM     58  C   UNL A   1      41.819  30.320  35.573  1.00  0.00     0.029 A 
ATOM     59  N   UNL A   1      41.746  29.521  33.500  1.00  0.00    -0.354 N 
ATOM     60  N   UNL A   1      42.691  27.909  31.236  1.00  0.00    -0.248 NA
ATOM     61  C   UNL A   1      44.296  26.522  30.261  1.00  0.00     0.031 C 
ATOM     62  C   UNL A   1      42.966  29.550  35.356  1.00  0.00     0.029 A 
ATOM     63  C   UNL A   1      42.909  29.030  34.072  1.00  0.00     0.049 A 
ATOM     64  H   UNL A   1      41.439  29.325  32.585  1.00  0.00     0.167 HD
ATOM     65  C   UNL A   1      43.700  27.668  32.156  1.00  0.00     0.074 A 
ATOM     66  C   UNL A   1      44.642  26.772  31.516  1.00  0.00     0.031 C 
ATOM     67  C   UNL A   1      43.841  28.149  33.417  1.00  0.00     0.037 A 
BRANCH  54  68
ATOM     68  C   UNL A   1      39.280  31.926  35.194  1.00  0.00     0.064 A 
ATOM     69  C   UNL A   1      38.509  31.421  36.252  1.00  0.00     0.173 A 
ATOM     70  C   UNL A   1      39.546  33.303  35.179  1.00  0.00     0.173 A 
ATOM     71  F   UNL A   1      38.215  30.114  36.312  1.00  0.00    -0.203 F 
ATOM     72  C   UNL A   1      37.999  32.266  37.237  1.00  0.00     0.198 A 
ATOM     73  C   UNL A   1      39.063  34.140  36.182  1.00  0.00     0.198 A 
ATOM     74  F   UNL A   1      40.283  33.840  34.195  1.00  0.00    -0.203 F 
ATOM     75  F   UNL A   1      37.221  31.767  38.207  1.00  0.00    -0.200 F 
ATOM     76  C   UNL A   1      38.283  33.622  37.206  1.00  0.00     0.200 A 
ATOM     77  F   UNL A   1      39.349  35.449  36.158  1.00  0.00    -0.200 F 
ATOM     78  F   UNL A   1      37.799  34.432  38.157  1.00  0.00    -0.200 F 
ENDBRANCH  54  68
BRANCH  55  79
ATOM     79  C   UNL A   1      42.824  26.290  27.742  1.00  0.00     0.064 A 
ATOM     80  C   UNL A   1      42.502  24.930  27.637  1.00  0.00     0.173 A 
ATOM     81  C   UNL A   1      43.673  26.835  26.768  1.00  0.00     0.173 A 
ATOM     82  F   UNL A   1      41.708  24.357  28.554  1.00  0.00    -0.203 F 
ATOM     83  C   UNL A   1      43.026  24.141  26.615  1.00  0.00     0.198 A 
ATOM     84  C   UNL A   1      44.172  26.053  25.728  1.00  0.00     0.198 A 
ATOM     85  F   UNL A   1      44.006  28.134  26.817  1.00  0.00    -0.203 F 
ATOM     86  F   UNL A   1      42.741  22.832  26.568  1.00  0.00    -0.200 F 
ATOM     87  C   UNL A   1      43.856  24.705  25.657  1.00  0.00     0.200 A 
ATOM     88  F   UNL A   1      44.957  26.607  24.794  1.00  0.00    -0.200 F 
ATOM     89  F   UNL A   1      44.356  23.949  24.671  1.00  0.00    -0.200 F 
ENDBRANCH  55  79
BRANCH  67  90
ATOM     90  C   UNL A   1      45.052  27.699  34.185  1.00  0.00     0.064 A 
ATOM     91  C   UNL A   1      46.252  28.427  34.158  1.00  0.00     0.173 A 
ATOM     92  C   UNL A   1      45.011  26.532  34.961  1.00  0.00     0.173 A 
ATOM     93  F   UNL A   1      46.348  29.543  33.420  1.00  0.00    -0.203 F 
ATOM     94  C   UNL A   1      47.378  27.976  34.841  1.00  0.00     0.198 A 
ATOM     95  C   UNL A   1      46.128  26.104  35.673  1.00  0.00     0.198 A 
ATOM     96  F   UNL A   1      43.885  25.803  35.030  1.00  0.00    -0.203 F 
ATOM     97  F   UNL A   1      48.533  28.650  34.744  1.00  0.00    -0.200 F 
ATOM     98  C   UNL A   1      47.314  26.819  35.603  1.00  0.00     0.200 A 
ATOM     99  F   UNL A   1      46.059  24.993  36.420  1.00  0.00    -0.200 F 
ATOM    100  F   UNL A   1      48.398  26.385  36.259  1.00  0.00    -0.200 F 
ENDBRANCH  67  90
ENDBRANCH  41  42
ENDBRANCH  33  36
ENDBRANCH  31  32
ENDBRANCH   1  31
TORSDOF 11
ENDMDL
MODEL 3
REMARK VINA RESULT:     -14.1      4.795     10.505
REMARK SMILES CN1C(=O)C[C@@H](C(=O)NCCCNC(=O)c2ccc(-c3c4nc(c(-c5c(F)c(F)c(F)c(F)c5F)c5ccc([nH]5)c(-c5c(F)c(F)c(F)c(F)c5F)c5nc(c(-c6c(F)c(F)c(F)c(F)c6F)c6ccc3[nH]6)C=C5)C=C4)cc2)C12CCN(C(=O)c1cccc3ccccc13)CC2
REMARK SMILES IDX 11 1 10 2 9 3 7 4 8 5 6 7 1 8 2 9 3 10 79 11 4 12 5 13 80 14
REMARK SMILES IDX 96 15 81 16 95 17 82 18 83 19 84 20 85 21 86 22 94 23 87 24
REMARK SMILES IDX 89 25 93 26 88 27 90 28 92 29 91 30 12 31 13 32 14 33 15 35
REMARK SMILES IDX 16 36 17 37 78 38 18 39 77 40 19 41 20 42 21 43 71 44 22 45
REMARK SMILES IDX 76 46 70 47 72 48 23 49 75 50 69 51 68 52 24 54 56 55 36 56
REMARK SMILES IDX 55 57 37 58 40 59 54 60 73 61 38 62 39 63 53 65 74 66 41 67
REMARK SMILES IDX 25 68 26 69 34 70 27 71 28 72 32 73 35 74 29 75 30 76 33 77
REMARK SMILES IDX 31 78 57 79 58 80 66 81 59 82 60 83 64 84 67 85 61 86 62 87
REMARK SMILES IDX 65 88 63 89 42 90 43 91 51 92 44 93 45 94 49 95 52 96 46 97
REMARK SMILES IDX 47 98 50 99 48 100
REMARK H PARENT 9 6 13 34 72 53 40 64
REMARK Flexibility Score: inf
ROOT
ATOM      1  C   UNL A   1      37.218  19.483  24.989  1.00  0.00     0.042 C 
ENDROOT
BRANCH   1   2
ATOM      2  C   UNL A   1      35.974  20.371  24.921  1.00  0.00     0.117 C 
BRANCH   2   3
ATOM      3  N   UNL A   1      35.724  21.152  26.126  1.00  0.00    -0.356 N 
ATOM      4  C   UNL A   1      34.621  21.461  26.850  1.00  0.00     0.226 C 
ATOM      5  O   UNL A   1      34.827  22.106  27.886  1.00  0.00    -0.275 OA
ATOM      6  H   UNL A   1      36.545  21.544  26.500  1.00  0.00     0.163 HD
BRANCH   4   7
ATOM      7  C   UNL A   1      33.175  21.143  26.465  1.00  0.00     0.113 C 
ATOM      8  C   UNL A   1      32.484  21.382  22.798  1.00  0.00     0.147 C 
ATOM      9  N   UNL A   1      32.671  21.026  24.192  1.00  0.00    -0.339 N 
ATOM     10  C   UNL A   1      32.774  19.702  24.604  1.00  0.00     0.223 C 
ATOM     11  C   UNL A   1      32.558  21.972  25.316  1.00  0.00     0.058 C 
ATOM     12  O   UNL A   1      32.760  18.714  23.892  1.00  0.00    -0.275 OA
ATOM     13  C   UNL A   1      32.959  19.678  26.097  1.00  0.00     0.116 C 
ATOM     14  C   UNL A   1      33.264  23.328  25.089  1.00  0.00     0.051 C 
ATOM     15  C   UNL A   1      31.040  22.248  25.556  1.00  0.00     0.051 C 
ATOM     16  C   UNL A   1      32.987  24.332  26.211  1.00  0.00     0.122 C 
ATOM     17  C   UNL A   1      30.763  23.377  26.550  1.00  0.00     0.122 C 
ATOM     18  N   UNL A   1      31.560  24.566  26.250  1.00  0.00    -0.338 N 
ATOM     19  C   UNL A   1      30.919  25.770  25.978  1.00  0.00     0.254 C 
ATOM     20  O   UNL A   1      29.697  25.843  25.837  1.00  0.00    -0.269 OA
BRANCH  19  21
ATOM     21  C   UNL A   1      31.650  27.067  25.976  1.00  0.00     0.047 A 
ATOM     22  C   UNL A   1      31.364  27.874  27.093  1.00  0.00     0.014 A 
ATOM     23  C   UNL A   1      32.383  27.593  24.874  1.00  0.00    -0.006 A 
ATOM     24  C   UNL A   1      31.746  29.209  27.118  1.00  0.00     0.001 A 
ATOM     25  C   UNL A   1      32.743  28.968  24.913  1.00  0.00    -0.018 A 
ATOM     26  C   UNL A   1      32.783  26.862  23.732  1.00  0.00     0.009 A 
ATOM     27  C   UNL A   1      32.404  29.756  26.022  1.00  0.00     0.009 A 
ATOM     28  C   UNL A   1      33.430  29.553  23.836  1.00  0.00     0.009 A 
ATOM     29  C   UNL A   1      33.542  27.437  22.708  1.00  0.00     0.001 A 
ATOM     30  C   UNL A   1      33.846  28.790  22.749  1.00  0.00     0.001 A 
ENDBRANCH  19  21
ENDBRANCH   4   7
ENDBRANCH   2   3
ENDBRANCH   1   2
BRANCH   1  31
ATOM     31  C   UNL A   1      38.493  20.228  25.368  1.00  0.00     0.118 C 
BRANCH  31  32
ATOM     32  N   UNL A   1      39.547  19.303  25.751  1.00  0.00    -0.352 N 
ATOM     33  C   UNL A   1      40.858  19.546  26.070  1.00  0.00     0.251 C 
ATOM     34  H   UNL A   1      39.277  18.356  25.788  1.00  0.00     0.163 HD
ATOM     35  O   UNL A   1      41.667  18.623  26.022  1.00  0.00    -0.269 OA
BRANCH  33  36
ATOM     36  C   UNL A   1      41.312  20.897  26.475  1.00  0.00     0.039 A 
ATOM     37  C   UNL A   1      41.735  21.785  25.482  1.00  0.00     0.014 A 
ATOM     38  C   UNL A   1      41.406  21.268  27.819  1.00  0.00     0.014 A 
ATOM     39  C   UNL A   1      42.217  23.047  25.835  1.00  0.00     0.010 A 
ATOM     40  C   UNL A   1      41.806  22.559  28.166  1.00  0.00     0.010 A 
ATOM     41  C   UNL A   1      42.234  23.457  27.179  1.00  0.00    -0.014 A 
BRANCH  41  42
ATOM     42  C   UNL A   1      42.703  24.819  27.546  1.00  0.00     0.031 A 
ATOM     43  C   UNL A   1      44.128  25.237  27.301  1.00  0.00     0.074 A 
ATOM     44  C   UNL A   1      41.840  25.679  28.122  1.00  0.00     0.049 A 
ATOM     45  N   UNL A   1      44.700  26.395  27.522  1.00  0.00    -0.248 NA
ATOM     46  C   UNL A   1      45.040  24.217  26.761  1.00  0.00     0.031 C 
ATOM     47  C   UNL A   1      40.451  25.371  28.471  1.00  0.00     0.029 A 
ATOM     48  N   UNL A   1      41.996  26.987  28.505  1.00  0.00    -0.354 N 
ATOM     49  C   UNL A   1      46.031  26.240  27.155  1.00  0.00     0.074 A 
ATOM     50  C   UNL A   1      46.199  24.859  26.758  1.00  0.00     0.031 C 
ATOM     51  C   UNL A   1      39.871  26.470  28.975  1.00  0.00     0.029 A 
ATOM     52  C   UNL A   1      40.852  27.549  29.016  1.00  0.00     0.049 A 
ATOM     53  H   UNL A   1      42.847  27.475  28.423  1.00  0.00     0.167 HD
ATOM     54  C   UNL A   1      47.016  27.169  27.123  1.00  0.00     0.037 A 
ATOM     55  C   UNL A   1      40.616  28.799  29.459  1.00  0.00     0.037 A 
ATOM     56  C   UNL A   1      46.840  28.549  27.501  1.00  0.00     0.049 A 
ATOM     57  C   UNL A   1      41.724  29.815  29.400  1.00  0.00     0.074 A 
ATOM     58  C   UNL A   1      47.756  29.584  27.447  1.00  0.00     0.029 A 
ATOM     59  N   UNL A   1      45.665  29.084  28.009  1.00  0.00    -0.354 N 
ATOM     60  N   UNL A   1      42.955  29.676  28.970  1.00  0.00    -0.248 NA
ATOM     61  C   UNL A   1      41.403  31.166  29.877  1.00  0.00     0.031 C 
ATOM     62  C   UNL A   1      47.153  30.733  27.971  1.00  0.00     0.029 A 
ATOM     63  C   UNL A   1      45.841  30.429  28.298  1.00  0.00     0.049 A 
ATOM     64  H   UNL A   1      44.828  28.582  28.144  1.00  0.00     0.167 HD
ATOM     65  C   UNL A   1      43.549  30.922  29.107  1.00  0.00     0.074 A 
ATOM     66  C   UNL A   1      42.533  31.813  29.630  1.00  0.00     0.031 C 
ATOM     67  C   UNL A   1      44.823  31.298  28.830  1.00  0.00     0.037 A 
BRANCH  54  68
ATOM     68  C   UNL A   1      48.377  26.728  26.659  1.00  0.00     0.064 A 
ATOM     69  C   UNL A   1      49.284  26.102  27.528  1.00  0.00     0.173 A 
ATOM     70  C   UNL A   1      48.766  26.899  25.322  1.00  0.00     0.173 A 
ATOM     71  F   UNL A   1      48.970  25.922  28.820  1.00  0.00    -0.203 F 
ATOM     72  C   UNL A   1      50.540  25.693  27.084  1.00  0.00     0.198 A 
ATOM     73  C   UNL A   1      50.009  26.459  24.873  1.00  0.00     0.198 A 
ATOM     74  F   UNL A   1      47.937  27.486  24.446  1.00  0.00    -0.203 F 
ATOM     75  F   UNL A   1      51.408  25.145  27.945  1.00  0.00    -0.200 F 
ATOM     76  C   UNL A   1      50.898  25.864  25.755  1.00  0.00     0.200 A 
ATOM     77  F   UNL A   1      50.348  26.613  23.586  1.00  0.00    -0.200 F 
ATOM     78  F   UNL A   1      52.103  25.463  25.327  1.00  0.00    -0.200 F 
ENDBRANCH  54  68
BRANCH  55  79
ATOM     79  C   UNL A   1      39.266  29.167  29.961  1.00  0.00     0.064 A 
ATOM     80  C   UNL A   1      38.300  29.711  29.104  1.00  0.00     0.173 A 
ATOM     81  C   UNL A   1      38.915  28.985  31.306  1.00  0.00     0.173 A 
ATOM     82  F   UNL A   1      38.593  29.922  27.812  1.00  0.00    -0.203 F 
ATOM     83  C   UNL A   1      37.043  30.081  29.577  1.00  0.00     0.198 A 
ATOM     84  C   UNL A   1      37.647  29.326  31.773  1.00  0.00     0.198 A 
ATOM     85  F   UNL A   1      39.800  28.460  32.167  1.00  0.00    -0.203 F 
ATOM     86  F   UNL A   1      36.156  30.646  28.746  1.00  0.00    -0.200 F 
ATOM     87  C   UNL A   1      36.715  29.883  30.910  1.00  0.00     0.200 A 
ATOM     88  F   UNL A   1      37.329  29.114  33.057  1.00  0.00    -0.200 F 
ATOM     89  F   UNL A   1      35.504  30.233  31.364  1.00  0.00    -0.200 F 
ENDBRANCH  55  79
BRANCH  67  90
ATOM     90  C   UNL A   1      45.177  32.737  29.076  1.00  0.00     0.064 A 
ATOM     91  C   UNL A   1      44.942  33.729  28.111  1.00  0.00     0.173 A 
ATOM     92  C   UNL A   1      45.755  33.130  30.292  1.00  0.00     0.173 A 
ATOM     93  F   UNL A   1      44.405  33.402  26.925  1.00  0.00    -0.203 F 
ATOM     94  C   UNL A   1      45.313  35.051  28.337  1.00  0.00     0.198 A 
ATOM     95  C   UNL A   1      46.090  34.460  30.530  1.00  0.00     0.198 A 
ATOM     96  F   UNL A   1      45.993  32.225  31.254  1.00  0.00    -0.203 F 
ATOM     97  F   UNL A   1      45.141  35.967  27.374  1.00  0.00    -0.200 F 
ATOM     98  C   UNL A   1      45.881  35.417  29.548  1.00  0.00     0.200 A 
ATOM     99  F   UNL A   1      46.626  34.815  31.707  1.00  0.00    -0.200 F 
ATOM    100  F   UNL A   1      46.239  36.690  29.764  1.00  0.00    -0.200 F 
ENDBRANCH  67  90
ENDBRANCH  41  42
ENDBRANCH  33  36
ENDBRANCH  31  32
ENDBRANCH   1  31
TORSDOF 11
ENDMDL
