MODEL 1
REMARK VINA RESULT:     -14.6      0.000      0.000
REMARK SMILES COC(=O)c1ccc(NC(=O)[C@@H]2CC=CC[C@@H]2C(=O)NCCCNC(=O)c2ccc(-c3c4nc(c(-c5c(F)c(F)c(F)c(F)c5F)c5ccc([nH]5)c(-c5c(F)c(F)c(F)c(F)c5F)c5nc(c(-c6c(F)c(F)c(F)c(F)c6F)c6ccc3[nH]6)C=C5)C=C4)cc2)c(C)c1
REMARK SMILES IDX 21 1 20 2 18 3 19 4 17 6 12 7 13 8 14 9 16 10 15 11 10 12
REMARK SMILES IDX 9 13 11 15 8 16 5 17 6 18 92 19 7 20 90 21 91 22 3 23 4 24
REMARK SMILES IDX 2 25 1 26 22 27 23 28 24 29 25 30 26 32 27 33 28 34 89 35
REMARK SMILES IDX 29 36 88 37 30 38 31 39 32 40 82 41 33 42 87 43 81 44 83 45
REMARK SMILES IDX 34 46 86 47 80 48 79 49 35 51 67 52 47 53 66 54 48 55 51 56
REMARK SMILES IDX 65 57 84 58 49 59 50 60 64 62 85 63 52 64 36 65 37 66 45 67
REMARK SMILES IDX 38 68 39 69 43 70 46 71 40 72 41 73 44 74 42 75 68 76 69 77
REMARK SMILES IDX 77 78 70 79 71 80 75 81 78 82 72 83 73 84 76 85 74 86 53 87
REMARK SMILES IDX 54 88 62 89 55 90 56 91 60 92 63 93 57 94 58 95 61 96 59 97
REMARK H PARENT 20 5 9 14 24 31 83 50 51 61
REMARK Flexibility Score: inf
ROOT
ATOM      1  C   UNL A   1      36.704  21.680  25.022  1.00  0.00     0.117 C 
ENDROOT
BRANCH   1   2
ATOM      2  N   UNL A   1      35.774  21.700  26.146  1.00  0.00    -0.356 N 
ATOM      3  C   UNL A   1      34.791  22.524  26.585  1.00  0.00     0.224 C 
ATOM      4  O   UNL A   1      34.228  22.127  27.613  1.00  0.00    -0.275 OA
ATOM      5  H   UNL A   1      35.888  20.919  26.733  1.00  0.00     0.163 HD
BRANCH   3   6
ATOM      6  C   UNL A   1      34.331  23.852  25.966  1.00  0.00     0.095 C 
ATOM      7  C   UNL A   1      32.836  23.962  25.645  1.00  0.00     0.095 C 
ATOM      8  C   UNL A   1      32.439  22.949  24.570  1.00  0.00     0.041 C 
ATOM      9  C   UNL A   1      33.292  23.160  23.348  1.00  0.00    -0.030 C 
ATOM     10  C   UNL A   1      35.037  24.373  24.691  1.00  0.00     0.041 C 
ATOM     11  C   UNL A   1      34.451  23.841  23.397  1.00  0.00    -0.030 C 
BRANCH   7  12
ATOM     12  C   UNL A   1      31.752  24.125  26.675  1.00  0.00     0.228 C 
ATOM     13  N   UNL A   1      30.758  25.065  26.468  1.00  0.00    -0.326 N 
ATOM     14  H   UNL A   1      30.062  25.027  27.161  1.00  0.00     0.169 HD
ATOM     15  O   UNL A   1      31.699  23.437  27.692  1.00  0.00    -0.274 OA
BRANCH  13  16
ATOM     16  C   UNL A   1      30.493  26.079  25.493  1.00  0.00     0.044 A 
ATOM     17  C   UNL A   1      30.144  28.134  23.540  1.00  0.00     0.060 A 
ATOM     18  C   UNL A   1      29.372  26.988  23.497  1.00  0.00     0.018 A 
ATOM     19  C   UNL A   1      31.072  28.280  24.574  1.00  0.00     0.021 A 
ATOM     20  C   UNL A   1      29.542  25.994  24.464  1.00  0.00     0.027 A 
ATOM     21  C   UNL A   1      31.261  27.266  25.545  1.00  0.00    -0.027 A 
ATOM     22  C   UNL A   1      32.296  27.516  26.611  1.00  0.00     0.046 C 
BRANCH  17  23
ATOM     23  C   UNL A   1      29.972  29.123  22.444  1.00  0.00     0.337 C 
ATOM     24  O   UNL A   1      30.867  29.822  22.000  1.00  0.00    -0.246 OA
BRANCH  23  25
ATOM     25  O   UNL A   1      28.678  29.190  22.057  1.00  0.00    -0.465 OA
ATOM     26  C   UNL A   1      28.363  30.439  21.444  1.00  0.00     0.282 C 
ENDBRANCH  23  25
ENDBRANCH  17  23
ENDBRANCH  13  16
ENDBRANCH   7  12
ENDBRANCH   3   6
ENDBRANCH   1   2
BRANCH   1  27
ATOM     27  C   UNL A   1      38.166  21.594  25.452  1.00  0.00     0.042 C 
BRANCH  27  28
ATOM     28  C   UNL A   1      38.727  22.877  26.025  1.00  0.00     0.118 C 
BRANCH  28  29
ATOM     29  N   UNL A   1      40.172  22.911  26.202  1.00  0.00    -0.352 N 
ATOM     30  C   UNL A   1      40.944  24.031  26.486  1.00  0.00     0.251 C 
ATOM     31  H   UNL A   1      40.651  22.055  26.112  1.00  0.00     0.163 HD
ATOM     32  O   UNL A   1      42.155  23.972  26.587  1.00  0.00    -0.269 OA
BRANCH  30  33
ATOM     33  C   UNL A   1      40.215  25.290  26.774  1.00  0.00     0.039 A 
ATOM     34  C   UNL A   1      40.742  26.473  26.251  1.00  0.00     0.014 A 
ATOM     35  C   UNL A   1      39.276  25.313  27.804  1.00  0.00     0.014 A 
ATOM     36  C   UNL A   1      40.515  27.666  26.931  1.00  0.00     0.010 A 
ATOM     37  C   UNL A   1      39.146  26.475  28.542  1.00  0.00     0.010 A 
ATOM     38  C   UNL A   1      39.820  27.636  28.142  1.00  0.00    -0.014 A 
BRANCH  38  39
ATOM     39  C   UNL A   1      39.821  28.751  29.085  1.00  0.00     0.031 A 
ATOM     40  C   UNL A   1      38.793  29.808  28.980  1.00  0.00     0.074 A 
ATOM     41  C   UNL A   1      40.735  28.812  30.080  1.00  0.00     0.049 A 
ATOM     42  N   UNL A   1      38.929  31.004  29.444  1.00  0.00    -0.248 NA
ATOM     43  C   UNL A   1      37.525  29.598  28.295  1.00  0.00     0.031 C 
ATOM     44  C   UNL A   1      40.754  29.739  31.211  1.00  0.00     0.029 A 
ATOM     45  N   UNL A   1      41.987  28.173  30.140  1.00  0.00    -0.354 N 
ATOM     46  C   UNL A   1      37.713  31.639  29.346  1.00  0.00     0.074 A 
ATOM     47  C   UNL A   1      36.882  30.731  28.588  1.00  0.00     0.031 C 
ATOM     48  C   UNL A   1      42.021  29.877  31.630  1.00  0.00     0.029 A 
ATOM     49  C   UNL A   1      42.862  29.132  30.712  1.00  0.00     0.049 A 
ATOM     50  H   UNL A   1      42.208  27.258  29.849  1.00  0.00     0.167 HD
ATOM     51  C   UNL A   1      37.520  32.817  30.006  1.00  0.00     0.037 A 
ATOM     52  C   UNL A   1      43.907  29.641  30.001  1.00  0.00     0.037 A 
ATOM     53  C   UNL A   1      38.749  33.287  30.645  1.00  0.00     0.049 A 
ATOM     54  C   UNL A   1      43.854  31.138  29.774  1.00  0.00     0.074 A 
ATOM     55  C   UNL A   1      39.253  33.259  31.935  1.00  0.00     0.029 A 
ATOM     56  N   UNL A   1      39.808  33.652  29.834  1.00  0.00    -0.354 N 
ATOM     57  N   UNL A   1      42.880  31.912  30.168  1.00  0.00    -0.248 NA
ATOM     58  C   UNL A   1      44.852  31.860  28.983  1.00  0.00     0.031 C 
ATOM     59  C   UNL A   1      40.632  33.618  31.884  1.00  0.00     0.029 A 
ATOM     60  C   UNL A   1      40.962  33.859  30.563  1.00  0.00     0.049 A 
ATOM     61  H   UNL A   1      39.748  33.751  28.857  1.00  0.00     0.167 HD
ATOM     62  C   UNL A   1      43.074  33.173  29.668  1.00  0.00     0.074 A 
ATOM     63  C   UNL A   1      44.320  33.093  28.930  1.00  0.00     0.031 C 
ATOM     64  C   UNL A   1      42.183  34.188  29.854  1.00  0.00     0.037 A 
BRANCH  51  65
ATOM     65  C   UNL A   1      36.163  33.437  30.249  1.00  0.00     0.064 A 
ATOM     66  C   UNL A   1      35.423  33.998  29.186  1.00  0.00     0.173 A 
ATOM     67  C   UNL A   1      35.555  33.556  31.512  1.00  0.00     0.173 A 
ATOM     68  F   UNL A   1      35.812  33.859  27.912  1.00  0.00    -0.203 F 
ATOM     69  C   UNL A   1      34.250  34.729  29.390  1.00  0.00     0.198 A 
ATOM     70  C   UNL A   1      34.418  34.343  31.728  1.00  0.00     0.198 A 
ATOM     71  F   UNL A   1      36.000  32.863  32.567  1.00  0.00    -0.203 F 
ATOM     72  F   UNL A   1      33.594  35.241  28.339  1.00  0.00    -0.200 F 
ATOM     73  C   UNL A   1      33.773  34.942  30.667  1.00  0.00     0.200 A 
ATOM     74  F   UNL A   1      33.953  34.512  32.973  1.00  0.00    -0.200 F 
ATOM     75  F   UNL A   1      32.681  35.690  30.870  1.00  0.00    -0.200 F 
ENDBRANCH  51  65
BRANCH  52  76
ATOM     76  C   UNL A   1      44.495  28.650  29.061  1.00  0.00     0.064 A 
ATOM     77  C   UNL A   1      45.244  27.585  29.600  1.00  0.00     0.173 A 
ATOM     78  C   UNL A   1      44.039  28.519  27.747  1.00  0.00     0.173 A 
ATOM     79  F   UNL A   1      45.709  27.659  30.858  1.00  0.00    -0.203 F 
ATOM     80  C   UNL A   1      45.409  26.391  28.903  1.00  0.00     0.198 A 
ATOM     81  C   UNL A   1      44.230  27.331  27.040  1.00  0.00     0.198 A 
ATOM     82  F   UNL A   1      43.303  29.488  27.183  1.00  0.00    -0.203 F 
ATOM     83  F   UNL A   1      46.008  25.348  29.495  1.00  0.00    -0.200 F 
ATOM     84  C   UNL A   1      44.877  26.256  27.633  1.00  0.00     0.200 A 
ATOM     85  F   UNL A   1      43.696  27.193  25.819  1.00  0.00    -0.200 F 
ATOM     86  F   UNL A   1      44.947  25.078  26.998  1.00  0.00    -0.200 F 
ENDBRANCH  52  76
BRANCH  64  87
ATOM     87  C   UNL A   1      42.402  35.586  29.348  1.00  0.00     0.064 A 
ATOM     88  C   UNL A   1      41.855  36.037  28.136  1.00  0.00     0.173 A 
ATOM     89  C   UNL A   1      43.265  36.481  30.012  1.00  0.00     0.173 A 
ATOM     90  F   UNL A   1      41.077  35.236  27.393  1.00  0.00    -0.203 F 
ATOM     91  C   UNL A   1      42.113  37.321  27.649  1.00  0.00     0.198 A 
ATOM     92  C   UNL A   1      43.561  37.743  29.498  1.00  0.00     0.198 A 
ATOM     93  F   UNL A   1      43.825  36.171  31.190  1.00  0.00    -0.203 F 
ATOM     94  F   UNL A   1      41.525  37.733  26.517  1.00  0.00    -0.200 F 
ATOM     95  C   UNL A   1      42.973  38.169  28.324  1.00  0.00     0.200 A 
ATOM     96  F   UNL A   1      44.414  38.544  30.152  1.00  0.00    -0.200 F 
ATOM     97  F   UNL A   1      43.232  39.393  27.847  1.00  0.00    -0.200 F 
ENDBRANCH  64  87
ENDBRANCH  38  39
ENDBRANCH  30  33
ENDBRANCH  28  29
ENDBRANCH  27  28
ENDBRANCH   1  27
TORSDOF 14
ENDMDL
MODEL 2
REMARK VINA RESULT:     -14.5      3.598     10.085
REMARK SMILES COC(=O)c1ccc(NC(=O)[C@@H]2CC=CC[C@@H]2C(=O)NCCCNC(=O)c2ccc(-c3c4nc(c(-c5c(F)c(F)c(F)c(F)c5F)c5ccc([nH]5)c(-c5c(F)c(F)c(F)c(F)c5F)c5nc(c(-c6c(F)c(F)c(F)c(F)c6F)c6ccc3[nH]6)C=C5)C=C4)cc2)c(C)c1
REMARK SMILES IDX 21 1 20 2 18 3 19 4 17 6 12 7 13 8 14 9 16 10 15 11 10 12
REMARK SMILES IDX 9 13 11 15 8 16 5 17 6 18 92 19 7 20 90 21 91 22 3 23 4 24
REMARK SMILES IDX 2 25 1 26 22 27 23 28 24 29 25 30 26 32 27 33 28 34 89 35
REMARK SMILES IDX 29 36 88 37 30 38 31 39 32 40 82 41 33 42 87 43 81 44 83 45
REMARK SMILES IDX 34 46 86 47 80 48 79 49 35 51 67 52 47 53 66 54 48 55 51 56
REMARK SMILES IDX 65 57 84 58 49 59 50 60 64 62 85 63 52 64 36 65 37 66 45 67
REMARK SMILES IDX 38 68 39 69 43 70 46 71 40 72 41 73 44 74 42 75 68 76 69 77
REMARK SMILES IDX 77 78 70 79 71 80 75 81 78 82 72 83 73 84 76 85 74 86 53 87
REMARK SMILES IDX 54 88 62 89 55 90 56 91 60 92 63 93 57 94 58 95 61 96 59 97
REMARK H PARENT 20 5 9 14 24 31 83 50 51 61
REMARK Flexibility Score: inf
ROOT
ATOM      1  C   UNL A   1      32.024  29.755  26.385  1.00  0.00     0.117 C 
ENDROOT
BRANCH   1   2
ATOM      2  N   UNL A   1      32.296  29.737  24.952  1.00  0.00    -0.356 N 
ATOM      3  C   UNL A   1      32.151  28.843  23.942  1.00  0.00     0.224 C 
ATOM      4  O   UNL A   1      32.511  29.273  22.838  1.00  0.00    -0.275 OA
ATOM      5  H   UNL A   1      32.683  30.586  24.638  1.00  0.00     0.163 HD
BRANCH   3   6
ATOM      6  C   UNL A   1      31.616  27.407  24.027  1.00  0.00     0.095 C 
ATOM      7  C   UNL A   1      32.660  26.315  24.296  1.00  0.00     0.095 C 
ATOM      8  C   UNL A   1      33.654  26.223  23.137  1.00  0.00     0.041 C 
ATOM      9  C   UNL A   1      32.904  25.978  21.855  1.00  0.00    -0.030 C 
ATOM     10  C   UNL A   1      30.769  26.848  22.858  1.00  0.00     0.041 C 
ATOM     11  C   UNL A   1      31.586  26.225  21.743  1.00  0.00    -0.030 C 
BRANCH   7  12
ATOM     12  C   UNL A   1      33.334  26.089  25.620  1.00  0.00     0.228 C 
ATOM     13  N   UNL A   1      33.573  24.794  26.045  1.00  0.00    -0.326 N 
ATOM     14  H   UNL A   1      34.090  24.767  26.881  1.00  0.00     0.169 HD
ATOM     15  O   UNL A   1      33.707  27.014  26.339  1.00  0.00    -0.274 OA
BRANCH  13  16
ATOM     16  C   UNL A   1      33.253  23.484  25.568  1.00  0.00     0.044 A 
ATOM     17  C   UNL A   1      32.783  20.817  24.656  1.00  0.00     0.060 A 
ATOM     18  C   UNL A   1      31.796  21.510  25.332  1.00  0.00     0.018 A 
ATOM     19  C   UNL A   1      33.998  21.457  24.400  1.00  0.00     0.021 A 
ATOM     20  C   UNL A   1      32.032  22.818  25.764  1.00  0.00     0.027 A 
ATOM     21  C   UNL A   1      34.247  22.776  24.852  1.00  0.00    -0.027 A 
ATOM     22  C   UNL A   1      35.595  23.371  24.535  1.00  0.00     0.046 C 
BRANCH  17  23
ATOM     23  C   UNL A   1      32.503  19.405  24.287  1.00  0.00     0.337 C 
ATOM     24  O   UNL A   1      32.526  18.974  23.146  1.00  0.00    -0.246 OA
BRANCH  23  25
ATOM     25  O   UNL A   1      32.153  18.684  25.376  1.00  0.00    -0.465 OA
ATOM     26  C   UNL A   1      32.549  17.317  25.267  1.00  0.00     0.282 C 
ENDBRANCH  23  25
ENDBRANCH  17  23
ENDBRANCH  13  16
ENDBRANCH   7  12
ENDBRANCH   3   6
ENDBRANCH   1   2
BRANCH   1  27
ATOM     27  C   UNL A   1      32.811  30.828  27.133  1.00  0.00     0.042 C 
BRANCH  27  28
ATOM     28  C   UNL A   1      34.105  30.341  27.748  1.00  0.00     0.118 C 
BRANCH  28  29
ATOM     29  N   UNL A   1      34.747  31.261  28.677  1.00  0.00    -0.352 N 
ATOM     30  C   UNL A   1      35.912  31.027  29.398  1.00  0.00     0.251 C 
ATOM     31  H   UNL A   1      34.313  32.135  28.808  1.00  0.00     0.163 HD
ATOM     32  O   UNL A   1      36.363  31.845  30.178  1.00  0.00    -0.269 OA
BRANCH  30  33
ATOM     33  C   UNL A   1      36.650  29.778  29.091  1.00  0.00     0.039 A 
ATOM     34  C   UNL A   1      37.063  28.993  30.169  1.00  0.00     0.014 A 
ATOM     35  C   UNL A   1      37.203  29.608  27.822  1.00  0.00     0.014 A 
ATOM     36  C   UNL A   1      38.205  28.210  30.029  1.00  0.00     0.010 A 
ATOM     37  C   UNL A   1      38.399  28.923  27.718  1.00  0.00     0.010 A 
ATOM     38  C   UNL A   1      38.935  28.279  28.840  1.00  0.00    -0.014 A 
BRANCH  38  39
ATOM     39  C   UNL A   1      40.300  27.775  28.718  1.00  0.00     0.031 A 
ATOM     40  C   UNL A   1      40.535  26.349  28.406  1.00  0.00     0.074 A 
ATOM     41  C   UNL A   1      41.357  28.608  28.853  1.00  0.00     0.049 A 
ATOM     42  N   UNL A   1      41.623  25.714  28.684  1.00  0.00    -0.248 NA
ATOM     43  C   UNL A   1      39.524  25.510  27.780  1.00  0.00     0.031 C 
ATOM     44  C   UNL A   1      42.761  28.311  28.568  1.00  0.00     0.029 A 
ATOM     45  N   UNL A   1      41.396  29.852  29.509  1.00  0.00    -0.354 N 
ATOM     46  C   UNL A   1      41.564  24.483  28.073  1.00  0.00     0.074 A 
ATOM     47  C   UNL A   1      40.218  24.392  27.555  1.00  0.00     0.031 C 
ATOM     48  C   UNL A   1      43.529  29.117  29.318  1.00  0.00     0.029 A 
ATOM     49  C   UNL A   1      42.644  29.872  30.184  1.00  0.00     0.049 A 
ATOM     50  H   UNL A   1      40.707  30.556  29.501  1.00  0.00     0.167 HD
ATOM     51  C   UNL A   1      42.695  23.724  27.991  1.00  0.00     0.037 A 
ATOM     52  C   UNL A   1      42.706  29.908  31.546  1.00  0.00     0.037 A 
ATOM     53  C   UNL A   1      43.812  24.335  28.710  1.00  0.00     0.049 A 
ATOM     54  C   UNL A   1      43.389  28.716  32.184  1.00  0.00     0.074 A 
ATOM     55  C   UNL A   1      44.922  25.079  28.343  1.00  0.00     0.029 A 
ATOM     56  N   UNL A   1      43.717  24.453  30.084  1.00  0.00    -0.354 N 
ATOM     57  N   UNL A   1      43.855  27.690  31.526  1.00  0.00    -0.248 NA
ATOM     58  C   UNL A   1      43.500  28.543  33.633  1.00  0.00     0.031 C 
ATOM     59  C   UNL A   1      45.494  25.640  29.522  1.00  0.00     0.029 A 
ATOM     60  C   UNL A   1      44.728  25.239  30.601  1.00  0.00     0.049 A 
ATOM     61  H   UNL A   1      43.016  24.029  30.629  1.00  0.00     0.167 HD
ATOM     62  C   UNL A   1      44.265  26.732  32.415  1.00  0.00     0.074 A 
ATOM     63  C   UNL A   1      44.022  27.309  33.723  1.00  0.00     0.031 C 
ATOM     64  C   UNL A   1      44.737  25.513  32.025  1.00  0.00     0.037 A 
BRANCH  51  65
ATOM     65  C   UNL A   1      42.844  22.528  27.078  1.00  0.00     0.064 A 
ATOM     66  C   UNL A   1      42.097  21.351  27.301  1.00  0.00     0.173 A 
ATOM     67  C   UNL A   1      43.741  22.456  25.997  1.00  0.00     0.173 A 
ATOM     68  F   UNL A   1      41.119  21.304  28.215  1.00  0.00    -0.203 F 
ATOM     69  C   UNL A   1      42.327  20.169  26.591  1.00  0.00     0.198 A 
ATOM     70  C   UNL A   1      44.020  21.258  25.330  1.00  0.00     0.198 A 
ATOM     71  F   UNL A   1      44.327  23.554  25.505  1.00  0.00    -0.203 F 
ATOM     72  F   UNL A   1      41.586  19.082  26.851  1.00  0.00    -0.200 F 
ATOM     73  C   UNL A   1      43.322  20.110  25.638  1.00  0.00     0.200 A 
ATOM     74  F   UNL A   1      44.970  21.229  24.385  1.00  0.00    -0.200 F 
ATOM     75  F   UNL A   1      43.583  18.963  24.996  1.00  0.00    -0.200 F 
ENDBRANCH  51  65
BRANCH  52  76
ATOM     76  C   UNL A   1      41.587  30.681  32.147  1.00  0.00     0.064 A 
ATOM     77  C   UNL A   1      41.631  32.088  32.066  1.00  0.00     0.173 A 
ATOM     78  C   UNL A   1      40.356  30.089  32.443  1.00  0.00     0.173 A 
ATOM     79  F   UNL A   1      42.789  32.709  31.788  1.00  0.00    -0.203 F 
ATOM     80  C   UNL A   1      40.470  32.853  32.142  1.00  0.00     0.198 A 
ATOM     81  C   UNL A   1      39.198  30.862  32.544  1.00  0.00     0.198 A 
ATOM     82  F   UNL A   1      40.243  28.755  32.513  1.00  0.00    -0.203 F 
ATOM     83  F   UNL A   1      40.525  34.175  31.925  1.00  0.00    -0.200 F 
ATOM     84  C   UNL A   1      39.250  32.235  32.353  1.00  0.00     0.200 A 
ATOM     85  F   UNL A   1      38.015  30.261  32.729  1.00  0.00    -0.200 F 
ATOM     86  F   UNL A   1      38.120  32.955  32.328  1.00  0.00    -0.200 F 
ENDBRANCH  52  76
BRANCH  64  87
ATOM     87  C   UNL A   1      45.230  24.469  32.985  1.00  0.00     0.064 A 
ATOM     88  C   UNL A   1      44.452  23.358  33.347  1.00  0.00     0.173 A 
ATOM     89  C   UNL A   1      46.459  24.614  33.661  1.00  0.00     0.173 A 
ATOM     90  F   UNL A   1      43.236  23.168  32.813  1.00  0.00    -0.203 F 
ATOM     91  C   UNL A   1      44.899  22.424  34.285  1.00  0.00     0.198 A 
ATOM     92  C   UNL A   1      46.881  23.708  34.633  1.00  0.00     0.198 A 
ATOM     93  F   UNL A   1      47.298  25.621  33.381  1.00  0.00    -0.203 F 
ATOM     94  F   UNL A   1      44.150  21.347  34.559  1.00  0.00    -0.200 F 
ATOM     95  C   UNL A   1      46.108  22.605  34.935  1.00  0.00     0.200 A 
ATOM     96  F   UNL A   1      48.043  23.909  35.270  1.00  0.00    -0.200 F 
ATOM     97  F   UNL A   1      46.527  21.717  35.845  1.00  0.00    -0.200 F 
ENDBRANCH  64  87
ENDBRANCH  38  39
ENDBRANCH  30  33
ENDBRANCH  28  29
ENDBRANCH  27  28
ENDBRANCH   1  27
TORSDOF 14
ENDMDL
MODEL 3
REMARK VINA RESULT:     -14.2      3.525      9.935
REMARK SMILES COC(=O)c1ccc(NC(=O)[C@@H]2CC=CC[C@@H]2C(=O)NCCCNC(=O)c2ccc(-c3c4nc(c(-c5c(F)c(F)c(F)c(F)c5F)c5ccc([nH]5)c(-c5c(F)c(F)c(F)c(F)c5F)c5nc(c(-c6c(F)c(F)c(F)c(F)c6F)c6ccc3[nH]6)C=C5)C=C4)cc2)c(C)c1
REMARK SMILES IDX 21 1 20 2 18 3 19 4 17 6 12 7 13 8 14 9 16 10 15 11 10 12
REMARK SMILES IDX 9 13 11 15 8 16 5 17 6 18 92 19 7 20 90 21 91 22 3 23 4 24
REMARK SMILES IDX 2 25 1 26 22 27 23 28 24 29 25 30 26 32 27 33 28 34 89 35
REMARK SMILES IDX 29 36 88 37 30 38 31 39 32 40 82 41 33 42 87 43 81 44 83 45
REMARK SMILES IDX 34 46 86 47 80 48 79 49 35 51 67 52 47 53 66 54 48 55 51 56
REMARK SMILES IDX 65 57 84 58 49 59 50 60 64 62 85 63 52 64 36 65 37 66 45 67
REMARK SMILES IDX 38 68 39 69 43 70 46 71 40 72 41 73 44 74 42 75 68 76 69 77
REMARK SMILES IDX 77 78 70 79 71 80 75 81 78 82 72 83 73 84 76 85 74 86 53 87
REMARK SMILES IDX 54 88 62 89 55 90 56 91 60 92 63 93 57 94 58 95 61 96 59 97
REMARK H PARENT 20 5 9 14 24 31 83 50 51 61
REMARK Flexibility Score: inf
ROOT
ATOM      1  C   UNL A   1      31.810  29.837  25.842  1.00  0.00     0.117 C 
ENDROOT
BRANCH   1   2
ATOM      2  N   UNL A   1      32.792  29.627  24.784  1.00  0.00    -0.356 N 
ATOM      3  C   UNL A   1      33.390  28.556  24.205  1.00  0.00     0.224 C 
ATOM      4  O   UNL A   1      34.178  28.853  23.297  1.00  0.00    -0.275 OA
ATOM      5  H   UNL A   1      33.099  30.475  24.390  1.00  0.00     0.163 HD
BRANCH   3   6
ATOM      6  C   UNL A   1      33.204  27.072  24.555  1.00  0.00     0.095 C 
ATOM      7  C   UNL A   1      32.592  26.194  23.456  1.00  0.00     0.095 C 
ATOM      8  C   UNL A   1      31.161  26.636  23.146  1.00  0.00     0.041 C 
ATOM      9  C   UNL A   1      30.344  26.603  24.410  1.00  0.00    -0.030 C 
ATOM     10  C   UNL A   1      32.416  26.693  25.832  1.00  0.00     0.041 C 
ATOM     11  C   UNL A   1      30.916  26.589  25.627  1.00  0.00    -0.030 C 
BRANCH   7  12
ATOM     12  C   UNL A   1      33.316  25.758  22.213  1.00  0.00     0.228 C 
ATOM     13  N   UNL A   1      33.573  24.412  22.017  1.00  0.00    -0.326 N 
ATOM     14  H   UNL A   1      33.975  24.235  21.137  1.00  0.00     0.169 HD
ATOM     15  O   UNL A   1      33.672  26.550  21.343  1.00  0.00    -0.274 OA
BRANCH  13  16
ATOM     16  C   UNL A   1      33.399  23.214  22.779  1.00  0.00     0.044 A 
ATOM     17  C   UNL A   1      33.097  20.917  24.450  1.00  0.00     0.060 A 
ATOM     18  C   UNL A   1      32.218  21.145  23.407  1.00  0.00     0.018 A 
ATOM     19  C   UNL A   1      34.150  21.812  24.648  1.00  0.00     0.021 A 
ATOM     20  C   UNL A   1      32.381  22.265  22.589  1.00  0.00     0.027 A 
ATOM     21  C   UNL A   1      34.309  22.958  23.832  1.00  0.00    -0.027 A 
ATOM     22  C   UNL A   1      35.470  23.868  24.137  1.00  0.00     0.046 C 
BRANCH  17  23
ATOM     23  C   UNL A   1      32.830  19.751  25.333  1.00  0.00     0.337 C 
ATOM     24  O   UNL A   1      33.265  19.632  26.466  1.00  0.00    -0.246 OA
BRANCH  23  25
ATOM     25  O   UNL A   1      32.102  18.815  24.685  1.00  0.00    -0.465 OA
ATOM     26  C   UNL A   1      32.443  17.490  25.091  1.00  0.00     0.282 C 
ENDBRANCH  23  25
ENDBRANCH  17  23
ENDBRANCH  13  16
ENDBRANCH   7  12
ENDBRANCH   3   6
ENDBRANCH   1   2
BRANCH   1  27
ATOM     27  C   UNL A   1      32.441  30.042  27.216  1.00  0.00     0.042 C 
BRANCH  27  28
ATOM     28  C   UNL A   1      33.864  30.556  27.182  1.00  0.00     0.118 C 
BRANCH  28  29
ATOM     29  N   UNL A   1      34.243  31.436  28.279  1.00  0.00    -0.352 N 
ATOM     30  C   UNL A   1      35.300  31.246  29.163  1.00  0.00     0.251 C 
ATOM     31  H   UNL A   1      33.698  32.246  28.408  1.00  0.00     0.163 HD
ATOM     32  O   UNL A   1      35.526  32.021  30.073  1.00  0.00    -0.269 OA
BRANCH  30  33
ATOM     33  C   UNL A   1      36.214  30.113  28.879  1.00  0.00     0.039 A 
ATOM     34  C   UNL A   1      36.627  29.334  29.962  1.00  0.00     0.014 A 
ATOM     35  C   UNL A   1      36.892  30.074  27.662  1.00  0.00     0.014 A 
ATOM     36  C   UNL A   1      37.868  28.706  29.900  1.00  0.00     0.010 A 
ATOM     37  C   UNL A   1      38.170  29.546  27.644  1.00  0.00     0.010 A 
ATOM     38  C   UNL A   1      38.683  28.921  28.786  1.00  0.00    -0.014 A 
BRANCH  38  39
ATOM     39  C   UNL A   1      40.106  28.594  28.772  1.00  0.00     0.031 A 
ATOM     40  C   UNL A   1      40.553  27.255  28.333  1.00  0.00     0.074 A 
ATOM     41  C   UNL A   1      41.029  29.519  29.123  1.00  0.00     0.049 A 
ATOM     42  N   UNL A   1      41.678  26.719  28.666  1.00  0.00    -0.248 NA
ATOM     43  C   UNL A   1      39.728  26.391  27.502  1.00  0.00     0.031 C 
ATOM     44  C   UNL A   1      42.481  29.422  28.976  1.00  0.00     0.029 A 
ATOM     45  N   UNL A   1      40.840  30.668  29.914  1.00  0.00    -0.354 N 
ATOM     46  C   UNL A   1      41.840  25.575  27.920  1.00  0.00     0.074 A 
ATOM     47  C   UNL A   1      40.578  25.396  27.238  1.00  0.00     0.031 C 
ATOM     48  C   UNL A   1      43.058  30.210  29.897  1.00  0.00     0.029 A 
ATOM     49  C   UNL A   1      41.998  30.745  30.730  1.00  0.00     0.049 A 
ATOM     50  H   UNL A   1      40.072  31.284  29.902  1.00  0.00     0.167 HD
ATOM     51  C   UNL A   1      43.060  24.965  27.889  1.00  0.00     0.037 A 
ATOM     52  C   UNL A   1      41.912  30.618  32.085  1.00  0.00     0.037 A 
ATOM     53  C   UNL A   1      44.009  25.606  28.799  1.00  0.00     0.049 A 
ATOM     54  C   UNL A   1      42.671  29.442  32.663  1.00  0.00     0.074 A 
ATOM     55  C   UNL A   1      45.048  26.511  28.651  1.00  0.00     0.029 A 
ATOM     56  N   UNL A   1      43.757  25.539  30.157  1.00  0.00    -0.354 N 
ATOM     57  N   UNL A   1      43.330  28.565  31.956  1.00  0.00    -0.248 NA
ATOM     58  C   UNL A   1      42.651  29.103  34.087  1.00  0.00     0.031 C 
ATOM     59  C   UNL A   1      45.417  26.982  29.945  1.00  0.00     0.029 A 
ATOM     60  C   UNL A   1      44.600  26.365  30.874  1.00  0.00     0.049 A 
ATOM     61  H   UNL A   1      43.062  24.974  30.563  1.00  0.00     0.167 HD
ATOM     62  C   UNL A   1      43.764  27.556  32.775  1.00  0.00     0.074 A 
ATOM     63  C   UNL A   1      43.313  27.934  34.100  1.00  0.00     0.031 C 
ATOM     64  C   UNL A   1      44.425  26.458  32.310  1.00  0.00     0.037 A 
BRANCH  51  65
ATOM     65  C   UNL A   1      43.455  23.918  26.873  1.00  0.00     0.064 A 
ATOM     66  C   UNL A   1      43.005  22.586  26.996  1.00  0.00     0.173 A 
ATOM     67  C   UNL A   1      44.315  24.147  25.783  1.00  0.00     0.173 A 
ATOM     68  F   UNL A   1      42.089  22.236  27.909  1.00  0.00    -0.203 F 
ATOM     69  C   UNL A   1      43.481  21.553  26.182  1.00  0.00     0.198 A 
ATOM     70  C   UNL A   1      44.843  23.106  25.011  1.00  0.00     0.198 A 
ATOM     71  F   UNL A   1      44.620  25.388  25.386  1.00  0.00    -0.203 F 
ATOM     72  F   UNL A   1      43.016  20.306  26.351  1.00  0.00    -0.200 F 
ATOM     73  C   UNL A   1      44.436  21.806  25.221  1.00  0.00     0.200 A 
ATOM     74  F   UNL A   1      45.749  23.377  24.061  1.00  0.00    -0.200 F 
ATOM     75  F   UNL A   1      44.936  20.809  24.479  1.00  0.00    -0.200 F 
ENDBRANCH  51  65
BRANCH  52  76
ATOM     76  C   UNL A   1      40.647  31.177  32.631  1.00  0.00     0.064 A 
ATOM     77  C   UNL A   1      40.491  32.578  32.649  1.00  0.00     0.173 A 
ATOM     78  C   UNL A   1      39.496  30.398  32.773  1.00  0.00     0.173 A 
ATOM     79  F   UNL A   1      41.565  33.375  32.519  1.00  0.00    -0.203 F 
ATOM     80  C   UNL A   1      39.229  33.166  32.668  1.00  0.00     0.198 A 
ATOM     81  C   UNL A   1      38.234  30.991  32.819  1.00  0.00     0.198 A 
ATOM     82  F   UNL A   1      39.574  29.059  32.744  1.00  0.00    -0.203 F 
ATOM     83  F   UNL A   1      39.108  34.495  32.545  1.00  0.00    -0.200 F 
ATOM     84  C   UNL A   1      38.100  32.368  32.725  1.00  0.00     0.200 A 
ATOM     85  F   UNL A   1      37.140  30.218  32.854  1.00  0.00    -0.200 F 
ATOM     86  F   UNL A   1      36.883  32.923  32.644  1.00  0.00    -0.200 F 
ENDBRANCH  52  76
BRANCH  64  87
ATOM     87  C   UNL A   1      44.944  25.365  33.200  1.00  0.00     0.064 A 
ATOM     88  C   UNL A   1      46.315  25.086  33.321  1.00  0.00     0.173 A 
ATOM     89  C   UNL A   1      44.070  24.487  33.873  1.00  0.00     0.173 A 
ATOM     90  F   UNL A   1      47.226  25.820  32.664  1.00  0.00    -0.203 F 
ATOM     91  C   UNL A   1      46.782  24.030  34.108  1.00  0.00     0.198 A 
ATOM     92  C   UNL A   1      44.536  23.404  34.617  1.00  0.00     0.198 A 
ATOM     93  F   UNL A   1      42.742  24.669  33.852  1.00  0.00    -0.203 F 
ATOM     94  F   UNL A   1      48.101  23.834  34.242  1.00  0.00    -0.200 F 
ATOM     95  C   UNL A   1      45.892  23.184  34.746  1.00  0.00     0.200 A 
ATOM     96  F   UNL A   1      43.661  22.579  35.210  1.00  0.00    -0.200 F 
ATOM     97  F   UNL A   1      46.341  22.162  35.486  1.00  0.00    -0.200 F 
ENDBRANCH  64  87
ENDBRANCH  38  39
ENDBRANCH  30  33
ENDBRANCH  28  29
ENDBRANCH  27  28
ENDBRANCH   1  27
TORSDOF 14
ENDMDL
