MODEL 1
REMARK VINA RESULT:     -14.8      0.000      0.000
REMARK SMILES Cc1ccc([C@@H](C)Nc2ccc(N)cc2C(=O)NCCCNC(=O)c2ccc(-c3c4nc(c(-c5c(F)c(F)c(F)c(F)c5F)c5ccc([nH]5)c(-c5c(F)c(F)c(F)c(F)c5F)c5nc(c(-c6c(F)c(F)c(F)c(F)c6F)c6ccc3[nH]6)C=C5)C=C4)cc2)cc1F
REMARK SMILES IDX 19 1 18 2 16 3 17 4 15 6 9 7 10 8 11 9 14 10 12 11 8 12 6 14
REMARK SMILES IDX 7 15 5 16 1 17 2 18 3 19 89 20 4 21 88 22 90 23 13 24 20 27
REMARK SMILES IDX 21 28 22 29 23 30 24 32 25 33 26 34 87 35 27 36 86 37 28 38
REMARK SMILES IDX 29 39 30 40 80 41 31 42 85 43 79 44 81 45 32 46 84 47 78 48
REMARK SMILES IDX 77 49 33 51 65 52 45 53 64 54 46 55 49 56 63 57 82 58 47 59
REMARK SMILES IDX 48 60 62 62 83 63 50 64 34 65 35 66 43 67 36 68 37 69 41 70
REMARK SMILES IDX 44 71 38 72 39 73 42 74 40 75 66 76 67 77 75 78 68 79 69 80
REMARK SMILES IDX 73 81 76 82 70 83 71 84 74 85 72 86 51 87 52 88 60 89 53 90
REMARK SMILES IDX 54 91 58 92 61 93 55 94 56 95 59 96 57 97
REMARK H PARENT 18 5 8 13 13 25 13 26 22 31 81 50 49 61
REMARK Flexibility Score: inf
ROOT
ATOM      1  C   UNL A   1      33.270  28.303  26.975  1.00  0.00     0.118 C 
ENDROOT
BRANCH   1   2
ATOM      2  N   UNL A   1      33.723  27.556  25.801  1.00  0.00    -0.352 N 
ATOM      3  C   UNL A   1      33.191  27.478  24.534  1.00  0.00     0.253 C 
ATOM      4  O   UNL A   1      33.858  26.990  23.623  1.00  0.00    -0.269 OA
ATOM      5  H   UNL A   1      34.540  27.025  25.939  1.00  0.00     0.163 HD
BRANCH   3   6
ATOM      6  C   UNL A   1      31.767  27.805  24.322  1.00  0.00     0.065 A 
ATOM      7  C   UNL A   1      30.708  26.937  24.599  1.00  0.00     0.048 A 
ATOM      8  C   UNL A   1      29.617  27.040  23.718  1.00  0.00     0.028 A 
ATOM      9  C   UNL A   1      29.529  28.056  22.751  1.00  0.00     0.027 A 
ATOM     10  C   UNL A   1      31.605  28.928  23.488  1.00  0.00     0.041 A 
ATOM     11  C   UNL A   1      30.467  29.079  22.713  1.00  0.00     0.032 A 
BRANCH   7  12
ATOM     12  N   UNL A   1      30.633  25.995  25.609  1.00  0.00    -0.378 N 
ATOM     13  H   UNL A   1      30.459  26.369  26.503  1.00  0.00     0.161 HD
BRANCH  12  14
ATOM     14  C   UNL A   1      30.767  24.538  25.580  1.00  0.00     0.106 C 
ATOM     15  C   UNL A   1      30.093  23.797  26.723  1.00  0.00     0.036 C 
BRANCH  14  16
ATOM     16  C   UNL A   1      32.169  24.185  25.135  1.00  0.00    -0.023 A 
ATOM     17  C   UNL A   1      36.653  22.736  23.127  1.00  0.00     0.047 C 
ATOM     18  C   UNL A   1      35.368  23.223  23.714  1.00  0.00    -0.015 A 
ATOM     19  C   UNL A   1      33.898  23.236  22.691  1.00  0.00     0.007 A 
ATOM     20  C   UNL A   1      35.236  23.642  25.470  1.00  0.00     0.126 A 
ATOM     21  C   UNL A   1      32.310  23.780  23.370  1.00  0.00     0.006 A 
ATOM     22  C   UNL A   1      33.658  24.132  26.187  1.00  0.00     0.045 A 
ATOM     23  F   UNL A   1      36.337  23.629  26.230  1.00  0.00    -0.207 F 
ENDBRANCH  14  16
ENDBRANCH  12  14
ENDBRANCH   7  12
BRANCH  11  24
ATOM     24  N   UNL A   1      30.391  30.098  21.779  1.00  0.00    -0.399 N 
ATOM     25  H   UNL A   1      29.682  30.777  21.847  1.00  0.00     0.156 HD
ATOM     26  H   UNL A   1      31.046  30.144  21.046  1.00  0.00     0.156 HD
ENDBRANCH  11  24
ENDBRANCH   3   6
ENDBRANCH   1   2
BRANCH   1  27
ATOM     27  C   UNL A   1      33.185  30.037  26.978  1.00  0.00     0.042 C 
BRANCH  27  28
ATOM     28  C   UNL A   1      34.303  31.687  27.891  1.00  0.00     0.118 C 
BRANCH  28  29
ATOM     29  N   UNL A   1      34.064  32.581  29.233  1.00  0.00    -0.352 N 
ATOM     30  C   UNL A   1      34.820  32.569  30.395  1.00  0.00     0.251 C 
ATOM     31  H   UNL A   1      33.296  33.197  29.217  1.00  0.00     0.163 HD
ATOM     32  O   UNL A   1      34.403  32.977  31.467  1.00  0.00    -0.269 OA
BRANCH  30  33
ATOM     33  C   UNL A   1      36.212  32.139  30.229  1.00  0.00     0.039 A 
ATOM     34  C   UNL A   1      37.214  32.892  29.610  1.00  0.00     0.014 A 
ATOM     35  C   UNL A   1      36.492  30.954  30.900  1.00  0.00     0.014 A 
ATOM     36  C   UNL A   1      38.520  32.417  29.679  1.00  0.00     0.010 A 
ATOM     37  C   UNL A   1      37.763  30.759  31.305  1.00  0.00     0.010 A 
ATOM     38  C   UNL A   1      38.759  31.336  30.525  1.00  0.00    -0.014 A 
BRANCH  38  39
ATOM     39  C   UNL A   1      39.970  30.549  30.615  1.00  0.00     0.031 A 
ATOM     40  C   UNL A   1      39.966  29.243  29.965  1.00  0.00     0.074 A 
ATOM     41  C   UNL A   1      41.014  31.285  31.078  1.00  0.00     0.049 A 
ATOM     42  N   UNL A   1      40.567  28.200  30.406  1.00  0.00    -0.248 NA
ATOM     43  C   UNL A   1      39.166  28.962  28.769  1.00  0.00     0.031 C 
ATOM     44  C   UNL A   1      42.454  31.162  30.968  1.00  0.00     0.029 A 
ATOM     45  N   UNL A   1      40.872  32.471  31.839  1.00  0.00    -0.354 N 
ATOM     46  C   UNL A   1      40.665  27.366  29.311  1.00  0.00     0.074 A 
ATOM     47  C   UNL A   1      39.557  27.719  28.463  1.00  0.00     0.031 C 
ATOM     48  C   UNL A   1      43.026  31.951  31.906  1.00  0.00     0.029 A 
ATOM     49  C   UNL A   1      41.962  32.543  32.709  1.00  0.00     0.049 A 
ATOM     50  H   UNL A   1      40.139  33.124  31.768  1.00  0.00     0.167 HD
ATOM     51  C   UNL A   1      41.865  26.761  29.062  1.00  0.00     0.037 A 
ATOM     52  C   UNL A   1      41.676  32.314  34.026  1.00  0.00     0.037 A 
ATOM     53  C   UNL A   1      42.870  27.285  29.995  1.00  0.00     0.049 A 
ATOM     54  C   UNL A   1      42.099  30.918  34.426  1.00  0.00     0.074 A 
ATOM     55  C   UNL A   1      43.916  28.187  29.896  1.00  0.00     0.029 A 
ATOM     56  N   UNL A   1      42.626  27.159  31.345  1.00  0.00    -0.354 N 
ATOM     57  N   UNL A   1      42.484  30.007  33.574  1.00  0.00    -0.248 NA
ATOM     58  C   UNL A   1      42.112  30.429  35.796  1.00  0.00     0.031 C 
ATOM     59  C   UNL A   1      44.322  28.542  31.224  1.00  0.00     0.029 A 
ATOM     60  C   UNL A   1      43.502  27.878  32.119  1.00  0.00     0.049 A 
ATOM     61  H   UNL A   1      41.899  26.610  31.717  1.00  0.00     0.167 HD
ATOM     62  C   UNL A   1      42.832  28.862  34.224  1.00  0.00     0.074 A 
ATOM     63  C   UNL A   1      42.520  29.159  35.615  1.00  0.00     0.031 C 
ATOM     64  C   UNL A   1      43.342  27.776  33.561  1.00  0.00     0.037 A 
BRANCH  51  65
ATOM     65  C   UNL A   1      42.237  25.905  27.873  1.00  0.00     0.064 A 
ATOM     66  C   UNL A   1      41.768  24.572  27.792  1.00  0.00     0.173 A 
ATOM     67  C   UNL A   1      42.957  26.341  26.744  1.00  0.00     0.173 A 
ATOM     68  F   UNL A   1      41.003  24.036  28.751  1.00  0.00    -0.203 F 
ATOM     69  C   UNL A   1      42.034  23.740  26.704  1.00  0.00     0.198 A 
ATOM     70  C   UNL A   1      43.245  25.497  25.663  1.00  0.00     0.198 A 
ATOM     71  F   UNL A   1      43.356  27.610  26.608  1.00  0.00    -0.203 F 
ATOM     72  F   UNL A   1      41.541  22.494  26.690  1.00  0.00    -0.200 F 
ATOM     73  C   UNL A   1      42.781  24.198  25.643  1.00  0.00     0.200 A 
ATOM     74  F   UNL A   1      43.955  25.964  24.626  1.00  0.00    -0.200 F 
ATOM     75  F   UNL A   1      43.026  23.402  24.593  1.00  0.00    -0.200 F 
ENDBRANCH  51  65
BRANCH  52  76
ATOM     76  C   UNL A   1      40.404  33.030  34.415  1.00  0.00     0.064 A 
ATOM     77  C   UNL A   1      39.288  32.216  34.723  1.00  0.00     0.173 A 
ATOM     78  C   UNL A   1      40.403  34.329  34.946  1.00  0.00     0.173 A 
ATOM     79  F   UNL A   1      39.217  30.967  34.235  1.00  0.00    -0.203 F 
ATOM     80  C   UNL A   1      38.327  32.609  35.655  1.00  0.00     0.198 A 
ATOM     81  C   UNL A   1      39.407  34.737  35.845  1.00  0.00     0.198 A 
ATOM     82  F   UNL A   1      41.423  35.163  34.700  1.00  0.00    -0.203 F 
ATOM     83  F   UNL A   1      37.388  31.739  36.058  1.00  0.00    -0.200 F 
ATOM     84  C   UNL A   1      38.404  33.860  36.236  1.00  0.00     0.200 A 
ATOM     85  F   UNL A   1      39.469  35.956  36.401  1.00  0.00    -0.200 F 
ATOM     86  F   UNL A   1      37.534  34.203  37.197  1.00  0.00    -0.200 F 
ENDBRANCH  52  76
BRANCH  64  87
ATOM     87  C   UNL A   1      43.657  26.457  34.219  1.00  0.00     0.064 A 
ATOM     88  C   UNL A   1      42.660  25.608  34.707  1.00  0.00     0.173 A 
ATOM     89  C   UNL A   1      44.988  26.007  34.426  1.00  0.00     0.173 A 
ATOM     90  F   UNL A   1      41.382  26.008  34.766  1.00  0.00    -0.203 F 
ATOM     91  C   UNL A   1      42.958  24.332  35.186  1.00  0.00     0.198 A 
ATOM     92  C   UNL A   1      45.285  24.762  34.960  1.00  0.00     0.198 A 
ATOM     93  F   UNL A   1      46.066  26.733  34.112  1.00  0.00    -0.203 F 
ATOM     94  F   UNL A   1      41.959  23.513  35.538  1.00  0.00    -0.200 F 
ATOM     95  C   UNL A   1      44.268  23.904  35.297  1.00  0.00     0.200 A 
ATOM     96  F   UNL A   1      46.567  24.403  35.121  1.00  0.00    -0.200 F 
ATOM     97  F   UNL A   1      44.551  22.675  35.744  1.00  0.00    -0.200 F 
ENDBRANCH  64  87
ENDBRANCH  38  39
ENDBRANCH  30  33
ENDBRANCH  28  29
ENDBRANCH  27  28
ENDBRANCH   1  27
TORSDOF 14
ENDMDL
MODEL 2
REMARK VINA RESULT:     -14.7      2.745      5.214
REMARK SMILES Cc1ccc([C@@H](C)Nc2ccc(N)cc2C(=O)NCCCNC(=O)c2ccc(-c3c4nc(c(-c5c(F)c(F)c(F)c(F)c5F)c5ccc([nH]5)c(-c5c(F)c(F)c(F)c(F)c5F)c5nc(c(-c6c(F)c(F)c(F)c(F)c6F)c6ccc3[nH]6)C=C5)C=C4)cc2)cc1F
REMARK SMILES IDX 19 1 18 2 16 3 17 4 15 6 9 7 10 8 11 9 14 10 12 11 8 12 6 14
REMARK SMILES IDX 7 15 5 16 1 17 2 18 3 19 89 20 4 21 88 22 90 23 13 24 20 27
REMARK SMILES IDX 21 28 22 29 23 30 24 32 25 33 26 34 87 35 27 36 86 37 28 38
REMARK SMILES IDX 29 39 30 40 80 41 31 42 85 43 79 44 81 45 32 46 84 47 78 48
REMARK SMILES IDX 77 49 33 51 65 52 45 53 64 54 46 55 49 56 63 57 82 58 47 59
REMARK SMILES IDX 48 60 62 62 83 63 50 64 34 65 35 66 43 67 36 68 37 69 41 70
REMARK SMILES IDX 44 71 38 72 39 73 42 74 40 75 66 76 67 77 75 78 68 79 69 80
REMARK SMILES IDX 73 81 76 82 70 83 71 84 74 85 72 86 51 87 52 88 60 89 53 90
REMARK SMILES IDX 54 91 58 92 61 93 55 94 56 95 59 96 57 97
REMARK H PARENT 18 5 8 13 13 25 13 26 22 31 81 50 49 61
REMARK Flexibility Score: inf
ROOT
ATOM      1  C   UNL A   1      34.510  24.594  25.562  1.00  0.00     0.118 C 
ENDROOT
BRANCH   1   2
ATOM      2  N   UNL A   1      35.358  24.471  24.375  1.00  0.00    -0.352 N 
ATOM      3  C   UNL A   1      35.937  23.361  23.804  1.00  0.00     0.253 C 
ATOM      4  O   UNL A   1      36.411  23.436  22.671  1.00  0.00    -0.269 OA
ATOM      5  H   UNL A   1      35.542  25.318  23.910  1.00  0.00     0.163 HD
BRANCH   3   6
ATOM      6  C   UNL A   1      36.153  22.151  24.623  1.00  0.00     0.065 A 
ATOM      7  C   UNL A   1      37.408  21.657  24.987  1.00  0.00     0.048 A 
ATOM      8  C   UNL A   1      37.489  20.256  25.061  1.00  0.00     0.028 A 
ATOM      9  C   UNL A   1      36.355  19.433  24.954  1.00  0.00     0.027 A 
ATOM     10  C   UNL A   1      34.993  21.355  24.698  1.00  0.00     0.041 A 
ATOM     11  C   UNL A   1      35.083  19.987  24.894  1.00  0.00     0.032 A 
BRANCH   7  12
ATOM     12  N   UNL A   1      38.556  22.383  25.250  1.00  0.00    -0.378 N 
ATOM     13  H   UNL A   1      38.858  22.950  24.504  1.00  0.00     0.161 HD
BRANCH  12  14
ATOM     14  C   UNL A   1      39.398  22.454  26.444  1.00  0.00     0.106 C 
ATOM     15  C   UNL A   1      39.452  23.811  27.126  1.00  0.00     0.036 C 
BRANCH  14  16
ATOM     16  C   UNL A   1      40.655  21.647  26.205  1.00  0.00    -0.023 A 
ATOM     17  C   UNL A   1      45.121  19.406  25.080  1.00  0.00     0.047 C 
ATOM     18  C   UNL A   1      43.832  20.050  25.474  1.00  0.00    -0.015 A 
ATOM     19  C   UNL A   1      43.644  21.818  25.254  1.00  0.00     0.007 A 
ATOM     20  C   UNL A   1      42.414  19.062  26.013  1.00  0.00     0.126 A 
ATOM     21  C   UNL A   1      42.086  22.636  25.682  1.00  0.00     0.006 A 
ATOM     22  C   UNL A   1      40.834  19.842  26.389  1.00  0.00     0.045 A 
ATOM     23  F   UNL A   1      42.559  17.742  26.173  1.00  0.00    -0.207 F 
ENDBRANCH  14  16
ENDBRANCH  12  14
ENDBRANCH   7  12
BRANCH  11  24
ATOM     24  N   UNL A   1      33.950  19.196  24.803  1.00  0.00    -0.399 N 
ATOM     25  H   UNL A   1      33.548  19.010  23.924  1.00  0.00     0.156 HD
ATOM     26  H   UNL A   1      33.547  18.818  25.618  1.00  0.00     0.156 HD
ENDBRANCH  11  24
ENDBRANCH   3   6
ENDBRANCH   1   2
BRANCH   1  27
ATOM     27  C   UNL A   1      33.722  26.086  25.970  1.00  0.00     0.042 C 
BRANCH  27  28
ATOM     28  C   UNL A   1      34.332  28.152  26.374  1.00  0.00     0.118 C 
BRANCH  28  29
ATOM     29  N   UNL A   1      33.495  29.537  26.573  1.00  0.00    -0.352 N 
ATOM     30  C   UNL A   1      33.776  30.569  27.456  1.00  0.00     0.251 C 
ATOM     31  H   UNL A   1      32.701  29.654  26.004  1.00  0.00     0.163 HD
ATOM     32  O   UNL A   1      32.946  31.391  27.809  1.00  0.00    -0.269 OA
BRANCH  30  33
ATOM     33  C   UNL A   1      35.183  30.683  27.854  1.00  0.00     0.039 A 
ATOM     34  C   UNL A   1      35.935  31.861  27.809  1.00  0.00     0.014 A 
ATOM     35  C   UNL A   1      35.670  29.523  28.444  1.00  0.00     0.014 A 
ATOM     36  C   UNL A   1      37.205  31.843  28.376  1.00  0.00     0.010 A 
ATOM     37  C   UNL A   1      36.679  29.657  29.328  1.00  0.00     0.010 A 
ATOM     38  C   UNL A   1      37.554  30.716  29.118  1.00  0.00    -0.014 A 
BRANCH  38  39
ATOM     39  C   UNL A   1      38.865  30.379  29.628  1.00  0.00     0.031 A 
ATOM     40  C   UNL A   1      39.466  29.137  29.155  1.00  0.00     0.074 A 
ATOM     41  C   UNL A   1      39.437  31.428  30.276  1.00  0.00     0.049 A 
ATOM     42  N   UNL A   1      40.203  28.361  29.860  1.00  0.00    -0.248 NA
ATOM     43  C   UNL A   1      39.190  28.588  27.824  1.00  0.00     0.031 C 
ATOM     44  C   UNL A   1      40.806  31.790  30.584  1.00  0.00     0.029 A 
ATOM     45  N   UNL A   1      38.709  32.510  30.829  1.00  0.00    -0.354 N 
ATOM     46  C   UNL A   1      40.879  27.590  28.937  1.00  0.00     0.074 A 
ATOM     47  C   UNL A   1      40.024  27.541  27.781  1.00  0.00     0.031 C 
ATOM     48  C   UNL A   1      40.794  32.739  31.548  1.00  0.00     0.029 A 
ATOM     49  C   UNL A   1      39.409  32.955  31.952  1.00  0.00     0.049 A 
ATOM     50  H   UNL A   1      37.866  32.881  30.484  1.00  0.00     0.167 HD
ATOM     51  C   UNL A   1      42.225  27.415  29.101  1.00  0.00     0.037 A 
ATOM     52  C   UNL A   1      38.830  32.664  33.156  1.00  0.00     0.037 A 
ATOM     53  C   UNL A   1      42.688  28.259  30.210  1.00  0.00     0.049 A 
ATOM     54  C   UNL A   1      39.529  31.494  33.812  1.00  0.00     0.074 A 
ATOM     55  C   UNL A   1      43.377  29.455  30.303  1.00  0.00     0.029 A 
ATOM     56  N   UNL A   1      42.104  28.079  31.444  1.00  0.00    -0.354 N 
ATOM     57  N   UNL A   1      40.417  30.751  33.209  1.00  0.00    -0.248 NA
ATOM     58  C   UNL A   1      39.284  31.058  35.179  1.00  0.00     0.031 C 
ATOM     59  C   UNL A   1      43.235  29.946  31.643  1.00  0.00     0.029 A 
ATOM     60  C   UNL A   1      42.436  29.061  32.345  1.00  0.00     0.049 A 
ATOM     61  H   UNL A   1      41.510  27.325  31.660  1.00  0.00     0.167 HD
ATOM     62  C   UNL A   1      40.894  29.796  34.055  1.00  0.00     0.074 A 
ATOM     63  C   UNL A   1      40.105  29.995  35.263  1.00  0.00     0.031 C 
ATOM     64  C   UNL A   1      41.893  28.933  33.687  1.00  0.00     0.037 A 
BRANCH  51  65
ATOM     65  C   UNL A   1      43.184  26.714  28.167  1.00  0.00     0.064 A 
ATOM     66  C   UNL A   1      43.600  25.391  28.449  1.00  0.00     0.173 A 
ATOM     67  C   UNL A   1      43.657  27.227  26.943  1.00  0.00     0.173 A 
ATOM     68  F   UNL A   1      43.172  24.736  29.535  1.00  0.00    -0.203 F 
ATOM     69  C   UNL A   1      44.447  24.667  27.609  1.00  0.00     0.198 A 
ATOM     70  C   UNL A   1      44.528  26.509  26.113  1.00  0.00     0.198 A 
ATOM     71  F   UNL A   1      43.252  28.410  26.470  1.00  0.00    -0.203 F 
ATOM     72  F   UNL A   1      44.784  23.412  27.934  1.00  0.00    -0.200 F 
ATOM     73  C   UNL A   1      44.920  25.228  26.445  1.00  0.00     0.200 A 
ATOM     74  F   UNL A   1      44.963  27.060  24.970  1.00  0.00    -0.200 F 
ATOM     75  F   UNL A   1      45.723  24.529  25.632  1.00  0.00    -0.200 F 
ENDBRANCH  51  65
BRANCH  52  76
ATOM     76  C   UNL A   1      37.343  32.921  33.093  1.00  0.00     0.064 A 
ATOM     77  C   UNL A   1      36.925  34.265  33.245  1.00  0.00     0.173 A 
ATOM     78  C   UNL A   1      36.456  32.055  32.434  1.00  0.00     0.173 A 
ATOM     79  F   UNL A   1      37.717  35.143  33.880  1.00  0.00    -0.203 F 
ATOM     80  C   UNL A   1      35.781  34.754  32.613  1.00  0.00     0.198 A 
ATOM     81  C   UNL A   1      35.282  32.543  31.843  1.00  0.00     0.198 A 
ATOM     82  F   UNL A   1      36.777  30.767  32.252  1.00  0.00    -0.203 F 
ATOM     83  F   UNL A   1      35.517  36.069  32.628  1.00  0.00    -0.200 F 
ATOM     84  C   UNL A   1      34.975  33.897  31.889  1.00  0.00     0.200 A 
ATOM     85  F   UNL A   1      34.489  31.712  31.151  1.00  0.00    -0.200 F 
ATOM     86  F   UNL A   1      33.928  34.383  31.209  1.00  0.00    -0.200 F 
ENDBRANCH  52  76
BRANCH  64  87
ATOM     87  C   UNL A   1      42.394  27.804  34.552  1.00  0.00     0.064 A 
ATOM     88  C   UNL A   1      43.657  27.824  35.148  1.00  0.00     0.173 A 
ATOM     89  C   UNL A   1      41.635  26.627  34.783  1.00  0.00     0.173 A 
ATOM     90  F   UNL A   1      44.551  28.774  34.839  1.00  0.00    -0.203 F 
ATOM     91  C   UNL A   1      44.052  26.840  36.056  1.00  0.00     0.198 A 
ATOM     92  C   UNL A   1      42.056  25.619  35.639  1.00  0.00     0.198 A 
ATOM     93  F   UNL A   1      40.447  26.393  34.214  1.00  0.00    -0.203 F 
ATOM     94  F   UNL A   1      45.227  26.961  36.687  1.00  0.00    -0.200 F 
ATOM     95  C   UNL A   1      43.245  25.747  36.312  1.00  0.00     0.200 A 
ATOM     96  F   UNL A   1      41.282  24.537  35.813  1.00  0.00    -0.200 F 
ATOM     97  F   UNL A   1      43.619  24.812  37.193  1.00  0.00    -0.200 F 
ENDBRANCH  64  87
ENDBRANCH  38  39
ENDBRANCH  30  33
ENDBRANCH  28  29
ENDBRANCH  27  28
ENDBRANCH   1  27
TORSDOF 14
ENDMDL
MODEL 3
REMARK VINA RESULT:     -14.7      2.419      3.746
REMARK SMILES Cc1ccc([C@@H](C)Nc2ccc(N)cc2C(=O)NCCCNC(=O)c2ccc(-c3c4nc(c(-c5c(F)c(F)c(F)c(F)c5F)c5ccc([nH]5)c(-c5c(F)c(F)c(F)c(F)c5F)c5nc(c(-c6c(F)c(F)c(F)c(F)c6F)c6ccc3[nH]6)C=C5)C=C4)cc2)cc1F
REMARK SMILES IDX 19 1 18 2 16 3 17 4 15 6 9 7 10 8 11 9 14 10 12 11 8 12 6 14
REMARK SMILES IDX 7 15 5 16 1 17 2 18 3 19 89 20 4 21 88 22 90 23 13 24 20 27
REMARK SMILES IDX 21 28 22 29 23 30 24 32 25 33 26 34 87 35 27 36 86 37 28 38
REMARK SMILES IDX 29 39 30 40 80 41 31 42 85 43 79 44 81 45 32 46 84 47 78 48
REMARK SMILES IDX 77 49 33 51 65 52 45 53 64 54 46 55 49 56 63 57 82 58 47 59
REMARK SMILES IDX 48 60 62 62 83 63 50 64 34 65 35 66 43 67 36 68 37 69 41 70
REMARK SMILES IDX 44 71 38 72 39 73 42 74 40 75 66 76 67 77 75 78 68 79 69 80
REMARK SMILES IDX 73 81 76 82 70 83 71 84 74 85 72 86 51 87 52 88 60 89 53 90
REMARK SMILES IDX 54 91 58 92 61 93 55 94 56 95 59 96 57 97
REMARK H PARENT 18 5 8 13 13 25 13 26 22 31 81 50 49 61
REMARK Flexibility Score: inf
ROOT
ATOM      1  C   UNL A   1      32.838  26.727  24.827  1.00  0.00     0.118 C 
ENDROOT
BRANCH   1   2
ATOM      2  N   UNL A   1      32.711  25.547  25.684  1.00  0.00    -0.352 N 
ATOM      3  C   UNL A   1      33.566  24.485  25.872  1.00  0.00     0.253 C 
ATOM      4  O   UNL A   1      33.386  23.720  26.818  1.00  0.00    -0.269 OA
ATOM      5  H   UNL A   1      31.881  25.508  26.210  1.00  0.00     0.163 HD
BRANCH   3   6
ATOM      6  C   UNL A   1      34.569  24.167  24.836  1.00  0.00     0.065 A 
ATOM      7  C   UNL A   1      34.282  23.528  23.628  1.00  0.00     0.048 A 
ATOM      8  C   UNL A   1      35.295  22.674  23.160  1.00  0.00     0.028 A 
ATOM      9  C   UNL A   1      36.561  22.609  23.766  1.00  0.00     0.027 A 
ATOM     10  C   UNL A   1      35.883  24.248  25.338  1.00  0.00     0.041 A 
ATOM     11  C   UNL A   1      36.902  23.488  24.787  1.00  0.00     0.032 A 
BRANCH   7  12
ATOM     12  N   UNL A   1      33.125  23.627  22.876  1.00  0.00    -0.378 N 
ATOM     13  H   UNL A   1      33.155  24.316  22.173  1.00  0.00     0.161 HD
BRANCH  12  14
ATOM     14  C   UNL A   1      31.865  22.887  22.945  1.00  0.00     0.106 C 
ATOM     15  C   UNL A   1      30.687  23.654  23.523  1.00  0.00     0.036 C 
BRANCH  14  16
ATOM     16  C   UNL A   1      32.156  21.464  23.367  1.00  0.00    -0.023 A 
ATOM     17  C   UNL A   1      32.899  16.473  24.248  1.00  0.00     0.047 C 
ATOM     18  C   UNL A   1      32.749  17.939  24.000  1.00  0.00    -0.015 A 
ATOM     19  C   UNL A   1      32.382  18.504  22.341  1.00  0.00     0.007 A 
ATOM     20  C   UNL A   1      32.770  19.130  25.364  1.00  0.00     0.126 A 
ATOM     21  C   UNL A   1      32.153  20.267  22.000  1.00  0.00     0.006 A 
ATOM     22  C   UNL A   1      32.488  20.883  25.063  1.00  0.00     0.045 A 
ATOM     23  F   UNL A   1      33.042  18.702  26.602  1.00  0.00    -0.207 F 
ENDBRANCH  14  16
ENDBRANCH  12  14
ENDBRANCH   7  12
BRANCH  11  24
ATOM     24  N   UNL A   1      38.148  23.453  25.389  1.00  0.00    -0.399 N 
ATOM     25  H   UNL A   1      38.661  22.613  25.411  1.00  0.00     0.156 HD
ATOM     26  H   UNL A   1      38.522  24.267  25.794  1.00  0.00     0.156 HD
ENDBRANCH  11  24
ENDBRANCH   3   6
ENDBRANCH   1   2
BRANCH   1  27
ATOM     27  C   UNL A   1      33.862  28.061  25.256  1.00  0.00     0.042 C 
BRANCH  27  28
ATOM     28  C   UNL A   1      34.324  29.195  27.075  1.00  0.00     0.118 C 
BRANCH  28  29
ATOM     29  N   UNL A   1      34.405  30.791  27.397  1.00  0.00    -0.352 N 
ATOM     30  C   UNL A   1      35.132  31.409  28.403  1.00  0.00     0.251 C 
ATOM     31  H   UNL A   1      33.878  31.383  26.812  1.00  0.00     0.163 HD
ATOM     32  O   UNL A   1      34.884  32.531  28.813  1.00  0.00    -0.269 OA
BRANCH  30  33
ATOM     33  C   UNL A   1      36.308  30.667  28.868  1.00  0.00     0.039 A 
ATOM     34  C   UNL A   1      36.297  29.701  29.879  1.00  0.00     0.014 A 
ATOM     35  C   UNL A   1      37.434  30.901  28.088  1.00  0.00     0.014 A 
ATOM     36  C   UNL A   1      37.461  28.969  30.091  1.00  0.00     0.010 A 
ATOM     37  C   UNL A   1      38.359  29.921  28.029  1.00  0.00     0.010 A 
ATOM     38  C   UNL A   1      38.482  29.114  29.154  1.00  0.00    -0.014 A 
BRANCH  38  39
ATOM     39  C   UNL A   1      39.839  28.623  29.259  1.00  0.00     0.031 A 
ATOM     40  C   UNL A   1      40.075  27.231  28.890  1.00  0.00     0.074 A 
ATOM     41  C   UNL A   1      40.727  29.636  29.439  1.00  0.00     0.049 A 
ATOM     42  N   UNL A   1      40.920  26.453  29.459  1.00  0.00    -0.248 NA
ATOM     43  C   UNL A   1      39.273  26.540  27.876  1.00  0.00     0.031 C 
ATOM     44  C   UNL A   1      42.148  29.780  29.189  1.00  0.00     0.029 A 
ATOM     45  N   UNL A   1      40.384  30.909  29.957  1.00  0.00    -0.354 N 
ATOM     46  C   UNL A   1      41.119  25.433  28.550  1.00  0.00     0.074 A 
ATOM     47  C   UNL A   1      39.903  25.363  27.784  1.00  0.00     0.031 C 
ATOM     48  C   UNL A   1      42.598  30.855  29.875  1.00  0.00     0.029 A 
ATOM     49  C   UNL A   1      41.491  31.386  30.661  1.00  0.00     0.049 A 
ATOM     50  H   UNL A   1      39.523  31.371  29.842  1.00  0.00     0.167 HD
ATOM     51  C   UNL A   1      42.402  25.039  28.290  1.00  0.00     0.037 A 
ATOM     52  C   UNL A   1      41.357  31.403  32.022  1.00  0.00     0.037 A 
ATOM     53  C   UNL A   1      43.332  25.946  28.975  1.00  0.00     0.049 A 
ATOM     54  C   UNL A   1      42.102  30.242  32.642  1.00  0.00     0.074 A 
ATOM     55  C   UNL A   1      44.145  26.992  28.575  1.00  0.00     0.029 A 
ATOM     56  N   UNL A   1      43.219  26.076  30.341  1.00  0.00    -0.354 N 
ATOM     57  N   UNL A   1      42.616  29.260  31.952  1.00  0.00    -0.248 NA
ATOM     58  C   UNL A   1      42.320  30.081  34.072  1.00  0.00     0.031 C 
ATOM     59  C   UNL A   1      44.558  27.706  29.747  1.00  0.00     0.029 A 
ATOM     60  C   UNL A   1      43.969  27.108  30.847  1.00  0.00     0.049 A 
ATOM     61  H   UNL A   1      42.658  25.489  30.898  1.00  0.00     0.167 HD
ATOM     62  C   UNL A   1      43.251  28.379  32.774  1.00  0.00     0.074 A 
ATOM     63  C   UNL A   1      42.983  28.910  34.104  1.00  0.00     0.031 C 
ATOM     64  C   UNL A   1      43.938  27.298  32.288  1.00  0.00     0.037 A 
BRANCH  51  65
ATOM     65  C   UNL A   1      42.866  24.032  27.263  1.00  0.00     0.064 A 
ATOM     66  C   UNL A   1      42.611  22.655  27.462  1.00  0.00     0.173 A 
ATOM     67  C   UNL A   1      43.472  24.341  26.029  1.00  0.00     0.173 A 
ATOM     68  F   UNL A   1      41.971  22.209  28.551  1.00  0.00    -0.203 F 
ATOM     69  C   UNL A   1      42.970  21.675  26.536  1.00  0.00     0.198 A 
ATOM     70  C   UNL A   1      43.856  23.355  25.111  1.00  0.00     0.198 A 
ATOM     71  F   UNL A   1      43.661  25.604  25.633  1.00  0.00    -0.203 F 
ATOM     72  F   UNL A   1      42.680  20.391  26.787  1.00  0.00    -0.200 F 
ATOM     73  C   UNL A   1      43.602  22.022  25.364  1.00  0.00     0.200 A 
ATOM     74  F   UNL A   1      44.450  23.710  23.963  1.00  0.00    -0.200 F 
ATOM     75  F   UNL A   1      43.936  21.083  24.469  1.00  0.00    -0.200 F 
ENDBRANCH  51  65
BRANCH  52  76
ATOM     76  C   UNL A   1      39.990  31.920  32.404  1.00  0.00     0.064 A 
ATOM     77  C   UNL A   1      39.618  33.179  31.876  1.00  0.00     0.173 A 
ATOM     78  C   UNL A   1      38.947  31.068  32.800  1.00  0.00     0.173 A 
ATOM     79  F   UNL A   1      40.566  34.049  31.492  1.00  0.00    -0.203 F 
ATOM     80  C   UNL A   1      38.289  33.490  31.586  1.00  0.00     0.198 A 
ATOM     81  C   UNL A   1      37.610  31.407  32.551  1.00  0.00     0.198 A 
ATOM     82  F   UNL A   1      39.216  29.859  33.312  1.00  0.00    -0.203 F 
ATOM     83  F   UNL A   1      37.994  34.615  30.917  1.00  0.00    -0.200 F 
ATOM     84  C   UNL A   1      37.288  32.590  31.899  1.00  0.00     0.200 A 
ATOM     85  F   UNL A   1      36.633  30.544  32.867  1.00  0.00    -0.200 F 
ATOM     86  F   UNL A   1      36.023  32.850  31.539  1.00  0.00    -0.200 F 
ENDBRANCH  52  76
BRANCH  64  87
ATOM     87  C   UNL A   1      44.581  26.246  33.157  1.00  0.00     0.064 A 
ATOM     88  C   UNL A   1      43.844  25.458  34.045  1.00  0.00     0.173 A 
ATOM     89  C   UNL A   1      45.981  26.015  33.164  1.00  0.00     0.173 A 
ATOM     90  F   UNL A   1      42.552  25.720  34.290  1.00  0.00    -0.203 F 
ATOM     91  C   UNL A   1      44.429  24.398  34.739  1.00  0.00     0.198 A 
ATOM     92  C   UNL A   1      46.571  24.999  33.901  1.00  0.00     0.198 A 
ATOM     93  F   UNL A   1      46.850  26.741  32.451  1.00  0.00    -0.203 F 
ATOM     94  F   UNL A   1      43.660  23.601  35.492  1.00  0.00    -0.200 F 
ATOM     95  C   UNL A   1      45.789  24.160  34.654  1.00  0.00     0.200 A 
ATOM     96  F   UNL A   1      47.902  24.837  33.853  1.00  0.00    -0.200 F 
ATOM     97  F   UNL A   1      46.345  23.134  35.308  1.00  0.00    -0.200 F 
ENDBRANCH  64  87
ENDBRANCH  38  39
ENDBRANCH  30  33
ENDBRANCH  28  29
ENDBRANCH  27  28
ENDBRANCH   1  27
TORSDOF 14
ENDMDL
