MODEL 1
REMARK VINA RESULT:     -13.1      0.000      0.000
REMARK SMILES NC(=O)[C@@H]1CCCCN1C(=O)N[C@H]1C=C[C@@H](C(=O)NCCCNC(=O)c2ccc(-c3c4nc(c(-c5c(F)c(F)c(F)c(F)c5F)c5ccc([nH]5)c(-c5c(F)c(F)c(F)c(F)c5F)c5nc(c(-c6c(F)c(F)c(F)c(F)c6F)c6ccc3[nH]6)C=C5)C=C4)cc2)C1
REMARK SMILES IDX 20 1 19 2 17 3 18 4 16 6 13 7 14 8 89 9 15 10 12 11 10 12
REMARK SMILES IDX 11 13 9 15 4 16 5 17 6 18 8 19 7 20 2 21 1 22 3 25 21 26
REMARK SMILES IDX 22 27 23 28 24 29 25 31 26 32 27 33 88 34 28 35 87 36 29 37
REMARK SMILES IDX 30 38 31 39 81 40 32 41 86 42 80 43 82 44 33 45 85 46 79 47
REMARK SMILES IDX 78 48 34 50 66 51 46 52 65 53 47 54 50 55 64 56 83 57 48 58
REMARK SMILES IDX 49 59 63 61 84 62 51 63 35 64 36 65 44 66 37 67 38 68 42 69
REMARK SMILES IDX 45 70 39 71 40 72 43 73 41 74 67 75 68 76 76 77 69 78 70 79
REMARK SMILES IDX 74 80 77 81 71 82 72 83 75 84 73 85 52 86 53 87 61 88 54 89
REMARK SMILES IDX 55 90 59 91 62 92 56 93 57 94 60 95 58 96
REMARK H PARENT 19 5 12 14 1 23 1 24 23 30 82 49 50 60
REMARK Flexibility Score: inf
ROOT
ATOM      1  C   UNL A   1      31.772  30.687  26.363  1.00  0.00     0.117 C 
ENDROOT
BRANCH   1   2
ATOM      2  N   UNL A   1      31.298  30.279  25.052  1.00  0.00    -0.356 N 
ATOM      3  C   UNL A   1      31.567  29.162  24.321  1.00  0.00     0.227 C 
ATOM      4  O   UNL A   1      31.017  29.059  23.220  1.00  0.00    -0.274 OA
ATOM      5  H   UNL A   1      30.681  30.913  24.622  1.00  0.00     0.163 HD
BRANCH   3   6
ATOM      6  C   UNL A   1      32.532  28.079  24.804  1.00  0.00     0.103 C 
ATOM      7  C   UNL A   1      32.782  25.647  24.597  1.00  0.00     0.107 C 
ATOM      8  C   UNL A   1      33.700  26.387  23.671  1.00  0.00    -0.006 C 
ATOM      9  C   UNL A   1      31.839  26.747  25.107  1.00  0.00     0.047 C 
ATOM     10  C   UNL A   1      33.598  27.713  23.818  1.00  0.00    -0.016 C 
BRANCH   7  11
ATOM     11  N   UNL A   1      32.095  24.590  23.890  1.00  0.00    -0.332 N 
ATOM     12  C   UNL A   1      32.050  23.242  23.951  1.00  0.00     0.318 C 
ATOM     13  O   UNL A   1      31.327  22.730  23.094  1.00  0.00    -0.249 OA
ATOM     14  H   UNL A   1      31.509  24.943  23.182  1.00  0.00     0.165 HD
BRANCH  12  15
ATOM     15  N   UNL A   1      32.733  22.497  24.874  1.00  0.00    -0.313 N 
ATOM     16  C   UNL A   1      32.181  22.308  26.247  1.00  0.00     0.176 C 
ATOM     17  C   UNL A   1      33.271  22.623  27.303  1.00  0.00     0.035 C 
ATOM     18  C   UNL A   1      34.582  21.885  27.050  1.00  0.00     0.004 C 
ATOM     19  C   UNL A   1      33.928  21.685  24.663  1.00  0.00     0.122 C 
ATOM     20  C   UNL A   1      35.040  22.096  25.615  1.00  0.00     0.022 C 
BRANCH  16  21
ATOM     21  C   UNL A   1      30.913  23.057  26.741  1.00  0.00     0.240 C 
ATOM     22  N   UNL A   1      29.739  22.364  26.593  1.00  0.00    -0.368 N 
ATOM     23  H   UNL A   1      28.890  22.769  26.882  1.00  0.00     0.159 HD
ATOM     24  H   UNL A   1      29.746  21.462  26.199  1.00  0.00     0.159 HD
ATOM     25  O   UNL A   1      30.918  24.164  27.271  1.00  0.00    -0.273 OA
ENDBRANCH  16  21
ENDBRANCH  12  15
ENDBRANCH   7  11
ENDBRANCH   3   6
ENDBRANCH   1   2
BRANCH   1  26
ATOM     26  C   UNL A   1      31.559  32.168  26.616  1.00  0.00     0.042 C 
BRANCH  26  27
ATOM     27  C   UNL A   1      32.726  32.826  27.332  1.00  0.00     0.118 C 
BRANCH  27  28
ATOM     28  N   UNL A   1      32.463  34.223  27.662  1.00  0.00    -0.352 N 
ATOM     29  C   UNL A   1      33.015  35.005  28.647  1.00  0.00     0.251 C 
ATOM     30  H   UNL A   1      31.793  34.670  27.097  1.00  0.00     0.163 HD
ATOM     31  O   UNL A   1      32.530  36.102  28.912  1.00  0.00    -0.269 OA
BRANCH  29  32
ATOM     32  C   UNL A   1      34.189  34.514  29.393  1.00  0.00     0.039 A 
ATOM     33  C   UNL A   1      34.007  33.911  30.640  1.00  0.00     0.014 A 
ATOM     34  C   UNL A   1      35.469  34.640  28.849  1.00  0.00     0.014 A 
ATOM     35  C   UNL A   1      35.107  33.371  31.310  1.00  0.00     0.010 A 
ATOM     36  C   UNL A   1      36.542  34.016  29.467  1.00  0.00     0.010 A 
ATOM     37  C   UNL A   1      36.376  33.387  30.710  1.00  0.00    -0.014 A 
BRANCH  37  38
ATOM     38  C   UNL A   1      37.565  32.790  31.365  1.00  0.00     0.031 A 
ATOM     39  C   UNL A   1      38.277  31.647  30.696  1.00  0.00     0.074 A 
ATOM     40  C   UNL A   1      37.939  33.199  32.592  1.00  0.00     0.049 A 
ATOM     41  N   UNL A   1      39.224  30.871  31.158  1.00  0.00    -0.248 NA
ATOM     42  C   UNL A   1      37.834  31.304  29.334  1.00  0.00     0.031 C 
ATOM     43  C   UNL A   1      37.302  34.270  33.359  1.00  0.00     0.029 A 
ATOM     44  N   UNL A   1      38.933  32.741  33.421  1.00  0.00    -0.354 N 
ATOM     45  C   UNL A   1      39.466  29.937  30.159  1.00  0.00     0.074 A 
ATOM     46  C   UNL A   1      38.529  30.205  29.090  1.00  0.00     0.031 C 
ATOM     47  C   UNL A   1      37.930  34.396  34.540  1.00  0.00     0.029 A 
ATOM     48  C   UNL A   1      38.978  33.386  34.634  1.00  0.00     0.049 A 
ATOM     49  H   UNL A   1      39.555  32.021  33.170  1.00  0.00     0.167 HD
ATOM     50  C   UNL A   1      40.399  28.958  30.129  1.00  0.00     0.037 A 
ATOM     51  C   UNL A   1      39.762  33.167  35.705  1.00  0.00     0.037 A 
ATOM     52  C   UNL A   1      41.347  28.717  31.184  1.00  0.00     0.049 A 
ATOM     53  C   UNL A   1      40.789  32.065  35.650  1.00  0.00     0.074 A 
ATOM     54  C   UNL A   1      42.370  27.788  31.229  1.00  0.00     0.029 A 
ATOM     55  N   UNL A   1      41.385  29.416  32.382  1.00  0.00    -0.354 N 
ATOM     56  N   UNL A   1      41.047  31.221  34.680  1.00  0.00    -0.248 NA
ATOM     57  C   UNL A   1      41.634  31.888  36.838  1.00  0.00     0.031 C 
ATOM     58  C   UNL A   1      42.995  27.889  32.477  1.00  0.00     0.029 A 
ATOM     59  C   UNL A   1      42.404  28.925  33.182  1.00  0.00     0.049 A 
ATOM     60  H   UNL A   1      40.778  30.151  32.628  1.00  0.00     0.167 HD
ATOM     61  C   UNL A   1      42.108  30.443  35.124  1.00  0.00     0.074 A 
ATOM     62  C   UNL A   1      42.448  30.917  36.448  1.00  0.00     0.031 C 
ATOM     63  C   UNL A   1      42.744  29.427  34.490  1.00  0.00     0.037 A 
BRANCH  50  64
ATOM     64  C   UNL A   1      40.441  28.074  28.914  1.00  0.00     0.064 A 
ATOM     65  C   UNL A   1      41.199  28.409  27.782  1.00  0.00     0.173 A 
ATOM     66  C   UNL A   1      39.732  26.863  28.892  1.00  0.00     0.173 A 
ATOM     67  F   UNL A   1      41.885  29.562  27.745  1.00  0.00    -0.203 F 
ATOM     68  C   UNL A   1      41.219  27.582  26.661  1.00  0.00     0.198 A 
ATOM     69  C   UNL A   1      39.784  26.021  27.785  1.00  0.00     0.198 A 
ATOM     70  F   UNL A   1      38.996  26.490  29.950  1.00  0.00    -0.203 F 
ATOM     71  F   UNL A   1      41.904  27.952  25.570  1.00  0.00    -0.200 F 
ATOM     72  C   UNL A   1      40.519  26.385  26.667  1.00  0.00     0.200 A 
ATOM     73  F   UNL A   1      39.119  24.858  27.797  1.00  0.00    -0.200 F 
ATOM     74  F   UNL A   1      40.546  25.587  25.591  1.00  0.00    -0.200 F 
ENDBRANCH  50  64
BRANCH  51  75
ATOM     75  C   UNL A   1      39.626  34.020  36.915  1.00  0.00     0.064 A 
ATOM     76  C   UNL A   1      38.844  33.603  38.002  1.00  0.00     0.173 A 
ATOM     77  C   UNL A   1      40.260  35.268  37.008  1.00  0.00     0.173 A 
ATOM     78  F   UNL A   1      38.199  32.429  37.951  1.00  0.00    -0.203 F 
ATOM     79  C   UNL A   1      38.682  34.412  39.125  1.00  0.00     0.198 A 
ATOM     80  C   UNL A   1      40.122  36.062  38.144  1.00  0.00     0.198 A 
ATOM     81  F   UNL A   1      41.016  35.714  35.994  1.00  0.00    -0.203 F 
ATOM     82  F   UNL A   1      37.885  34.013  40.125  1.00  0.00    -0.200 F 
ATOM     83  C   UNL A   1      39.325  35.639  39.198  1.00  0.00     0.200 A 
ATOM     84  F   UNL A   1      40.749  37.245  38.216  1.00  0.00    -0.200 F 
ATOM     85  F   UNL A   1      39.167  36.416  40.277  1.00  0.00    -0.200 F 
ENDBRANCH  51  75
BRANCH  63  86
ATOM     86  C   UNL A   1      43.915  28.799  35.188  1.00  0.00     0.064 A 
ATOM     87  C   UNL A   1      45.223  29.276  35.019  1.00  0.00     0.173 A 
ATOM     88  C   UNL A   1      43.712  27.739  36.087  1.00  0.00     0.173 A 
ATOM     89  F   UNL A   1      45.472  30.277  34.163  1.00  0.00    -0.203 F 
ATOM     90  C   UNL A   1      46.287  28.700  35.708  1.00  0.00     0.198 A 
ATOM     91  C   UNL A   1      44.773  27.189  36.799  1.00  0.00     0.198 A 
ATOM     92  F   UNL A   1      42.479  27.252  36.290  1.00  0.00    -0.203 F 
ATOM     93  F   UNL A   1      47.535  29.140  35.498  1.00  0.00    -0.200 F 
ATOM     94  C   UNL A   1      46.060  27.664  36.603  1.00  0.00     0.200 A 
ATOM     95  F   UNL A   1      44.549  26.201  37.676  1.00  0.00    -0.200 F 
ATOM     96  F   UNL A   1      47.085  27.121  37.275  1.00  0.00    -0.200 F 
ENDBRANCH  63  86
ENDBRANCH  37  38
ENDBRANCH  29  32
ENDBRANCH  27  28
ENDBRANCH  26  27
ENDBRANCH   1  26
TORSDOF 13
ENDMDL
MODEL 2
REMARK VINA RESULT:     -13.1      0.107      1.596
REMARK SMILES NC(=O)[C@@H]1CCCCN1C(=O)N[C@H]1C=C[C@@H](C(=O)NCCCNC(=O)c2ccc(-c3c4nc(c(-c5c(F)c(F)c(F)c(F)c5F)c5ccc([nH]5)c(-c5c(F)c(F)c(F)c(F)c5F)c5nc(c(-c6c(F)c(F)c(F)c(F)c6F)c6ccc3[nH]6)C=C5)C=C4)cc2)C1
REMARK SMILES IDX 20 1 19 2 17 3 18 4 16 6 13 7 14 8 89 9 15 10 12 11 10 12
REMARK SMILES IDX 11 13 9 15 4 16 5 17 6 18 8 19 7 20 2 21 1 22 3 25 21 26
REMARK SMILES IDX 22 27 23 28 24 29 25 31 26 32 27 33 88 34 28 35 87 36 29 37
REMARK SMILES IDX 30 38 31 39 81 40 32 41 86 42 80 43 82 44 33 45 85 46 79 47
REMARK SMILES IDX 78 48 34 50 66 51 46 52 65 53 47 54 50 55 64 56 83 57 48 58
REMARK SMILES IDX 49 59 63 61 84 62 51 63 35 64 36 65 44 66 37 67 38 68 42 69
REMARK SMILES IDX 45 70 39 71 40 72 43 73 41 74 67 75 68 76 76 77 69 78 70 79
REMARK SMILES IDX 74 80 77 81 71 82 72 83 75 84 73 85 52 86 53 87 61 88 54 89
REMARK SMILES IDX 55 90 59 91 62 92 56 93 57 94 60 95 58 96
REMARK H PARENT 19 5 12 14 1 23 1 24 23 30 82 49 50 60
REMARK Flexibility Score: inf
ROOT
ATOM      1  C   UNL A   1      31.711  30.587  26.349  1.00  0.00     0.117 C 
ENDROOT
BRANCH   1   2
ATOM      2  N   UNL A   1      31.315  30.235  24.997  1.00  0.00    -0.356 N 
ATOM      3  C   UNL A   1      31.649  29.163  24.228  1.00  0.00     0.227 C 
ATOM      4  O   UNL A   1      31.159  29.103  23.095  1.00  0.00    -0.274 OA
ATOM      5  H   UNL A   1      30.706  30.876  24.567  1.00  0.00     0.163 HD
BRANCH   3   6
ATOM      6  C   UNL A   1      32.614  28.078  24.707  1.00  0.00     0.103 C 
ATOM      7  C   UNL A   1      32.843  25.642  24.525  1.00  0.00     0.107 C 
ATOM      8  C   UNL A   1      33.751  26.364  23.575  1.00  0.00    -0.006 C 
ATOM      9  C   UNL A   1      31.917  26.755  25.038  1.00  0.00     0.047 C 
ATOM     10  C   UNL A   1      33.661  27.692  23.707  1.00  0.00    -0.016 C 
BRANCH   7  11
ATOM     11  N   UNL A   1      32.137  24.582  23.843  1.00  0.00    -0.332 N 
ATOM     12  C   UNL A   1      32.070  23.236  23.933  1.00  0.00     0.318 C 
ATOM     13  O   UNL A   1      31.335  22.719  23.089  1.00  0.00    -0.249 OA
ATOM     14  H   UNL A   1      31.555  24.929  23.129  1.00  0.00     0.165 HD
BRANCH  12  15
ATOM     15  N   UNL A   1      32.743  22.500  24.870  1.00  0.00    -0.313 N 
ATOM     16  C   UNL A   1      32.175  22.321  26.238  1.00  0.00     0.176 C 
ATOM     17  C   UNL A   1      33.252  22.646  27.304  1.00  0.00     0.035 C 
ATOM     18  C   UNL A   1      34.567  21.909  27.072  1.00  0.00     0.004 C 
ATOM     19  C   UNL A   1      33.942  21.689  24.679  1.00  0.00     0.122 C 
ATOM     20  C   UNL A   1      35.042  22.110  25.641  1.00  0.00     0.022 C 
BRANCH  16  21
ATOM     21  C   UNL A   1      30.900  23.070  26.711  1.00  0.00     0.240 C 
ATOM     22  N   UNL A   1      29.728  22.377  26.547  1.00  0.00    -0.368 N 
ATOM     23  H   UNL A   1      28.875  22.782  26.822  1.00  0.00     0.159 HD
ATOM     24  H   UNL A   1      29.741  21.474  26.156  1.00  0.00     0.159 HD
ATOM     25  O   UNL A   1      30.897  24.179  27.237  1.00  0.00    -0.273 OA
ENDBRANCH  16  21
ENDBRANCH  12  15
ENDBRANCH   7  11
ENDBRANCH   3   6
ENDBRANCH   1   2
BRANCH   1  26
ATOM     26  C   UNL A   1      31.474  32.055  26.654  1.00  0.00     0.042 C 
BRANCH  26  27
ATOM     27  C   UNL A   1      32.668  32.730  27.306  1.00  0.00     0.118 C 
BRANCH  27  28
ATOM     28  N   UNL A   1      32.421  34.137  27.604  1.00  0.00    -0.352 N 
ATOM     29  C   UNL A   1      32.984  34.936  28.568  1.00  0.00     0.251 C 
ATOM     30  H   UNL A   1      31.754  34.578  27.031  1.00  0.00     0.163 HD
ATOM     31  O   UNL A   1      32.512  36.044  28.809  1.00  0.00    -0.269 OA
BRANCH  29  32
ATOM     32  C   UNL A   1      34.155  34.450  29.323  1.00  0.00     0.039 A 
ATOM     33  C   UNL A   1      33.963  33.782  30.534  1.00  0.00     0.014 A 
ATOM     34  C   UNL A   1      35.444  34.648  28.821  1.00  0.00     0.014 A 
ATOM     35  C   UNL A   1      35.064  33.248  31.208  1.00  0.00     0.010 A 
ATOM     36  C   UNL A   1      36.522  34.032  29.438  1.00  0.00     0.010 A 
ATOM     37  C   UNL A   1      36.347  33.338  30.645  1.00  0.00    -0.014 A 
BRANCH  37  38
ATOM     38  C   UNL A   1      37.539  32.751  31.303  1.00  0.00     0.031 A 
ATOM     39  C   UNL A   1      38.261  31.612  30.638  1.00  0.00     0.074 A 
ATOM     40  C   UNL A   1      37.908  33.166  32.530  1.00  0.00     0.049 A 
ATOM     41  N   UNL A   1      39.213  30.845  31.104  1.00  0.00    -0.248 NA
ATOM     42  C   UNL A   1      37.823  31.263  29.276  1.00  0.00     0.031 C 
ATOM     43  C   UNL A   1      37.261  34.234  33.294  1.00  0.00     0.029 A 
ATOM     44  N   UNL A   1      38.903  32.718  33.361  1.00  0.00    -0.354 N 
ATOM     45  C   UNL A   1      39.464  29.911  30.107  1.00  0.00     0.074 A 
ATOM     46  C   UNL A   1      38.527  30.169  29.036  1.00  0.00     0.031 C 
ATOM     47  C   UNL A   1      37.886  34.369  34.475  1.00  0.00     0.029 A 
ATOM     48  C   UNL A   1      38.941  33.366  34.573  1.00  0.00     0.049 A 
ATOM     49  H   UNL A   1      39.532  32.002  33.113  1.00  0.00     0.167 HD
ATOM     50  C   UNL A   1      40.405  28.939  30.081  1.00  0.00     0.037 A 
ATOM     51  C   UNL A   1      39.726  33.156  35.646  1.00  0.00     0.037 A 
ATOM     52  C   UNL A   1      41.352  28.708  31.139  1.00  0.00     0.049 A 
ATOM     53  C   UNL A   1      40.761  32.062  35.595  1.00  0.00     0.074 A 
ATOM     54  C   UNL A   1      42.383  27.787  31.188  1.00  0.00     0.029 A 
ATOM     55  N   UNL A   1      41.383  29.410  32.335  1.00  0.00    -0.354 N 
ATOM     56  N   UNL A   1      41.028  31.218  34.628  1.00  0.00    -0.248 NA
ATOM     57  C   UNL A   1      41.605  31.894  36.785  1.00  0.00     0.031 C 
ATOM     58  C   UNL A   1      43.005  27.896  32.436  1.00  0.00     0.029 A 
ATOM     59  C   UNL A   1      42.404  28.928  33.138  1.00  0.00     0.049 A 
ATOM     60  H   UNL A   1      40.770  30.141  32.578  1.00  0.00     0.167 HD
ATOM     61  C   UNL A   1      42.093  30.448  35.076  1.00  0.00     0.074 A 
ATOM     62  C   UNL A   1      42.428  30.929  36.399  1.00  0.00     0.031 C 
ATOM     63  C   UNL A   1      42.738  29.436  34.445  1.00  0.00     0.037 A 
BRANCH  50  64
ATOM     64  C   UNL A   1      40.455  28.052  28.869  1.00  0.00     0.064 A 
ATOM     65  C   UNL A   1      41.216  28.389  27.738  1.00  0.00     0.173 A 
ATOM     66  C   UNL A   1      39.754  26.837  28.847  1.00  0.00     0.173 A 
ATOM     67  F   UNL A   1      41.896  29.545  27.701  1.00  0.00    -0.203 F 
ATOM     68  C   UNL A   1      41.245  27.559  26.620  1.00  0.00     0.198 A 
ATOM     69  C   UNL A   1      39.814  25.993  27.742  1.00  0.00     0.198 A 
ATOM     70  F   UNL A   1      39.016  26.462  29.903  1.00  0.00    -0.203 F 
ATOM     71  F   UNL A   1      41.931  27.931  25.530  1.00  0.00    -0.200 F 
ATOM     72  C   UNL A   1      40.551  26.359  26.625  1.00  0.00     0.200 A 
ATOM     73  F   UNL A   1      39.155  24.826  27.754  1.00  0.00    -0.200 F 
ATOM     74  F   UNL A   1      40.585  25.559  25.551  1.00  0.00    -0.200 F 
ENDBRANCH  50  64
BRANCH  51  75
ATOM     75  C   UNL A   1      39.581  34.011  36.854  1.00  0.00     0.064 A 
ATOM     76  C   UNL A   1      40.224  35.254  36.934  1.00  0.00     0.173 A 
ATOM     77  C   UNL A   1      38.810  33.604  37.953  1.00  0.00     0.173 A 
ATOM     78  F   UNL A   1      40.992  35.677  35.919  1.00  0.00    -0.203 F 
ATOM     79  C   UNL A   1      40.123  36.046  38.076  1.00  0.00     0.198 A 
ATOM     80  C   UNL A   1      38.684  34.410  39.082  1.00  0.00     0.198 A 
ATOM     81  F   UNL A   1      38.177  32.422  37.927  1.00  0.00    -0.203 F 
ATOM     82  F   UNL A   1      40.793  37.204  38.147  1.00  0.00    -0.200 F 
ATOM     83  C   UNL A   1      39.348  35.626  39.147  1.00  0.00     0.200 A 
ATOM     84  F   UNL A   1      37.930  34.006  40.114  1.00  0.00    -0.200 F 
ATOM     85  F   UNL A   1      39.253  36.388  40.245  1.00  0.00    -0.200 F 
ENDBRANCH  51  75
BRANCH  63  86
ATOM     86  C   UNL A   1      43.913  28.819  35.147  1.00  0.00     0.064 A 
ATOM     87  C   UNL A   1      43.770  27.730  36.018  1.00  0.00     0.173 A 
ATOM     88  C   UNL A   1      45.211  29.292  34.892  1.00  0.00     0.173 A 
ATOM     89  F   UNL A   1      42.551  27.249  36.303  1.00  0.00    -0.203 F 
ATOM     90  C   UNL A   1      44.881  27.152  36.626  1.00  0.00     0.198 A 
ATOM     91  C   UNL A   1      46.321  28.690  35.477  1.00  0.00     0.198 A 
ATOM     92  F   UNL A   1      45.403  30.327  34.060  1.00  0.00    -0.203 F 
ATOM     93  F   UNL A   1      44.717  26.141  37.491  1.00  0.00    -0.200 F 
ATOM     94  C   UNL A   1      46.154  27.626  36.348  1.00  0.00     0.200 A 
ATOM     95  F   UNL A   1      47.551  29.138  35.193  1.00  0.00    -0.200 F 
ATOM     96  F   UNL A   1      47.223  27.058  36.925  1.00  0.00    -0.200 F 
ENDBRANCH  63  86
ENDBRANCH  37  38
ENDBRANCH  29  32
ENDBRANCH  27  28
ENDBRANCH  26  27
ENDBRANCH   1  26
TORSDOF 13
ENDMDL
MODEL 3
REMARK VINA RESULT:     -13.0      5.630     10.908
REMARK SMILES NC(=O)[C@@H]1CCCCN1C(=O)N[C@H]1C=C[C@@H](C(=O)NCCCNC(=O)c2ccc(-c3c4nc(c(-c5c(F)c(F)c(F)c(F)c5F)c5ccc([nH]5)c(-c5c(F)c(F)c(F)c(F)c5F)c5nc(c(-c6c(F)c(F)c(F)c(F)c6F)c6ccc3[nH]6)C=C5)C=C4)cc2)C1
REMARK SMILES IDX 20 1 19 2 17 3 18 4 16 6 13 7 14 8 89 9 15 10 12 11 10 12
REMARK SMILES IDX 11 13 9 15 4 16 5 17 6 18 8 19 7 20 2 21 1 22 3 25 21 26
REMARK SMILES IDX 22 27 23 28 24 29 25 31 26 32 27 33 88 34 28 35 87 36 29 37
REMARK SMILES IDX 30 38 31 39 81 40 32 41 86 42 80 43 82 44 33 45 85 46 79 47
REMARK SMILES IDX 78 48 34 50 66 51 46 52 65 53 47 54 50 55 64 56 83 57 48 58
REMARK SMILES IDX 49 59 63 61 84 62 51 63 35 64 36 65 44 66 37 67 38 68 42 69
REMARK SMILES IDX 45 70 39 71 40 72 43 73 41 74 67 75 68 76 76 77 69 78 70 79
REMARK SMILES IDX 74 80 77 81 71 82 72 83 75 84 73 85 52 86 53 87 61 88 54 89
REMARK SMILES IDX 55 90 59 91 62 92 56 93 57 94 60 95 58 96
REMARK H PARENT 19 5 12 14 1 23 1 24 23 30 82 49 50 60
REMARK Flexibility Score: inf
ROOT
ATOM      1  C   UNL A   1      37.156  20.880  24.904  1.00  0.00     0.117 C 
ENDROOT
BRANCH   1   2
ATOM      2  N   UNL A   1      35.826  20.411  25.248  1.00  0.00    -0.356 N 
ATOM      3  C   UNL A   1      34.697  21.103  25.562  1.00  0.00     0.227 C 
ATOM      4  O   UNL A   1      33.680  20.447  25.812  1.00  0.00    -0.274 OA
ATOM      5  H   UNL A   1      35.723  19.432  25.253  1.00  0.00     0.163 HD
BRANCH   3   6
ATOM      6  C   UNL A   1      34.667  22.630  25.644  1.00  0.00     0.103 C 
ATOM      7  C   UNL A   1      33.153  24.452  25.007  1.00  0.00     0.107 C 
ATOM      8  C   UNL A   1      33.067  24.136  26.470  1.00  0.00    -0.006 C 
ATOM      9  C   UNL A   1      33.975  23.283  24.444  1.00  0.00     0.047 C 
ATOM     10  C   UNL A   1      33.927  23.174  26.826  1.00  0.00    -0.016 C 
BRANCH   7  11
ATOM     11  N   UNL A   1      31.831  24.550  24.432  1.00  0.00    -0.332 N 
ATOM     12  C   UNL A   1      31.133  25.474  23.737  1.00  0.00     0.318 C 
ATOM     13  O   UNL A   1      29.979  25.129  23.475  1.00  0.00    -0.249 OA
ATOM     14  H   UNL A   1      31.303  23.733  24.586  1.00  0.00     0.165 HD
BRANCH  12  15
ATOM     15  N   UNL A   1      31.645  26.682  23.347  1.00  0.00    -0.313 N 
ATOM     16  C   UNL A   1      32.324  26.821  22.026  1.00  0.00     0.176 C 
ATOM     17  C   UNL A   1      33.690  27.530  22.207  1.00  0.00     0.035 C 
ATOM     18  C   UNL A   1      33.591  28.830  23.000  1.00  0.00     0.004 C 
ATOM     19  C   UNL A   1      31.489  27.975  24.007  1.00  0.00     0.122 C 
ATOM     20  C   UNL A   1      32.843  28.600  24.303  1.00  0.00     0.022 C 
BRANCH  16  21
ATOM     21  C   UNL A   1      32.620  25.601  21.113  1.00  0.00     0.240 C 
ATOM     22  N   UNL A   1      32.075  25.673  19.857  1.00  0.00    -0.368 N 
ATOM     23  H   UNL A   1      32.216  24.939  19.217  1.00  0.00     0.159 HD
ATOM     24  H   UNL A   1      31.542  26.459  19.596  1.00  0.00     0.159 HD
ATOM     25  O   UNL A   1      33.321  24.644  21.432  1.00  0.00    -0.273 OA
ENDBRANCH  16  21
ENDBRANCH  12  15
ENDBRANCH   7  11
ENDBRANCH   3   6
ENDBRANCH   1   2
BRANCH   1  26
ATOM     26  C   UNL A   1      38.200  19.782  25.015  1.00  0.00     0.042 C 
BRANCH  26  27
ATOM     27  C   UNL A   1      39.377  20.164  25.894  1.00  0.00     0.118 C 
BRANCH  27  28
ATOM     28  N   UNL A   1      40.393  19.118  25.954  1.00  0.00    -0.352 N 
ATOM     29  C   UNL A   1      41.752  19.230  26.116  1.00  0.00     0.251 C 
ATOM     30  H   UNL A   1      40.055  18.198  25.864  1.00  0.00     0.163 HD
ATOM     31  O   UNL A   1      42.480  18.256  25.940  1.00  0.00    -0.269 OA
BRANCH  29  32
ATOM     32  C   UNL A   1      42.335  20.532  26.493  1.00  0.00     0.039 A 
ATOM     33  C   UNL A   1      42.864  21.361  25.502  1.00  0.00     0.014 A 
ATOM     34  C   UNL A   1      42.344  20.934  27.831  1.00  0.00     0.014 A 
ATOM     35  C   UNL A   1      43.339  22.628  25.845  1.00  0.00     0.010 A 
ATOM     36  C   UNL A   1      42.723  22.229  28.155  1.00  0.00     0.010 A 
ATOM     37  C   UNL A   1      43.238  23.084  27.169  1.00  0.00    -0.014 A 
BRANCH  37  38
ATOM     38  C   UNL A   1      43.692  24.437  27.574  1.00  0.00     0.031 A 
ATOM     39  C   UNL A   1      42.670  25.478  27.938  1.00  0.00     0.074 A 
ATOM     40  C   UNL A   1      44.998  24.758  27.516  1.00  0.00     0.049 A 
ATOM     41  N   UNL A   1      42.827  26.758  28.157  1.00  0.00    -0.248 NA
ATOM     42  C   UNL A   1      41.272  25.022  28.028  1.00  0.00     0.031 C 
ATOM     43  C   UNL A   1      46.079  23.846  27.138  1.00  0.00     0.029 A 
ATOM     44  N   UNL A   1      45.635  25.950  27.751  1.00  0.00    -0.354 N 
ATOM     45  C   UNL A   1      41.552  27.261  28.380  1.00  0.00     0.074 A 
ATOM     46  C   UNL A   1      40.626  26.162  28.214  1.00  0.00     0.031 C 
ATOM     47  C   UNL A   1      47.246  24.509  27.181  1.00  0.00     0.029 A 
ATOM     48  C   UNL A   1      46.992  25.901  27.538  1.00  0.00     0.049 A 
ATOM     49  H   UNL A   1      45.165  26.764  28.044  1.00  0.00     0.167 HD
ATOM     50  C   UNL A   1      41.189  28.521  28.715  1.00  0.00     0.037 A 
ATOM     51  C   UNL A   1      47.918  26.875  27.605  1.00  0.00     0.037 A 
ATOM     52  C   UNL A   1      42.119  29.601  28.907  1.00  0.00     0.049 A 
ATOM     53  C   UNL A   1      47.488  28.272  27.971  1.00  0.00     0.074 A 
ATOM     54  C   UNL A   1      41.862  30.901  29.302  1.00  0.00     0.029 A 
ATOM     55  N   UNL A   1      43.491  29.502  28.720  1.00  0.00    -0.354 N 
ATOM     56  N   UNL A   1      46.287  28.727  28.233  1.00  0.00    -0.248 NA
ATOM     57  C   UNL A   1      48.543  29.289  28.052  1.00  0.00     0.031 C 
ATOM     58  C   UNL A   1      43.072  31.603  29.303  1.00  0.00     0.029 A 
ATOM     59  C   UNL A   1      44.090  30.724  28.972  1.00  0.00     0.049 A 
ATOM     60  H   UNL A   1      43.966  28.684  28.447  1.00  0.00     0.167 HD
ATOM     61  C   UNL A   1      46.447  30.070  28.549  1.00  0.00     0.074 A 
ATOM     62  C   UNL A   1      47.862  30.355  28.451  1.00  0.00     0.031 C 
ATOM     63  C   UNL A   1      45.506  30.983  28.893  1.00  0.00     0.037 A 
BRANCH  50  64
ATOM     64  C   UNL A   1      39.723  28.798  28.893  1.00  0.00     0.064 A 
ATOM     65  C   UNL A   1      38.922  29.247  27.832  1.00  0.00     0.173 A 
ATOM     66  C   UNL A   1      39.106  28.589  30.136  1.00  0.00     0.173 A 
ATOM     67  F   UNL A   1      39.463  29.476  26.626  1.00  0.00    -0.203 F 
ATOM     68  C   UNL A   1      37.566  29.507  28.017  1.00  0.00     0.198 A 
ATOM     69  C   UNL A   1      37.743  28.815  30.308  1.00  0.00     0.198 A 
ATOM     70  F   UNL A   1      39.823  28.154  31.183  1.00  0.00    -0.203 F 
ATOM     71  F   UNL A   1      36.834  29.991  27.003  1.00  0.00    -0.200 F 
ATOM     72  C   UNL A   1      36.976  29.284  29.252  1.00  0.00     0.200 A 
ATOM     73  F   UNL A   1      37.171  28.584  31.497  1.00  0.00    -0.200 F 
ATOM     74  F   UNL A   1      35.670  29.528  29.426  1.00  0.00    -0.200 F 
ENDBRANCH  50  64
BRANCH  51  75
ATOM     75  C   UNL A   1      49.348  26.564  27.340  1.00  0.00     0.064 A 
ATOM     76  C   UNL A   1      50.228  26.284  28.395  1.00  0.00     0.173 A 
ATOM     77  C   UNL A   1      49.866  26.550  26.037  1.00  0.00     0.173 A 
ATOM     78  F   UNL A   1      49.785  26.308  29.660  1.00  0.00    -0.203 F 
ATOM     79  C   UNL A   1      51.576  26.026  28.159  1.00  0.00     0.198 A 
ATOM     80  C   UNL A   1      51.208  26.261  25.799  1.00  0.00     0.198 A 
ATOM     81  F   UNL A   1      49.066  26.814  24.994  1.00  0.00    -0.203 F 
ATOM     82  F   UNL A   1      52.406  25.816  29.189  1.00  0.00    -0.200 F 
ATOM     83  C   UNL A   1      52.064  26.009  26.860  1.00  0.00     0.200 A 
ATOM     84  F   UNL A   1      51.677  26.240  24.544  1.00  0.00    -0.200 F 
ATOM     85  F   UNL A   1      53.362  25.763  26.634  1.00  0.00    -0.200 F 
ENDBRANCH  51  75
BRANCH  63  86
ATOM     86  C   UNL A   1      45.978  32.363  29.252  1.00  0.00     0.064 A 
ATOM     87  C   UNL A   1      46.064  33.389  28.300  1.00  0.00     0.173 A 
ATOM     88  C   UNL A   1      46.290  32.674  30.585  1.00  0.00     0.173 A 
ATOM     89  F   UNL A   1      45.789  33.141  27.011  1.00  0.00    -0.203 F 
ATOM     90  C   UNL A   1      46.468  34.670  28.667  1.00  0.00     0.198 A 
ATOM     91  C   UNL A   1      46.661  33.963  30.953  1.00  0.00     0.198 A 
ATOM     92  F   UNL A   1      46.214  31.730  31.535  1.00  0.00    -0.203 F 
ATOM     93  F   UNL A   1      46.589  35.625  27.734  1.00  0.00    -0.200 F 
ATOM     94  C   UNL A   1      46.757  34.958  29.993  1.00  0.00     0.200 A 
ATOM     95  F   UNL A   1      46.921  34.243  32.237  1.00  0.00    -0.200 F 
ATOM     96  F   UNL A   1      47.132  36.196  30.345  1.00  0.00    -0.200 F 
ENDBRANCH  63  86
ENDBRANCH  37  38
ENDBRANCH  29  32
ENDBRANCH  27  28
ENDBRANCH  26  27
ENDBRANCH   1  26
TORSDOF 13
ENDMDL
