MODEL 1
REMARK VINA RESULT:     -11.5      0.000      0.000
REMARK SMILES C=CCN(CC(=O)NCCCNC(=O)c1ccc(-c2c3nc(c(-c4c(F)c(F)c(F)c(F)c4F)c4ccc([nH]4)c(-c4c(F)c(F)c(F)c(F)c4F)c4nc(c(-c5c(F)c(F)c(F)c(F)c5F)c5ccc2[nH]5)C=C4)C=C3)cc1)C(=O)[C@@H]1[C@H](C)[C@H](C)O[C@@H]1C
REMARK SMILES IDX 9 1 8 2 6 3 7 4 5 6 4 7 3 8 2 9 1 10 78 11 79 12 80 13 81 14
REMARK SMILES IDX 86 15 82 16 83 17 85 18 87 19 84 20 10 21 11 22 12 23 13 24
REMARK SMILES IDX 14 26 15 27 16 28 77 29 17 30 76 31 18 32 19 33 20 34 70 35
REMARK SMILES IDX 21 36 75 37 69 38 71 39 22 40 74 41 68 42 67 43 23 45 55 46
REMARK SMILES IDX 35 47 54 48 36 49 39 50 53 51 72 52 37 53 38 54 52 56 73 57
REMARK SMILES IDX 40 58 24 59 25 60 33 61 26 62 27 63 31 64 34 65 28 66 29 67
REMARK SMILES IDX 32 68 30 69 56 70 57 71 65 72 58 73 59 74 63 75 66 76 60 77
REMARK SMILES IDX 61 78 64 79 62 80 41 81 42 82 50 83 43 84 44 85 48 86 51 87
REMARK SMILES IDX 45 88 46 89 49 90 47 91
REMARK H PARENT 8 5 12 25 71 44 39 55
REMARK Flexibility Score: inf
ROOT
ATOM      1  C   UNL A   1      31.445  30.785  26.390  1.00  0.00     0.117 C 
ENDROOT
BRANCH   1   2
ATOM      2  N   UNL A   1      31.479  30.393  24.999  1.00  0.00    -0.354 N 
ATOM      3  C   UNL A   1      31.497  29.149  24.454  1.00  0.00     0.239 C 
ATOM      4  O   UNL A   1      31.551  29.074  23.225  1.00  0.00    -0.273 OA
ATOM      5  H   UNL A   1      31.492  31.135  24.354  1.00  0.00     0.163 HD
BRANCH   3   6
ATOM      6  C   UNL A   1      31.421  27.898  25.340  1.00  0.00     0.219 C 
BRANCH   6   7
ATOM      7  N   UNL A   1      32.717  27.317  25.717  1.00  0.00    -0.329 N 
BRANCH   7   8
ATOM      8  C   UNL A   1      33.346  27.832  26.936  1.00  0.00     0.147 C 
BRANCH   8   9
ATOM      9  C   UNL A   1      34.467  28.770  26.601  1.00  0.00    -0.014 C 
ATOM     10  C   UNL A   1      34.853  29.766  27.412  1.00  0.00     0.006 C 
ENDBRANCH   8   9
ENDBRANCH   7   8
BRANCH   7  11
ATOM     11  C   UNL A   1      33.415  26.347  25.008  1.00  0.00     0.229 C 
ATOM     12  O   UNL A   1      33.357  26.338  23.770  1.00  0.00    -0.274 OA
BRANCH  11  13
ATOM     13  C   UNL A   1      34.137  25.193  25.704  1.00  0.00     0.113 C 
ATOM     14  C   UNL A   1      35.201  24.325  25.049  1.00  0.00     0.030 C 
ATOM     15  C   UNL A   1      33.175  24.130  26.274  1.00  0.00     0.128 C 
ATOM     16  C   UNL A   1      34.881  23.848  23.633  1.00  0.00     0.011 C 
ATOM     17  C   UNL A   1      35.324  23.218  26.104  1.00  0.00     0.119 C 
ATOM     18  O   UNL A   1      34.009  23.006  26.644  1.00  0.00    -0.374 OA
ATOM     19  C   UNL A   1      32.103  23.562  25.338  1.00  0.00     0.039 C 
ATOM     20  C   UNL A   1      35.923  21.908  25.628  1.00  0.00     0.039 C 
ENDBRANCH  11  13
ENDBRANCH   7  11
ENDBRANCH   6   7
ENDBRANCH   3   6
ENDBRANCH   1   2
BRANCH   1  21
ATOM     21  C   UNL A   1      31.416  32.299  26.541  1.00  0.00     0.042 C 
BRANCH  21  22
ATOM     22  C   UNL A   1      32.613  32.851  27.309  1.00  0.00     0.118 C 
BRANCH  22  23
ATOM     23  N   UNL A   1      32.457  34.265  27.634  1.00  0.00    -0.352 N 
ATOM     24  C   UNL A   1      33.016  35.002  28.643  1.00  0.00     0.251 C 
ATOM     25  H   UNL A   1      31.856  34.766  27.035  1.00  0.00     0.163 HD
ATOM     26  O   UNL A   1      32.552  36.106  28.928  1.00  0.00    -0.269 OA
BRANCH  24  27
ATOM     27  C   UNL A   1      34.169  34.470  29.388  1.00  0.00     0.039 A 
ATOM     28  C   UNL A   1      33.961  33.850  30.622  1.00  0.00     0.014 A 
ATOM     29  C   UNL A   1      35.459  34.597  28.868  1.00  0.00     0.014 A 
ATOM     30  C   UNL A   1      35.046  33.297  31.303  1.00  0.00     0.010 A 
ATOM     31  C   UNL A   1      36.520  33.964  29.498  1.00  0.00     0.010 A 
ATOM     32  C   UNL A   1      36.327  33.318  30.727  1.00  0.00    -0.014 A 
BRANCH  32  33
ATOM     33  C   UNL A   1      37.488  32.681  31.393  1.00  0.00     0.031 A 
ATOM     34  C   UNL A   1      38.188  31.527  30.733  1.00  0.00     0.074 A 
ATOM     35  C   UNL A   1      37.852  33.088  32.624  1.00  0.00     0.049 A 
ATOM     36  N   UNL A   1      39.153  30.772  31.191  1.00  0.00    -0.248 NA
ATOM     37  C   UNL A   1      37.717  31.147  29.390  1.00  0.00     0.031 C 
ATOM     38  C   UNL A   1      37.208  34.161  33.384  1.00  0.00     0.029 A 
ATOM     39  N   UNL A   1      38.841  32.636  33.459  1.00  0.00    -0.354 N 
ATOM     40  C   UNL A   1      39.388  29.821  30.206  1.00  0.00     0.074 A 
ATOM     41  C   UNL A   1      38.426  30.055  29.152  1.00  0.00     0.031 C 
ATOM     42  C   UNL A   1      37.833  34.299  34.565  1.00  0.00     0.029 A 
ATOM     43  C   UNL A   1      38.890  33.297  34.662  1.00  0.00     0.049 A 
ATOM     44  H   UNL A   1      39.458  31.907  33.220  1.00  0.00     0.167 HD
ATOM     45  C   UNL A   1      40.336  28.856  30.175  1.00  0.00     0.037 A 
ATOM     46  C   UNL A   1      39.693  33.106  35.726  1.00  0.00     0.037 A 
ATOM     47  C   UNL A   1      41.306  28.649  31.218  1.00  0.00     0.049 A 
ATOM     48  C   UNL A   1      40.738  32.026  35.666  1.00  0.00     0.074 A 
ATOM     49  C   UNL A   1      42.354  27.747  31.255  1.00  0.00     0.029 A 
ATOM     50  N   UNL A   1      41.344  29.359  32.410  1.00  0.00    -0.354 N 
ATOM     51  N   UNL A   1      41.003  31.183  34.697  1.00  0.00    -0.248 NA
ATOM     52  C   UNL A   1      41.604  31.876  36.844  1.00  0.00     0.031 C 
ATOM     53  C   UNL A   1      42.994  27.874  32.493  1.00  0.00     0.029 A 
ATOM     54  C   UNL A   1      42.383  28.896  33.202  1.00  0.00     0.049 A 
ATOM     55  H   UNL A   1      40.725  30.083  32.658  1.00  0.00     0.167 HD
ATOM     56  C   UNL A   1      42.080  30.424  35.135  1.00  0.00     0.074 A 
ATOM     57  C   UNL A   1      42.430  30.919  36.450  1.00  0.00     0.031 C 
ATOM     58  C   UNL A   1      42.720  29.409  34.505  1.00  0.00     0.037 A 
BRANCH  45  59
ATOM     59  C   UNL A   1      40.373  27.954  28.975  1.00  0.00     0.064 A 
ATOM     60  C   UNL A   1      39.655  26.748  28.937  1.00  0.00     0.173 A 
ATOM     61  C   UNL A   1      41.106  28.315  27.835  1.00  0.00     0.173 A 
ATOM     62  F   UNL A   1      38.948  26.349  30.004  1.00  0.00    -0.203 F 
ATOM     63  C   UNL A   1      39.697  25.923  27.815  1.00  0.00     0.198 A 
ATOM     64  C   UNL A   1      41.117  27.505  26.703  1.00  0.00     0.198 A 
ATOM     65  F   UNL A   1      41.806  29.460  27.815  1.00  0.00    -0.203 F 
ATOM     66  F   UNL A   1      39.046  24.751  27.823  1.00  0.00    -0.200 F 
ATOM     67  C   UNL A   1      40.421  26.306  26.696  1.00  0.00     0.200 A 
ATOM     68  F   UNL A   1      41.806  27.883  25.617  1.00  0.00    -0.200 F 
ATOM     69  F   UNL A   1      40.452  25.516  25.614  1.00  0.00    -0.200 F 
ENDBRANCH  45  59
BRANCH  46  70
ATOM     70  C   UNL A   1      39.551  33.970  36.928  1.00  0.00     0.064 A 
ATOM     71  C   UNL A   1      38.785  33.553  38.026  1.00  0.00     0.173 A 
ATOM     72  C   UNL A   1      40.172  35.225  37.007  1.00  0.00     0.173 A 
ATOM     73  F   UNL A   1      38.157  32.369  37.993  1.00  0.00    -0.203 F 
ATOM     74  C   UNL A   1      38.626  34.368  39.145  1.00  0.00     0.198 A 
ATOM     75  C   UNL A   1      40.038  36.026  38.139  1.00  0.00     0.198 A 
ATOM     76  F   UNL A   1      40.924  35.666  35.988  1.00  0.00    -0.203 F 
ATOM     77  F   UNL A   1      37.847  33.966  40.159  1.00  0.00    -0.200 F 
ATOM     78  C   UNL A   1      39.257  35.601  39.203  1.00  0.00     0.200 A 
ATOM     79  F   UNL A   1      40.664  37.209  38.198  1.00  0.00    -0.200 F 
ATOM     80  F   UNL A   1      39.107  36.383  40.280  1.00  0.00    -0.200 F 
ENDBRANCH  46  70
BRANCH  58  81
ATOM     81  C   UNL A   1      43.891  28.791  35.212  1.00  0.00     0.064 A 
ATOM     82  C   UNL A   1      45.195  29.281  35.047  1.00  0.00     0.173 A 
ATOM     83  C   UNL A   1      43.697  27.726  36.105  1.00  0.00     0.173 A 
ATOM     84  F   UNL A   1      45.435  30.287  34.193  1.00  0.00    -0.203 F 
ATOM     85  C   UNL A   1      46.264  28.708  35.730  1.00  0.00     0.198 A 
ATOM     86  C   UNL A   1      44.763  27.178  36.811  1.00  0.00     0.198 A 
ATOM     87  F   UNL A   1      42.468  27.226  36.305  1.00  0.00    -0.203 F 
ATOM     88  F   UNL A   1      47.509  29.159  35.519  1.00  0.00    -0.200 F 
ATOM     89  C   UNL A   1      46.047  27.665  36.617  1.00  0.00     0.200 A 
ATOM     90  F   UNL A   1      44.549  26.181  37.681  1.00  0.00    -0.200 F 
ATOM     91  F   UNL A   1      47.077  27.123  37.281  1.00  0.00    -0.200 F 
ENDBRANCH  58  81
ENDBRANCH  32  33
ENDBRANCH  24  27
ENDBRANCH  22  23
ENDBRANCH  21  22
ENDBRANCH   1  21
TORSDOF 15
ENDMDL
MODEL 2
REMARK VINA RESULT:     -11.2      1.068      2.950
REMARK SMILES C=CCN(CC(=O)NCCCNC(=O)c1ccc(-c2c3nc(c(-c4c(F)c(F)c(F)c(F)c4F)c4ccc([nH]4)c(-c4c(F)c(F)c(F)c(F)c4F)c4nc(c(-c5c(F)c(F)c(F)c(F)c5F)c5ccc2[nH]5)C=C4)C=C3)cc1)C(=O)[C@@H]1[C@H](C)[C@H](C)O[C@@H]1C
REMARK SMILES IDX 9 1 8 2 6 3 7 4 5 6 4 7 3 8 2 9 1 10 78 11 79 12 80 13 81 14
REMARK SMILES IDX 86 15 82 16 83 17 85 18 87 19 84 20 10 21 11 22 12 23 13 24
REMARK SMILES IDX 14 26 15 27 16 28 77 29 17 30 76 31 18 32 19 33 20 34 70 35
REMARK SMILES IDX 21 36 75 37 69 38 71 39 22 40 74 41 68 42 67 43 23 45 55 46
REMARK SMILES IDX 35 47 54 48 36 49 39 50 53 51 72 52 37 53 38 54 52 56 73 57
REMARK SMILES IDX 40 58 24 59 25 60 33 61 26 62 27 63 31 64 34 65 28 66 29 67
REMARK SMILES IDX 32 68 30 69 56 70 57 71 65 72 58 73 59 74 63 75 66 76 60 77
REMARK SMILES IDX 61 78 64 79 62 80 41 81 42 82 50 83 43 84 44 85 48 86 51 87
REMARK SMILES IDX 45 88 46 89 49 90 47 91
REMARK H PARENT 8 5 12 25 71 44 39 55
REMARK Flexibility Score: inf
ROOT
ATOM      1  C   UNL A   1      31.669  30.691  26.336  1.00  0.00     0.117 C 
ENDROOT
BRANCH   1   2
ATOM      2  N   UNL A   1      32.988  30.206  26.671  1.00  0.00    -0.354 N 
ATOM      3  C   UNL A   1      33.395  28.941  26.954  1.00  0.00     0.239 C 
ATOM      4  O   UNL A   1      34.585  28.783  27.236  1.00  0.00    -0.273 OA
ATOM      5  H   UNL A   1      33.693  30.890  26.698  1.00  0.00     0.163 HD
BRANCH   3   6
ATOM      6  C   UNL A   1      32.413  27.764  26.891  1.00  0.00     0.219 C 
BRANCH   6   7
ATOM      7  N   UNL A   1      32.671  26.788  25.822  1.00  0.00    -0.329 N 
BRANCH   7   8
ATOM      8  C   UNL A   1      33.014  25.426  26.235  1.00  0.00     0.147 C 
BRANCH   8   9
ATOM      9  C   UNL A   1      31.775  24.623  26.504  1.00  0.00    -0.014 C 
ATOM     10  C   UNL A   1      31.370  23.618  25.715  1.00  0.00     0.006 C 
ENDBRANCH   8   9
ENDBRANCH   7   8
BRANCH   7  11
ATOM     11  C   UNL A   1      32.651  27.048  24.457  1.00  0.00     0.229 C 
ATOM     12  O   UNL A   1      33.597  26.673  23.751  1.00  0.00    -0.274 OA
BRANCH  11  13
ATOM     13  C   UNL A   1      31.570  27.916  23.811  1.00  0.00     0.113 C 
ATOM     14  C   UNL A   1      30.098  27.882  24.193  1.00  0.00     0.030 C 
ATOM     15  C   UNL A   1      31.497  27.756  22.278  1.00  0.00     0.128 C 
ATOM     16  C   UNL A   1      29.494  26.488  24.362  1.00  0.00     0.011 C 
ATOM     17  C   UNL A   1      29.509  28.720  23.051  1.00  0.00     0.119 C 
ATOM     18  O   UNL A   1      30.275  28.420  21.873  1.00  0.00    -0.374 OA
ATOM     19  C   UNL A   1      31.407  26.336  21.712  1.00  0.00     0.039 C 
ATOM     20  C   UNL A   1      28.027  28.535  22.785  1.00  0.00     0.039 C 
ENDBRANCH  11  13
ENDBRANCH   7  11
ENDBRANCH   6   7
ENDBRANCH   3   6
ENDBRANCH   1   2
BRANCH   1  21
ATOM     21  C   UNL A   1      31.458  32.116  26.829  1.00  0.00     0.042 C 
BRANCH  21  22
ATOM     22  C   UNL A   1      32.753  32.811  27.235  1.00  0.00     0.118 C 
BRANCH  22  23
ATOM     23  N   UNL A   1      32.534  34.199  27.630  1.00  0.00    -0.352 N 
ATOM     24  C   UNL A   1      33.039  34.901  28.692  1.00  0.00     0.251 C 
ATOM     25  H   UNL A   1      31.931  34.710  27.042  1.00  0.00     0.163 HD
ATOM     26  O   UNL A   1      32.526  35.971  29.021  1.00  0.00    -0.269 OA
BRANCH  24  27
ATOM     27  C   UNL A   1      34.192  34.372  29.439  1.00  0.00     0.039 A 
ATOM     28  C   UNL A   1      33.979  33.725  30.659  1.00  0.00     0.014 A 
ATOM     29  C   UNL A   1      35.486  34.529  28.937  1.00  0.00     0.014 A 
ATOM     30  C   UNL A   1      35.065  33.176  31.342  1.00  0.00     0.010 A 
ATOM     31  C   UNL A   1      36.549  33.901  29.568  1.00  0.00     0.010 A 
ATOM     32  C   UNL A   1      36.352  33.227  30.781  1.00  0.00    -0.014 A 
BRANCH  32  33
ATOM     33  C   UNL A   1      37.515  32.596  31.448  1.00  0.00     0.031 A 
ATOM     34  C   UNL A   1      38.221  31.445  30.788  1.00  0.00     0.074 A 
ATOM     35  C   UNL A   1      37.875  33.003  32.679  1.00  0.00     0.049 A 
ATOM     36  N   UNL A   1      39.190  30.695  31.247  1.00  0.00    -0.248 NA
ATOM     37  C   UNL A   1      37.754  31.064  29.445  1.00  0.00     0.031 C 
ATOM     38  C   UNL A   1      37.226  34.073  33.440  1.00  0.00     0.029 A 
ATOM     39  N   UNL A   1      38.866  32.556  33.516  1.00  0.00    -0.354 N 
ATOM     40  C   UNL A   1      39.430  29.746  30.262  1.00  0.00     0.074 A 
ATOM     41  C   UNL A   1      38.469  29.976  29.207  1.00  0.00     0.031 C 
ATOM     42  C   UNL A   1      37.849  34.213  34.622  1.00  0.00     0.029 A 
ATOM     43  C   UNL A   1      38.910  33.216  34.720  1.00  0.00     0.049 A 
ATOM     44  H   UNL A   1      39.486  31.830  33.276  1.00  0.00     0.167 HD
ATOM     45  C   UNL A   1      40.383  28.785  30.231  1.00  0.00     0.037 A 
ATOM     46  C   UNL A   1      39.712  33.028  35.784  1.00  0.00     0.037 A 
ATOM     47  C   UNL A   1      41.353  28.583  31.275  1.00  0.00     0.049 A 
ATOM     48  C   UNL A   1      40.763  31.953  35.724  1.00  0.00     0.074 A 
ATOM     49  C   UNL A   1      42.404  27.685  31.312  1.00  0.00     0.029 A 
ATOM     50  N   UNL A   1      41.385  29.291  32.468  1.00  0.00    -0.354 N 
ATOM     51  N   UNL A   1      41.033  31.112  34.755  1.00  0.00    -0.248 NA
ATOM     52  C   UNL A   1      41.628  31.807  36.903  1.00  0.00     0.031 C 
ATOM     53  C   UNL A   1      43.042  27.814  32.551  1.00  0.00     0.029 A 
ATOM     54  C   UNL A   1      42.425  28.833  33.260  1.00  0.00     0.049 A 
ATOM     55  H   UNL A   1      40.763  30.012  32.715  1.00  0.00     0.167 HD
ATOM     56  C   UNL A   1      42.113  30.358  35.194  1.00  0.00     0.074 A 
ATOM     57  C   UNL A   1      42.459  30.853  36.510  1.00  0.00     0.031 C 
ATOM     58  C   UNL A   1      42.759  29.347  34.564  1.00  0.00     0.037 A 
BRANCH  45  59
ATOM     59  C   UNL A   1      40.425  27.884  29.031  1.00  0.00     0.064 A 
ATOM     60  C   UNL A   1      41.202  28.194  27.903  1.00  0.00     0.173 A 
ATOM     61  C   UNL A   1      39.709  26.677  29.020  1.00  0.00     0.173 A 
ATOM     62  F   UNL A   1      41.896  29.341  27.856  1.00  0.00    -0.203 F 
ATOM     63  C   UNL A   1      41.234  27.346  26.799  1.00  0.00     0.198 A 
ATOM     64  C   UNL A   1      39.771  25.816  27.928  1.00  0.00     0.198 A 
ATOM     65  F   UNL A   1      38.955  26.329  30.074  1.00  0.00    -0.203 F 
ATOM     66  F   UNL A   1      41.941  27.690  25.713  1.00  0.00    -0.200 F 
ATOM     67  C   UNL A   1      40.526  26.154  26.815  1.00  0.00     0.200 A 
ATOM     68  F   UNL A   1      39.097  24.658  27.951  1.00  0.00    -0.200 F 
ATOM     69  F   UNL A   1      40.565  25.335  25.755  1.00  0.00    -0.200 F 
ENDBRANCH  45  59
BRANCH  46  70
ATOM     70  C   UNL A   1      39.565  33.890  36.987  1.00  0.00     0.064 A 
ATOM     71  C   UNL A   1      38.770  33.486  38.068  1.00  0.00     0.173 A 
ATOM     72  C   UNL A   1      40.210  35.132  37.082  1.00  0.00     0.173 A 
ATOM     73  F   UNL A   1      38.119  32.314  38.019  1.00  0.00    -0.203 F 
ATOM     74  C   UNL A   1      38.606  34.300  39.187  1.00  0.00     0.198 A 
ATOM     75  C   UNL A   1      40.070  35.932  38.214  1.00  0.00     0.198 A 
ATOM     76  F   UNL A   1      40.990  35.562  36.079  1.00  0.00    -0.203 F 
ATOM     77  F   UNL A   1      37.800  33.910  40.184  1.00  0.00    -0.200 F 
ATOM     78  C   UNL A   1      39.260  35.520  39.261  1.00  0.00     0.200 A 
ATOM     79  F   UNL A   1      40.719  37.102  38.290  1.00  0.00    -0.200 F 
ATOM     80  F   UNL A   1      39.106  36.301  40.339  1.00  0.00    -0.200 F 
ENDBRANCH  46  70
BRANCH  58  81
ATOM     81  C   UNL A   1      43.932  28.734  35.272  1.00  0.00     0.064 A 
ATOM     82  C   UNL A   1      43.784  27.632  36.128  1.00  0.00     0.173 A 
ATOM     83  C   UNL A   1      45.228  29.226  35.052  1.00  0.00     0.173 A 
ATOM     84  F   UNL A   1      42.565  27.134  36.383  1.00  0.00    -0.203 F 
ATOM     85  C   UNL A   1      44.888  27.064  36.757  1.00  0.00     0.198 A 
ATOM     86  C   UNL A   1      46.332  28.634  35.656  1.00  0.00     0.198 A 
ATOM     87  F   UNL A   1      45.424  30.273  34.236  1.00  0.00    -0.203 F 
ATOM     88  F   UNL A   1      44.718  26.043  37.609  1.00  0.00    -0.200 F 
ATOM     89  C   UNL A   1      46.161  27.558  36.514  1.00  0.00     0.200 A 
ATOM     90  F   UNL A   1      47.563  29.103  35.407  1.00  0.00    -0.200 F 
ATOM     91  F   UNL A   1      47.223  27.002  37.113  1.00  0.00    -0.200 F 
ENDBRANCH  58  81
ENDBRANCH  32  33
ENDBRANCH  24  27
ENDBRANCH  22  23
ENDBRANCH  21  22
ENDBRANCH   1  21
TORSDOF 15
ENDMDL
MODEL 3
REMARK VINA RESULT:     -11.2      0.688      2.291
REMARK SMILES C=CCN(CC(=O)NCCCNC(=O)c1ccc(-c2c3nc(c(-c4c(F)c(F)c(F)c(F)c4F)c4ccc([nH]4)c(-c4c(F)c(F)c(F)c(F)c4F)c4nc(c(-c5c(F)c(F)c(F)c(F)c5F)c5ccc2[nH]5)C=C4)C=C3)cc1)C(=O)[C@@H]1[C@H](C)[C@H](C)O[C@@H]1C
REMARK SMILES IDX 9 1 8 2 6 3 7 4 5 6 4 7 3 8 2 9 1 10 78 11 79 12 80 13 81 14
REMARK SMILES IDX 86 15 82 16 83 17 85 18 87 19 84 20 10 21 11 22 12 23 13 24
REMARK SMILES IDX 14 26 15 27 16 28 77 29 17 30 76 31 18 32 19 33 20 34 70 35
REMARK SMILES IDX 21 36 75 37 69 38 71 39 22 40 74 41 68 42 67 43 23 45 55 46
REMARK SMILES IDX 35 47 54 48 36 49 39 50 53 51 72 52 37 53 38 54 52 56 73 57
REMARK SMILES IDX 40 58 24 59 25 60 33 61 26 62 27 63 31 64 34 65 28 66 29 67
REMARK SMILES IDX 32 68 30 69 56 70 57 71 65 72 58 73 59 74 63 75 66 76 60 77
REMARK SMILES IDX 61 78 64 79 62 80 41 81 42 82 50 83 43 84 44 85 48 86 51 87
REMARK SMILES IDX 45 88 46 89 49 90 47 91
REMARK H PARENT 8 5 12 25 71 44 39 55
REMARK Flexibility Score: inf
ROOT
ATOM      1  C   UNL A   1      31.553  30.901  26.020  1.00  0.00     0.117 C 
ENDROOT
BRANCH   1   2
ATOM      2  N   UNL A   1      32.388  30.080  26.867  1.00  0.00    -0.354 N 
ATOM      3  C   UNL A   1      33.186  29.032  26.536  1.00  0.00     0.239 C 
ATOM      4  O   UNL A   1      33.789  28.472  27.454  1.00  0.00    -0.273 OA
ATOM      5  H   UNL A   1      32.378  30.315  27.822  1.00  0.00     0.163 HD
BRANCH   3   6
ATOM      6  C   UNL A   1      33.345  28.592  25.074  1.00  0.00     0.219 C 
BRANCH   6   7
ATOM      7  N   UNL A   1      32.798  27.266  24.755  1.00  0.00    -0.329 N 
BRANCH   7   8
ATOM      8  C   UNL A   1      31.367  27.062  24.991  1.00  0.00     0.147 C 
BRANCH   8   9
ATOM      9  C   UNL A   1      30.548  27.906  24.060  1.00  0.00    -0.014 C 
ATOM     10  C   UNL A   1      30.601  27.785  22.726  1.00  0.00     0.006 C 
ENDBRANCH   8   9
ENDBRANCH   7   8
BRANCH   7  11
ATOM     11  C   UNL A   1      33.520  26.177  24.279  1.00  0.00     0.229 C 
ATOM     12  O   UNL A   1      33.441  25.869  23.082  1.00  0.00    -0.274 OA
BRANCH  11  13
ATOM     13  C   UNL A   1      34.297  25.248  25.212  1.00  0.00     0.113 C 
ATOM     14  C   UNL A   1      35.346  24.247  24.751  1.00  0.00     0.030 C 
ATOM     15  C   UNL A   1      33.385  24.363  26.087  1.00  0.00     0.128 C 
ATOM     16  C   UNL A   1      34.967  23.416  23.525  1.00  0.00     0.011 C 
ATOM     17  C   UNL A   1      35.542  23.452  26.049  1.00  0.00     0.119 C 
ATOM     18  O   UNL A   1      34.259  23.379  26.692  1.00  0.00    -0.374 OA
ATOM     19  C   UNL A   1      32.281  23.565  25.388  1.00  0.00     0.039 C 
ATOM     20  C   UNL A   1      36.143  22.068  25.898  1.00  0.00     0.039 C 
ENDBRANCH  11  13
ENDBRANCH   7  11
ENDBRANCH   6   7
ENDBRANCH   3   6
ENDBRANCH   1   2
BRANCH   1  21
ATOM     21  C   UNL A   1      31.318  32.274  26.632  1.00  0.00     0.042 C 
BRANCH  21  22
ATOM     22  C   UNL A   1      32.549  32.840  27.334  1.00  0.00     0.118 C 
BRANCH  22  23
ATOM     23  N   UNL A   1      32.405  34.258  27.645  1.00  0.00    -0.352 N 
ATOM     24  C   UNL A   1      32.981  35.004  28.637  1.00  0.00     0.251 C 
ATOM     25  H   UNL A   1      31.800  34.756  27.047  1.00  0.00     0.163 HD
ATOM     26  O   UNL A   1      32.527  36.115  28.914  1.00  0.00    -0.269 OA
BRANCH  24  27
ATOM     27  C   UNL A   1      34.140  34.474  29.374  1.00  0.00     0.039 A 
ATOM     28  C   UNL A   1      33.945  33.877  30.621  1.00  0.00     0.014 A 
ATOM     29  C   UNL A   1      35.424  34.580  28.833  1.00  0.00     0.014 A 
ATOM     30  C   UNL A   1      35.035  33.326  31.296  1.00  0.00     0.010 A 
ATOM     31  C   UNL A   1      36.488  33.949  29.458  1.00  0.00     0.010 A 
ATOM     32  C   UNL A   1      36.307  33.325  30.701  1.00  0.00    -0.014 A 
BRANCH  32  33
ATOM     33  C   UNL A   1      37.473  32.689  31.361  1.00  0.00     0.031 A 
ATOM     34  C   UNL A   1      38.170  31.535  30.697  1.00  0.00     0.074 A 
ATOM     35  C   UNL A   1      37.843  33.096  32.589  1.00  0.00     0.049 A 
ATOM     36  N   UNL A   1      39.138  30.781  31.149  1.00  0.00    -0.248 NA
ATOM     37  C   UNL A   1      37.691  31.155  29.356  1.00  0.00     0.031 C 
ATOM     38  C   UNL A   1      37.203  34.169  33.353  1.00  0.00     0.029 A 
ATOM     39  N   UNL A   1      38.837  32.644  33.419  1.00  0.00    -0.354 N 
ATOM     40  C   UNL A   1      39.367  29.830  30.163  1.00  0.00     0.074 A 
ATOM     41  C   UNL A   1      38.400  30.064  29.114  1.00  0.00     0.031 C 
ATOM     42  C   UNL A   1      37.834  34.307  34.531  1.00  0.00     0.029 A 
ATOM     43  C   UNL A   1      38.891  33.306  34.622  1.00  0.00     0.049 A 
ATOM     44  H   UNL A   1      39.453  31.916  33.176  1.00  0.00     0.167 HD
ATOM     45  C   UNL A   1      40.316  28.865  30.127  1.00  0.00     0.037 A 
ATOM     46  C   UNL A   1      39.700  33.115  35.682  1.00  0.00     0.037 A 
ATOM     47  C   UNL A   1      41.292  28.660  31.164  1.00  0.00     0.049 A 
ATOM     48  C   UNL A   1      40.746  32.036  35.615  1.00  0.00     0.074 A 
ATOM     49  C   UNL A   1      42.341  27.758  31.196  1.00  0.00     0.029 A 
ATOM     50  N   UNL A   1      41.335  29.369  32.357  1.00  0.00    -0.354 N 
ATOM     51  N   UNL A   1      41.006  31.193  34.645  1.00  0.00    -0.248 NA
ATOM     52  C   UNL A   1      41.618  31.886  36.789  1.00  0.00     0.031 C 
ATOM     53  C   UNL A   1      42.987  27.886  32.430  1.00  0.00     0.029 A 
ATOM     54  C   UNL A   1      42.379  28.907  33.142  1.00  0.00     0.049 A 
ATOM     55  H   UNL A   1      40.718  30.093  32.607  1.00  0.00     0.167 HD
ATOM     56  C   UNL A   1      42.086  30.435  35.077  1.00  0.00     0.074 A 
ATOM     57  C   UNL A   1      42.442  30.929  36.390  1.00  0.00     0.031 C 
ATOM     58  C   UNL A   1      42.723  29.420  34.444  1.00  0.00     0.037 A 
BRANCH  45  59
ATOM     59  C   UNL A   1      40.347  27.963  28.927  1.00  0.00     0.064 A 
ATOM     60  C   UNL A   1      41.101  28.280  27.785  1.00  0.00     0.173 A 
ATOM     61  C   UNL A   1      39.643  26.749  28.930  1.00  0.00     0.173 A 
ATOM     62  F   UNL A   1      41.782  29.434  27.725  1.00  0.00    -0.203 F 
ATOM     63  C   UNL A   1      41.122  27.431  26.681  1.00  0.00     0.198 A 
ATOM     64  C   UNL A   1      39.695  25.888  27.838  1.00  0.00     0.198 A 
ATOM     65  F   UNL A   1      38.912  26.395  29.997  1.00  0.00    -0.203 F 
ATOM     66  F   UNL A   1      41.806  27.781  25.583  1.00  0.00    -0.200 F 
ATOM     67  C   UNL A   1      40.427  26.232  26.711  1.00  0.00     0.200 A 
ATOM     68  F   UNL A   1      39.034  24.723  27.874  1.00  0.00    -0.200 F 
ATOM     69  F   UNL A   1      40.456  25.412  25.652  1.00  0.00    -0.200 F 
ENDBRANCH  45  59
BRANCH  46  70
ATOM     70  C   UNL A   1      39.565  33.979  36.885  1.00  0.00     0.064 A 
ATOM     71  C   UNL A   1      40.215  35.218  36.956  1.00  0.00     0.173 A 
ATOM     72  C   UNL A   1      38.789  33.585  37.985  1.00  0.00     0.173 A 
ATOM     73  F   UNL A   1      40.981  35.632  35.936  1.00  0.00    -0.203 F 
ATOM     74  C   UNL A   1      40.114  36.021  38.091  1.00  0.00     0.198 A 
ATOM     75  C   UNL A   1      38.664  34.402  39.107  1.00  0.00     0.198 A 
ATOM     76  F   UNL A   1      38.139  32.413  37.964  1.00  0.00    -0.203 F 
ATOM     77  F   UNL A   1      40.785  37.179  38.151  1.00  0.00    -0.200 F 
ATOM     78  C   UNL A   1      39.334  35.615  39.163  1.00  0.00     0.200 A 
ATOM     79  F   UNL A   1      37.896  34.014  40.134  1.00  0.00    -0.200 F 
ATOM     80  F   UNL A   1      39.235  36.388  40.252  1.00  0.00    -0.200 F 
ENDBRANCH  46  70
BRANCH  58  81
ATOM     81  C   UNL A   1      43.899  28.803  35.145  1.00  0.00     0.064 A 
ATOM     82  C   UNL A   1      43.754  27.693  35.989  1.00  0.00     0.173 A 
ATOM     83  C   UNL A   1      45.193  29.300  34.928  1.00  0.00     0.173 A 
ATOM     84  F   UNL A   1      42.536  27.190  36.241  1.00  0.00    -0.203 F 
ATOM     85  C   UNL A   1      44.860  27.120  36.611  1.00  0.00     0.198 A 
ATOM     86  C   UNL A   1      46.300  28.705  35.524  1.00  0.00     0.198 A 
ATOM     87  F   UNL A   1      45.386  30.356  34.122  1.00  0.00    -0.203 F 
ATOM     88  F   UNL A   1      44.693  26.091  37.454  1.00  0.00    -0.200 F 
ATOM     89  C   UNL A   1      46.132  27.620  36.372  1.00  0.00     0.200 A 
ATOM     90  F   UNL A   1      47.529  29.179  35.279  1.00  0.00    -0.200 F 
ATOM     91  F   UNL A   1      47.195  27.060  36.964  1.00  0.00    -0.200 F 
ENDBRANCH  58  81
ENDBRANCH  32  33
ENDBRANCH  24  27
ENDBRANCH  22  23
ENDBRANCH  21  22
ENDBRANCH   1  21
TORSDOF 15
ENDMDL
