MODEL 1
REMARK VINA RESULT:     -12.0      0.000      0.000
REMARK SMILES C[C@@H](C(=O)NCCCNC(=O)c1ccc(-c2c3nc(c(-c4c(F)c(F)c(F)c(F)c4F)c4ccc([nH]4)c(-c4c(F)c(F)c(F)c(F)c4F)c4nc(c(-c5c(F)c(F)c(F)c(F)c5F)c5ccc2[nH]5)C=C4)C=C3)cc1)[C@H](C)[S@@](=O)c1ccc(F)cc1
REMARK SMILES IDX 6 1 5 2 3 3 4 4 2 6 1 7 75 8 76 9 77 10 78 11 79 12 80 13
REMARK SMILES IDX 85 14 81 15 84 16 82 17 83 18 7 19 8 20 9 21 10 22 11 24
REMARK SMILES IDX 12 25 13 26 74 27 14 28 73 29 15 30 16 31 17 32 67 33 18 34
REMARK SMILES IDX 72 35 66 36 68 37 19 38 71 39 65 40 64 41 20 43 52 44 32 45
REMARK SMILES IDX 51 46 33 47 36 48 50 49 69 50 34 51 35 52 49 54 70 55 37 56
REMARK SMILES IDX 21 57 22 58 30 59 23 60 24 61 28 62 31 63 25 64 26 65 29 66
REMARK SMILES IDX 27 67 53 68 54 69 62 70 55 71 56 72 60 73 63 74 57 75 58 76
REMARK SMILES IDX 61 77 59 78 38 79 39 80 47 81 40 82 41 83 45 84 48 85 42 86
REMARK SMILES IDX 43 87 46 88 44 89
REMARK H PARENT 5 5 9 23 68 42 36 53
REMARK Flexibility Score: inf
ROOT
ATOM      1  C   UNL A   1      31.725  30.546  26.070  1.00  0.00     0.117 C 
ENDROOT
BRANCH   1   2
ATOM      2  N   UNL A   1      33.001  30.037  26.540  1.00  0.00    -0.356 N 
ATOM      3  C   UNL A   1      33.632  28.854  26.287  1.00  0.00     0.224 C 
ATOM      4  O   UNL A   1      34.753  28.697  26.771  1.00  0.00    -0.275 OA
ATOM      5  H   UNL A   1      33.491  30.645  27.139  1.00  0.00     0.163 HD
BRANCH   3   6
ATOM      6  C   UNL A   1      32.941  27.779  25.439  1.00  0.00     0.091 C 
ATOM      7  C   UNL A   1      32.468  26.672  26.380  1.00  0.00     0.019 C 
BRANCH   6   8
ATOM      8  C   UNL A   1      33.887  27.318  24.305  1.00  0.00     0.093 C 
ATOM      9  C   UNL A   1      34.094  28.399  23.237  1.00  0.00     0.023 C 
BRANCH   8  10
ATOM     10  S   UNL A   1      33.553  25.735  23.471  1.00  0.00     0.057 S 
ATOM     11  O   UNL A   1      33.796  25.898  22.000  1.00  0.00    -0.254 OA
BRANCH  10  12
ATOM     12  C   UNL A   1      34.745  24.498  24.017  1.00  0.00     0.039 A 
ATOM     13  C   UNL A   1      35.246  23.440  23.255  1.00  0.00     0.021 A 
ATOM     14  C   UNL A   1      35.208  24.635  25.340  1.00  0.00     0.021 A 
ATOM     15  C   UNL A   1      36.123  22.505  23.816  1.00  0.00     0.040 A 
ATOM     16  C   UNL A   1      36.115  23.727  25.891  1.00  0.00     0.040 A 
ATOM     17  C   UNL A   1      36.551  22.656  25.127  1.00  0.00     0.123 A 
ATOM     18  F   UNL A   1      37.399  21.765  25.654  1.00  0.00    -0.207 F 
ENDBRANCH  10  12
ENDBRANCH   8  10
ENDBRANCH   6   8
ENDBRANCH   3   6
ENDBRANCH   1   2
BRANCH   1  19
ATOM     19  C   UNL A   1      31.422  31.951  26.584  1.00  0.00     0.042 C 
BRANCH  19  20
ATOM     20  C   UNL A   1      32.587  32.622  27.303  1.00  0.00     0.118 C 
BRANCH  20  21
ATOM     21  N   UNL A   1      32.333  34.026  27.594  1.00  0.00    -0.352 N 
ATOM     22  C   UNL A   1      32.939  34.870  28.491  1.00  0.00     0.251 C 
ATOM     23  H   UNL A   1      31.613  34.435  27.062  1.00  0.00     0.163 HD
ATOM     24  O   UNL A   1      32.440  35.971  28.720  1.00  0.00    -0.269 OA
BRANCH  22  25
ATOM     25  C   UNL A   1      34.165  34.460  29.210  1.00  0.00     0.039 A 
ATOM     26  C   UNL A   1      34.043  33.907  30.489  1.00  0.00     0.014 A 
ATOM     27  C   UNL A   1      35.431  34.621  28.641  1.00  0.00     0.014 A 
ATOM     28  C   UNL A   1      35.175  33.428  31.152  1.00  0.00     0.010 A 
ATOM     29  C   UNL A   1      36.550  34.078  29.270  1.00  0.00     0.010 A 
ATOM     30  C   UNL A   1      36.430  33.458  30.523  1.00  0.00    -0.014 A 
BRANCH  30  31
ATOM     31  C   UNL A   1      37.612  32.785  31.124  1.00  0.00     0.031 A 
ATOM     32  C   UNL A   1      38.247  31.602  30.448  1.00  0.00     0.074 A 
ATOM     33  C   UNL A   1      38.049  33.188  32.335  1.00  0.00     0.049 A 
ATOM     34  N   UNL A   1      39.205  30.822  30.879  1.00  0.00    -0.248 NA
ATOM     35  C   UNL A   1      37.725  31.235  29.122  1.00  0.00     0.031 C 
ATOM     36  C   UNL A   1      37.488  34.295  33.111  1.00  0.00     0.029 A 
ATOM     37  N   UNL A   1      39.049  32.697  33.139  1.00  0.00    -0.354 N 
ATOM     38  C   UNL A   1      39.387  29.863  29.892  1.00  0.00     0.074 A 
ATOM     39  C   UNL A   1      38.422  30.139  28.850  1.00  0.00     0.031 C 
ATOM     40  C   UNL A   1      38.150  34.402  34.273  1.00  0.00     0.029 A 
ATOM     41  C   UNL A   1      39.148  33.340  34.351  1.00  0.00     0.049 A 
ATOM     42  H   UNL A   1      39.640  31.955  32.873  1.00  0.00     0.167 HD
ATOM     43  C   UNL A   1      40.286  28.851  29.859  1.00  0.00     0.037 A 
ATOM     44  C   UNL A   1      39.927  33.083  35.418  1.00  0.00     0.037 A 
ATOM     45  C   UNL A   1      41.266  28.602  30.884  1.00  0.00     0.049 A 
ATOM     46  C   UNL A   1      40.896  31.931  35.359  1.00  0.00     0.074 A 
ATOM     47  C   UNL A   1      42.287  27.666  30.888  1.00  0.00     0.029 A 
ATOM     48  N   UNL A   1      41.339  29.279  32.091  1.00  0.00    -0.354 N 
ATOM     49  N   UNL A   1      41.130  31.097  34.375  1.00  0.00    -0.248 NA
ATOM     50  C   UNL A   1      41.706  31.679  36.560  1.00  0.00     0.031 C 
ATOM     51  C   UNL A   1      42.934  27.729  32.125  1.00  0.00     0.029 A 
ATOM     52  C   UNL A   1      42.355  28.745  32.868  1.00  0.00     0.049 A 
ATOM     53  H   UNL A   1      40.757  30.027  32.357  1.00  0.00     0.167 HD
ATOM     54  C   UNL A   1      42.123  30.241  34.829  1.00  0.00     0.074 A 
ATOM     55  C   UNL A   1      42.469  30.670  36.167  1.00  0.00     0.031 C 
ATOM     56  C   UNL A   1      42.692  29.185  34.197  1.00  0.00     0.037 A 
BRANCH  43  57
ATOM     57  C   UNL A   1      40.269  27.919  28.683  1.00  0.00     0.064 A 
ATOM     58  C   UNL A   1      40.995  28.191  27.515  1.00  0.00     0.173 A 
ATOM     59  C   UNL A   1      39.605  26.685  28.773  1.00  0.00     0.173 A 
ATOM     60  F   UNL A   1      41.641  29.359  27.378  1.00  0.00    -0.203 F 
ATOM     61  C   UNL A   1      41.051  27.265  26.477  1.00  0.00     0.198 A 
ATOM     62  C   UNL A   1      39.687  25.751  27.744  1.00  0.00     0.198 A 
ATOM     63  F   UNL A   1      38.905  26.372  29.874  1.00  0.00    -0.203 F 
ATOM     64  F   UNL A   1      41.734  27.554  25.360  1.00  0.00    -0.200 F 
ATOM     65  C   UNL A   1      40.408  26.042  26.597  1.00  0.00     0.200 A 
ATOM     66  F   UNL A   1      39.080  24.563  27.871  1.00  0.00    -0.200 F 
ATOM     67  F   UNL A   1      40.487  25.141  25.608  1.00  0.00    -0.200 F 
ENDBRANCH  43  57
BRANCH  44  68
ATOM     68  C   UNL A   1      39.812  33.905  36.654  1.00  0.00     0.064 A 
ATOM     69  C   UNL A   1      38.968  33.518  37.705  1.00  0.00     0.173 A 
ATOM     70  C   UNL A   1      40.501  35.120  36.788  1.00  0.00     0.173 A 
ATOM     71  F   UNL A   1      38.269  32.377  37.616  1.00  0.00    -0.203 F 
ATOM     72  C   UNL A   1      38.789  34.331  38.823  1.00  0.00     0.198 A 
ATOM     73  C   UNL A   1      40.351  35.913  37.923  1.00  0.00     0.198 A 
ATOM     74  F   UNL A   1      41.325  35.537  35.816  1.00  0.00    -0.203 F 
ATOM     75  F   UNL A   1      37.924  33.968  39.779  1.00  0.00    -0.200 F 
ATOM     76  C   UNL A   1      39.484  35.526  38.934  1.00  0.00     0.200 A 
ATOM     77  F   UNL A   1      41.036  37.060  38.033  1.00  0.00    -0.200 F 
ATOM     78  F   UNL A   1      39.306  36.310  40.005  1.00  0.00    -0.200 F 
ENDBRANCH  44  68
BRANCH  56  79
ATOM     79  C   UNL A   1      43.760  28.430  34.935  1.00  0.00     0.064 A 
ATOM     80  C   UNL A   1      43.458  27.285  35.687  1.00  0.00     0.173 A 
ATOM     81  C   UNL A   1      45.104  28.821  34.842  1.00  0.00     0.173 A 
ATOM     82  F   UNL A   1      42.186  26.881  35.821  1.00  0.00    -0.203 F 
ATOM     83  C   UNL A   1      44.462  26.570  36.334  1.00  0.00     0.198 A 
ATOM     84  C   UNL A   1      46.108  28.085  35.462  1.00  0.00     0.198 A 
ATOM     85  F   UNL A   1      45.446  29.906  34.130  1.00  0.00    -0.203 F 
ATOM     86  F   UNL A   1      44.146  25.503  37.080  1.00  0.00    -0.200 F 
ATOM     87  C   UNL A   1      45.787  26.963  36.212  1.00  0.00     0.200 A 
ATOM     88  F   UNL A   1      47.389  28.457  35.331  1.00  0.00    -0.200 F 
ATOM     89  F   UNL A   1      46.753  26.264  36.822  1.00  0.00    -0.200 F 
ENDBRANCH  56  79
ENDBRANCH  30  31
ENDBRANCH  22  25
ENDBRANCH  20  21
ENDBRANCH  19  20
ENDBRANCH   1  19
TORSDOF 13
ENDMDL
MODEL 2
REMARK VINA RESULT:     -11.9      6.066     11.260
REMARK SMILES C[C@@H](C(=O)NCCCNC(=O)c1ccc(-c2c3nc(c(-c4c(F)c(F)c(F)c(F)c4F)c4ccc([nH]4)c(-c4c(F)c(F)c(F)c(F)c4F)c4nc(c(-c5c(F)c(F)c(F)c(F)c5F)c5ccc2[nH]5)C=C4)C=C3)cc1)[C@H](C)[S@@](=O)c1ccc(F)cc1
REMARK SMILES IDX 6 1 5 2 3 3 4 4 2 6 1 7 75 8 76 9 77 10 78 11 79 12 80 13
REMARK SMILES IDX 85 14 81 15 84 16 82 17 83 18 7 19 8 20 9 21 10 22 11 24
REMARK SMILES IDX 12 25 13 26 74 27 14 28 73 29 15 30 16 31 17 32 67 33 18 34
REMARK SMILES IDX 72 35 66 36 68 37 19 38 71 39 65 40 64 41 20 43 52 44 32 45
REMARK SMILES IDX 51 46 33 47 36 48 50 49 69 50 34 51 35 52 49 54 70 55 37 56
REMARK SMILES IDX 21 57 22 58 30 59 23 60 24 61 28 62 31 63 25 64 26 65 29 66
REMARK SMILES IDX 27 67 53 68 54 69 62 70 55 71 56 72 60 73 63 74 57 75 58 76
REMARK SMILES IDX 61 77 59 78 38 79 39 80 47 81 40 82 41 83 45 84 48 85 42 86
REMARK SMILES IDX 43 87 46 88 44 89
REMARK H PARENT 5 5 9 23 68 42 36 53
REMARK Flexibility Score: inf
ROOT
ATOM      1  C   UNL A   1      36.977  21.407  24.727  1.00  0.00     0.117 C 
ENDROOT
BRANCH   1   2
ATOM      2  N   UNL A   1      36.351  21.891  25.946  1.00  0.00    -0.356 N 
ATOM      3  C   UNL A   1      35.314  22.759  26.127  1.00  0.00     0.224 C 
ATOM      4  O   UNL A   1      34.935  22.953  27.282  1.00  0.00    -0.275 OA
ATOM      5  H   UNL A   1      36.739  21.534  26.777  1.00  0.00     0.163 HD
BRANCH   3   6
ATOM      6  C   UNL A   1      34.673  23.455  24.920  1.00  0.00     0.091 C 
ATOM      7  C   UNL A   1      34.302  24.876  25.342  1.00  0.00     0.019 C 
BRANCH   6   8
ATOM      8  C   UNL A   1      33.500  22.601  24.384  1.00  0.00     0.093 C 
ATOM      9  C   UNL A   1      32.301  23.456  23.953  1.00  0.00     0.023 C 
BRANCH   8  10
ATOM     10  S   UNL A   1      32.891  21.213  25.391  1.00  0.00     0.057 S 
ATOM     11  O   UNL A   1      31.391  21.221  25.377  1.00  0.00    -0.254 OA
BRANCH  10  12
ATOM     12  C   UNL A   1      33.367  19.652  24.624  1.00  0.00     0.039 A 
ATOM     13  C   UNL A   1      34.469  18.866  24.967  1.00  0.00     0.021 A 
ATOM     14  C   UNL A   1      32.528  19.197  23.590  1.00  0.00     0.021 A 
ATOM     15  C   UNL A   1      34.769  17.701  24.251  1.00  0.00     0.040 A 
ATOM     16  C   UNL A   1      32.801  18.013  22.899  1.00  0.00     0.040 A 
ATOM     17  C   UNL A   1      33.932  17.284  23.226  1.00  0.00     0.123 A 
ATOM     18  F   UNL A   1      34.219  16.163  22.553  1.00  0.00    -0.207 F 
ENDBRANCH  10  12
ENDBRANCH   8  10
ENDBRANCH   6   8
ENDBRANCH   3   6
ENDBRANCH   1   2
BRANCH   1  19
ATOM     19  C   UNL A   1      37.898  20.214  24.968  1.00  0.00     0.042 C 
BRANCH  19  20
ATOM     20  C   UNL A   1      39.077  20.506  25.889  1.00  0.00     0.118 C 
BRANCH  20  21
ATOM     21  N   UNL A   1      40.040  19.415  25.930  1.00  0.00    -0.352 N 
ATOM     22  C   UNL A   1      41.406  19.442  26.070  1.00  0.00     0.251 C 
ATOM     23  H   UNL A   1      39.650  18.516  25.845  1.00  0.00     0.163 HD
ATOM     24  O   UNL A   1      42.054  18.413  25.881  1.00  0.00    -0.269 OA
BRANCH  22  25
ATOM     25  C   UNL A   1      42.109  20.697  26.412  1.00  0.00     0.039 A 
ATOM     26  C   UNL A   1      42.593  21.501  25.375  1.00  0.00     0.014 A 
ATOM     27  C   UNL A   1      42.303  21.084  27.740  1.00  0.00     0.014 A 
ATOM     28  C   UNL A   1      43.180  22.736  25.667  1.00  0.00     0.010 A 
ATOM     29  C   UNL A   1      42.821  22.346  28.028  1.00  0.00     0.010 A 
ATOM     30  C   UNL A   1      43.246  23.192  26.992  1.00  0.00    -0.014 A 
BRANCH  30  31
ATOM     31  C   UNL A   1      43.689  24.575  27.312  1.00  0.00     0.031 A 
ATOM     32  C   UNL A   1      42.705  25.604  27.794  1.00  0.00     0.074 A 
ATOM     33  C   UNL A   1      44.970  24.926  27.070  1.00  0.00     0.049 A 
ATOM     34  N   UNL A   1      42.885  26.882  28.010  1.00  0.00    -0.248 NA
ATOM     35  C   UNL A   1      41.331  25.140  28.051  1.00  0.00     0.031 C 
ATOM     36  C   UNL A   1      46.009  24.029  26.560  1.00  0.00     0.029 A 
ATOM     37  N   UNL A   1      45.611  26.134  27.195  1.00  0.00    -0.354 N 
ATOM     38  C   UNL A   1      41.651  27.379  28.405  1.00  0.00     0.074 A 
ATOM     39  C   UNL A   1      40.719  26.272  28.375  1.00  0.00     0.031 C 
ATOM     40  C   UNL A   1      47.155  24.714  26.419  1.00  0.00     0.029 A 
ATOM     41  C   UNL A   1      46.921  26.109  26.776  1.00  0.00     0.049 A 
ATOM     42  H   UNL A   1      45.173  26.943  27.550  1.00  0.00     0.167 HD
ATOM     43  C   UNL A   1      41.332  28.643  28.769  1.00  0.00     0.037 A 
ATOM     44  C   UNL A   1      47.822  27.103  26.660  1.00  0.00     0.037 A 
ATOM     45  C   UNL A   1      42.271  29.732  28.830  1.00  0.00     0.049 A 
ATOM     46  C   UNL A   1      47.424  28.504  27.046  1.00  0.00     0.074 A 
ATOM     47  C   UNL A   1      42.063  31.022  29.288  1.00  0.00     0.029 A 
ATOM     48  N   UNL A   1      43.589  29.666  28.406  1.00  0.00    -0.354 N 
ATOM     49  N   UNL A   1      46.281  28.938  27.519  1.00  0.00    -0.248 NA
ATOM     50  C   UNL A   1      48.438  29.555  26.876  1.00  0.00     0.031 C 
ATOM     51  C   UNL A   1      43.234  31.756  29.078  1.00  0.00     0.029 A 
ATOM     52  C   UNL A   1      44.190  30.908  28.545  1.00  0.00     0.049 A 
ATOM     53  H   UNL A   1      44.033  28.859  28.060  1.00  0.00     0.167 HD
ATOM     54  C   UNL A   1      46.446  30.301  27.723  1.00  0.00     0.074 A 
ATOM     55  C   UNL A   1      47.807  30.620  27.348  1.00  0.00     0.031 C 
ATOM     56  C   UNL A   1      45.548  31.210  28.172  1.00  0.00     0.037 A 
BRANCH  43  57
ATOM     57  C   UNL A   1      39.907  28.942  29.134  1.00  0.00     0.064 A 
ATOM     58  C   UNL A   1      38.961  29.317  28.170  1.00  0.00     0.173 A 
ATOM     59  C   UNL A   1      39.461  28.742  30.451  1.00  0.00     0.173 A 
ATOM     60  F   UNL A   1      39.338  29.526  26.900  1.00  0.00    -0.203 F 
ATOM     61  C   UNL A   1      37.622  29.487  28.511  1.00  0.00     0.198 A 
ATOM     62  C   UNL A   1      38.117  28.887  30.782  1.00  0.00     0.198 A 
ATOM     63  F   UNL A   1      40.325  28.374  31.409  1.00  0.00    -0.203 F 
ATOM     64  F   UNL A   1      36.738  29.865  27.577  1.00  0.00    -0.200 F 
ATOM     65  C   UNL A   1      37.199  29.260  29.813  1.00  0.00     0.200 A 
ATOM     66  F   UNL A   1      37.708  28.650  32.036  1.00  0.00    -0.200 F 
ATOM     67  F   UNL A   1      35.905  29.398  30.132  1.00  0.00    -0.200 F 
ENDBRANCH  43  57
BRANCH  44  68
ATOM     68  C   UNL A   1      49.184  26.828  26.126  1.00  0.00     0.064 A 
ATOM     69  C   UNL A   1      49.478  27.004  24.766  1.00  0.00     0.173 A 
ATOM     70  C   UNL A   1      50.205  26.336  26.953  1.00  0.00     0.173 A 
ATOM     71  F   UNL A   1      48.529  27.450  23.929  1.00  0.00    -0.203 F 
ATOM     72  C   UNL A   1      50.725  26.662  24.248  1.00  0.00     0.198 A 
ATOM     73  C   UNL A   1      51.464  26.030  26.440  1.00  0.00     0.198 A 
ATOM     74  F   UNL A   1      49.982  26.153  28.262  1.00  0.00    -0.203 F 
ATOM     75  F   UNL A   1      50.955  26.774  22.932  1.00  0.00    -0.200 F 
ATOM     76  C   UNL A   1      51.719  26.179  25.085  1.00  0.00     0.200 A 
ATOM     77  F   UNL A   1      52.426  25.579  27.256  1.00  0.00    -0.200 F 
ATOM     78  F   UNL A   1      52.916  25.844  24.585  1.00  0.00    -0.200 F 
ENDBRANCH  44  68
BRANCH  56  79
ATOM     79  C   UNL A   1      46.007  32.633  28.300  1.00  0.00     0.064 A 
ATOM     80  C   UNL A   1      46.646  33.093  29.461  1.00  0.00     0.173 A 
ATOM     81  C   UNL A   1      45.861  33.531  27.232  1.00  0.00     0.173 A 
ATOM     82  F   UNL A   1      46.795  32.279  30.518  1.00  0.00    -0.203 F 
ATOM     83  C   UNL A   1      47.105  34.405  29.554  1.00  0.00     0.198 A 
ATOM     84  C   UNL A   1      46.349  34.830  27.315  1.00  0.00     0.198 A 
ATOM     85  F   UNL A   1      45.262  33.138  26.097  1.00  0.00    -0.203 F 
ATOM     86  F   UNL A   1      47.674  34.834  30.688  1.00  0.00    -0.200 F 
ATOM     87  C   UNL A   1      46.966  35.268  28.478  1.00  0.00     0.200 A 
ATOM     88  F   UNL A   1      46.230  35.659  26.269  1.00  0.00    -0.200 F 
ATOM     89  F   UNL A   1      47.423  36.525  28.562  1.00  0.00    -0.200 F 
ENDBRANCH  56  79
ENDBRANCH  30  31
ENDBRANCH  22  25
ENDBRANCH  20  21
ENDBRANCH  19  20
ENDBRANCH   1  19
TORSDOF 13
ENDMDL
MODEL 3
REMARK VINA RESULT:     -11.9      5.866     11.275
REMARK SMILES C[C@@H](C(=O)NCCCNC(=O)c1ccc(-c2c3nc(c(-c4c(F)c(F)c(F)c(F)c4F)c4ccc([nH]4)c(-c4c(F)c(F)c(F)c(F)c4F)c4nc(c(-c5c(F)c(F)c(F)c(F)c5F)c5ccc2[nH]5)C=C4)C=C3)cc1)[C@H](C)[S@@](=O)c1ccc(F)cc1
REMARK SMILES IDX 6 1 5 2 3 3 4 4 2 6 1 7 75 8 76 9 77 10 78 11 79 12 80 13
REMARK SMILES IDX 85 14 81 15 84 16 82 17 83 18 7 19 8 20 9 21 10 22 11 24
REMARK SMILES IDX 12 25 13 26 74 27 14 28 73 29 15 30 16 31 17 32 67 33 18 34
REMARK SMILES IDX 72 35 66 36 68 37 19 38 71 39 65 40 64 41 20 43 52 44 32 45
REMARK SMILES IDX 51 46 33 47 36 48 50 49 69 50 34 51 35 52 49 54 70 55 37 56
REMARK SMILES IDX 21 57 22 58 30 59 23 60 24 61 28 62 31 63 25 64 26 65 29 66
REMARK SMILES IDX 27 67 53 68 54 69 62 70 55 71 56 72 60 73 63 74 57 75 58 76
REMARK SMILES IDX 61 77 59 78 38 79 39 80 47 81 40 82 41 83 45 84 48 85 42 86
REMARK SMILES IDX 43 87 46 88 44 89
REMARK H PARENT 5 5 9 23 68 42 36 53
REMARK Flexibility Score: inf
ROOT
ATOM      1  C   UNL A   1      36.766  20.638  25.139  1.00  0.00     0.117 C 
ENDROOT
BRANCH   1   2
ATOM      2  N   UNL A   1      37.118  21.985  25.556  1.00  0.00    -0.356 N 
ATOM      3  C   UNL A   1      36.343  23.098  25.705  1.00  0.00     0.224 C 
ATOM      4  O   UNL A   1      36.890  24.112  26.138  1.00  0.00    -0.275 OA
ATOM      5  H   UNL A   1      38.071  22.115  25.766  1.00  0.00     0.163 HD
BRANCH   3   6
ATOM      6  C   UNL A   1      34.857  23.057  25.330  1.00  0.00     0.091 C 
ATOM      7  C   UNL A   1      34.686  23.810  24.010  1.00  0.00     0.019 C 
BRANCH   6   8
ATOM      8  C   UNL A   1      34.004  23.591  26.505  1.00  0.00     0.093 C 
ATOM      9  C   UNL A   1      33.854  22.564  27.635  1.00  0.00     0.023 C 
BRANCH   8  10
ATOM     10  S   UNL A   1      32.369  24.307  26.151  1.00  0.00     0.057 S 
ATOM     11  O   UNL A   1      31.434  23.967  27.274  1.00  0.00    -0.254 OA
BRANCH  10  12
ATOM     12  C   UNL A   1      32.482  26.106  26.152  1.00  0.00     0.039 A 
ATOM     13  C   UNL A   1      31.413  27.001  26.247  1.00  0.00     0.021 A 
ATOM     14  C   UNL A   1      33.781  26.639  26.057  1.00  0.00     0.021 A 
ATOM     15  C   UNL A   1      31.626  28.382  26.172  1.00  0.00     0.040 A 
ATOM     16  C   UNL A   1      34.002  28.018  26.023  1.00  0.00     0.040 A 
ATOM     17  C   UNL A   1      32.917  28.879  26.063  1.00  0.00     0.123 A 
ATOM     18  F   UNL A   1      33.115  30.201  26.004  1.00  0.00    -0.207 F 
ENDBRANCH  10  12
ENDBRANCH   8  10
ENDBRANCH   6   8
ENDBRANCH   3   6
ENDBRANCH   1   2
BRANCH   1  19
ATOM     19  C   UNL A   1      37.987  19.750  24.916  1.00  0.00     0.042 C 
BRANCH  19  20
ATOM     20  C   UNL A   1      39.196  20.116  25.770  1.00  0.00     0.118 C 
BRANCH  20  21
ATOM     21  N   UNL A   1      40.182  19.046  25.836  1.00  0.00    -0.352 N 
ATOM     22  C   UNL A   1      41.537  19.101  26.044  1.00  0.00     0.251 C 
ATOM     23  H   UNL A   1      39.818  18.141  25.713  1.00  0.00     0.163 HD
ATOM     24  O   UNL A   1      42.218  18.092  25.866  1.00  0.00    -0.269 OA
BRANCH  22  25
ATOM     25  C   UNL A   1      42.193  20.364  26.448  1.00  0.00     0.039 A 
ATOM     26  C   UNL A   1      42.873  21.108  25.479  1.00  0.00     0.014 A 
ATOM     27  C   UNL A   1      42.152  20.815  27.769  1.00  0.00     0.014 A 
ATOM     28  C   UNL A   1      43.423  22.349  25.813  1.00  0.00     0.010 A 
ATOM     29  C   UNL A   1      42.636  22.083  28.085  1.00  0.00     0.010 A 
ATOM     30  C   UNL A   1      43.258  22.871  27.105  1.00  0.00    -0.014 A 
BRANCH  30  31
ATOM     31  C   UNL A   1      43.665  24.264  27.433  1.00  0.00     0.031 A 
ATOM     32  C   UNL A   1      42.644  25.279  27.864  1.00  0.00     0.074 A 
ATOM     33  C   UNL A   1      44.949  24.633  27.245  1.00  0.00     0.049 A 
ATOM     34  N   UNL A   1      42.794  26.562  28.077  1.00  0.00    -0.248 NA
ATOM     35  C   UNL A   1      41.268  24.795  28.064  1.00  0.00     0.031 C 
ATOM     36  C   UNL A   1      46.024  23.750  26.789  1.00  0.00     0.029 A 
ATOM     37  N   UNL A   1      45.564  25.853  27.389  1.00  0.00    -0.354 N 
ATOM     38  C   UNL A   1      41.536  27.041  28.414  1.00  0.00     0.074 A 
ATOM     39  C   UNL A   1      40.624  25.920  28.351  1.00  0.00     0.031 C 
ATOM     40  C   UNL A   1      47.163  24.453  26.693  1.00  0.00     0.029 A 
ATOM     41  C   UNL A   1      46.892  25.846  27.028  1.00  0.00     0.049 A 
ATOM     42  H   UNL A   1      45.099  26.656  27.718  1.00  0.00     0.167 HD
ATOM     43  C   UNL A   1      41.181  28.302  28.754  1.00  0.00     0.037 A 
ATOM     44  C   UNL A   1      47.782  26.853  26.944  1.00  0.00     0.037 A 
ATOM     45  C   UNL A   1      42.099  29.407  28.848  1.00  0.00     0.049 A 
ATOM     46  C   UNL A   1      47.345  28.250  27.301  1.00  0.00     0.074 A 
ATOM     47  C   UNL A   1      41.851  30.697  29.286  1.00  0.00     0.029 A 
ATOM     48  N   UNL A   1      43.436  29.360  28.483  1.00  0.00    -0.354 N 
ATOM     49  N   UNL A   1      46.175  28.669  27.721  1.00  0.00    -0.248 NA
ATOM     50  C   UNL A   1      48.348  29.316  27.169  1.00  0.00     0.031 C 
ATOM     51  C   UNL A   1      43.018  31.448  29.122  1.00  0.00     0.029 A 
ATOM     52  C   UNL A   1      44.010  30.612  28.638  1.00  0.00     0.049 A 
ATOM     53  H   UNL A   1      43.907  28.557  28.162  1.00  0.00     0.167 HD
ATOM     54  C   UNL A   1      46.310  30.036  27.921  1.00  0.00     0.074 A 
ATOM     55  C   UNL A   1      47.680  30.374  27.604  1.00  0.00     0.031 C 
ATOM     56  C   UNL A   1      45.378  30.934  28.323  1.00  0.00     0.037 A 
BRANCH  43  57
ATOM     57  C   UNL A   1      39.737  28.581  29.054  1.00  0.00     0.064 A 
ATOM     58  C   UNL A   1      39.204  28.412  30.339  1.00  0.00     0.173 A 
ATOM     59  C   UNL A   1      38.907  29.131  28.064  1.00  0.00     0.173 A 
ATOM     60  F   UNL A   1      39.954  27.886  31.318  1.00  0.00    -0.203 F 
ATOM     61  C   UNL A   1      37.890  28.777  30.621  1.00  0.00     0.198 A 
ATOM     62  C   UNL A   1      37.602  29.519  28.357  1.00  0.00     0.198 A 
ATOM     63  F   UNL A   1      39.372  29.322  26.819  1.00  0.00    -0.203 F 
ATOM     64  F   UNL A   1      37.393  28.587  31.851  1.00  0.00    -0.200 F 
ATOM     65  C   UNL A   1      37.095  29.341  29.633  1.00  0.00     0.200 A 
ATOM     66  F   UNL A   1      36.843  30.080  27.406  1.00  0.00    -0.200 F 
ATOM     67  F   UNL A   1      35.839  29.716  29.915  1.00  0.00    -0.200 F 
ENDBRANCH  43  57
BRANCH  44  68
ATOM     68  C   UNL A   1      49.170  26.597  26.473  1.00  0.00     0.064 A 
ATOM     69  C   UNL A   1      50.171  26.177  27.362  1.00  0.00     0.173 A 
ATOM     70  C   UNL A   1      49.538  26.815  25.137  1.00  0.00     0.173 A 
ATOM     71  F   UNL A   1      49.876  25.977  28.654  1.00  0.00    -0.203 F 
ATOM     72  C   UNL A   1      51.490  26.023  26.941  1.00  0.00     0.198 A 
ATOM     73  C   UNL A   1      50.850  26.624  24.709  1.00  0.00     0.198 A 
ATOM     74  F   UNL A   1      48.621  27.212  24.242  1.00  0.00    -0.203 F 
ATOM     75  F   UNL A   1      52.438  25.689  27.827  1.00  0.00    -0.200 F 
ATOM     76  C   UNL A   1      51.829  26.243  25.615  1.00  0.00     0.200 A 
ATOM     77  F   UNL A   1      51.169  26.822  23.423  1.00  0.00    -0.200 F 
ATOM     78  F   UNL A   1      53.099  26.102  25.212  1.00  0.00    -0.200 F 
ENDBRANCH  44  68
BRANCH  56  79
ATOM     79  C   UNL A   1      45.809  32.365  28.460  1.00  0.00     0.064 A 
ATOM     80  C   UNL A   1      45.666  33.276  27.403  1.00  0.00     0.173 A 
ATOM     81  C   UNL A   1      46.315  32.845  29.677  1.00  0.00     0.173 A 
ATOM     82  F   UNL A   1      45.203  32.863  26.213  1.00  0.00    -0.203 F 
ATOM     83  C   UNL A   1      46.032  34.611  27.555  1.00  0.00     0.198 A 
ATOM     84  C   UNL A   1      46.649  34.185  29.836  1.00  0.00     0.198 A 
ATOM     85  F   UNL A   1      46.466  32.014  30.721  1.00  0.00    -0.203 F 
ATOM     86  F   UNL A   1      45.926  35.454  26.519  1.00  0.00    -0.200 F 
ATOM     87  C   UNL A   1      46.512  35.067  28.774  1.00  0.00     0.200 A 
ATOM     88  F   UNL A   1      47.097  34.628  31.019  1.00  0.00    -0.200 F 
ATOM     89  F   UNL A   1      46.848  36.355  28.923  1.00  0.00    -0.200 F 
ENDBRANCH  56  79
ENDBRANCH  30  31
ENDBRANCH  22  25
ENDBRANCH  20  21
ENDBRANCH  19  20
ENDBRANCH   1  19
TORSDOF 13
ENDMDL
