MODEL 1
REMARK VINA RESULT:     -13.9      0.000      0.000
REMARK SMILES O=C(NCCCNC(=O)c1ccc(-c2c3nc(c(-c4c(F)c(F)c(F)c(F)c4F)c4ccc([nH]4)c(-c4c(F)c(F)c(F)c(F)c4F)c4nc(c(-c5c(F)c(F)c(F)c(F)c5F)c5ccc2[nH]5)C=C4)C=C3)cc1)c1ccc(/C=C/c2ccnc(-c3cccc([N+](=O)[O-])c3)[n+]2[O-])cc1
REMARK SMILES IDX 4 1 3 2 1 3 2 4 73 6 74 7 96 8 75 9 95 10 76 11 77 12 78 13
REMARK SMILES IDX 79 14 80 15 93 16 81 17 83 18 94 19 82 20 84 21 85 22 92 23
REMARK SMILES IDX 86 24 88 25 87 26 89 27 90 28 91 29 5 30 6 31 7 32 8 33 9 35
REMARK SMILES IDX 10 36 11 37 72 38 12 39 71 40 13 41 14 42 15 43 65 44 16 45
REMARK SMILES IDX 70 46 64 47 66 48 17 49 69 50 63 51 62 52 18 54 50 55 30 56
REMARK SMILES IDX 49 57 31 58 34 59 48 60 67 61 32 62 33 63 47 65 68 66 35 67
REMARK SMILES IDX 19 68 20 69 28 70 21 71 22 72 26 73 29 74 23 75 24 76 27 77
REMARK SMILES IDX 25 78 51 79 52 80 60 81 53 82 54 83 58 84 61 85 55 86 56 87
REMARK SMILES IDX 59 88 57 89 36 90 37 91 45 92 38 93 39 94 43 95 46 96 40 97
REMARK SMILES IDX 41 98 44 99 42 100
REMARK H PARENT 3 5 7 34 66 53 34 64
REMARK Flexibility Score: inf
ROOT
ATOM      1  C   UNL A   1      31.395  30.703  25.784  1.00  0.00     0.118 C 
ENDROOT
BRANCH   1   2
ATOM      2  N   UNL A   1      30.573  30.563  24.591  1.00  0.00    -0.352 N 
ATOM      3  O   UNL A   1      29.973  29.747  22.573  1.00  0.00    -0.269 OA
ATOM      4  C   UNL A   1      30.631  29.614  23.600  1.00  0.00     0.251 C 
ATOM      5  H   UNL A   1      29.874  31.247  24.478  1.00  0.00     0.163 HD
BRANCH   4   6
ATOM      6  C   UNL A   1      31.510  28.440  23.768  1.00  0.00     0.039 A 
ATOM      7  C   UNL A   1      32.814  28.454  23.272  1.00  0.00     0.014 A 
ATOM      8  C   UNL A   1      31.020  27.313  24.428  1.00  0.00     0.014 A 
ATOM      9  C   UNL A   1      33.590  27.297  23.334  1.00  0.00     0.009 A 
ATOM     10  C   UNL A   1      31.809  26.162  24.500  1.00  0.00     0.009 A 
ATOM     11  C   UNL A   1      33.087  26.127  23.919  1.00  0.00    -0.025 A 
BRANCH  11  12
ATOM     12  C   UNL A   1      33.867  24.881  23.994  1.00  0.00     0.012 C 
ATOM     13  C   UNL A   1      34.058  24.165  25.114  1.00  0.00     0.053 C 
BRANCH  13  14
ATOM     14  C   UNL A   1      34.786  22.889  25.117  1.00  0.00     0.134 A 
ATOM     15  C   UNL A   1      36.142  22.905  25.447  1.00  0.00     0.100 A 
ATOM     16  N   UNL A   1      34.143  21.684  24.792  1.00  0.00    -0.228 N 
ATOM     17  C   UNL A   1      36.811  21.706  25.480  1.00  0.00     0.259 A 
ATOM     18  C   UNL A   1      34.907  20.514  24.831  1.00  0.00     0.333 A 
ATOM     19  O   UNL A   1      32.904  21.666  24.464  1.00  0.00    -0.710 OA
ATOM     20  N   UNL A   1      36.229  20.531  25.194  1.00  0.00    -0.049 NA
BRANCH  18  21
ATOM     21  C   UNL A   1      34.345  19.218  24.444  1.00  0.00     0.076 A 
ATOM     22  C   UNL A   1      33.229  19.148  23.590  1.00  0.00     0.017 A 
ATOM     23  C   UNL A   1      34.864  18.019  24.960  1.00  0.00     0.102 A 
ATOM     24  C   UNL A   1      32.655  17.921  23.244  1.00  0.00     0.008 A 
ATOM     25  C   UNL A   1      34.274  16.792  24.628  1.00  0.00     0.270 A 
ATOM     26  C   UNL A   1      33.174  16.737  23.766  1.00  0.00     0.085 A 
BRANCH  25  27
ATOM     27  N   UNL A   1      34.800  15.553  25.216  1.00  0.00     0.062 N 
ATOM     28  O   UNL A   1      34.006  14.619  25.398  1.00  0.00    -0.258 OA
ATOM     29  O   UNL A   1      36.002  15.519  25.515  1.00  0.00    -0.258 OA
ENDBRANCH  25  27
ENDBRANCH  18  21
ENDBRANCH  13  14
ENDBRANCH  11  12
ENDBRANCH   4   6
ENDBRANCH   1   2
BRANCH   1  30
ATOM     30  C   UNL A   1      31.287  32.084  26.414  1.00  0.00     0.042 C 
BRANCH  30  31
ATOM     31  C   UNL A   1      32.531  32.533  27.168  1.00  0.00     0.118 C 
BRANCH  31  32
ATOM     32  N   UNL A   1      32.459  33.919  27.607  1.00  0.00    -0.352 N 
ATOM     33  C   UNL A   1      33.189  34.612  28.538  1.00  0.00     0.251 C 
ATOM     34  H   UNL A   1      31.766  34.452  27.155  1.00  0.00     0.163 HD
ATOM     35  O   UNL A   1      32.829  35.743  28.854  1.00  0.00    -0.269 OA
BRANCH  33  36
ATOM     36  C   UNL A   1      34.384  34.020  29.182  1.00  0.00     0.039 A 
ATOM     37  C   UNL A   1      34.195  32.995  30.115  1.00  0.00     0.014 A 
ATOM     38  C   UNL A   1      35.675  34.489  28.927  1.00  0.00     0.014 A 
ATOM     39  C   UNL A   1      35.296  32.409  30.743  1.00  0.00     0.010 A 
ATOM     40  C   UNL A   1      36.778  33.843  29.482  1.00  0.00     0.010 A 
ATOM     41  C   UNL A   1      36.601  32.805  30.408  1.00  0.00    -0.014 A 
BRANCH  41  42
ATOM     42  C   UNL A   1      37.777  32.142  31.025  1.00  0.00     0.031 A 
ATOM     43  C   UNL A   1      38.236  32.524  32.406  1.00  0.00     0.074 A 
ATOM     44  C   UNL A   1      38.460  31.218  30.322  1.00  0.00     0.049 A 
ATOM     45  N   UNL A   1      39.237  32.048  33.106  1.00  0.00    -0.248 NA
ATOM     46  C   UNL A   1      37.494  33.599  33.081  1.00  0.00     0.031 C 
ATOM     47  C   UNL A   1      38.161  30.814  28.947  1.00  0.00     0.029 A 
ATOM     48  N   UNL A   1      39.544  30.450  30.664  1.00  0.00    -0.354 N 
ATOM     49  C   UNL A   1      39.251  32.776  34.290  1.00  0.00     0.074 A 
ATOM     50  C   UNL A   1      38.197  33.761  34.193  1.00  0.00     0.031 C 
ATOM     51  C   UNL A   1      39.019  29.850  28.575  1.00  0.00     0.029 A 
ATOM     52  C   UNL A   1      39.945  29.588  29.673  1.00  0.00     0.049 A 
ATOM     53  H   UNL A   1      39.995  30.512  31.538  1.00  0.00     0.167 HD
ATOM     54  C   UNL A   1      40.054  32.620  35.370  1.00  0.00     0.037 A 
ATOM     55  C   UNL A   1      40.941  28.683  29.654  1.00  0.00     0.037 A 
ATOM     56  C   UNL A   1      41.081  31.617  35.478  1.00  0.00     0.049 A 
ATOM     57  C   UNL A   1      41.788  28.500  30.883  1.00  0.00     0.074 A 
ATOM     58  C   UNL A   1      41.896  31.328  36.559  1.00  0.00     0.029 A 
ATOM     59  N   UNL A   1      41.434  30.736  34.466  1.00  0.00    -0.354 N 
ATOM     60  N   UNL A   1      41.732  29.133  32.030  1.00  0.00    -0.248 NA
ATOM     61  C   UNL A   1      42.825  27.462  30.820  1.00  0.00     0.031 C 
ATOM     62  C   UNL A   1      42.771  30.301  36.187  1.00  0.00     0.029 A 
ATOM     63  C   UNL A   1      42.467  29.916  34.891  1.00  0.00     0.049 A 
ATOM     64  H   UNL A   1      41.012  30.699  33.578  1.00  0.00     0.167 HD
ATOM     65  C   UNL A   1      42.709  28.558  32.830  1.00  0.00     0.074 A 
ATOM     66  C   UNL A   1      43.324  27.507  32.047  1.00  0.00     0.031 C 
ATOM     67  C   UNL A   1      43.069  28.875  34.098  1.00  0.00     0.037 A 
BRANCH  54  68
ATOM     68  C   UNL A   1      39.848  33.550  36.532  1.00  0.00     0.064 A 
ATOM     69  C   UNL A   1      38.953  33.244  37.568  1.00  0.00     0.173 A 
ATOM     70  C   UNL A   1      40.585  34.739  36.631  1.00  0.00     0.173 A 
ATOM     71  F   UNL A   1      38.216  32.125  37.516  1.00  0.00    -0.203 F 
ATOM     72  C   UNL A   1      38.785  34.108  38.649  1.00  0.00     0.198 A 
ATOM     73  C   UNL A   1      40.436  35.585  37.728  1.00  0.00     0.198 A 
ATOM     74  F   UNL A   1      41.458  35.076  35.671  1.00  0.00    -0.203 F 
ATOM     75  F   UNL A   1      37.889  33.816  39.603  1.00  0.00    -0.200 F 
ATOM     76  C   UNL A   1      39.531  35.273  38.731  1.00  0.00     0.200 A 
ATOM     77  F   UNL A   1      41.168  36.705  37.812  1.00  0.00    -0.200 F 
ATOM     78  F   UNL A   1      39.375  36.097  39.775  1.00  0.00    -0.200 F 
ENDBRANCH  54  68
BRANCH  55  79
ATOM     79  C   UNL A   1      41.164  27.851  28.443  1.00  0.00     0.064 A 
ATOM     80  C   UNL A   1      42.052  28.263  27.440  1.00  0.00     0.173 A 
ATOM     81  C   UNL A   1      40.491  26.635  28.260  1.00  0.00     0.173 A 
ATOM     82  F   UNL A   1      42.705  29.429  27.562  1.00  0.00    -0.203 F 
ATOM     83  C   UNL A   1      42.240  27.502  26.288  1.00  0.00     0.198 A 
ATOM     84  C   UNL A   1      40.702  25.861  27.121  1.00  0.00     0.198 A 
ATOM     85  F   UNL A   1      39.635  26.194  29.193  1.00  0.00    -0.203 F 
ATOM     86  F   UNL A   1      43.058  27.944  25.323  1.00  0.00    -0.200 F 
ATOM     87  C   UNL A   1      41.569  26.300  26.131  1.00  0.00     0.200 A 
ATOM     88  F   UNL A   1      40.061  24.693  26.980  1.00  0.00    -0.200 F 
ATOM     89  F   UNL A   1      41.751  25.568  25.025  1.00  0.00    -0.200 F 
ENDBRANCH  55  79
BRANCH  67  90
ATOM     90  C   UNL A   1      44.162  28.055  34.721  1.00  0.00     0.064 A 
ATOM     91  C   UNL A   1      43.887  26.864  35.410  1.00  0.00     0.173 A 
ATOM     92  C   UNL A   1      45.501  28.460  34.618  1.00  0.00     0.173 A 
ATOM     93  F   UNL A   1      42.621  26.441  35.549  1.00  0.00    -0.203 F 
ATOM     94  C   UNL A   1      44.909  26.131  36.007  1.00  0.00     0.198 A 
ATOM     95  C   UNL A   1      46.524  27.708  35.189  1.00  0.00     0.198 A 
ATOM     96  F   UNL A   1      45.819  29.587  33.963  1.00  0.00    -0.203 F 
ATOM     97  F   UNL A   1      44.616  25.031  36.713  1.00  0.00    -0.200 F 
ATOM     98  C   UNL A   1      46.226  26.551  35.893  1.00  0.00     0.200 A 
ATOM     99  F   UNL A   1      47.797  28.108  35.067  1.00  0.00    -0.200 F 
ATOM    100  F   UNL A   1      47.207  25.845  36.470  1.00  0.00    -0.200 F 
ENDBRANCH  67  90
ENDBRANCH  41  42
ENDBRANCH  33  36
ENDBRANCH  31  32
ENDBRANCH  30  31
ENDBRANCH   1  30
TORSDOF 14
ENDMDL
MODEL 2
REMARK VINA RESULT:     -13.8      0.633      7.143
REMARK SMILES O=C(NCCCNC(=O)c1ccc(-c2c3nc(c(-c4c(F)c(F)c(F)c(F)c4F)c4ccc([nH]4)c(-c4c(F)c(F)c(F)c(F)c4F)c4nc(c(-c5c(F)c(F)c(F)c(F)c5F)c5ccc2[nH]5)C=C4)C=C3)cc1)c1ccc(/C=C/c2ccnc(-c3cccc([N+](=O)[O-])c3)[n+]2[O-])cc1
REMARK SMILES IDX 4 1 3 2 1 3 2 4 73 6 74 7 96 8 75 9 95 10 76 11 77 12 78 13
REMARK SMILES IDX 79 14 80 15 93 16 81 17 83 18 94 19 82 20 84 21 85 22 92 23
REMARK SMILES IDX 86 24 88 25 87 26 89 27 90 28 91 29 5 30 6 31 7 32 8 33 9 35
REMARK SMILES IDX 10 36 11 37 72 38 12 39 71 40 13 41 14 42 15 43 65 44 16 45
REMARK SMILES IDX 70 46 64 47 66 48 17 49 69 50 63 51 62 52 18 54 50 55 30 56
REMARK SMILES IDX 49 57 31 58 34 59 48 60 67 61 32 62 33 63 47 65 68 66 35 67
REMARK SMILES IDX 19 68 20 69 28 70 21 71 22 72 26 73 29 74 23 75 24 76 27 77
REMARK SMILES IDX 25 78 51 79 52 80 60 81 53 82 54 83 58 84 61 85 55 86 56 87
REMARK SMILES IDX 59 88 57 89 36 90 37 91 45 92 38 93 39 94 43 95 46 96 40 97
REMARK SMILES IDX 41 98 44 99 42 100
REMARK H PARENT 3 5 7 34 66 53 34 64
REMARK Flexibility Score: inf
ROOT
ATOM      1  C   UNL A   1      31.398  30.935  25.827  1.00  0.00     0.118 C 
ENDROOT
BRANCH   1   2
ATOM      2  N   UNL A   1      30.522  30.760  24.678  1.00  0.00    -0.352 N 
ATOM      3  O   UNL A   1      29.834  29.891  22.711  1.00  0.00    -0.269 OA
ATOM      4  C   UNL A   1      30.540  29.788  23.709  1.00  0.00     0.251 C 
ATOM      5  H   UNL A   1      29.813  31.438  24.582  1.00  0.00     0.163 HD
BRANCH   4   6
ATOM      6  C   UNL A   1      31.434  28.624  23.864  1.00  0.00     0.039 A 
ATOM      7  C   UNL A   1      32.718  28.638  23.317  1.00  0.00     0.014 A 
ATOM      8  C   UNL A   1      30.980  27.506  24.563  1.00  0.00     0.014 A 
ATOM      9  C   UNL A   1      33.506  27.489  23.370  1.00  0.00     0.009 A 
ATOM     10  C   UNL A   1      31.780  26.362  24.626  1.00  0.00     0.009 A 
ATOM     11  C   UNL A   1      33.035  26.325  23.996  1.00  0.00    -0.025 A 
BRANCH  11  12
ATOM     12  C   UNL A   1      33.827  25.087  24.063  1.00  0.00     0.012 C 
ATOM     13  C   UNL A   1      33.985  24.339  25.167  1.00  0.00     0.053 C 
BRANCH  13  14
ATOM     14  C   UNL A   1      34.728  23.072  25.159  1.00  0.00     0.134 A 
ATOM     15  C   UNL A   1      36.101  23.113  25.411  1.00  0.00     0.100 A 
ATOM     16  N   UNL A   1      34.084  21.852  24.901  1.00  0.00    -0.228 N 
ATOM     17  C   UNL A   1      36.786  21.923  25.434  1.00  0.00     0.259 A 
ATOM     18  C   UNL A   1      34.864  20.693  24.926  1.00  0.00     0.333 A 
ATOM     19  O   UNL A   1      32.829  21.811  24.646  1.00  0.00    -0.710 OA
ATOM     20  N   UNL A   1      36.204  20.734  25.211  1.00  0.00    -0.049 NA
BRANCH  18  21
ATOM     21  C   UNL A   1      34.298  19.381  24.603  1.00  0.00     0.076 A 
ATOM     22  C   UNL A   1      33.103  19.278  23.866  1.00  0.00     0.017 A 
ATOM     23  C   UNL A   1      34.896  18.199  25.070  1.00  0.00     0.102 A 
ATOM     24  C   UNL A   1      32.528  18.035  23.586  1.00  0.00     0.008 A 
ATOM     25  C   UNL A   1      34.306  16.955  24.805  1.00  0.00     0.270 A 
ATOM     26  C   UNL A   1      33.125  16.867  24.058  1.00  0.00     0.085 A 
BRANCH  25  27
ATOM     27  N   UNL A   1      34.918  15.733  25.343  1.00  0.00     0.062 N 
ATOM     28  O   UNL A   1      34.224  14.707  25.376  1.00  0.00    -0.258 OA
ATOM     29  O   UNL A   1      36.086  15.803  25.751  1.00  0.00    -0.258 OA
ENDBRANCH  25  27
ENDBRANCH  18  21
ENDBRANCH  13  14
ENDBRANCH  11  12
ENDBRANCH   4   6
ENDBRANCH   1   2
BRANCH   1  30
ATOM     30  C   UNL A   1      31.284  32.319  26.448  1.00  0.00     0.042 C 
BRANCH  30  31
ATOM     31  C   UNL A   1      32.544  32.799  27.156  1.00  0.00     0.118 C 
BRANCH  31  32
ATOM     32  N   UNL A   1      32.443  34.173  27.626  1.00  0.00    -0.352 N 
ATOM     33  C   UNL A   1      33.107  34.838  28.625  1.00  0.00     0.251 C 
ATOM     34  H   UNL A   1      31.783  34.720  27.142  1.00  0.00     0.163 HD
ATOM     35  O   UNL A   1      32.726  35.961  28.946  1.00  0.00    -0.269 OA
BRANCH  33  36
ATOM     36  C   UNL A   1      34.254  34.227  29.333  1.00  0.00     0.039 A 
ATOM     37  C   UNL A   1      33.988  33.337  30.380  1.00  0.00     0.014 A 
ATOM     38  C   UNL A   1      35.577  34.550  29.024  1.00  0.00     0.014 A 
ATOM     39  C   UNL A   1      35.042  32.737  31.072  1.00  0.00     0.010 A 
ATOM     40  C   UNL A   1      36.627  33.883  29.651  1.00  0.00     0.010 A 
ATOM     41  C   UNL A   1      36.373  32.979  30.692  1.00  0.00    -0.014 A 
BRANCH  41  42
ATOM     42  C   UNL A   1      37.495  32.296  31.383  1.00  0.00     0.031 A 
ATOM     43  C   UNL A   1      38.217  31.150  30.727  1.00  0.00     0.074 A 
ATOM     44  C   UNL A   1      37.841  32.684  32.626  1.00  0.00     0.049 A 
ATOM     45  N   UNL A   1      39.222  30.439  31.177  1.00  0.00    -0.248 NA
ATOM     46  C   UNL A   1      37.731  30.727  29.406  1.00  0.00     0.031 C 
ATOM     47  C   UNL A   1      37.171  33.730  33.401  1.00  0.00     0.029 A 
ATOM     48  N   UNL A   1      38.840  32.245  33.458  1.00  0.00    -0.354 N 
ATOM     49  C   UNL A   1      39.475  29.481  30.203  1.00  0.00     0.074 A 
ATOM     50  C   UNL A   1      38.485  29.663  29.164  1.00  0.00     0.031 C 
ATOM     51  C   UNL A   1      37.798  33.876  34.579  1.00  0.00     0.029 A 
ATOM     52  C   UNL A   1      38.894  32.915  34.656  1.00  0.00     0.049 A 
ATOM     53  H   UNL A   1      39.459  31.517  33.220  1.00  0.00     0.167 HD
ATOM     54  C   UNL A   1      40.458  28.550  30.166  1.00  0.00     0.037 A 
ATOM     55  C   UNL A   1      39.738  32.777  35.695  1.00  0.00     0.037 A 
ATOM     56  C   UNL A   1      41.463  28.392  31.184  1.00  0.00     0.049 A 
ATOM     57  C   UNL A   1      40.849  31.766  35.608  1.00  0.00     0.074 A 
ATOM     58  C   UNL A   1      42.546  27.530  31.204  1.00  0.00     0.029 A 
ATOM     59  N   UNL A   1      41.508  29.115  32.368  1.00  0.00    -0.354 N 
ATOM     60  N   UNL A   1      41.131  30.927  34.642  1.00  0.00    -0.248 NA
ATOM     61  C   UNL A   1      41.768  31.697  36.751  1.00  0.00     0.031 C 
ATOM     62  C   UNL A   1      43.221  27.701  32.417  1.00  0.00     0.029 A 
ATOM     63  C   UNL A   1      42.589  28.706  33.132  1.00  0.00     0.049 A 
ATOM     64  H   UNL A   1      40.867  29.816  32.626  1.00  0.00     0.167 HD
ATOM     65  C   UNL A   1      42.269  30.246  35.049  1.00  0.00     0.074 A 
ATOM     66  C   UNL A   1      42.641  30.790  36.338  1.00  0.00     0.031 C 
ATOM     67  C   UNL A   1      42.944  29.256  34.414  1.00  0.00     0.037 A 
BRANCH  54  68
ATOM     68  C   UNL A   1      40.505  27.632  28.977  1.00  0.00     0.064 A 
ATOM     69  C   UNL A   1      41.352  27.884  27.887  1.00  0.00     0.173 A 
ATOM     70  C   UNL A   1      39.726  26.467  28.947  1.00  0.00     0.173 A 
ATOM     71  F   UNL A   1      42.109  28.991  27.861  1.00  0.00    -0.203 F 
ATOM     72  C   UNL A   1      41.398  27.015  26.799  1.00  0.00     0.198 A 
ATOM     73  C   UNL A   1      39.797  25.585  27.871  1.00  0.00     0.198 A 
ATOM     74  F   UNL A   1      38.903  26.175  29.966  1.00  0.00    -0.203 F 
ATOM     75  F   UNL A   1      42.180  27.301  25.749  1.00  0.00    -0.200 F 
ATOM     76  C   UNL A   1      40.626  25.863  26.796  1.00  0.00     0.200 A 
ATOM     77  F   UNL A   1      39.060  24.465  27.875  1.00  0.00    -0.200 F 
ATOM     78  F   UNL A   1      40.679  25.024  25.753  1.00  0.00    -0.200 F 
ENDBRANCH  54  68
BRANCH  55  79
ATOM     79  C   UNL A   1      39.592  33.647  36.890  1.00  0.00     0.064 A 
ATOM     80  C   UNL A   1      38.799  33.251  37.976  1.00  0.00     0.173 A 
ATOM     81  C   UNL A   1      40.233  34.892  36.969  1.00  0.00     0.173 A 
ATOM     82  F   UNL A   1      38.150  32.077  37.939  1.00  0.00    -0.203 F 
ATOM     83  C   UNL A   1      38.632  34.079  39.085  1.00  0.00     0.198 A 
ATOM     84  C   UNL A   1      40.088  35.705  38.092  1.00  0.00     0.198 A 
ATOM     85  F   UNL A   1      41.007  35.314  35.959  1.00  0.00    -0.203 F 
ATOM     86  F   UNL A   1      37.828  33.696  40.087  1.00  0.00    -0.200 F 
ATOM     87  C   UNL A   1      39.280  35.302  39.144  1.00  0.00     0.200 A 
ATOM     88  F   UNL A   1      40.728  36.881  38.150  1.00  0.00    -0.200 F 
ATOM     89  F   UNL A   1      39.121  36.095  40.211  1.00  0.00    -0.200 F 
ENDBRANCH  55  79
BRANCH  67  90
ATOM     90  C   UNL A   1      44.168  28.718  35.100  1.00  0.00     0.064 A 
ATOM     91  C   UNL A   1      44.101  27.619  35.969  1.00  0.00     0.173 A 
ATOM     92  C   UNL A   1      45.423  29.305  34.878  1.00  0.00     0.173 A 
ATOM     93  F   UNL A   1      42.921  27.032  36.226  1.00  0.00    -0.203 F 
ATOM     94  C   UNL A   1      45.239  27.151  36.620  1.00  0.00     0.198 A 
ATOM     95  C   UNL A   1      46.564  28.814  35.506  1.00  0.00     0.198 A 
ATOM     96  F   UNL A   1      45.543  30.354  34.050  1.00  0.00    -0.203 F 
ATOM     97  F   UNL A   1      45.140  26.139  37.493  1.00  0.00    -0.200 F 
ATOM     98  C   UNL A   1      46.469  27.746  36.385  1.00  0.00     0.200 A 
ATOM     99  F   UNL A   1      47.754  29.382  35.269  1.00  0.00    -0.200 F 
ATOM    100  F   UNL A   1      47.563  27.296  37.015  1.00  0.00    -0.200 F 
ENDBRANCH  67  90
ENDBRANCH  41  42
ENDBRANCH  33  36
ENDBRANCH  31  32
ENDBRANCH  30  31
ENDBRANCH   1  30
TORSDOF 14
ENDMDL
MODEL 3
REMARK VINA RESULT:     -13.7      5.197      8.870
REMARK SMILES O=C(NCCCNC(=O)c1ccc(-c2c3nc(c(-c4c(F)c(F)c(F)c(F)c4F)c4ccc([nH]4)c(-c4c(F)c(F)c(F)c(F)c4F)c4nc(c(-c5c(F)c(F)c(F)c(F)c5F)c5ccc2[nH]5)C=C4)C=C3)cc1)c1ccc(/C=C/c2ccnc(-c3cccc([N+](=O)[O-])c3)[n+]2[O-])cc1
REMARK SMILES IDX 4 1 3 2 1 3 2 4 73 6 74 7 96 8 75 9 95 10 76 11 77 12 78 13
REMARK SMILES IDX 79 14 80 15 93 16 81 17 83 18 94 19 82 20 84 21 85 22 92 23
REMARK SMILES IDX 86 24 88 25 87 26 89 27 90 28 91 29 5 30 6 31 7 32 8 33 9 35
REMARK SMILES IDX 10 36 11 37 72 38 12 39 71 40 13 41 14 42 15 43 65 44 16 45
REMARK SMILES IDX 70 46 64 47 66 48 17 49 69 50 63 51 62 52 18 54 50 55 30 56
REMARK SMILES IDX 49 57 31 58 34 59 48 60 67 61 32 62 33 63 47 65 68 66 35 67
REMARK SMILES IDX 19 68 20 69 28 70 21 71 22 72 26 73 29 74 23 75 24 76 27 77
REMARK SMILES IDX 25 78 51 79 52 80 60 81 53 82 54 83 58 84 61 85 55 86 56 87
REMARK SMILES IDX 59 88 57 89 36 90 37 91 45 92 38 93 39 94 43 95 46 96 40 97
REMARK SMILES IDX 41 98 44 99 42 100
REMARK H PARENT 3 5 7 34 66 53 34 64
REMARK Flexibility Score: inf
ROOT
ATOM      1  C   UNL A   1      34.101  35.004  29.247  1.00  0.00     0.118 C 
ENDROOT
BRANCH   1   2
ATOM      2  N   UNL A   1      33.128  35.388  30.259  1.00  0.00    -0.352 N 
ATOM      3  O   UNL A   1      32.111  35.350  32.273  1.00  0.00    -0.269 OA
ATOM      4  C   UNL A   1      33.101  35.089  31.598  1.00  0.00     0.251 C 
ATOM      5  H   UNL A   1      32.381  35.942  29.935  1.00  0.00     0.163 HD
BRANCH   4   6
ATOM      6  C   UNL A   1      34.267  34.431  32.220  1.00  0.00     0.039 A 
ATOM      7  C   UNL A   1      34.416  33.045  32.156  1.00  0.00     0.014 A 
ATOM      8  C   UNL A   1      35.220  35.210  32.875  1.00  0.00     0.014 A 
ATOM      9  C   UNL A   1      35.457  32.427  32.847  1.00  0.00     0.009 A 
ATOM     10  C   UNL A   1      36.270  34.587  33.554  1.00  0.00     0.009 A 
ATOM     11  C   UNL A   1      36.379  33.187  33.582  1.00  0.00    -0.025 A 
BRANCH  11  12
ATOM     12  C   UNL A   1      37.485  32.576  34.336  1.00  0.00     0.012 C 
ATOM     13  C   UNL A   1      38.307  31.629  33.856  1.00  0.00     0.053 C 
BRANCH  13  14
ATOM     14  C   UNL A   1      39.441  31.106  34.629  1.00  0.00     0.134 A 
ATOM     15  C   UNL A   1      39.867  31.829  35.744  1.00  0.00     0.100 A 
ATOM     16  N   UNL A   1      40.086  29.915  34.258  1.00  0.00    -0.228 N 
ATOM     17  C   UNL A   1      40.907  31.320  36.483  1.00  0.00     0.259 A 
ATOM     18  C   UNL A   1      41.149  29.483  35.057  1.00  0.00     0.333 A 
ATOM     19  O   UNL A   1      39.716  29.260  33.222  1.00  0.00    -0.710 OA
ATOM     20  N   UNL A   1      41.538  30.176  36.174  1.00  0.00    -0.049 NA
BRANCH  18  21
ATOM     21  C   UNL A   1      41.928  28.291  34.715  1.00  0.00     0.076 A 
ATOM     22  C   UNL A   1      42.941  28.352  33.741  1.00  0.00     0.017 A 
ATOM     23  C   UNL A   1      41.646  27.047  35.305  1.00  0.00     0.102 A 
ATOM     24  C   UNL A   1      43.666  27.214  33.374  1.00  0.00     0.008 A 
ATOM     25  C   UNL A   1      42.361  25.904  34.920  1.00  0.00     0.270 A 
ATOM     26  C   UNL A   1      43.376  25.983  33.960  1.00  0.00     0.085 A 
BRANCH  25  27
ATOM     27  N   UNL A   1      42.020  24.603  35.511  1.00  0.00     0.062 N 
ATOM     28  O   UNL A   1      42.653  23.610  35.125  1.00  0.00    -0.258 OA
ATOM     29  O   UNL A   1      41.105  24.570  36.347  1.00  0.00    -0.258 OA
ENDBRANCH  25  27
ENDBRANCH  18  21
ENDBRANCH  13  14
ENDBRANCH  11  12
ENDBRANCH   4   6
ENDBRANCH   1   2
BRANCH   1  30
ATOM     30  C   UNL A   1      33.686  33.761  28.473  1.00  0.00     0.042 C 
BRANCH  30  31
ATOM     31  C   UNL A   1      34.645  32.586  28.603  1.00  0.00     0.118 C 
BRANCH  31  32
ATOM     32  N   UNL A   1      34.029  31.310  28.274  1.00  0.00    -0.352 N 
ATOM     33  C   UNL A   1      34.575  30.072  28.048  1.00  0.00     0.251 C 
ATOM     34  H   UNL A   1      33.047  31.340  28.201  1.00  0.00     0.163 HD
ATOM     35  O   UNL A   1      33.854  29.174  27.619  1.00  0.00    -0.269 OA
BRANCH  33  36
ATOM     36  C   UNL A   1      36.010  29.804  28.289  1.00  0.00     0.039 A 
ATOM     37  C   UNL A   1      36.393  29.330  29.549  1.00  0.00     0.014 A 
ATOM     38  C   UNL A   1      36.987  30.058  27.324  1.00  0.00     0.014 A 
ATOM     39  C   UNL A   1      37.737  29.062  29.816  1.00  0.00     0.010 A 
ATOM     40  C   UNL A   1      38.314  29.704  27.558  1.00  0.00     0.010 A 
ATOM     41  C   UNL A   1      38.707  29.215  28.812  1.00  0.00    -0.014 A 
BRANCH  41  42
ATOM     42  C   UNL A   1      40.128  28.871  29.071  1.00  0.00     0.031 A 
ATOM     43  C   UNL A   1      41.026  29.825  29.813  1.00  0.00     0.074 A 
ATOM     44  C   UNL A   1      40.624  27.710  28.602  1.00  0.00     0.049 A 
ATOM     45  N   UNL A   1      42.289  29.691  30.135  1.00  0.00    -0.248 NA
ATOM     46  C   UNL A   1      40.439  31.110  30.221  1.00  0.00     0.031 C 
ATOM     47  C   UNL A   1      39.877  26.734  27.805  1.00  0.00     0.029 A 
ATOM     48  N   UNL A   1      41.871  27.151  28.726  1.00  0.00    -0.354 N 
ATOM     49  C   UNL A   1      42.647  30.875  30.767  1.00  0.00     0.074 A 
ATOM     50  C   UNL A   1      41.487  31.739  30.735  1.00  0.00     0.031 C 
ATOM     51  C   UNL A   1      40.669  25.683  27.540  1.00  0.00     0.029 A 
ATOM     52  C   UNL A   1      41.986  25.922  28.123  1.00  0.00     0.049 A 
ATOM     53  H   UNL A   1      42.614  27.590  29.201  1.00  0.00     0.167 HD
ATOM     54  C   UNL A   1      43.827  31.203  31.345  1.00  0.00     0.037 A 
ATOM     55  C   UNL A   1      43.034  25.079  28.055  1.00  0.00     0.037 A 
ATOM     56  C   UNL A   1      44.970  30.330  31.406  1.00  0.00     0.049 A 
ATOM     57  C   UNL A   1      44.319  25.450  28.744  1.00  0.00     0.074 A 
ATOM     58  C   UNL A   1      46.186  30.540  32.034  1.00  0.00     0.029 A 
ATOM     59  N   UNL A   1      45.038  29.076  30.816  1.00  0.00    -0.354 N 
ATOM     60  N   UNL A   1      44.615  26.535  29.416  1.00  0.00    -0.248 NA
ATOM     61  C   UNL A   1      45.408  24.467  28.678  1.00  0.00     0.031 C 
ATOM     62  C   UNL A   1      47.003  29.432  31.788  1.00  0.00     0.029 A 
ATOM     63  C   UNL A   1      46.280  28.510  31.049  1.00  0.00     0.049 A 
ATOM     64  H   UNL A   1      44.310  28.653  30.306  1.00  0.00     0.167 HD
ATOM     65  C   UNL A   1      45.914  26.359  29.870  1.00  0.00     0.074 A 
ATOM     66  C   UNL A   1      46.339  25.050  29.420  1.00  0.00     0.031 C 
ATOM     67  C   UNL A   1      46.688  27.206  30.592  1.00  0.00     0.037 A 
BRANCH  54  68
ATOM     68  C   UNL A   1      43.943  32.565  31.970  1.00  0.00     0.064 A 
ATOM     69  C   UNL A   1      44.356  33.682  31.229  1.00  0.00     0.173 A 
ATOM     70  C   UNL A   1      43.594  32.762  33.314  1.00  0.00     0.173 A 
ATOM     71  F   UNL A   1      44.711  33.545  29.942  1.00  0.00    -0.203 F 
ATOM     72  C   UNL A   1      44.441  34.942  31.817  1.00  0.00     0.198 A 
ATOM     73  C   UNL A   1      43.652  34.029  33.891  1.00  0.00     0.198 A 
ATOM     74  F   UNL A   1      43.187  31.729  34.067  1.00  0.00    -0.203 F 
ATOM     75  F   UNL A   1      44.883  35.985  31.101  1.00  0.00    -0.200 F 
ATOM     76  C   UNL A   1      44.082  35.115  33.145  1.00  0.00     0.200 A 
ATOM     77  F   UNL A   1      43.292  34.197  35.171  1.00  0.00    -0.200 F 
ATOM     78  F   UNL A   1      44.155  36.329  33.707  1.00  0.00    -0.200 F 
ENDBRANCH  54  68
BRANCH  55  79
ATOM     79  C   UNL A   1      42.897  23.783  27.342  1.00  0.00     0.064 A 
ATOM     80  C   UNL A   1      42.384  22.653  27.994  1.00  0.00     0.173 A 
ATOM     81  C   UNL A   1      43.283  23.645  26.001  1.00  0.00     0.173 A 
ATOM     82  F   UNL A   1      42.020  22.731  29.282  1.00  0.00    -0.203 F 
ATOM     83  C   UNL A   1      42.285  21.428  27.338  1.00  0.00     0.198 A 
ATOM     84  C   UNL A   1      43.155  22.426  25.338  1.00  0.00     0.198 A 
ATOM     85  F   UNL A   1      43.774  24.697  25.331  1.00  0.00    -0.203 F 
ATOM     86  F   UNL A   1      41.837  20.352  28.000  1.00  0.00    -0.200 F 
ATOM     87  C   UNL A   1      42.666  21.316  26.010  1.00  0.00     0.200 A 
ATOM     88  F   UNL A   1      43.512  22.326  24.051  1.00  0.00    -0.200 F 
ATOM     89  F   UNL A   1      42.569  20.138  25.381  1.00  0.00    -0.200 F 
ENDBRANCH  55  79
BRANCH  67  90
ATOM     90  C   UNL A   1      48.064  26.727  30.958  1.00  0.00     0.064 A 
ATOM     91  C   UNL A   1      49.183  27.034  30.169  1.00  0.00     0.173 A 
ATOM     92  C   UNL A   1      48.266  25.961  32.115  1.00  0.00     0.173 A 
ATOM     93  F   UNL A   1      49.040  27.751  29.043  1.00  0.00    -0.203 F 
ATOM     94  C   UNL A   1      50.447  26.557  30.505  1.00  0.00     0.198 A 
ATOM     95  C   UNL A   1      49.537  25.513  32.466  1.00  0.00     0.198 A 
ATOM     96  F   UNL A   1      47.230  25.648  32.909  1.00  0.00    -0.203 F 
ATOM     97  F   UNL A   1      51.491  26.809  29.703  1.00  0.00    -0.200 F 
ATOM     98  C   UNL A   1      50.624  25.801  31.654  1.00  0.00     0.200 A 
ATOM     99  F   UNL A   1      49.707  24.794  33.583  1.00  0.00    -0.200 F 
ATOM    100  F   UNL A   1      51.840  25.341  31.975  1.00  0.00    -0.200 F 
ENDBRANCH  67  90
ENDBRANCH  41  42
ENDBRANCH  33  36
ENDBRANCH  31  32
ENDBRANCH  30  31
ENDBRANCH   1  30
TORSDOF 14
ENDMDL
