MODEL 1
REMARK VINA RESULT:     -11.5      0.000      0.000
REMARK SMILES C=CCN(CC(=O)NCCCNC(=O)c1ccc(-c2c3nc(c(-c4c(F)c(F)c(F)c(F)c4F)c4ccc([nH]4)c(-c4c(F)c(F)c(F)c(F)c4F)c4nc(c(-c5c(F)c(F)c(F)c(F)c5F)c5ccc2[nH]5)C=C4)C=C3)cc1)C(=O)N(C)[C@H]1CCC[N@H+](C)C1
REMARK SMILES IDX 9 1 8 2 6 3 7 4 5 6 4 7 3 8 2 9 1 10 78 11 79 12 80 13 81 14
REMARK SMILES IDX 82 15 83 16 88 17 84 18 86 19 85 20 87 21 10 23 11 24 12 25
REMARK SMILES IDX 13 26 14 28 15 29 16 30 77 31 17 32 76 33 18 34 19 35 20 36
REMARK SMILES IDX 70 37 21 38 75 39 69 40 71 41 22 42 74 43 68 44 67 45 23 47
REMARK SMILES IDX 55 48 35 49 54 50 36 51 39 52 53 53 72 54 37 55 38 56 52 58
REMARK SMILES IDX 73 59 40 60 24 61 25 62 33 63 26 64 27 65 31 66 34 67 28 68
REMARK SMILES IDX 29 69 32 70 30 71 56 72 57 73 65 74 58 75 59 76 63 77 66 78
REMARK SMILES IDX 60 79 61 80 64 81 62 82 41 83 42 84 50 85 43 86 44 87 48 88
REMARK SMILES IDX 51 89 45 90 46 91 49 92 47 93
REMARK H PARENT 8 5 86 22 12 27 71 46 39 57
REMARK Flexibility Score: inf
ROOT
ATOM      1  C   UNL A   1      31.550  30.678  26.364  1.00  0.00     0.117 C 
ENDROOT
BRANCH   1   2
ATOM      2  N   UNL A   1      31.442  30.314  24.966  1.00  0.00    -0.354 N 
ATOM      3  C   UNL A   1      31.198  29.093  24.405  1.00  0.00     0.239 C 
ATOM      4  O   UNL A   1      30.843  29.071  23.224  1.00  0.00    -0.273 OA
ATOM      5  H   UNL A   1      31.561  31.055  24.327  1.00  0.00     0.163 HD
BRANCH   3   6
ATOM      6  C   UNL A   1      31.246  27.807  25.243  1.00  0.00     0.221 C 
BRANCH   6   7
ATOM      7  N   UNL A   1      32.384  26.940  24.933  1.00  0.00    -0.312 N 
BRANCH   7   8
ATOM      8  C   UNL A   1      33.706  27.567  25.058  1.00  0.00     0.149 C 
BRANCH   8   9
ATOM      9  C   UNL A   1      34.054  27.805  26.498  1.00  0.00    -0.013 C 
ATOM     10  C   UNL A   1      34.559  28.962  26.950  1.00  0.00     0.006 C 
ENDBRANCH   8   9
ENDBRANCH   7   8
BRANCH   7  11
ATOM     11  C   UNL A   1      32.374  25.650  24.421  1.00  0.00     0.320 C 
ATOM     12  O   UNL A   1      31.561  24.871  24.933  1.00  0.00    -0.248 OA
BRANCH  11  13
ATOM     13  N   UNL A   1      33.198  25.236  23.380  1.00  0.00    -0.319 N 
ATOM     14  C   UNL A   1      33.151  25.744  22.013  1.00  0.00     0.149 C 
BRANCH  13  15
ATOM     15  C   UNL A   1      34.425  24.388  23.649  1.00  0.00     0.141 C 
ATOM     16  C   UNL A   1      35.096  24.435  25.043  1.00  0.00     0.037 C 
ATOM     17  C   UNL A   1      34.180  22.861  23.392  1.00  0.00     0.287 C 
ATOM     18  C   UNL A   1      34.240  23.757  26.118  1.00  0.00     0.064 C 
ATOM     19  N   UNL A   1      33.236  22.296  24.371  1.00  0.00    -0.336 N 
ATOM     20  C   UNL A   1      33.822  22.339  25.718  1.00  0.00     0.262 C 
ATOM     21  C   UNL A   1      32.859  20.932  24.014  1.00  0.00     0.332 C 
ATOM     22  H   UNL A   1      32.387  22.862  24.364  1.00  0.00     0.347 HD
ENDBRANCH  13  15
ENDBRANCH  11  13
ENDBRANCH   7  11
ENDBRANCH   6   7
ENDBRANCH   3   6
ENDBRANCH   1   2
BRANCH   1  23
ATOM     23  C   UNL A   1      31.414  32.174  26.618  1.00  0.00     0.042 C 
BRANCH  23  24
ATOM     24  C   UNL A   1      32.583  32.792  27.379  1.00  0.00     0.118 C 
BRANCH  24  25
ATOM     25  N   UNL A   1      32.375  34.203  27.673  1.00  0.00    -0.352 N 
ATOM     26  C   UNL A   1      32.965  35.019  28.606  1.00  0.00     0.251 C 
ATOM     27  H   UNL A   1      31.700  34.646  27.109  1.00  0.00     0.163 HD
ATOM     28  O   UNL A   1      32.486  36.124  28.839  1.00  0.00    -0.269 OA
BRANCH  26  29
ATOM     29  C   UNL A   1      34.164  34.569  29.346  1.00  0.00     0.039 A 
ATOM     30  C   UNL A   1      34.007  34.052  30.636  1.00  0.00     0.014 A 
ATOM     31  C   UNL A   1      35.438  34.676  28.785  1.00  0.00     0.014 A 
ATOM     32  C   UNL A   1      35.116  33.556  31.323  1.00  0.00     0.010 A 
ATOM     33  C   UNL A   1      36.531  34.116  29.439  1.00  0.00     0.010 A 
ATOM     34  C   UNL A   1      36.378  33.535  30.708  1.00  0.00    -0.014 A 
BRANCH  34  35
ATOM     35  C   UNL A   1      37.541  32.865  31.343  1.00  0.00     0.031 A 
ATOM     36  C   UNL A   1      38.188  31.680  30.688  1.00  0.00     0.074 A 
ATOM     37  C   UNL A   1      37.947  33.271  32.562  1.00  0.00     0.049 A 
ATOM     38  N   UNL A   1      39.127  30.891  31.146  1.00  0.00    -0.248 NA
ATOM     39  C   UNL A   1      37.702  31.321  29.347  1.00  0.00     0.031 C 
ATOM     40  C   UNL A   1      37.372  34.388  33.315  1.00  0.00     0.029 A 
ATOM     41  N   UNL A   1      38.923  32.778  33.393  1.00  0.00    -0.354 N 
ATOM     42  C   UNL A   1      39.334  29.936  30.160  1.00  0.00     0.074 A 
ATOM     43  C   UNL A   1      38.393  30.218  29.096  1.00  0.00     0.031 C 
ATOM     44  C   UNL A   1      38.010  34.500  34.490  1.00  0.00     0.029 A 
ATOM     45  C   UNL A   1      39.001  33.435  34.598  1.00  0.00     0.049 A 
ATOM     46  H   UNL A   1      39.510  32.026  33.149  1.00  0.00     0.167 HD
ATOM     47  C   UNL A   1      40.239  28.930  30.139  1.00  0.00     0.037 A 
ATOM     48  C   UNL A   1      39.764  33.187  35.680  1.00  0.00     0.037 A 
ATOM     49  C   UNL A   1      41.179  28.663  31.198  1.00  0.00     0.049 A 
ATOM     50  C   UNL A   1      40.722  32.028  35.651  1.00  0.00     0.074 A 
ATOM     51  C   UNL A   1      42.180  27.709  31.243  1.00  0.00     0.029 A 
ATOM     52  N   UNL A   1      41.223  29.346  32.405  1.00  0.00    -0.354 N 
ATOM     53  N   UNL A   1      40.965  31.180  34.682  1.00  0.00    -0.248 NA
ATOM     54  C   UNL A   1      41.510  31.789  36.869  1.00  0.00     0.031 C 
ATOM     55  C   UNL A   1      42.787  27.771  32.500  1.00  0.00     0.029 A 
ATOM     56  C   UNL A   1      42.205  28.803  33.218  1.00  0.00     0.049 A 
ATOM     57  H   UNL A   1      40.642  30.103  32.648  1.00  0.00     0.167 HD
ATOM     58  C   UNL A   1      41.942  30.319  35.164  1.00  0.00     0.074 A 
ATOM     59  C   UNL A   1      42.264  30.762  36.504  1.00  0.00     0.031 C 
ATOM     60  C   UNL A   1      42.515  29.253  34.552  1.00  0.00     0.037 A 
BRANCH  47  61
ATOM     61  C   UNL A   1      40.257  28.031  28.934  1.00  0.00     0.064 A 
ATOM     62  C   UNL A   1      40.997  28.352  27.786  1.00  0.00     0.173 A 
ATOM     63  C   UNL A   1      39.567  26.809  28.948  1.00  0.00     0.173 A 
ATOM     64  F   UNL A   1      41.669  29.511  27.718  1.00  0.00    -0.203 F 
ATOM     65  C   UNL A   1      41.019  27.499  26.685  1.00  0.00     0.198 A 
ATOM     66  C   UNL A   1      39.618  25.944  27.859  1.00  0.00     0.198 A 
ATOM     67  F   UNL A   1      38.851  26.448  30.023  1.00  0.00    -0.203 F 
ATOM     68  F   UNL A   1      41.694  27.850  25.582  1.00  0.00    -0.200 F 
ATOM     69  C   UNL A   1      40.338  26.293  26.726  1.00  0.00     0.200 A 
ATOM     70  F   UNL A   1      38.971  24.770  27.905  1.00  0.00    -0.200 F 
ATOM     71  F   UNL A   1      40.369  25.467  25.670  1.00  0.00    -0.200 F 
ENDBRANCH  47  61
BRANCH  48  72
ATOM     72  C   UNL A   1      39.645  34.050  36.886  1.00  0.00     0.064 A 
ATOM     73  C   UNL A   1      38.843  33.664  37.969  1.00  0.00     0.173 A 
ATOM     74  C   UNL A   1      40.320  35.276  36.979  1.00  0.00     0.173 A 
ATOM     75  F   UNL A   1      38.159  32.511  37.918  1.00  0.00    -0.203 F 
ATOM     76  C   UNL A   1      38.707  34.479  39.090  1.00  0.00     0.198 A 
ATOM     77  C   UNL A   1      40.208  36.076  38.115  1.00  0.00     0.198 A 
ATOM     78  F   UNL A   1      41.101  35.693  35.971  1.00  0.00    -0.203 F 
ATOM     79  F   UNL A   1      37.895  34.109  40.090  1.00  0.00    -0.200 F 
ATOM     80  C   UNL A   1      39.395  35.682  39.165  1.00  0.00     0.200 A 
ATOM     81  F   UNL A   1      40.886  37.229  38.189  1.00  0.00    -0.200 F 
ATOM     82  F   UNL A   1      39.266  36.463  40.246  1.00  0.00    -0.200 F 
ENDBRANCH  48  72
BRANCH  60  83
ATOM     83  C   UNL A   1      43.559  28.496  35.319  1.00  0.00     0.064 A 
ATOM     84  C   UNL A   1      44.917  28.838  35.242  1.00  0.00     0.173 A 
ATOM     85  C   UNL A   1      43.192  27.457  36.188  1.00  0.00     0.173 A 
ATOM     86  F   UNL A   1      45.322  29.812  34.413  1.00  0.00    -0.203 F 
ATOM     87  C   UNL A   1      45.870  28.159  35.995  1.00  0.00     0.198 A 
ATOM     88  C   UNL A   1      44.144  26.801  36.964  1.00  0.00     0.198 A 
ATOM     89  F   UNL A   1      41.906  27.094  36.304  1.00  0.00    -0.203 F 
ATOM     90  F   UNL A   1      47.167  28.476  35.876  1.00  0.00    -0.200 F 
ATOM     91  C   UNL A   1      45.482  27.149  36.863  1.00  0.00     0.200 A 
ATOM     92  F   UNL A   1      43.765  25.837  37.814  1.00  0.00    -0.200 F 
ATOM     93  F   UNL A   1      46.399  26.507  37.600  1.00  0.00    -0.200 F 
ENDBRANCH  60  83
ENDBRANCH  34  35
ENDBRANCH  26  29
ENDBRANCH  24  25
ENDBRANCH  23  24
ENDBRANCH   1  23
TORSDOF 16
ENDMDL
MODEL 2
REMARK VINA RESULT:     -11.3      0.977      2.070
REMARK SMILES C=CCN(CC(=O)NCCCNC(=O)c1ccc(-c2c3nc(c(-c4c(F)c(F)c(F)c(F)c4F)c4ccc([nH]4)c(-c4c(F)c(F)c(F)c(F)c4F)c4nc(c(-c5c(F)c(F)c(F)c(F)c5F)c5ccc2[nH]5)C=C4)C=C3)cc1)C(=O)N(C)[C@H]1CCC[N@H+](C)C1
REMARK SMILES IDX 9 1 8 2 6 3 7 4 5 6 4 7 3 8 2 9 1 10 78 11 79 12 80 13 81 14
REMARK SMILES IDX 82 15 83 16 88 17 84 18 86 19 85 20 87 21 10 23 11 24 12 25
REMARK SMILES IDX 13 26 14 28 15 29 16 30 77 31 17 32 76 33 18 34 19 35 20 36
REMARK SMILES IDX 70 37 21 38 75 39 69 40 71 41 22 42 74 43 68 44 67 45 23 47
REMARK SMILES IDX 55 48 35 49 54 50 36 51 39 52 53 53 72 54 37 55 38 56 52 58
REMARK SMILES IDX 73 59 40 60 24 61 25 62 33 63 26 64 27 65 31 66 34 67 28 68
REMARK SMILES IDX 29 69 32 70 30 71 56 72 57 73 65 74 58 75 59 76 63 77 66 78
REMARK SMILES IDX 60 79 61 80 64 81 62 82 41 83 42 84 50 85 43 86 44 87 48 88
REMARK SMILES IDX 51 89 45 90 46 91 49 92 47 93
REMARK H PARENT 8 5 86 22 12 27 71 46 39 57
REMARK Flexibility Score: inf
ROOT
ATOM      1  C   UNL A   1      31.838  30.482  26.096  1.00  0.00     0.117 C 
ENDROOT
BRANCH   1   2
ATOM      2  N   UNL A   1      31.529  29.500  27.116  1.00  0.00    -0.354 N 
ATOM      3  C   UNL A   1      31.796  28.161  27.137  1.00  0.00     0.239 C 
ATOM      4  O   UNL A   1      31.722  27.584  28.225  1.00  0.00    -0.273 OA
ATOM      5  H   UNL A   1      31.058  29.848  27.907  1.00  0.00     0.163 HD
BRANCH   3   6
ATOM      6  C   UNL A   1      32.286  27.425  25.881  1.00  0.00     0.221 C 
BRANCH   6   7
ATOM      7  N   UNL A   1      31.416  26.325  25.461  1.00  0.00    -0.312 N 
BRANCH   7   8
ATOM      8  C   UNL A   1      30.168  26.727  24.798  1.00  0.00     0.149 C 
BRANCH   8   9
ATOM      9  C   UNL A   1      30.448  27.404  23.489  1.00  0.00    -0.013 C 
ATOM     10  C   UNL A   1      31.241  26.876  22.545  1.00  0.00     0.006 C 
ENDBRANCH   8   9
ENDBRANCH   7   8
BRANCH   7  11
ATOM     11  C   UNL A   1      31.555  24.968  25.714  1.00  0.00     0.320 C 
ATOM     12  O   UNL A   1      31.195  24.586  26.833  1.00  0.00    -0.248 OA
BRANCH  11  13
ATOM     13  N   UNL A   1      32.041  24.063  24.775  1.00  0.00    -0.319 N 
ATOM     14  C   UNL A   1      31.235  23.362  23.781  1.00  0.00     0.149 C 
BRANCH  13  15
ATOM     15  C   UNL A   1      33.530  23.925  24.528  1.00  0.00     0.141 C 
ATOM     16  C   UNL A   1      34.529  24.279  25.656  1.00  0.00     0.037 C 
ATOM     17  C   UNL A   1      33.944  22.478  24.089  1.00  0.00     0.287 C 
ATOM     18  C   UNL A   1      34.498  23.255  26.796  1.00  0.00     0.064 C 
ATOM     19  N   UNL A   1      33.758  21.511  25.183  1.00  0.00    -0.336 N 
ATOM     20  C   UNL A   1      34.672  21.821  26.291  1.00  0.00     0.262 C 
ATOM     21  C   UNL A   1      33.955  20.142  24.716  1.00  0.00     0.332 C 
ATOM     22  H   UNL A   1      32.797  21.585  25.520  1.00  0.00     0.347 HD
ENDBRANCH  13  15
ENDBRANCH  11  13
ENDBRANCH   7  11
ENDBRANCH   6   7
ENDBRANCH   3   6
ENDBRANCH   1   2
BRANCH   1  23
ATOM     23  C   UNL A   1      31.567  31.918  26.529  1.00  0.00     0.042 C 
BRANCH  23  24
ATOM     24  C   UNL A   1      32.720  32.578  27.277  1.00  0.00     0.118 C 
BRANCH  24  25
ATOM     25  N   UNL A   1      32.456  33.976  27.591  1.00  0.00    -0.352 N 
ATOM     26  C   UNL A   1      32.997  34.795  28.551  1.00  0.00     0.251 C 
ATOM     27  H   UNL A   1      31.777  34.404  27.021  1.00  0.00     0.163 HD
ATOM     28  O   UNL A   1      32.474  35.878  28.793  1.00  0.00    -0.269 OA
BRANCH  26  29
ATOM     29  C   UNL A   1      34.196  34.375  29.308  1.00  0.00     0.039 A 
ATOM     30  C   UNL A   1      34.027  33.754  30.549  1.00  0.00     0.014 A 
ATOM     31  C   UNL A   1      35.479  34.611  28.812  1.00  0.00     0.014 A 
ATOM     32  C   UNL A   1      35.142  33.286  31.247  1.00  0.00     0.010 A 
ATOM     33  C   UNL A   1      36.584  34.081  29.471  1.00  0.00     0.010 A 
ATOM     34  C   UNL A   1      36.425  33.398  30.687  1.00  0.00    -0.014 A 
BRANCH  34  35
ATOM     35  C   UNL A   1      37.607  32.764  31.322  1.00  0.00     0.031 A 
ATOM     36  C   UNL A   1      38.297  31.604  30.663  1.00  0.00     0.074 A 
ATOM     37  C   UNL A   1      37.997  33.178  32.544  1.00  0.00     0.049 A 
ATOM     38  N   UNL A   1      39.260  30.845  31.121  1.00  0.00    -0.248 NA
ATOM     39  C   UNL A   1      37.827  31.236  29.319  1.00  0.00     0.031 C 
ATOM     40  C   UNL A   1      37.382  34.270  33.301  1.00  0.00     0.029 A 
ATOM     41  N   UNL A   1      38.986  32.713  33.376  1.00  0.00    -0.354 N 
ATOM     42  C   UNL A   1      39.502  29.903  30.130  1.00  0.00     0.074 A 
ATOM     43  C   UNL A   1      38.555  30.158  29.065  1.00  0.00     0.031 C 
ATOM     44  C   UNL A   1      38.013  34.398  34.479  1.00  0.00     0.029 A 
ATOM     45  C   UNL A   1      39.038  33.366  34.584  1.00  0.00     0.049 A 
ATOM     46  H   UNL A   1      39.599  31.983  33.131  1.00  0.00     0.167 HD
ATOM     47  C   UNL A   1      40.440  28.928  30.107  1.00  0.00     0.037 A 
ATOM     48  C   UNL A   1      39.806  33.139  35.667  1.00  0.00     0.037 A 
ATOM     49  C   UNL A   1      41.385  28.687  31.167  1.00  0.00     0.049 A 
ATOM     50  C   UNL A   1      40.803  32.013  35.636  1.00  0.00     0.074 A 
ATOM     51  C   UNL A   1      42.418  27.767  31.211  1.00  0.00     0.029 A 
ATOM     52  N   UNL A   1      41.403  29.365  32.379  1.00  0.00    -0.354 N 
ATOM     53  N   UNL A   1      41.077  31.178  34.664  1.00  0.00    -0.248 NA
ATOM     54  C   UNL A   1      41.595  31.794  36.855  1.00  0.00     0.031 C 
ATOM     55  C   UNL A   1      43.019  27.843  32.470  1.00  0.00     0.029 A 
ATOM     56  C   UNL A   1      42.401  28.851  33.192  1.00  0.00     0.049 A 
ATOM     57  H   UNL A   1      40.797  30.101  32.623  1.00  0.00     0.167 HD
ATOM     58  C   UNL A   1      42.081  30.348  35.144  1.00  0.00     0.074 A 
ATOM     59  C   UNL A   1      42.384  30.795  36.487  1.00  0.00     0.031 C 
ATOM     60  C   UNL A   1      42.691  29.306  34.528  1.00  0.00     0.037 A 
BRANCH  47  61
ATOM     61  C   UNL A   1      40.492  28.036  28.898  1.00  0.00     0.064 A 
ATOM     62  C   UNL A   1      39.757  26.842  28.831  1.00  0.00     0.173 A 
ATOM     63  C   UNL A   1      41.246  28.404  27.774  1.00  0.00     0.173 A 
ATOM     64  F   UNL A   1      39.025  26.440  29.881  1.00  0.00    -0.203 F 
ATOM     65  C   UNL A   1      39.800  26.036  27.696  1.00  0.00     0.198 A 
ATOM     66  C   UNL A   1      41.261  27.613  26.629  1.00  0.00     0.198 A 
ATOM     67  F   UNL A   1      41.961  29.540  27.780  1.00  0.00    -0.203 F 
ATOM     68  F   UNL A   1      39.128  24.877  27.675  1.00  0.00    -0.200 F 
ATOM     69  C   UNL A   1      40.544  26.426  26.594  1.00  0.00     0.200 A 
ATOM     70  F   UNL A   1      41.968  27.999  25.557  1.00  0.00    -0.200 F 
ATOM     71  F   UNL A   1      40.576  25.654  25.498  1.00  0.00    -0.200 F 
ENDBRANCH  47  61
BRANCH  48  72
ATOM     72  C   UNL A   1      39.655  33.992  36.877  1.00  0.00     0.064 A 
ATOM     73  C   UNL A   1      40.334  35.214  36.984  1.00  0.00     0.173 A 
ATOM     74  C   UNL A   1      38.839  33.603  37.949  1.00  0.00     0.173 A 
ATOM     75  F   UNL A   1      41.144  35.618  35.995  1.00  0.00    -0.203 F 
ATOM     76  C   UNL A   1      40.216  36.004  38.126  1.00  0.00     0.198 A 
ATOM     77  C   UNL A   1      38.697  34.410  39.076  1.00  0.00     0.198 A 
ATOM     78  F   UNL A   1      38.166  32.443  37.897  1.00  0.00    -0.203 F 
ATOM     79  F   UNL A   1      40.915  37.144  38.223  1.00  0.00    -0.200 F 
ATOM     80  C   UNL A   1      39.392  35.605  39.168  1.00  0.00     0.200 A 
ATOM     81  F   UNL A   1      37.888  34.028  40.074  1.00  0.00    -0.200 F 
ATOM     82  F   UNL A   1      39.277  36.368  40.263  1.00  0.00    -0.200 F 
ENDBRANCH  48  72
BRANCH  60  83
ATOM     83  C   UNL A   1      43.758  28.580  35.295  1.00  0.00     0.064 A 
ATOM     84  C   UNL A   1      45.098  28.994  35.257  1.00  0.00     0.173 A 
ATOM     85  C   UNL A   1      43.428  27.498  36.126  1.00  0.00     0.173 A 
ATOM     86  F   UNL A   1      45.468  30.011  34.465  1.00  0.00    -0.203 F 
ATOM     87  C   UNL A   1      46.070  28.341  36.010  1.00  0.00     0.198 A 
ATOM     88  C   UNL A   1      44.398  26.869  36.903  1.00  0.00     0.198 A 
ATOM     89  F   UNL A   1      42.161  27.066  36.204  1.00  0.00    -0.203 F 
ATOM     90  F   UNL A   1      47.351  28.728  35.927  1.00  0.00    -0.200 F 
ATOM     91  C   UNL A   1      45.718  27.287  36.840  1.00  0.00     0.200 A 
ATOM     92  F   UNL A   1      44.053  25.861  37.715  1.00  0.00    -0.200 F 
ATOM     93  F   UNL A   1      46.652  26.671  37.577  1.00  0.00    -0.200 F 
ENDBRANCH  60  83
ENDBRANCH  34  35
ENDBRANCH  26  29
ENDBRANCH  24  25
ENDBRANCH  23  24
ENDBRANCH   1  23
TORSDOF 16
ENDMDL
MODEL 3
REMARK VINA RESULT:     -11.3      1.241      2.777
REMARK SMILES C=CCN(CC(=O)NCCCNC(=O)c1ccc(-c2c3nc(c(-c4c(F)c(F)c(F)c(F)c4F)c4ccc([nH]4)c(-c4c(F)c(F)c(F)c(F)c4F)c4nc(c(-c5c(F)c(F)c(F)c(F)c5F)c5ccc2[nH]5)C=C4)C=C3)cc1)C(=O)N(C)[C@H]1CCC[N@H+](C)C1
REMARK SMILES IDX 9 1 8 2 6 3 7 4 5 6 4 7 3 8 2 9 1 10 78 11 79 12 80 13 81 14
REMARK SMILES IDX 82 15 83 16 88 17 84 18 86 19 85 20 87 21 10 23 11 24 12 25
REMARK SMILES IDX 13 26 14 28 15 29 16 30 77 31 17 32 76 33 18 34 19 35 20 36
REMARK SMILES IDX 70 37 21 38 75 39 69 40 71 41 22 42 74 43 68 44 67 45 23 47
REMARK SMILES IDX 55 48 35 49 54 50 36 51 39 52 53 53 72 54 37 55 38 56 52 58
REMARK SMILES IDX 73 59 40 60 24 61 25 62 33 63 26 64 27 65 31 66 34 67 28 68
REMARK SMILES IDX 29 69 32 70 30 71 56 72 57 73 65 74 58 75 59 76 63 77 66 78
REMARK SMILES IDX 60 79 61 80 64 81 62 82 41 83 42 84 50 85 43 86 44 87 48 88
REMARK SMILES IDX 51 89 45 90 46 91 49 92 47 93
REMARK H PARENT 8 5 86 22 12 27 71 46 39 57
REMARK Flexibility Score: inf
ROOT
ATOM      1  C   UNL A   1      31.752  30.580  26.192  1.00  0.00     0.117 C 
ENDROOT
BRANCH   1   2
ATOM      2  N   UNL A   1      32.984  30.021  26.709  1.00  0.00    -0.354 N 
ATOM      3  C   UNL A   1      33.371  28.714  26.801  1.00  0.00     0.239 C 
ATOM      4  O   UNL A   1      34.570  28.488  26.983  1.00  0.00    -0.273 OA
ATOM      5  H   UNL A   1      33.638  30.678  27.042  1.00  0.00     0.163 HD
BRANCH   3   6
ATOM      6  C   UNL A   1      32.374  27.569  26.567  1.00  0.00     0.221 C 
BRANCH   6   7
ATOM      7  N   UNL A   1      32.881  26.513  25.689  1.00  0.00    -0.312 N 
BRANCH   7   8
ATOM      8  C   UNL A   1      33.069  25.201  26.324  1.00  0.00     0.149 C 
BRANCH   8   9
ATOM      9  C   UNL A   1      31.750  24.541  26.595  1.00  0.00    -0.013 C 
ATOM     10  C   UNL A   1      31.603  23.213  26.711  1.00  0.00     0.006 C 
ENDBRANCH   8   9
ENDBRANCH   7   8
BRANCH   7  11
ATOM     11  C   UNL A   1      33.320  26.616  24.376  1.00  0.00     0.320 C 
ATOM     12  O   UNL A   1      34.194  25.811  24.034  1.00  0.00    -0.248 OA
BRANCH  11  13
ATOM     13  N   UNL A   1      32.808  27.539  23.471  1.00  0.00    -0.319 N 
ATOM     14  C   UNL A   1      33.360  28.865  23.213  1.00  0.00     0.149 C 
BRANCH  13  15
ATOM     15  C   UNL A   1      31.758  27.132  22.456  1.00  0.00     0.141 C 
ATOM     16  C   UNL A   1      30.880  25.885  22.722  1.00  0.00     0.037 C 
ATOM     17  C   UNL A   1      30.724  28.272  22.156  1.00  0.00     0.287 C 
ATOM     18  C   UNL A   1      29.873  26.120  23.853  1.00  0.00     0.064 C 
ATOM     19  N   UNL A   1      29.878  28.552  23.328  1.00  0.00    -0.336 N 
ATOM     20  C   UNL A   1      29.039  27.385  23.634  1.00  0.00     0.262 C 
ATOM     21  C   UNL A   1      29.056  29.739  23.113  1.00  0.00     0.332 C 
ATOM     22  H   UNL A   1      30.485  28.739  24.127  1.00  0.00     0.347 HD
ENDBRANCH  13  15
ENDBRANCH  11  13
ENDBRANCH   7  11
ENDBRANCH   6   7
ENDBRANCH   3   6
ENDBRANCH   1   2
BRANCH   1  23
ATOM     23  C   UNL A   1      31.492  32.011  26.646  1.00  0.00     0.042 C 
BRANCH  23  24
ATOM     24  C   UNL A   1      32.674  32.673  27.346  1.00  0.00     0.118 C 
BRANCH  24  25
ATOM     25  N   UNL A   1      32.428  34.075  27.654  1.00  0.00    -0.352 N 
ATOM     26  C   UNL A   1      32.987  34.894  28.604  1.00  0.00     0.251 C 
ATOM     27  H   UNL A   1      31.749  34.508  27.088  1.00  0.00     0.163 HD
ATOM     28  O   UNL A   1      32.477  35.984  28.844  1.00  0.00    -0.269 OA
BRANCH  26  29
ATOM     29  C   UNL A   1      34.187  34.465  29.353  1.00  0.00     0.039 A 
ATOM     30  C   UNL A   1      34.033  33.986  30.658  1.00  0.00     0.014 A 
ATOM     31  C   UNL A   1      35.459  34.554  28.786  1.00  0.00     0.014 A 
ATOM     32  C   UNL A   1      35.144  33.510  31.356  1.00  0.00     0.010 A 
ATOM     33  C   UNL A   1      36.554  34.013  29.453  1.00  0.00     0.010 A 
ATOM     34  C   UNL A   1      36.404  33.470  30.738  1.00  0.00    -0.014 A 
BRANCH  34  35
ATOM     35  C   UNL A   1      37.568  32.818  31.389  1.00  0.00     0.031 A 
ATOM     36  C   UNL A   1      38.236  31.636  30.749  1.00  0.00     0.074 A 
ATOM     37  C   UNL A   1      37.958  33.237  32.609  1.00  0.00     0.049 A 
ATOM     38  N   UNL A   1      39.180  30.861  31.222  1.00  0.00    -0.248 NA
ATOM     39  C   UNL A   1      37.768  31.262  29.405  1.00  0.00     0.031 C 
ATOM     40  C   UNL A   1      37.362  34.351  33.349  1.00  0.00     0.029 A 
ATOM     41  N   UNL A   1      38.931  32.760  33.454  1.00  0.00    -0.354 N 
ATOM     42  C   UNL A   1      39.408  29.903  30.244  1.00  0.00     0.074 A 
ATOM     43  C   UNL A   1      38.474  30.166  29.169  1.00  0.00     0.031 C 
ATOM     44  C   UNL A   1      37.987  34.479  34.530  1.00  0.00     0.029 A 
ATOM     45  C   UNL A   1      38.989  33.426  34.655  1.00  0.00     0.049 A 
ATOM     46  H   UNL A   1      39.529  32.014  33.221  1.00  0.00     0.167 HD
ATOM     47  C   UNL A   1      40.325  28.907  30.238  1.00  0.00     0.037 A 
ATOM     48  C   UNL A   1      39.744  33.195  35.746  1.00  0.00     0.037 A 
ATOM     49  C   UNL A   1      41.257  28.658  31.308  1.00  0.00     0.049 A 
ATOM     50  C   UNL A   1      40.716  32.047  35.734  1.00  0.00     0.074 A 
ATOM     51  C   UNL A   1      42.269  27.716  31.370  1.00  0.00     0.029 A 
ATOM     52  N   UNL A   1      41.281  29.349  32.512  1.00  0.00    -0.354 N 
ATOM     53  N   UNL A   1      40.978  31.195  34.774  1.00  0.00    -0.248 NA
ATOM     54  C   UNL A   1      41.494  31.825  36.961  1.00  0.00     0.031 C 
ATOM     55  C   UNL A   1      42.862  27.793  32.632  1.00  0.00     0.029 A 
ATOM     56  C   UNL A   1      42.261  28.823  33.338  1.00  0.00     0.049 A 
ATOM     57  H   UNL A   1      40.689  30.101  32.744  1.00  0.00     0.167 HD
ATOM     58  C   UNL A   1      41.960  30.349  35.271  1.00  0.00     0.074 A 
ATOM     59  C   UNL A   1      42.264  30.804  36.611  1.00  0.00     0.031 C 
ATOM     60  C   UNL A   1      42.552  29.286  34.672  1.00  0.00     0.037 A 
BRANCH  47  61
ATOM     61  C   UNL A   1      40.365  28.000  29.040  1.00  0.00     0.064 A 
ATOM     62  C   UNL A   1      39.624  26.809  28.992  1.00  0.00     0.173 A 
ATOM     63  C   UNL A   1      41.115  28.351  27.908  1.00  0.00     0.173 A 
ATOM     64  F   UNL A   1      38.896  26.424  30.050  1.00  0.00    -0.203 F 
ATOM     65  C   UNL A   1      39.657  25.990  27.866  1.00  0.00     0.198 A 
ATOM     66  C   UNL A   1      41.120  27.546  26.772  1.00  0.00     0.198 A 
ATOM     67  F   UNL A   1      41.836  29.482  27.896  1.00  0.00    -0.203 F 
ATOM     68  F   UNL A   1      38.978  24.834  27.862  1.00  0.00    -0.200 F 
ATOM     69  C   UNL A   1      40.397  26.363  26.755  1.00  0.00     0.200 A 
ATOM     70  F   UNL A   1      41.824  27.915  25.692  1.00  0.00    -0.200 F 
ATOM     71  F   UNL A   1      40.419  25.577  25.669  1.00  0.00    -0.200 F 
ENDBRANCH  47  61
BRANCH  48  72
ATOM     72  C   UNL A   1      39.603  34.064  36.945  1.00  0.00     0.064 A 
ATOM     73  C   UNL A   1      40.276  35.291  37.025  1.00  0.00     0.173 A 
ATOM     74  C   UNL A   1      38.803  33.686  38.033  1.00  0.00     0.173 A 
ATOM     75  F   UNL A   1      41.071  35.686  36.020  1.00  0.00    -0.203 F 
ATOM     76  C   UNL A   1      40.168  36.098  38.156  1.00  0.00     0.198 A 
ATOM     77  C   UNL A   1      38.670  34.509  39.150  1.00  0.00     0.198 A 
ATOM     78  F   UNL A   1      38.136  32.522  38.007  1.00  0.00    -0.203 F 
ATOM     79  F   UNL A   1      40.861  37.243  38.228  1.00  0.00    -0.200 F 
ATOM     80  C   UNL A   1      39.360  35.710  39.215  1.00  0.00     0.200 A 
ATOM     81  F   UNL A   1      37.877  34.137  40.163  1.00  0.00    -0.200 F 
ATOM     82  F   UNL A   1      39.254  36.488  40.300  1.00  0.00    -0.200 F 
ENDBRANCH  48  72
BRANCH  60  83
ATOM     83  C   UNL A   1      43.598  28.546  35.455  1.00  0.00     0.064 A 
ATOM     84  C   UNL A   1      44.959  28.867  35.344  1.00  0.00     0.173 A 
ATOM     85  C   UNL A   1      43.230  27.549  36.370  1.00  0.00     0.173 A 
ATOM     86  F   UNL A   1      45.364  29.800  34.470  1.00  0.00    -0.203 F 
ATOM     87  C   UNL A   1      45.914  28.205  36.111  1.00  0.00     0.198 A 
ATOM     88  C   UNL A   1      44.184  26.912  37.159  1.00  0.00     0.198 A 
ATOM     89  F   UNL A   1      41.941  27.208  36.519  1.00  0.00    -0.203 F 
ATOM     90  F   UNL A   1      47.213  28.500  35.960  1.00  0.00    -0.200 F 
ATOM     91  C   UNL A   1      45.525  27.237  37.025  1.00  0.00     0.200 A 
ATOM     92  F   UNL A   1      43.805  25.988  38.052  1.00  0.00    -0.200 F 
ATOM     93  F   UNL A   1      46.444  26.612  37.774  1.00  0.00    -0.200 F 
ENDBRANCH  60  83
ENDBRANCH  34  35
ENDBRANCH  26  29
ENDBRANCH  24  25
ENDBRANCH  23  24
ENDBRANCH   1  23
TORSDOF 16
ENDMDL
