MODEL 1
REMARK VINA RESULT:     -12.6      0.000      0.000
REMARK SMILES CC1(C)[C@H](C(=O)NCCCNC(=O)c2ccc(-c3c4nc(c(-c5c(F)c(F)c(F)c(F)c5F)c5ccc([nH]5)c(-c5c(F)c(F)c(F)c(F)c5F)c5nc(c(-c6c(F)c(F)c(F)c(F)c6F)c6ccc3[nH]6)C=C5)C=C4)cc2)[C@H]1C(=O)Nc1ccccc1C(=O)Nc1nccs1
REMARK SMILES IDX 8 1 7 2 5 3 6 4 4 6 1 7 2 8 3 9 77 10 78 11 79 12 80 13
REMARK SMILES IDX 81 15 82 16 86 17 83 18 85 19 84 20 87 21 88 22 89 23 90 25
REMARK SMILES IDX 91 26 94 27 92 28 93 29 9 30 10 31 11 32 12 33 13 35 14 36
REMARK SMILES IDX 15 37 76 38 16 39 75 40 17 41 18 42 19 43 69 44 20 45 74 46
REMARK SMILES IDX 68 47 70 48 21 49 73 50 67 51 66 52 22 54 54 55 34 56 53 57
REMARK SMILES IDX 35 58 38 59 52 60 71 61 36 62 37 63 51 65 72 66 39 67 23 68
REMARK SMILES IDX 24 69 32 70 25 71 26 72 30 73 33 74 27 75 28 76 31 77 29 78
REMARK SMILES IDX 55 79 56 80 64 81 57 82 58 83 62 84 65 85 59 86 60 87 63 88
REMARK SMILES IDX 61 89 40 90 41 91 49 92 42 93 43 94 47 95 50 96 44 97 45 98
REMARK SMILES IDX 48 99 46 100
REMARK H PARENT 7 5 80 14 89 24 11 34 70 53 38 64
REMARK Flexibility Score: inf
ROOT
ATOM      1  C   UNL A   1      36.955  20.281  25.032  1.00  0.00     0.117 C 
ENDROOT
BRANCH   1   2
ATOM      2  N   UNL A   1      37.229  21.474  25.786  1.00  0.00    -0.356 N 
ATOM      3  C   UNL A   1      36.636  22.698  25.781  1.00  0.00     0.224 C 
ATOM      4  O   UNL A   1      37.299  23.635  26.197  1.00  0.00    -0.275 OA
ATOM      5  H   UNL A   1      37.979  21.390  26.418  1.00  0.00     0.163 HD
BRANCH   3   6
ATOM      6  C   UNL A   1      35.231  22.958  25.439  1.00  0.00     0.098 C 
ATOM      7  C   UNL A   1      33.138  21.619  25.307  1.00  0.00     0.013 C 
ATOM      8  C   UNL A   1      33.941  22.620  26.103  1.00  0.00    -0.011 C 
ATOM      9  C   UNL A   1      33.732  22.364  27.587  1.00  0.00     0.013 C 
ATOM     10  C   UNL A   1      34.310  24.095  25.828  1.00  0.00     0.098 C 
BRANCH  10  11
ATOM     11  C   UNL A   1      34.448  25.156  24.807  1.00  0.00     0.228 C 
ATOM     12  O   UNL A   1      35.035  24.851  23.767  1.00  0.00    -0.274 OA
ATOM     13  N   UNL A   1      33.908  26.397  24.879  1.00  0.00    -0.325 N 
ATOM     14  H   UNL A   1      33.990  26.913  24.043  1.00  0.00     0.169 HD
BRANCH  13  15
ATOM     15  C   UNL A   1      33.261  27.089  25.899  1.00  0.00     0.054 A 
ATOM     16  C   UNL A   1      34.035  28.157  26.394  1.00  0.00     0.027 A 
ATOM     17  C   UNL A   1      31.975  26.858  26.408  1.00  0.00     0.063 A 
ATOM     18  C   UNL A   1      33.476  29.124  27.220  1.00  0.00     0.002 A 
ATOM     19  C   UNL A   1      31.423  27.863  27.234  1.00  0.00     0.016 A 
ATOM     20  C   UNL A   1      32.150  29.000  27.602  1.00  0.00     0.001 A 
BRANCH  17  21
ATOM     21  C   UNL A   1      31.068  25.694  26.127  1.00  0.00     0.259 C 
ATOM     22  O   UNL A   1      30.874  24.867  27.025  1.00  0.00    -0.269 OA
ATOM     23  N   UNL A   1      30.370  25.501  24.967  1.00  0.00    -0.298 N 
ATOM     24  H   UNL A   1      29.560  24.945  25.040  1.00  0.00     0.172 HD
BRANCH  23  25
ATOM     25  C   UNL A   1      30.651  25.977  23.726  1.00  0.00     0.189 A 
ATOM     26  N   UNL A   1      31.411  25.469  22.791  1.00  0.00    -0.229 NA
ATOM     27  S   UNL A   1      29.910  27.479  23.388  1.00  0.00    -0.105 S 
ATOM     28  C   UNL A   1      31.497  26.375  21.751  1.00  0.00     0.125 A 
ATOM     29  C   UNL A   1      30.802  27.554  21.925  1.00  0.00     0.088 A 
ENDBRANCH  23  25
ENDBRANCH  17  21
ENDBRANCH  13  15
ENDBRANCH  10  11
ENDBRANCH   3   6
ENDBRANCH   1   2
BRANCH   1  30
ATOM     30  C   UNL A   1      38.207  19.418  24.958  1.00  0.00     0.042 C 
BRANCH  30  31
ATOM     31  C   UNL A   1      39.364  19.976  25.769  1.00  0.00     0.118 C 
BRANCH  31  32
ATOM     32  N   UNL A   1      40.437  19.008  25.914  1.00  0.00    -0.352 N 
ATOM     33  C   UNL A   1      41.777  19.218  26.110  1.00  0.00     0.251 C 
ATOM     34  H   UNL A   1      40.162  18.065  25.865  1.00  0.00     0.163 HD
ATOM     35  O   UNL A   1      42.572  18.298  25.953  1.00  0.00    -0.269 OA
BRANCH  33  36
ATOM     36  C   UNL A   1      42.264  20.559  26.498  1.00  0.00     0.039 A 
ATOM     37  C   UNL A   1      42.715  21.429  25.503  1.00  0.00     0.014 A 
ATOM     38  C   UNL A   1      42.297  20.951  27.840  1.00  0.00     0.014 A 
ATOM     39  C   UNL A   1      43.153  22.708  25.850  1.00  0.00     0.010 A 
ATOM     40  C   UNL A   1      42.635  22.257  28.172  1.00  0.00     0.010 A 
ATOM     41  C   UNL A   1      43.088  23.142  27.184  1.00  0.00    -0.014 A 
BRANCH  41  42
ATOM     42  C   UNL A   1      43.530  24.502  27.579  1.00  0.00     0.031 A 
ATOM     43  C   UNL A   1      42.503  25.542  27.936  1.00  0.00     0.074 A 
ATOM     44  C   UNL A   1      44.840  24.815  27.559  1.00  0.00     0.049 A 
ATOM     45  N   UNL A   1      42.670  26.811  28.213  1.00  0.00    -0.248 NA
ATOM     46  C   UNL A   1      41.098  25.106  27.959  1.00  0.00     0.031 C 
ATOM     47  C   UNL A   1      45.925  23.901  27.196  1.00  0.00     0.029 A 
ATOM     48  N   UNL A   1      45.482  25.994  27.843  1.00  0.00    -0.354 N 
ATOM     49  C   UNL A   1      41.396  27.320  28.426  1.00  0.00     0.074 A 
ATOM     50  C   UNL A   1      40.461  26.245  28.186  1.00  0.00     0.031 C 
ATOM     51  C   UNL A   1      47.098  24.545  27.303  1.00  0.00     0.029 A 
ATOM     52  C   UNL A   1      46.846  25.929  27.695  1.00  0.00     0.049 A 
ATOM     53  H   UNL A   1      45.009  26.810  28.127  1.00  0.00     0.167 HD
ATOM     54  C   UNL A   1      41.039  28.566  28.818  1.00  0.00     0.037 A 
ATOM     55  C   UNL A   1      47.784  26.883  27.847  1.00  0.00     0.037 A 
ATOM     56  C   UNL A   1      41.976  29.626  29.082  1.00  0.00     0.049 A 
ATOM     57  C   UNL A   1      47.355  28.269  28.255  1.00  0.00     0.074 A 
ATOM     58  C   UNL A   1      41.721  30.913  29.518  1.00  0.00     0.029 A 
ATOM     59  N   UNL A   1      43.350  29.515  28.935  1.00  0.00    -0.354 N 
ATOM     60  N   UNL A   1      46.151  28.724  28.507  1.00  0.00    -0.248 NA
ATOM     61  C   UNL A   1      48.417  29.272  28.405  1.00  0.00     0.031 C 
ATOM     62  C   UNL A   1      42.937  31.597  29.593  1.00  0.00     0.029 A 
ATOM     63  C   UNL A   1      43.956  30.718  29.259  1.00  0.00     0.049 A 
ATOM     64  H   UNL A   1      43.825  28.704  28.645  1.00  0.00     0.167 HD
ATOM     65  C   UNL A   1      46.316  30.050  28.884  1.00  0.00     0.074 A 
ATOM     66  C   UNL A   1      47.735  30.323  28.839  1.00  0.00     0.031 C 
ATOM     67  C   UNL A   1      45.375  30.960  29.236  1.00  0.00     0.037 A 
BRANCH  54  68
ATOM     68  C   UNL A   1      39.576  28.848  29.002  1.00  0.00     0.064 A 
ATOM     69  C   UNL A   1      38.954  28.710  30.253  1.00  0.00     0.173 A 
ATOM     70  C   UNL A   1      38.796  29.311  27.931  1.00  0.00     0.173 A 
ATOM     71  F   UNL A   1      39.651  28.259  31.308  1.00  0.00    -0.203 F 
ATOM     72  C   UNL A   1      37.603  29.001  30.419  1.00  0.00     0.198 A 
ATOM     73  C   UNL A   1      37.454  29.633  28.109  1.00  0.00     0.198 A 
ATOM     74  F   UNL A   1      39.341  29.466  26.716  1.00  0.00    -0.203 F 
ATOM     75  F   UNL A   1      37.022  28.819  31.613  1.00  0.00    -0.200 F 
ATOM     76  C   UNL A   1      36.856  29.471  29.350  1.00  0.00     0.200 A 
ATOM     77  F   UNL A   1      36.736  30.101  27.078  1.00  0.00    -0.200 F 
ATOM     78  F   UNL A   1      35.559  29.766  29.514  1.00  0.00    -0.200 F 
ENDBRANCH  54  68
BRANCH  55  79
ATOM     79  C   UNL A   1      49.221  26.570  27.629  1.00  0.00     0.064 A 
ATOM     80  C   UNL A   1      49.743  26.446  26.334  1.00  0.00     0.173 A 
ATOM     81  C   UNL A   1      50.096  26.353  28.704  1.00  0.00     0.173 A 
ATOM     82  F   UNL A   1      48.944  26.625  25.271  1.00  0.00    -0.203 F 
ATOM     83  C   UNL A   1      51.070  26.081  26.121  1.00  0.00     0.198 A 
ATOM     84  C   UNL A   1      51.433  26.023  28.492  1.00  0.00     0.198 A 
ATOM     85  F   UNL A   1      49.652  26.466  29.966  1.00  0.00    -0.203 F 
ATOM     86  F   UNL A   1      51.523  25.906  24.873  1.00  0.00    -0.200 F 
ATOM     87  C   UNL A   1      51.915  25.873  27.201  1.00  0.00     0.200 A 
ATOM     88  F   UNL A   1      52.249  25.838  29.537  1.00  0.00    -0.200 F 
ATOM     89  F   UNL A   1      53.191  25.517  26.997  1.00  0.00    -0.200 F 
ENDBRANCH  55  79
BRANCH  67  90
ATOM     90  C   UNL A   1      45.853  32.319  29.661  1.00  0.00     0.064 A 
ATOM     91  C   UNL A   1      46.200  32.599  30.990  1.00  0.00     0.173 A 
ATOM     92  C   UNL A   1      46.013  33.338  28.709  1.00  0.00     0.173 A 
ATOM     93  F   UNL A   1      46.052  31.662  31.940  1.00  0.00    -0.203 F 
ATOM     94  C   UNL A   1      46.667  33.859  31.356  1.00  0.00     0.198 A 
ATOM     95  C   UNL A   1      46.511  34.586  29.073  1.00  0.00     0.198 A 
ATOM     96  F   UNL A   1      45.703  33.118  27.423  1.00  0.00    -0.203 F 
ATOM     97  F   UNL A   1      46.947  34.120  32.641  1.00  0.00    -0.200 F 
ATOM     98  C   UNL A   1      46.830  34.847  30.397  1.00  0.00     0.200 A 
ATOM     99  F   UNL A   1      46.685  35.533  28.141  1.00  0.00    -0.200 F 
ATOM    100  F   UNL A   1      47.291  36.055  30.749  1.00  0.00    -0.200 F 
ENDBRANCH  67  90
ENDBRANCH  41  42
ENDBRANCH  33  36
ENDBRANCH  31  32
ENDBRANCH  30  31
ENDBRANCH   1  30
TORSDOF 14
ENDMDL
MODEL 2
REMARK VINA RESULT:     -12.6      5.349     10.568
REMARK SMILES CC1(C)[C@H](C(=O)NCCCNC(=O)c2ccc(-c3c4nc(c(-c5c(F)c(F)c(F)c(F)c5F)c5ccc([nH]5)c(-c5c(F)c(F)c(F)c(F)c5F)c5nc(c(-c6c(F)c(F)c(F)c(F)c6F)c6ccc3[nH]6)C=C5)C=C4)cc2)[C@H]1C(=O)Nc1ccccc1C(=O)Nc1nccs1
REMARK SMILES IDX 8 1 7 2 5 3 6 4 4 6 1 7 2 8 3 9 77 10 78 11 79 12 80 13
REMARK SMILES IDX 81 15 82 16 86 17 83 18 85 19 84 20 87 21 88 22 89 23 90 25
REMARK SMILES IDX 91 26 94 27 92 28 93 29 9 30 10 31 11 32 12 33 13 35 14 36
REMARK SMILES IDX 15 37 76 38 16 39 75 40 17 41 18 42 19 43 69 44 20 45 74 46
REMARK SMILES IDX 68 47 70 48 21 49 73 50 67 51 66 52 22 54 54 55 34 56 53 57
REMARK SMILES IDX 35 58 38 59 52 60 71 61 36 62 37 63 51 65 72 66 39 67 23 68
REMARK SMILES IDX 24 69 32 70 25 71 26 72 30 73 33 74 27 75 28 76 31 77 29 78
REMARK SMILES IDX 55 79 56 80 64 81 57 82 58 83 62 84 65 85 59 86 60 87 63 88
REMARK SMILES IDX 61 89 40 90 41 91 49 92 42 93 43 94 47 95 50 96 44 97 45 98
REMARK SMILES IDX 48 99 46 100
REMARK H PARENT 7 5 80 14 89 24 11 34 70 53 38 64
REMARK Flexibility Score: inf
ROOT
ATOM      1  C   UNL A   1      31.480  31.050  26.346  1.00  0.00     0.117 C 
ENDROOT
BRANCH   1   2
ATOM      2  N   UNL A   1      32.838  30.605  26.499  1.00  0.00    -0.356 N 
ATOM      3  C   UNL A   1      33.409  29.383  26.325  1.00  0.00     0.224 C 
ATOM      4  O   UNL A   1      34.464  29.178  26.904  1.00  0.00    -0.275 OA
ATOM      5  H   UNL A   1      33.466  31.309  26.781  1.00  0.00     0.163 HD
BRANCH   3   6
ATOM      6  C   UNL A   1      32.928  28.347  25.401  1.00  0.00     0.098 C 
ATOM      7  C   UNL A   1      31.618  28.294  23.286  1.00  0.00     0.013 C 
ATOM      8  C   UNL A   1      32.985  28.195  23.920  1.00  0.00    -0.011 C 
ATOM      9  C   UNL A   1      34.015  28.816  22.990  1.00  0.00     0.013 C 
ATOM     10  C   UNL A   1      33.619  27.124  24.836  1.00  0.00     0.098 C 
BRANCH  10  11
ATOM     11  C   UNL A   1      33.373  25.997  25.762  1.00  0.00     0.228 C 
ATOM     12  O   UNL A   1      32.570  26.198  26.676  1.00  0.00    -0.274 OA
ATOM     13  N   UNL A   1      33.878  24.746  25.637  1.00  0.00    -0.325 N 
ATOM     14  H   UNL A   1      33.489  24.099  26.269  1.00  0.00     0.169 HD
BRANCH  13  15
ATOM     15  C   UNL A   1      34.838  24.194  24.793  1.00  0.00     0.054 A 
ATOM     16  C   UNL A   1      36.085  24.040  25.431  1.00  0.00     0.027 A 
ATOM     17  C   UNL A   1      34.669  23.766  23.469  1.00  0.00     0.063 A 
ATOM     18  C   UNL A   1      37.093  23.276  24.859  1.00  0.00     0.002 A 
ATOM     19  C   UNL A   1      35.702  22.977  22.914  1.00  0.00     0.016 A 
ATOM     20  C   UNL A   1      36.881  22.702  23.616  1.00  0.00     0.001 A 
BRANCH  17  21
ATOM     21  C   UNL A   1      33.481  23.981  22.575  1.00  0.00     0.259 C 
ATOM     22  O   UNL A   1      33.630  24.652  21.548  1.00  0.00    -0.269 OA
ATOM     23  N   UNL A   1      32.243  23.432  22.764  1.00  0.00    -0.298 N 
ATOM     24  H   UNL A   1      31.687  23.335  21.955  1.00  0.00     0.172 HD
BRANCH  23  25
ATOM     25  C   UNL A   1      31.680  23.002  23.923  1.00  0.00     0.189 A 
ATOM     26  N   UNL A   1      30.863  23.624  24.732  1.00  0.00    -0.229 NA
ATOM     27  S   UNL A   1      32.161  21.426  24.372  1.00  0.00    -0.105 S 
ATOM     28  C   UNL A   1      30.664  22.836  25.850  1.00  0.00     0.125 A 
ATOM     29  C   UNL A   1      31.341  21.634  25.864  1.00  0.00     0.088 A 
ENDBRANCH  23  25
ENDBRANCH  17  21
ENDBRANCH  13  15
ENDBRANCH  10  11
ENDBRANCH   3   6
ENDBRANCH   1   2
BRANCH   1  30
ATOM     30  C   UNL A   1      31.384  32.535  26.671  1.00  0.00     0.042 C 
BRANCH  30  31
ATOM     31  C   UNL A   1      32.649  33.088  27.304  1.00  0.00     0.118 C 
BRANCH  31  32
ATOM     32  N   UNL A   1      32.478  34.466  27.734  1.00  0.00    -0.352 N 
ATOM     33  C   UNL A   1      33.056  35.126  28.787  1.00  0.00     0.251 C 
ATOM     34  H   UNL A   1      31.859  35.003  27.190  1.00  0.00     0.163 HD
ATOM     35  O   UNL A   1      32.605  36.206  29.156  1.00  0.00    -0.269 OA
BRANCH  33  36
ATOM     36  C   UNL A   1      34.214  34.531  29.485  1.00  0.00     0.039 A 
ATOM     37  C   UNL A   1      34.008  33.880  30.703  1.00  0.00     0.014 A 
ATOM     38  C   UNL A   1      35.503  34.630  28.953  1.00  0.00     0.014 A 
ATOM     39  C   UNL A   1      35.087  33.289  31.362  1.00  0.00     0.010 A 
ATOM     40  C   UNL A   1      36.556  33.954  29.556  1.00  0.00     0.010 A 
ATOM     41  C   UNL A   1      36.364  33.295  30.779  1.00  0.00    -0.014 A 
BRANCH  41  42
ATOM     42  C   UNL A   1      37.525  32.659  31.447  1.00  0.00     0.031 A 
ATOM     43  C   UNL A   1      38.242  31.522  30.771  1.00  0.00     0.074 A 
ATOM     44  C   UNL A   1      37.895  33.063  32.678  1.00  0.00     0.049 A 
ATOM     45  N   UNL A   1      39.212  30.768  31.222  1.00  0.00    -0.248 NA
ATOM     46  C   UNL A   1      37.789  31.166  29.416  1.00  0.00     0.031 C 
ATOM     47  C   UNL A   1      37.256  34.131  33.449  1.00  0.00     0.029 A 
ATOM     48  N   UNL A   1      38.896  32.613  33.503  1.00  0.00    -0.354 N 
ATOM     49  C   UNL A   1      39.471  29.846  30.216  1.00  0.00     0.074 A 
ATOM     50  C   UNL A   1      38.518  30.091  29.157  1.00  0.00     0.031 C 
ATOM     51  C   UNL A   1      37.894  34.271  34.621  1.00  0.00     0.029 A 
ATOM     52  C   UNL A   1      38.956  33.273  34.707  1.00  0.00     0.049 A 
ATOM     53  H   UNL A   1      39.513  31.887  33.255  1.00  0.00     0.167 HD
ATOM     54  C   UNL A   1      40.438  28.900  30.165  1.00  0.00     0.037 A 
ATOM     55  C   UNL A   1      39.770  33.083  35.762  1.00  0.00     0.037 A 
ATOM     56  C   UNL A   1      41.401  28.678  31.211  1.00  0.00     0.049 A 
ATOM     57  C   UNL A   1      40.818  32.003  35.690  1.00  0.00     0.074 A 
ATOM     58  C   UNL A   1      42.444  27.770  31.244  1.00  0.00     0.029 A 
ATOM     59  N   UNL A   1      41.439  29.377  32.408  1.00  0.00    -0.354 N 
ATOM     60  N   UNL A   1      41.089  31.174  34.711  1.00  0.00    -0.248 NA
ATOM     61  C   UNL A   1      41.678  31.836  36.870  1.00  0.00     0.031 C 
ATOM     62  C   UNL A   1      43.086  27.889  32.480  1.00  0.00     0.029 A 
ATOM     63  C   UNL A   1      42.479  28.910  33.193  1.00  0.00     0.049 A 
ATOM     64  H   UNL A   1      40.819  30.098  32.662  1.00  0.00     0.167 HD
ATOM     65  C   UNL A   1      42.172  30.418  35.139  1.00  0.00     0.074 A 
ATOM     66  C   UNL A   1      42.517  30.894  36.461  1.00  0.00     0.031 C 
ATOM     67  C   UNL A   1      42.824  29.419  34.495  1.00  0.00     0.037 A 
BRANCH  54  68
ATOM     68  C   UNL A   1      40.514  28.044  28.934  1.00  0.00     0.064 A 
ATOM     69  C   UNL A   1      39.793  26.844  28.831  1.00  0.00     0.173 A 
ATOM     70  C   UNL A   1      41.273  28.449  27.826  1.00  0.00     0.173 A 
ATOM     71  F   UNL A   1      39.061  26.404  29.866  1.00  0.00    -0.203 F 
ATOM     72  C   UNL A   1      39.848  26.071  27.674  1.00  0.00     0.198 A 
ATOM     73  C   UNL A   1      41.300  27.691  26.660  1.00  0.00     0.198 A 
ATOM     74  F   UNL A   1      41.977  29.590  27.870  1.00  0.00    -0.203 F 
ATOM     75  F   UNL A   1      39.186  24.907  27.616  1.00  0.00    -0.200 F 
ATOM     76  C   UNL A   1      40.594  26.499  26.586  1.00  0.00     0.200 A 
ATOM     77  F   UNL A   1      42.009  28.113  25.603  1.00  0.00    -0.200 F 
ATOM     78  F   UNL A   1      40.634  25.762  25.468  1.00  0.00    -0.200 F 
ENDBRANCH  54  68
BRANCH  55  79
ATOM     79  C   UNL A   1      39.645  33.935  36.975  1.00  0.00     0.064 A 
ATOM     80  C   UNL A   1      38.858  33.529  38.062  1.00  0.00     0.173 A 
ATOM     81  C   UNL A   1      40.276  35.185  37.061  1.00  0.00     0.173 A 
ATOM     82  F   UNL A   1      38.219  32.351  38.022  1.00  0.00    -0.203 F 
ATOM     83  C   UNL A   1      38.677  34.354  39.170  1.00  0.00     0.198 A 
ATOM     84  C   UNL A   1      40.122  35.995  38.184  1.00  0.00     0.198 A 
ATOM     85  F   UNL A   1      41.046  35.621  36.052  1.00  0.00    -0.203 F 
ATOM     86  F   UNL A   1      37.867  33.967  40.165  1.00  0.00    -0.200 F 
ATOM     87  C   UNL A   1      39.312  35.585  39.231  1.00  0.00     0.200 A 
ATOM     88  F   UNL A   1      40.750  37.177  38.246  1.00  0.00    -0.200 F 
ATOM     89  F   UNL A   1      39.134  36.381  40.295  1.00  0.00    -0.200 F 
ENDBRANCH  55  79
BRANCH  67  90
ATOM     90  C   UNL A   1      44.014  28.815  35.183  1.00  0.00     0.064 A 
ATOM     91  C   UNL A   1      43.892  27.714  36.042  1.00  0.00     0.173 A 
ATOM     92  C   UNL A   1      45.301  29.318  34.934  1.00  0.00     0.173 A 
ATOM     93  F   UNL A   1      42.683  27.205  36.322  1.00  0.00    -0.203 F 
ATOM     94  C   UNL A   1      45.014  27.152  36.648  1.00  0.00     0.198 A 
ATOM     95  C   UNL A   1      46.422  28.733  35.516  1.00  0.00     0.198 A 
ATOM     96  F   UNL A   1      45.472  30.364  34.113  1.00  0.00    -0.203 F 
ATOM     97  F   UNL A   1      44.870  26.131  37.503  1.00  0.00    -0.200 F 
ATOM     98  C   UNL A   1      46.277  27.657  36.377  1.00  0.00     0.200 A 
ATOM     99  F   UNL A   1      47.644  29.211  35.239  1.00  0.00    -0.200 F 
ATOM    100  F   UNL A   1      47.356  27.108  36.951  1.00  0.00    -0.200 F 
ENDBRANCH  67  90
ENDBRANCH  41  42
ENDBRANCH  33  36
ENDBRANCH  31  32
ENDBRANCH  30  31
ENDBRANCH   1  30
TORSDOF 14
ENDMDL
MODEL 3
REMARK VINA RESULT:     -12.6      5.381     10.610
REMARK SMILES CC1(C)[C@H](C(=O)NCCCNC(=O)c2ccc(-c3c4nc(c(-c5c(F)c(F)c(F)c(F)c5F)c5ccc([nH]5)c(-c5c(F)c(F)c(F)c(F)c5F)c5nc(c(-c6c(F)c(F)c(F)c(F)c6F)c6ccc3[nH]6)C=C5)C=C4)cc2)[C@H]1C(=O)Nc1ccccc1C(=O)Nc1nccs1
REMARK SMILES IDX 8 1 7 2 5 3 6 4 4 6 1 7 2 8 3 9 77 10 78 11 79 12 80 13
REMARK SMILES IDX 81 15 82 16 86 17 83 18 85 19 84 20 87 21 88 22 89 23 90 25
REMARK SMILES IDX 91 26 94 27 92 28 93 29 9 30 10 31 11 32 12 33 13 35 14 36
REMARK SMILES IDX 15 37 76 38 16 39 75 40 17 41 18 42 19 43 69 44 20 45 74 46
REMARK SMILES IDX 68 47 70 48 21 49 73 50 67 51 66 52 22 54 54 55 34 56 53 57
REMARK SMILES IDX 35 58 38 59 52 60 71 61 36 62 37 63 51 65 72 66 39 67 23 68
REMARK SMILES IDX 24 69 32 70 25 71 26 72 30 73 33 74 27 75 28 76 31 77 29 78
REMARK SMILES IDX 55 79 56 80 64 81 57 82 58 83 62 84 65 85 59 86 60 87 63 88
REMARK SMILES IDX 61 89 40 90 41 91 49 92 42 93 43 94 47 95 50 96 44 97 45 98
REMARK SMILES IDX 48 99 46 100
REMARK H PARENT 7 5 80 14 89 24 11 34 70 53 38 64
REMARK Flexibility Score: inf
ROOT
ATOM      1  C   UNL A   1      31.477  31.086  26.169  1.00  0.00     0.117 C 
ENDROOT
BRANCH   1   2
ATOM      2  N   UNL A   1      32.844  30.654  26.276  1.00  0.00    -0.356 N 
ATOM      3  C   UNL A   1      33.414  29.429  26.121  1.00  0.00     0.224 C 
ATOM      4  O   UNL A   1      34.496  29.252  26.658  1.00  0.00    -0.275 OA
ATOM      5  H   UNL A   1      33.479  31.371  26.503  1.00  0.00     0.163 HD
BRANCH   3   6
ATOM      6  C   UNL A   1      32.898  28.357  25.259  1.00  0.00     0.098 C 
ATOM      7  C   UNL A   1      31.527  28.222  23.186  1.00  0.00     0.013 C 
ATOM      8  C   UNL A   1      32.912  28.139  23.785  1.00  0.00    -0.011 C 
ATOM      9  C   UNL A   1      33.919  28.707  22.799  1.00  0.00     0.013 C 
ATOM     10  C   UNL A   1      33.563  27.104  24.729  1.00  0.00     0.098 C 
BRANCH  10  11
ATOM     11  C   UNL A   1      33.334  26.022  25.712  1.00  0.00     0.228 C 
ATOM     12  O   UNL A   1      32.533  26.259  26.618  1.00  0.00    -0.274 OA
ATOM     13  N   UNL A   1      33.855  24.773  25.648  1.00  0.00    -0.325 N 
ATOM     14  H   UNL A   1      33.477  24.153  26.313  1.00  0.00     0.169 HD
BRANCH  13  15
ATOM     15  C   UNL A   1      34.818  24.191  24.829  1.00  0.00     0.054 A 
ATOM     16  C   UNL A   1      36.059  24.050  25.480  1.00  0.00     0.027 A 
ATOM     17  C   UNL A   1      34.657  23.723  23.516  1.00  0.00     0.063 A 
ATOM     18  C   UNL A   1      37.068  23.264  24.939  1.00  0.00     0.002 A 
ATOM     19  C   UNL A   1      35.690  22.913  22.994  1.00  0.00     0.016 A 
ATOM     20  C   UNL A   1      36.862  22.654  23.712  1.00  0.00     0.001 A 
BRANCH  17  21
ATOM     21  C   UNL A   1      33.476  23.917  22.608  1.00  0.00     0.259 C 
ATOM     22  O   UNL A   1      33.643  24.533  21.549  1.00  0.00    -0.269 OA
ATOM     23  N   UNL A   1      32.226  23.404  22.818  1.00  0.00    -0.298 N 
ATOM     24  H   UNL A   1      31.672  23.278  22.013  1.00  0.00     0.172 HD
BRANCH  23  25
ATOM     25  C   UNL A   1      31.651  23.045  23.994  1.00  0.00     0.189 A 
ATOM     26  N   UNL A   1      30.843  23.723  24.767  1.00  0.00    -0.229 NA
ATOM     27  S   UNL A   1      32.100  21.484  24.525  1.00  0.00    -0.105 S 
ATOM     28  C   UNL A   1      30.625  22.996  25.923  1.00  0.00     0.125 A 
ATOM     29  C   UNL A   1      31.278  21.784  26.001  1.00  0.00     0.088 A 
ENDBRANCH  23  25
ENDBRANCH  17  21
ENDBRANCH  13  15
ENDBRANCH  10  11
ENDBRANCH   3   6
ENDBRANCH   1   2
BRANCH   1  30
ATOM     30  C   UNL A   1      31.372  32.560  26.539  1.00  0.00     0.042 C 
BRANCH  30  31
ATOM     31  C   UNL A   1      32.583  33.071  27.300  1.00  0.00     0.118 C 
BRANCH  31  32
ATOM     32  N   UNL A   1      32.414  34.452  27.718  1.00  0.00    -0.352 N 
ATOM     33  C   UNL A   1      32.988  35.120  28.767  1.00  0.00     0.251 C 
ATOM     34  H   UNL A   1      31.798  34.986  27.166  1.00  0.00     0.163 HD
ATOM     35  O   UNL A   1      32.539  36.203  29.126  1.00  0.00    -0.269 OA
BRANCH  33  36
ATOM     36  C   UNL A   1      34.143  34.527  29.476  1.00  0.00     0.039 A 
ATOM     37  C   UNL A   1      33.939  33.937  30.725  1.00  0.00     0.014 A 
ATOM     38  C   UNL A   1      35.425  34.569  28.921  1.00  0.00     0.014 A 
ATOM     39  C   UNL A   1      35.013  33.349  31.395  1.00  0.00     0.010 A 
ATOM     40  C   UNL A   1      36.470  33.894  29.539  1.00  0.00     0.010 A 
ATOM     41  C   UNL A   1      36.281  33.297  30.793  1.00  0.00    -0.014 A 
BRANCH  41  42
ATOM     42  C   UNL A   1      37.436  32.662  31.473  1.00  0.00     0.031 A 
ATOM     43  C   UNL A   1      38.135  31.500  30.823  1.00  0.00     0.074 A 
ATOM     44  C   UNL A   1      37.816  33.091  32.693  1.00  0.00     0.049 A 
ATOM     45  N   UNL A   1      39.097  30.744  31.289  1.00  0.00    -0.248 NA
ATOM     46  C   UNL A   1      37.673  31.116  29.479  1.00  0.00     0.031 C 
ATOM     47  C   UNL A   1      37.193  34.186  33.439  1.00  0.00     0.029 A 
ATOM     48  N   UNL A   1      38.813  32.649  33.525  1.00  0.00    -0.354 N 
ATOM     49  C   UNL A   1      39.340  29.795  30.305  1.00  0.00     0.074 A 
ATOM     50  C   UNL A   1      38.387  30.026  29.244  1.00  0.00     0.031 C 
ATOM     51  C   UNL A   1      37.837  34.346  34.606  1.00  0.00     0.029 A 
ATOM     52  C   UNL A   1      38.887  33.337  34.712  1.00  0.00     0.049 A 
ATOM     53  H   UNL A   1      39.421  31.909  33.293  1.00  0.00     0.167 HD
ATOM     54  C   UNL A   1      40.295  28.835  30.275  1.00  0.00     0.037 A 
ATOM     55  C   UNL A   1      39.702  33.162  35.770  1.00  0.00     0.037 A 
ATOM     56  C   UNL A   1      41.259  28.626  31.322  1.00  0.00     0.049 A 
ATOM     57  C   UNL A   1      40.735  32.067  35.721  1.00  0.00     0.074 A 
ATOM     58  C   UNL A   1      42.290  27.706  31.374  1.00  0.00     0.029 A 
ATOM     59  N   UNL A   1      41.310  29.354  32.501  1.00  0.00    -0.354 N 
ATOM     60  N   UNL A   1      40.992  31.211  34.761  1.00  0.00    -0.248 NA
ATOM     61  C   UNL A   1      41.597  31.917  36.901  1.00  0.00     0.031 C 
ATOM     62  C   UNL A   1      42.939  27.846  32.604  1.00  0.00     0.029 A 
ATOM     63  C   UNL A   1      42.348  28.893  33.295  1.00  0.00     0.049 A 
ATOM     64  H   UNL A   1      40.701  30.089  32.739  1.00  0.00     0.167 HD
ATOM     65  C   UNL A   1      42.067  30.452  35.204  1.00  0.00     0.074 A 
ATOM     66  C   UNL A   1      42.422  30.956  36.513  1.00  0.00     0.031 C 
ATOM     67  C   UNL A   1      42.703  29.429  34.583  1.00  0.00     0.037 A 
BRANCH  54  68
ATOM     68  C   UNL A   1      40.356  27.948  29.065  1.00  0.00     0.064 A 
ATOM     69  C   UNL A   1      39.642  26.741  29.005  1.00  0.00     0.173 A 
ATOM     70  C   UNL A   1      41.092  28.330  27.933  1.00  0.00     0.173 A 
ATOM     71  F   UNL A   1      38.931  26.323  30.064  1.00  0.00    -0.203 F 
ATOM     72  C   UNL A   1      39.682  25.939  27.867  1.00  0.00     0.198 A 
ATOM     73  C   UNL A   1      41.104  27.542  26.786  1.00  0.00     0.198 A 
ATOM     74  F   UNL A   1      41.789  29.476  27.935  1.00  0.00    -0.203 F 
ATOM     75  F   UNL A   1      39.028  24.769  27.851  1.00  0.00    -0.200 F 
ATOM     76  C   UNL A   1      40.405  26.344  26.756  1.00  0.00     0.200 A 
ATOM     77  F   UNL A   1      41.791  27.942  25.707  1.00  0.00    -0.200 F 
ATOM     78  F   UNL A   1      40.431  25.579  25.656  1.00  0.00    -0.200 F 
ENDBRANCH  54  68
BRANCH  55  79
ATOM     79  C   UNL A   1      39.591  34.045  36.961  1.00  0.00     0.064 A 
ATOM     80  C   UNL A   1      40.256  35.279  37.006  1.00  0.00     0.173 A 
ATOM     81  C   UNL A   1      38.852  33.665  38.090  1.00  0.00     0.173 A 
ATOM     82  F   UNL A   1      40.992  35.681  35.959  1.00  0.00    -0.203 F 
ATOM     83  C   UNL A   1      40.218  36.079  38.146  1.00  0.00     0.198 A 
ATOM     84  C   UNL A   1      38.785  34.482  39.218  1.00  0.00     0.198 A 
ATOM     85  F   UNL A   1      38.189  32.498  38.099  1.00  0.00    -0.203 F 
ATOM     86  F   UNL A   1      40.916  37.222  38.183  1.00  0.00    -0.200 F 
ATOM     87  C   UNL A   1      39.479  35.681  39.249  1.00  0.00     0.200 A 
ATOM     88  F   UNL A   1      38.057  34.101  40.276  1.00  0.00    -0.200 F 
ATOM     89  F   UNL A   1      39.446  36.448  40.348  1.00  0.00    -0.200 F 
ENDBRANCH  55  79
BRANCH  67  90
ATOM     90  C   UNL A   1      43.888  28.826  35.281  1.00  0.00     0.064 A 
ATOM     91  C   UNL A   1      45.191  29.297  35.067  1.00  0.00     0.173 A 
ATOM     92  C   UNL A   1      43.705  27.795  36.216  1.00  0.00     0.173 A 
ATOM     93  F   UNL A   1      45.420  30.271  34.173  1.00  0.00    -0.203 F 
ATOM     94  C   UNL A   1      46.272  28.741  35.746  1.00  0.00     0.198 A 
ATOM     95  C   UNL A   1      44.784  27.264  36.917  1.00  0.00     0.198 A 
ATOM     96  F   UNL A   1      42.477  27.316  36.463  1.00  0.00    -0.203 F 
ATOM     97  F   UNL A   1      47.515  29.172  35.491  1.00  0.00    -0.200 F 
ATOM     98  C   UNL A   1      46.066  27.732  36.676  1.00  0.00     0.200 A 
ATOM     99  F   UNL A   1      44.580  26.303  37.828  1.00  0.00    -0.200 F 
ATOM    100  F   UNL A   1      47.106  27.206  37.338  1.00  0.00    -0.200 F 
ENDBRANCH  67  90
ENDBRANCH  41  42
ENDBRANCH  33  36
ENDBRANCH  31  32
ENDBRANCH  30  31
ENDBRANCH   1  30
TORSDOF 14
ENDMDL
