MODEL 1
REMARK VINA RESULT:     -12.2      0.000      0.000
REMARK SMILES C/C(=C(\C#N)C(=O)NCCCNC(=O)c1ccc(-c2c3nc(c(-c4c(F)c(F)c(F)c(F)c4F)c4ccc([nH]4)c(-c4c(F)c(F)c(F)c(F)c4F)c4nc(c(-c5c(F)c(F)c(F)c(F)c5F)c5ccc2[nH]5)C=C4)C=C3)cc1)c1cccc2ccccc12
REMARK SMILES IDX 10 1 9 2 8 3 6 4 7 5 3 7 1 8 2 9 78 10 79 11 87 12 80 13
REMARK SMILES IDX 82 14 86 15 81 16 83 17 85 18 84 19 4 20 5 21 11 22 12 23
REMARK SMILES IDX 13 24 14 26 15 27 16 28 77 29 17 30 76 31 18 32 19 33 20 34
REMARK SMILES IDX 70 35 21 36 75 37 69 38 71 39 22 40 74 41 68 42 67 43 23 45
REMARK SMILES IDX 55 46 35 47 54 48 36 49 39 50 53 51 72 52 37 53 38 54 52 56
REMARK SMILES IDX 73 57 40 58 24 59 25 60 33 61 26 62 27 63 31 64 34 65 28 66
REMARK SMILES IDX 29 67 32 68 30 69 56 70 57 71 65 72 58 73 59 74 63 75 66 76
REMARK SMILES IDX 60 77 61 78 64 79 62 80 41 81 42 82 50 83 43 84 44 85 48 86
REMARK SMILES IDX 51 87 45 88 46 89 49 90 47 91
REMARK H PARENT 8 6 12 25 71 44 39 55
REMARK Flexibility Score: inf
ROOT
ATOM      1  C   UNL A   1      31.782  28.840  26.404  1.00  0.00     0.042 C 
ENDROOT
BRANCH   1   2
ATOM      2  C   UNL A   1      32.208  27.453  26.877  1.00  0.00     0.118 C 
BRANCH   2   3
ATOM      3  N   UNL A   1      31.285  26.406  26.470  1.00  0.00    -0.351 N 
ATOM      4  C   UNL A   1      31.078  25.666  25.346  1.00  0.00     0.262 C 
ATOM      5  O   UNL A   1      30.335  24.702  25.539  1.00  0.00    -0.268 OA
ATOM      6  H   UNL A   1      30.652  26.173  27.188  1.00  0.00     0.163 HD
BRANCH   4   7
ATOM      7  C   UNL A   1      31.712  25.952  23.987  1.00  0.00     0.120 C 
ATOM      8  C   UNL A   1      33.635  25.928  22.356  1.00  0.00     0.046 C 
ATOM      9  C   UNL A   1      32.937  25.477  23.616  1.00  0.00    -0.020 C 
BRANCH   9  10
ATOM     10  C   UNL A   1      33.658  24.424  24.413  1.00  0.00    -0.013 A 
ATOM     11  C   UNL A   1      34.694  24.903  25.244  1.00  0.00     0.009 A 
ATOM     12  C   UNL A   1      33.436  23.007  24.334  1.00  0.00    -0.011 A 
ATOM     13  C   UNL A   1      35.609  24.040  25.834  1.00  0.00     0.001 A 
ATOM     14  C   UNL A   1      34.392  22.144  24.943  1.00  0.00    -0.018 A 
ATOM     15  C   UNL A   1      32.340  22.371  23.697  1.00  0.00     0.009 A 
ATOM     16  C   UNL A   1      35.480  22.671  25.648  1.00  0.00     0.009 A 
ATOM     17  C   UNL A   1      34.267  20.748  24.853  1.00  0.00     0.009 A 
ATOM     18  C   UNL A   1      32.192  20.977  23.675  1.00  0.00     0.001 A 
ATOM     19  C   UNL A   1      33.166  20.164  24.235  1.00  0.00     0.001 A 
ENDBRANCH   9  10
BRANCH   7  20
ATOM     20  C   UNL A   1      30.929  26.913  23.108  1.00  0.00     0.105 C 
ATOM     21  N   UNL A   1      30.279  27.711  22.379  1.00  0.00    -0.192 NA
ENDBRANCH   7  20
ENDBRANCH   4   7
ENDBRANCH   2   3
ENDBRANCH   1   2
BRANCH   1  22
ATOM     22  C   UNL A   1      32.948  29.707  25.928  1.00  0.00     0.118 C 
BRANCH  22  23
ATOM     23  N   UNL A   1      32.775  31.109  26.285  1.00  0.00    -0.352 N 
ATOM     24  C   UNL A   1      33.371  31.877  27.250  1.00  0.00     0.251 C 
ATOM     25  H   UNL A   1      32.114  31.589  25.736  1.00  0.00     0.163 HD
ATOM     26  O   UNL A   1      32.876  32.961  27.542  1.00  0.00    -0.269 OA
BRANCH  24  27
ATOM     27  C   UNL A   1      34.607  31.434  27.928  1.00  0.00     0.039 A 
ATOM     28  C   UNL A   1      34.665  30.128  28.425  1.00  0.00     0.014 A 
ATOM     29  C   UNL A   1      35.664  32.318  28.168  1.00  0.00     0.014 A 
ATOM     30  C   UNL A   1      35.789  29.700  29.131  1.00  0.00     0.010 A 
ATOM     31  C   UNL A   1      36.817  31.869  28.809  1.00  0.00     0.010 A 
ATOM     32  C   UNL A   1      36.882  30.562  29.313  1.00  0.00    -0.014 A 
BRANCH  32  33
ATOM     33  C   UNL A   1      38.093  30.106  30.038  1.00  0.00     0.031 A 
ATOM     34  C   UNL A   1      38.352  30.557  31.449  1.00  0.00     0.074 A 
ATOM     35  C   UNL A   1      38.979  29.316  29.405  1.00  0.00     0.049 A 
ATOM     36  N   UNL A   1      39.351  30.261  32.243  1.00  0.00    -0.248 NA
ATOM     37  C   UNL A   1      37.374  31.485  32.038  1.00  0.00     0.031 C 
ATOM     38  C   UNL A   1      38.863  28.862  28.019  1.00  0.00     0.029 A 
ATOM     39  N   UNL A   1      40.150  28.754  29.844  1.00  0.00    -0.354 N 
ATOM     40  C   UNL A   1      39.133  30.981  33.410  1.00  0.00     0.074 A 
ATOM     41  C   UNL A   1      37.934  31.765  33.205  1.00  0.00     0.031 C 
ATOM     42  C   UNL A   1      39.898  28.056  27.734  1.00  0.00     0.029 A 
ATOM     43  C   UNL A   1      40.762  27.961  28.906  1.00  0.00     0.049 A 
ATOM     44  H   UNL A   1      40.516  28.903  30.745  1.00  0.00     0.167 HD
ATOM     45  C   UNL A   1      39.857  30.971  34.556  1.00  0.00     0.037 A 
ATOM     46  C   UNL A   1      41.888  27.228  28.989  1.00  0.00     0.037 A 
ATOM     47  C   UNL A   1      41.029  30.161  34.765  1.00  0.00     0.049 A 
ATOM     48  C   UNL A   1      42.655  27.211  30.282  1.00  0.00     0.074 A 
ATOM     49  C   UNL A   1      41.787  30.015  35.913  1.00  0.00     0.029 A 
ATOM     50  N   UNL A   1      41.613  29.358  33.795  1.00  0.00    -0.354 N 
ATOM     51  N   UNL A   1      42.394  27.829  31.408  1.00  0.00    -0.248 NA
ATOM     52  C   UNL A   1      43.866  26.383  30.316  1.00  0.00     0.031 C 
ATOM     53  C   UNL A   1      42.855  29.157  35.625  1.00  0.00     0.029 A 
ATOM     54  C   UNL A   1      42.737  28.732  34.313  1.00  0.00     0.049 A 
ATOM     55  H   UNL A   1      41.279  29.250  32.875  1.00  0.00     0.167 HD
ATOM     56  C   UNL A   1      43.392  27.446  32.292  1.00  0.00     0.074 A 
ATOM     57  C   UNL A   1      44.252  26.526  31.576  1.00  0.00     0.031 C 
ATOM     58  C   UNL A   1      43.581  27.821  33.582  1.00  0.00     0.037 A 
BRANCH  45  59
ATOM     59  C   UNL A   1      39.400  31.869  35.671  1.00  0.00     0.064 A 
ATOM     60  C   UNL A   1      38.455  31.448  36.619  1.00  0.00     0.173 A 
ATOM     61  C   UNL A   1      39.926  33.163  35.802  1.00  0.00     0.173 A 
ATOM     62  F   UNL A   1      37.911  30.224  36.534  1.00  0.00    -0.203 F 
ATOM     63  C   UNL A   1      38.028  32.301  37.635  1.00  0.00     0.198 A 
ATOM     64  C   UNL A   1      39.520  34.002  36.837  1.00  0.00     0.198 A 
ATOM     65  F   UNL A   1      40.836  33.617  34.926  1.00  0.00    -0.203 F 
ATOM     66  F   UNL A   1      37.084  31.895  38.495  1.00  0.00    -0.200 F 
ATOM     67  C   UNL A   1      38.564  33.574  37.746  1.00  0.00     0.200 A 
ATOM     68  F   UNL A   1      40.047  35.230  36.949  1.00  0.00    -0.200 F 
ATOM     69  F   UNL A   1      38.153  34.393  38.724  1.00  0.00    -0.200 F 
ENDBRANCH  45  59
BRANCH  46  70
ATOM     70  C   UNL A   1      42.318  26.402  27.833  1.00  0.00     0.064 A 
ATOM     71  C   UNL A   1      43.293  26.875  26.944  1.00  0.00     0.173 A 
ATOM     72  C   UNL A   1      41.779  25.130  27.597  1.00  0.00     0.173 A 
ATOM     73  F   UNL A   1      43.823  28.094  27.119  1.00  0.00    -0.203 F 
ATOM     74  C   UNL A   1      43.701  26.112  25.852  1.00  0.00     0.198 A 
ATOM     75  C   UNL A   1      42.206  24.358  26.519  1.00  0.00     0.198 A 
ATOM     76  F   UNL A   1      40.848  24.631  28.423  1.00  0.00    -0.203 F 
ATOM     77  F   UNL A   1      44.607  26.604  24.996  1.00  0.00    -0.200 F 
ATOM     78  C   UNL A   1      43.162  24.852  25.644  1.00  0.00     0.200 A 
ATOM     79  F   UNL A   1      41.693  23.134  26.328  1.00  0.00    -0.200 F 
ATOM     80  F   UNL A   1      43.559  24.116  24.597  1.00  0.00    -0.200 F 
ENDBRANCH  46  70
BRANCH  58  81
ATOM     81  C   UNL A   1      44.748  27.210  34.302  1.00  0.00     0.064 A 
ATOM     82  C   UNL A   1      46.002  27.837  34.331  1.00  0.00     0.173 A 
ATOM     83  C   UNL A   1      44.607  25.986  34.973  1.00  0.00     0.173 A 
ATOM     84  F   UNL A   1      46.192  28.999  33.690  1.00  0.00    -0.203 F 
ATOM     85  C   UNL A   1      47.084  27.241  34.976  1.00  0.00     0.198 A 
ATOM     86  C   UNL A   1      45.681  25.410  35.643  1.00  0.00     0.198 A 
ATOM     87  F   UNL A   1      43.426  25.350  34.980  1.00  0.00    -0.203 F 
ATOM     88  F   UNL A   1      48.288  27.828  34.940  1.00  0.00    -0.200 F 
ATOM     89  C   UNL A   1      46.921  26.032  35.635  1.00  0.00     0.200 A 
ATOM     90  F   UNL A   1      45.522  24.246  36.288  1.00  0.00    -0.200 F 
ATOM     91  F   UNL A   1      47.963  25.458  36.251  1.00  0.00    -0.200 F 
ENDBRANCH  58  81
ENDBRANCH  32  33
ENDBRANCH  24  27
ENDBRANCH  22  23
ENDBRANCH   1  22
TORSDOF 12
ENDMDL
MODEL 2
REMARK VINA RESULT:     -12.2      0.090      1.613
REMARK SMILES C/C(=C(\C#N)C(=O)NCCCNC(=O)c1ccc(-c2c3nc(c(-c4c(F)c(F)c(F)c(F)c4F)c4ccc([nH]4)c(-c4c(F)c(F)c(F)c(F)c4F)c4nc(c(-c5c(F)c(F)c(F)c(F)c5F)c5ccc2[nH]5)C=C4)C=C3)cc1)c1cccc2ccccc12
REMARK SMILES IDX 10 1 9 2 8 3 6 4 7 5 3 7 1 8 2 9 78 10 79 11 87 12 80 13
REMARK SMILES IDX 82 14 86 15 81 16 83 17 85 18 84 19 4 20 5 21 11 22 12 23
REMARK SMILES IDX 13 24 14 26 15 27 16 28 77 29 17 30 76 31 18 32 19 33 20 34
REMARK SMILES IDX 70 35 21 36 75 37 69 38 71 39 22 40 74 41 68 42 67 43 23 45
REMARK SMILES IDX 55 46 35 47 54 48 36 49 39 50 53 51 72 52 37 53 38 54 52 56
REMARK SMILES IDX 73 57 40 58 24 59 25 60 33 61 26 62 27 63 31 64 34 65 28 66
REMARK SMILES IDX 29 67 32 68 30 69 56 70 57 71 65 72 58 73 59 74 63 75 66 76
REMARK SMILES IDX 60 77 61 78 64 79 62 80 41 81 42 82 50 83 43 84 44 85 48 86
REMARK SMILES IDX 51 87 45 88 46 89 49 90 47 91
REMARK H PARENT 8 6 12 25 71 44 39 55
REMARK Flexibility Score: inf
ROOT
ATOM      1  C   UNL A   1      31.810  28.842  26.507  1.00  0.00     0.042 C 
ENDROOT
BRANCH   1   2
ATOM      2  C   UNL A   1      32.234  27.434  26.912  1.00  0.00     0.118 C 
BRANCH   2   3
ATOM      3  N   UNL A   1      31.294  26.411  26.480  1.00  0.00    -0.351 N 
ATOM      4  C   UNL A   1      31.069  25.711  25.334  1.00  0.00     0.262 C 
ATOM      5  O   UNL A   1      30.315  24.751  25.503  1.00  0.00    -0.268 OA
ATOM      6  H   UNL A   1      30.664  26.163  27.195  1.00  0.00     0.163 HD
BRANCH   4   7
ATOM      7  C   UNL A   1      31.695  26.032  23.980  1.00  0.00     0.120 C 
ATOM      8  C   UNL A   1      33.606  26.042  22.334  1.00  0.00     0.046 C 
ATOM      9  C   UNL A   1      32.913  25.558  23.585  1.00  0.00    -0.020 C 
BRANCH   9  10
ATOM     10  C   UNL A   1      33.631  24.475  24.344  1.00  0.00    -0.013 A 
ATOM     11  C   UNL A   1      34.666  24.922  25.194  1.00  0.00     0.009 A 
ATOM     12  C   UNL A   1      33.407  23.063  24.213  1.00  0.00    -0.011 A 
ATOM     13  C   UNL A   1      35.579  24.036  25.753  1.00  0.00     0.001 A 
ATOM     14  C   UNL A   1      34.360  22.176  24.791  1.00  0.00    -0.018 A 
ATOM     15  C   UNL A   1      32.310  22.453  23.551  1.00  0.00     0.009 A 
ATOM     16  C   UNL A   1      35.447  22.675  25.517  1.00  0.00     0.009 A 
ATOM     17  C   UNL A   1      34.232  20.785  24.649  1.00  0.00     0.009 A 
ATOM     18  C   UNL A   1      32.160  21.061  23.477  1.00  0.00     0.001 A 
ATOM     19  C   UNL A   1      33.132  20.226  24.009  1.00  0.00     0.001 A 
ENDBRANCH   9  10
BRANCH   7  20
ATOM     20  C   UNL A   1      30.914  27.026  23.136  1.00  0.00     0.105 C 
ATOM     21  N   UNL A   1      30.266  27.851  22.435  1.00  0.00    -0.192 NA
ENDBRANCH   7  20
ENDBRANCH   4   7
ENDBRANCH   2   3
ENDBRANCH   1   2
BRANCH   1  22
ATOM     22  C   UNL A   1      32.959  29.692  25.962  1.00  0.00     0.118 C 
BRANCH  22  23
ATOM     23  N   UNL A   1      32.809  31.103  26.297  1.00  0.00    -0.352 N 
ATOM     24  C   UNL A   1      33.422  31.877  27.246  1.00  0.00     0.251 C 
ATOM     25  H   UNL A   1      32.152  31.583  25.743  1.00  0.00     0.163 HD
ATOM     26  O   UNL A   1      32.945  32.972  27.523  1.00  0.00    -0.269 OA
BRANCH  24  27
ATOM     27  C   UNL A   1      34.655  31.426  27.925  1.00  0.00     0.039 A 
ATOM     28  C   UNL A   1      34.690  30.133  28.456  1.00  0.00     0.014 A 
ATOM     29  C   UNL A   1      35.733  32.293  28.131  1.00  0.00     0.014 A 
ATOM     30  C   UNL A   1      35.813  29.700  29.162  1.00  0.00     0.010 A 
ATOM     31  C   UNL A   1      36.882  31.838  28.774  1.00  0.00     0.010 A 
ATOM     32  C   UNL A   1      36.924  30.544  29.311  1.00  0.00    -0.014 A 
BRANCH  32  33
ATOM     33  C   UNL A   1      38.132  30.082  30.037  1.00  0.00     0.031 A 
ATOM     34  C   UNL A   1      38.388  30.523  31.452  1.00  0.00     0.074 A 
ATOM     35  C   UNL A   1      39.020  29.295  29.403  1.00  0.00     0.049 A 
ATOM     36  N   UNL A   1      39.384  30.221  32.247  1.00  0.00    -0.248 NA
ATOM     37  C   UNL A   1      37.409  31.449  32.043  1.00  0.00     0.031 C 
ATOM     38  C   UNL A   1      38.908  28.849  28.013  1.00  0.00     0.029 A 
ATOM     39  N   UNL A   1      40.188  28.728  29.841  1.00  0.00    -0.354 N 
ATOM     40  C   UNL A   1      39.164  30.935  33.418  1.00  0.00     0.074 A 
ATOM     41  C   UNL A   1      37.966  31.721  33.214  1.00  0.00     0.031 C 
ATOM     42  C   UNL A   1      39.943  28.044  27.726  1.00  0.00     0.029 A 
ATOM     43  C   UNL A   1      40.802  27.940  28.900  1.00  0.00     0.049 A 
ATOM     44  H   UNL A   1      40.552  28.871  30.745  1.00  0.00     0.167 HD
ATOM     45  C   UNL A   1      39.883  30.917  34.566  1.00  0.00     0.037 A 
ATOM     46  C   UNL A   1      41.927  27.205  28.983  1.00  0.00     0.037 A 
ATOM     47  C   UNL A   1      41.054  30.104  34.774  1.00  0.00     0.049 A 
ATOM     48  C   UNL A   1      42.690  27.180  30.278  1.00  0.00     0.074 A 
ATOM     49  C   UNL A   1      41.808  29.950  35.923  1.00  0.00     0.029 A 
ATOM     50  N   UNL A   1      41.640  29.306  33.800  1.00  0.00    -0.354 N 
ATOM     51  N   UNL A   1      42.427  27.791  31.407  1.00  0.00    -0.248 NA
ATOM     52  C   UNL A   1      43.900  26.350  30.310  1.00  0.00     0.031 C 
ATOM     53  C   UNL A   1      42.876  29.092  35.634  1.00  0.00     0.029 A 
ATOM     54  C   UNL A   1      42.761  28.676  34.318  1.00  0.00     0.049 A 
ATOM     55  H   UNL A   1      41.309  29.204  32.879  1.00  0.00     0.167 HD
ATOM     56  C   UNL A   1      43.421  27.401  32.292  1.00  0.00     0.074 A 
ATOM     57  C   UNL A   1      44.283  26.485  31.573  1.00  0.00     0.031 C 
ATOM     58  C   UNL A   1      43.607  27.768  33.584  1.00  0.00     0.037 A 
BRANCH  45  59
ATOM     59  C   UNL A   1      39.424  31.808  35.685  1.00  0.00     0.064 A 
ATOM     60  C   UNL A   1      39.932  33.105  35.853  1.00  0.00     0.173 A 
ATOM     61  C   UNL A   1      38.449  31.366  36.592  1.00  0.00     0.173 A 
ATOM     62  F   UNL A   1      40.875  33.574  35.021  1.00  0.00    -0.203 F 
ATOM     63  C   UNL A   1      39.509  33.911  36.908  1.00  0.00     0.198 A 
ATOM     64  C   UNL A   1      38.005  32.186  37.626  1.00  0.00     0.198 A 
ATOM     65  F   UNL A   1      37.923  30.136  36.475  1.00  0.00    -0.203 F 
ATOM     66  F   UNL A   1      40.051  35.125  37.080  1.00  0.00    -0.200 F 
ATOM     67  C   UNL A   1      38.543  33.454  37.789  1.00  0.00     0.200 A 
ATOM     68  F   UNL A   1      37.062  31.745  38.471  1.00  0.00    -0.200 F 
ATOM     69  F   UNL A   1      38.135  34.230  38.803  1.00  0.00    -0.200 F 
ENDBRANCH  45  59
BRANCH  46  70
ATOM     70  C   UNL A   1      42.360  26.386  27.823  1.00  0.00     0.064 A 
ATOM     71  C   UNL A   1      41.795  25.124  27.592  1.00  0.00     0.173 A 
ATOM     72  C   UNL A   1      43.332  26.842  26.922  1.00  0.00     0.173 A 
ATOM     73  F   UNL A   1      40.875  24.638  28.438  1.00  0.00    -0.203 F 
ATOM     74  C   UNL A   1      42.196  24.344  26.510  1.00  0.00     0.198 A 
ATOM     75  C   UNL A   1      43.714  26.071  25.827  1.00  0.00     0.198 A 
ATOM     76  F   UNL A   1      43.898  28.046  27.097  1.00  0.00    -0.203 F 
ATOM     77  F   UNL A   1      41.666  23.126  26.335  1.00  0.00    -0.200 F 
ATOM     78  C   UNL A   1      43.151  24.820  25.626  1.00  0.00     0.200 A 
ATOM     79  F   UNL A   1      44.627  26.540  24.965  1.00  0.00    -0.200 F 
ATOM     80  F   UNL A   1      43.533  24.071  24.582  1.00  0.00    -0.200 F 
ENDBRANCH  46  70
BRANCH  58  81
ATOM     81  C   UNL A   1      44.771  27.151  34.304  1.00  0.00     0.064 A 
ATOM     82  C   UNL A   1      46.031  27.768  34.326  1.00  0.00     0.173 A 
ATOM     83  C   UNL A   1      44.621  25.933  34.982  1.00  0.00     0.173 A 
ATOM     84  F   UNL A   1      46.228  28.925  33.678  1.00  0.00    -0.203 F 
ATOM     85  C   UNL A   1      47.109  27.166  34.971  1.00  0.00     0.198 A 
ATOM     86  C   UNL A   1      45.693  25.351  35.652  1.00  0.00     0.198 A 
ATOM     87  F   UNL A   1      43.435  25.307  34.996  1.00  0.00    -0.203 F 
ATOM     88  F   UNL A   1      48.318  27.743  34.928  1.00  0.00    -0.200 F 
ATOM     89  C   UNL A   1      46.938  25.962  35.637  1.00  0.00     0.200 A 
ATOM     90  F   UNL A   1      45.526  24.192  36.305  1.00  0.00    -0.200 F 
ATOM     91  F   UNL A   1      47.977  25.383  36.254  1.00  0.00    -0.200 F 
ENDBRANCH  58  81
ENDBRANCH  32  33
ENDBRANCH  24  27
ENDBRANCH  22  23
ENDBRANCH   1  22
TORSDOF 12
ENDMDL
MODEL 3
REMARK VINA RESULT:     -12.1      4.304      8.985
REMARK SMILES C/C(=C(\C#N)C(=O)NCCCNC(=O)c1ccc(-c2c3nc(c(-c4c(F)c(F)c(F)c(F)c4F)c4ccc([nH]4)c(-c4c(F)c(F)c(F)c(F)c4F)c4nc(c(-c5c(F)c(F)c(F)c(F)c5F)c5ccc2[nH]5)C=C4)C=C3)cc1)c1cccc2ccccc12
REMARK SMILES IDX 10 1 9 2 8 3 6 4 7 5 3 7 1 8 2 9 78 10 79 11 87 12 80 13
REMARK SMILES IDX 82 14 86 15 81 16 83 17 85 18 84 19 4 20 5 21 11 22 12 23
REMARK SMILES IDX 13 24 14 26 15 27 16 28 77 29 17 30 76 31 18 32 19 33 20 34
REMARK SMILES IDX 70 35 21 36 75 37 69 38 71 39 22 40 74 41 68 42 67 43 23 45
REMARK SMILES IDX 55 46 35 47 54 48 36 49 39 50 53 51 72 52 37 53 38 54 52 56
REMARK SMILES IDX 73 57 40 58 24 59 25 60 33 61 26 62 27 63 31 64 34 65 28 66
REMARK SMILES IDX 29 67 32 68 30 69 56 70 57 71 65 72 58 73 59 74 63 75 66 76
REMARK SMILES IDX 60 77 61 78 64 79 62 80 41 81 42 82 50 83 43 84 44 85 48 86
REMARK SMILES IDX 51 87 45 88 46 89 49 90 47 91
REMARK H PARENT 8 6 12 25 71 44 39 55
REMARK Flexibility Score: inf
ROOT
ATOM      1  C   UNL A   1      36.259  23.850  24.579  1.00  0.00     0.042 C 
ENDROOT
BRANCH   1   2
ATOM      2  C   UNL A   1      35.616  22.752  23.737  1.00  0.00     0.118 C 
BRANCH   2   3
ATOM      3  N   UNL A   1      34.462  23.217  22.984  1.00  0.00    -0.351 N 
ATOM      4  C   UNL A   1      33.175  23.551  23.276  1.00  0.00     0.262 C 
ATOM      5  O   UNL A   1      32.614  24.141  22.350  1.00  0.00    -0.268 OA
ATOM      6  H   UNL A   1      34.661  23.315  22.025  1.00  0.00     0.163 HD
BRANCH   4   7
ATOM      7  C   UNL A   1      32.481  23.271  24.607  1.00  0.00     0.120 C 
ATOM      8  C   UNL A   1      31.765  23.900  26.941  1.00  0.00     0.046 C 
ATOM      9  C   UNL A   1      32.267  24.229  25.556  1.00  0.00    -0.020 C 
BRANCH   9  10
ATOM     10  C   UNL A   1      32.466  25.692  25.271  1.00  0.00    -0.013 A 
ATOM     11  C   UNL A   1      33.688  26.233  25.728  1.00  0.00     0.009 A 
ATOM     12  C   UNL A   1      31.507  26.571  24.663  1.00  0.00    -0.011 A 
ATOM     13  C   UNL A   1      33.902  27.605  25.772  1.00  0.00     0.001 A 
ATOM     14  C   UNL A   1      31.748  27.974  24.726  1.00  0.00    -0.018 A 
ATOM     15  C   UNL A   1      30.320  26.172  23.995  1.00  0.00     0.009 A 
ATOM     16  C   UNL A   1      32.919  28.469  25.310  1.00  0.00     0.009 A 
ATOM     17  C   UNL A   1      30.822  28.891  24.203  1.00  0.00     0.009 A 
ATOM     18  C   UNL A   1      29.439  27.098  23.417  1.00  0.00     0.001 A 
ATOM     19  C   UNL A   1      29.679  28.459  23.539  1.00  0.00     0.001 A 
ENDBRANCH   9  10
BRANCH   7  20
ATOM     20  C   UNL A   1      32.149  21.809  24.858  1.00  0.00     0.105 C 
ATOM     21  N   UNL A   1      31.874  20.596  25.065  1.00  0.00    -0.192 NA
ENDBRANCH   7  20
ENDBRANCH   4   7
ENDBRANCH   2   3
ENDBRANCH   1   2
BRANCH   1  22
ATOM     22  C   UNL A   1      36.546  23.424  26.020  1.00  0.00     0.118 C 
BRANCH  22  23
ATOM     23  N   UNL A   1      37.727  22.575  26.120  1.00  0.00    -0.352 N 
ATOM     24  C   UNL A   1      39.037  22.875  26.381  1.00  0.00     0.251 C 
ATOM     25  H   UNL A   1      37.551  21.618  25.973  1.00  0.00     0.163 HD
ATOM     26  O   UNL A   1      39.901  22.035  26.150  1.00  0.00    -0.269 OA
BRANCH  24  27
ATOM     27  C   UNL A   1      39.426  24.181  26.954  1.00  0.00     0.039 A 
ATOM     28  C   UNL A   1      40.061  25.111  26.125  1.00  0.00     0.014 A 
ATOM     29  C   UNL A   1      39.264  24.458  28.315  1.00  0.00     0.014 A 
ATOM     30  C   UNL A   1      40.502  26.326  26.651  1.00  0.00     0.010 A 
ATOM     31  C   UNL A   1      39.640  25.698  28.825  1.00  0.00     0.010 A 
ATOM     32  C   UNL A   1      40.279  26.636  28.001  1.00  0.00    -0.014 A 
BRANCH  32  33
ATOM     33  C   UNL A   1      40.721  27.936  28.562  1.00  0.00     0.031 A 
ATOM     34  C   UNL A   1      42.176  28.190  28.847  1.00  0.00     0.074 A 
ATOM     35  C   UNL A   1      39.801  28.874  28.852  1.00  0.00     0.049 A 
ATOM     36  N   UNL A   1      42.751  29.262  29.332  1.00  0.00    -0.248 NA
ATOM     37  C   UNL A   1      43.106  27.082  28.577  1.00  0.00     0.031 C 
ATOM     38  C   UNL A   1      38.356  28.720  28.672  1.00  0.00     0.029 A 
ATOM     39  N   UNL A   1      39.941  30.141  29.355  1.00  0.00    -0.354 N 
ATOM     40  C   UNL A   1      44.099  28.950  29.446  1.00  0.00     0.074 A 
ATOM     41  C   UNL A   1      44.252  27.574  29.024  1.00  0.00     0.031 C 
ATOM     42  C   UNL A   1      37.747  29.864  29.020  1.00  0.00     0.029 A 
ATOM     43  C   UNL A   1      38.754  30.819  29.472  1.00  0.00     0.049 A 
ATOM     44  H   UNL A   1      40.811  30.528  29.608  1.00  0.00     0.167 HD
ATOM     45  C   UNL A   1      45.120  29.748  29.844  1.00  0.00     0.037 A 
ATOM     46  C   UNL A   1      38.509  32.077  29.884  1.00  0.00     0.037 A 
ATOM     47  C   UNL A   1      44.965  31.127  30.228  1.00  0.00     0.049 A 
ATOM     48  C   UNL A   1      39.663  32.950  30.292  1.00  0.00     0.074 A 
ATOM     49  C   UNL A   1      45.942  32.046  30.570  1.00  0.00     0.029 A 
ATOM     50  N   UNL A   1      43.746  31.786  30.322  1.00  0.00    -0.354 N 
ATOM     51  N   UNL A   1      40.943  32.674  30.316  1.00  0.00    -0.248 NA
ATOM     52  C   UNL A   1      39.334  34.315  30.720  1.00  0.00     0.031 C 
ATOM     53  C   UNL A   1      45.311  33.248  30.912  1.00  0.00     0.029 A 
ATOM     54  C   UNL A   1      43.946  33.093  30.738  1.00  0.00     0.049 A 
ATOM     55  H   UNL A   1      42.870  31.384  30.122  1.00  0.00     0.167 HD
ATOM     56  C   UNL A   1      41.576  33.835  30.733  1.00  0.00     0.074 A 
ATOM     57  C   UNL A   1      40.538  34.825  30.935  1.00  0.00     0.031 C 
ATOM     58  C   UNL A   1      42.898  34.062  30.934  1.00  0.00     0.037 A 
BRANCH  45  59
ATOM     59  C   UNL A   1      46.495  29.143  29.888  1.00  0.00     0.064 A 
ATOM     60  C   UNL A   1      47.344  29.155  28.772  1.00  0.00     0.173 A 
ATOM     61  C   UNL A   1      46.975  28.556  31.069  1.00  0.00     0.173 A 
ATOM     62  F   UNL A   1      46.930  29.693  27.614  1.00  0.00    -0.203 F 
ATOM     63  C   UNL A   1      48.608  28.572  28.824  1.00  0.00     0.198 A 
ATOM     64  C   UNL A   1      48.251  28.002  31.127  1.00  0.00     0.198 A 
ATOM     65  F   UNL A   1      46.208  28.521  32.169  1.00  0.00    -0.203 F 
ATOM     66  F   UNL A   1      49.379  28.548  27.727  1.00  0.00    -0.200 F 
ATOM     67  C   UNL A   1      49.062  28.001  30.002  1.00  0.00     0.200 A 
ATOM     68  F   UNL A   1      48.694  27.459  32.270  1.00  0.00    -0.200 F 
ATOM     69  F   UNL A   1      50.279  27.441  30.052  1.00  0.00    -0.200 F 
ENDBRANCH  45  59
BRANCH  46  70
ATOM     70  C   UNL A   1      37.120  32.601  29.870  1.00  0.00     0.064 A 
ATOM     71  C   UNL A   1      36.630  33.288  28.750  1.00  0.00     0.173 A 
ATOM     72  C   UNL A   1      36.255  32.422  30.957  1.00  0.00     0.173 A 
ATOM     73  F   UNL A   1      37.428  33.500  27.693  1.00  0.00    -0.203 F 
ATOM     74  C   UNL A   1      35.331  33.789  28.726  1.00  0.00     0.198 A 
ATOM     75  C   UNL A   1      34.948  32.902  30.921  1.00  0.00     0.198 A 
ATOM     76  F   UNL A   1      36.675  31.766  32.049  1.00  0.00    -0.203 F 
ATOM     77  F   UNL A   1      34.901  34.475  27.658  1.00  0.00    -0.200 F 
ATOM     78  C   UNL A   1      34.489  33.591  29.809  1.00  0.00     0.200 A 
ATOM     79  F   UNL A   1      34.132  32.696  31.965  1.00  0.00    -0.200 F 
ATOM     80  F   UNL A   1      33.238  34.068  29.783  1.00  0.00    -0.200 F 
ENDBRANCH  46  70
BRANCH  58  81
ATOM     81  C   UNL A   1      43.290  35.446  31.366  1.00  0.00     0.064 A 
ATOM     82  C   UNL A   1      43.298  35.818  32.719  1.00  0.00     0.173 A 
ATOM     83  C   UNL A   1      43.665  36.407  30.416  1.00  0.00     0.173 A 
ATOM     84  F   UNL A   1      42.930  34.940  33.663  1.00  0.00    -0.203 F 
ATOM     85  C   UNL A   1      43.632  37.115  33.101  1.00  0.00     0.198 A 
ATOM     86  C   UNL A   1      44.029  37.693  30.804  1.00  0.00     0.198 A 
ATOM     87  F   UNL A   1      43.680  36.099  29.111  1.00  0.00    -0.203 F 
ATOM     88  F   UNL A   1      43.575  37.466  34.393  1.00  0.00    -0.200 F 
ATOM     89  C   UNL A   1      44.002  38.049  32.145  1.00  0.00     0.200 A 
ATOM     90  F   UNL A   1      44.396  38.592  29.881  1.00  0.00    -0.200 F 
ATOM     91  F   UNL A   1      44.320  39.297  32.514  1.00  0.00    -0.200 F 
ENDBRANCH  58  81
ENDBRANCH  32  33
ENDBRANCH  24  27
ENDBRANCH  22  23
ENDBRANCH   1  22
TORSDOF 12
ENDMDL
