MODEL 1
REMARK VINA RESULT:     -12.5      0.000      0.000
REMARK SMILES O=C(NCCCNC(=O)c1ccc(C[NH2+][C@@H]2CCCC[C@H]2O)nc1)c1ccc(-c2c3nc(c(-c4c(F)c(F)c(F)c(F)c4F)c4ccc([nH]4)c(-c4c(F)c(F)c(F)c(F)c4F)c4nc(c(-c5c(F)c(F)c(F)c(F)c5F)c5ccc2[nH]5)C=C4)C=C3)cc1
REMARK SMILES IDX 6 1 5 2 4 3 3 4 1 5 2 6 25 8 26 9 87 10 27 11 86 12 28 13
REMARK SMILES IDX 29 14 30 15 80 16 31 17 85 18 79 19 81 20 32 21 84 22 78 23
REMARK SMILES IDX 77 24 33 26 65 27 45 28 64 29 46 30 49 31 63 32 82 33 47 34
REMARK SMILES IDX 48 35 62 37 83 38 50 39 34 40 35 41 43 42 36 43 37 44 41 45
REMARK SMILES IDX 44 46 38 47 39 48 42 49 40 50 66 51 67 52 75 53 68 54 69 55
REMARK SMILES IDX 73 56 76 57 70 58 71 59 74 60 72 61 51 62 52 63 60 64 53 65
REMARK SMILES IDX 54 66 58 67 61 68 55 69 56 70 59 71 57 72 7 73 8 74 9 76
REMARK SMILES IDX 10 77 11 78 24 79 12 80 23 81 13 82 14 83 15 84 16 87 17 88
REMARK SMILES IDX 21 89 18 90 20 91 19 92 22 93
REMARK H PARENT 3 7 81 25 49 36 7 75 15 85 15 86 22 94
REMARK Flexibility Score: inf
ROOT
ATOM      1  C   UNL A   1      32.440  26.983  23.800  1.00  0.00     0.118 C 
ENDROOT
BRANCH   1   2
ATOM      2  C   UNL A   1      32.717  28.473  23.944  1.00  0.00     0.042 C 
BRANCH   2   3
ATOM      3  C   UNL A   1      33.235  28.867  25.320  1.00  0.00     0.118 C 
BRANCH   3   4
ATOM      4  N   UNL A   1      32.722  30.157  25.764  1.00  0.00    -0.352 N 
ATOM      5  O   UNL A   1      32.418  31.928  27.115  1.00  0.00    -0.269 OA
ATOM      6  C   UNL A   1      33.126  30.979  26.787  1.00  0.00     0.251 C 
ATOM      7  H   UNL A   1      31.958  30.495  25.244  1.00  0.00     0.163 HD
BRANCH   6   8
ATOM      8  C   UNL A   1      34.393  30.729  27.506  1.00  0.00     0.039 A 
ATOM      9  C   UNL A   1      34.704  29.459  27.992  1.00  0.00     0.014 A 
ATOM     10  C   UNL A   1      35.313  31.773  27.654  1.00  0.00     0.014 A 
ATOM     11  C   UNL A   1      35.846  29.271  28.761  1.00  0.00     0.010 A 
ATOM     12  C   UNL A   1      36.513  31.557  28.339  1.00  0.00     0.010 A 
ATOM     13  C   UNL A   1      36.774  30.312  28.927  1.00  0.00    -0.014 A 
BRANCH  13  14
ATOM     14  C   UNL A   1      38.032  30.038  29.667  1.00  0.00     0.031 A 
ATOM     15  C   UNL A   1      38.246  30.558  31.060  1.00  0.00     0.074 A 
ATOM     16  C   UNL A   1      38.965  29.260  29.083  1.00  0.00     0.049 A 
ATOM     17  N   UNL A   1      39.264  30.366  31.863  1.00  0.00    -0.248 NA
ATOM     18  C   UNL A   1      37.189  31.409  31.627  1.00  0.00     0.031 C 
ATOM     19  C   UNL A   1      38.873  28.713  27.727  1.00  0.00     0.029 A 
ATOM     20  N   UNL A   1      40.153  28.769  29.558  1.00  0.00    -0.354 N 
ATOM     21  C   UNL A   1      38.974  31.075  33.022  1.00  0.00     0.074 A 
ATOM     22  C   UNL A   1      37.702  31.731  32.807  1.00  0.00     0.031 C 
ATOM     23  C   UNL A   1      39.929  27.920  27.499  1.00  0.00     0.029 A 
ATOM     24  C   UNL A   1      40.802  27.949  28.667  1.00  0.00     0.049 A 
ATOM     25  H   UNL A   1      40.509  28.984  30.450  1.00  0.00     0.167 HD
ATOM     26  C   UNL A   1      39.699  31.159  34.163  1.00  0.00     0.037 A 
ATOM     27  C   UNL A   1      41.975  27.300  28.772  1.00  0.00     0.037 A 
ATOM     28  C   UNL A   1      40.962  30.496  34.374  1.00  0.00     0.049 A 
ATOM     29  C   UNL A   1      42.761  27.420  30.046  1.00  0.00     0.074 A 
ATOM     30  C   UNL A   1      41.772  30.516  35.498  1.00  0.00     0.029 A 
ATOM     31  N   UNL A   1      41.597  29.691  33.440  1.00  0.00    -0.354 N 
ATOM     32  N   UNL A   1      42.464  28.080  31.140  1.00  0.00    -0.248 NA
ATOM     33  C   UNL A   1      44.042  26.707  30.101  1.00  0.00     0.031 C 
ATOM     34  C   UNL A   1      42.912  29.751  35.231  1.00  0.00     0.029 A 
ATOM     35  C   UNL A   1      42.794  29.218  33.957  1.00  0.00     0.049 A 
ATOM     36  H   UNL A   1      41.250  29.485  32.543  1.00  0.00     0.167 HD
ATOM     37  C   UNL A   1      43.517  27.855  32.015  1.00  0.00     0.074 A 
ATOM     38  C   UNL A   1      44.444  26.973  31.336  1.00  0.00     0.031 C 
ATOM     39  C   UNL A   1      43.703  28.342  33.265  1.00  0.00     0.037 A 
BRANCH  26  40
ATOM     40  C   UNL A   1      39.150  32.000  35.278  1.00  0.00     0.064 A 
ATOM     41  C   UNL A   1      38.427  31.432  36.337  1.00  0.00     0.173 A 
ATOM     42  C   UNL A   1      39.397  33.381  35.318  1.00  0.00     0.173 A 
ATOM     43  F   UNL A   1      38.154  30.118  36.340  1.00  0.00    -0.203 F 
ATOM     44  C   UNL A   1      37.956  32.218  37.386  1.00  0.00     0.198 A 
ATOM     45  C   UNL A   1      38.944  34.160  36.381  1.00  0.00     0.198 A 
ATOM     46  F   UNL A   1      40.087  33.974  34.333  1.00  0.00    -0.203 F 
ATOM     47  F   UNL A   1      37.236  31.659  38.369  1.00  0.00    -0.200 F 
ATOM     48  C   UNL A   1      38.220  33.579  37.411  1.00  0.00     0.200 A 
ATOM     49  F   UNL A   1      39.211  35.473  36.410  1.00  0.00    -0.200 F 
ATOM     50  F   UNL A   1      37.774  34.331  38.427  1.00  0.00    -0.200 F 
ENDBRANCH  26  40
BRANCH  27  51
ATOM     51  C   UNL A   1      42.473  26.485  27.635  1.00  0.00     0.064 A 
ATOM     52  C   UNL A   1      42.016  25.177  27.425  1.00  0.00     0.173 A 
ATOM     53  C   UNL A   1      43.412  27.002  26.730  1.00  0.00     0.173 A 
ATOM     54  F   UNL A   1      41.130  24.633  28.273  1.00  0.00    -0.203 F 
ATOM     55  C   UNL A   1      42.493  24.411  26.363  1.00  0.00     0.198 A 
ATOM     56  C   UNL A   1      43.865  26.247  25.652  1.00  0.00     0.198 A 
ATOM     57  F   UNL A   1      43.876  28.251  26.885  1.00  0.00    -0.203 F 
ATOM     58  F   UNL A   1      42.072  23.149  26.210  1.00  0.00    -0.200 F 
ATOM     59  C   UNL A   1      43.411  24.950  25.474  1.00  0.00     0.200 A 
ATOM     60  F   UNL A   1      44.739  26.777  24.786  1.00  0.00    -0.200 F 
ATOM     61  F   UNL A   1      43.865  24.214  24.449  1.00  0.00    -0.200 F 
ENDBRANCH  27  51
BRANCH  39  62
ATOM     62  C   UNL A   1      44.950  27.913  33.979  1.00  0.00     0.064 A 
ATOM     63  C   UNL A   1      44.980  26.751  34.763  1.00  0.00     0.173 A 
ATOM     64  C   UNL A   1      46.128  28.666  33.868  1.00  0.00     0.173 A 
ATOM     65  F   UNL A   1      43.872  26.009  34.914  1.00  0.00    -0.203 F 
ATOM     66  C   UNL A   1      46.139  26.373  35.435  1.00  0.00     0.198 A 
ATOM     67  C   UNL A   1      47.293  28.270  34.519  1.00  0.00     0.198 A 
ATOM     68  F   UNL A   1      46.150  29.783  33.126  1.00  0.00    -0.203 F 
ATOM     69  F   UNL A   1      46.132  25.288  36.222  1.00  0.00    -0.200 F 
ATOM     70  C   UNL A   1      47.295  27.130  35.309  1.00  0.00     0.200 A 
ATOM     71  F   UNL A   1      48.411  28.997  34.390  1.00  0.00    -0.200 F 
ATOM     72  F   UNL A   1      48.409  26.766  35.958  1.00  0.00    -0.200 F 
ENDBRANCH  39  62
ENDBRANCH  13  14
ENDBRANCH   6   8
ENDBRANCH   3   4
ENDBRANCH   2   3
ENDBRANCH   1   2
BRANCH   1  73
ATOM     73  N   UNL A   1      32.546  26.539  22.418  1.00  0.00    -0.352 N 
ATOM     74  C   UNL A   1      33.030  25.354  21.924  1.00  0.00     0.252 C 
ATOM     75  H   UNL A   1      32.224  27.179  21.742  1.00  0.00     0.163 HD
ATOM     76  O   UNL A   1      33.277  25.232  20.729  1.00  0.00    -0.269 OA
BRANCH  74  77
ATOM     77  C   UNL A   1      33.274  24.235  22.841  1.00  0.00     0.058 A 
ATOM     78  C   UNL A   1      34.552  23.930  23.305  1.00  0.00     0.017 A 
ATOM     79  C   UNL A   1      32.208  23.462  23.266  1.00  0.00     0.125 A 
ATOM     80  C   UNL A   1      34.729  22.812  24.114  1.00  0.00     0.030 A 
ATOM     81  N   UNL A   1      32.356  22.363  24.040  1.00  0.00    -0.255 NA
ATOM     82  C   UNL A   1      33.614  22.042  24.446  1.00  0.00     0.094 A 
BRANCH  82  83
ATOM     83  C   UNL A   1      33.771  20.818  25.328  1.00  0.00     0.318 C 
BRANCH  83  84
ATOM     84  N   UNL A   1      34.015  19.615  24.532  1.00  0.00    -0.337 N 
ATOM     85  H   UNL A   1      34.582  18.972  25.084  1.00  0.00     0.346 HD
ATOM     86  H   UNL A   1      34.484  19.912  23.677  1.00  0.00     0.346 HD
BRANCH  84  87
ATOM     87  C   UNL A   1      32.786  18.918  24.126  1.00  0.00     0.211 C 
ATOM     88  C   UNL A   1      32.243  17.988  25.232  1.00  0.00     0.068 C 
ATOM     89  C   UNL A   1      33.061  18.079  22.846  1.00  0.00     0.172 C 
ATOM     90  C   UNL A   1      33.182  16.818  25.523  1.00  0.00     0.006 C 
ATOM     91  C   UNL A   1      33.988  16.891  23.120  1.00  0.00     0.038 C 
ATOM     92  C   UNL A   1      33.479  16.012  24.262  1.00  0.00     0.003 C 
BRANCH  89  93
ATOM     93  O   UNL A   1      31.833  17.585  22.300  1.00  0.00    -0.387 OA
ATOM     94  H   UNL A   1      31.881  17.604  21.331  1.00  0.00     0.211 HD
ENDBRANCH  89  93
ENDBRANCH  84  87
ENDBRANCH  83  84
ENDBRANCH  82  83
ENDBRANCH  74  77
ENDBRANCH   1  73
TORSDOF 14
ENDMDL
MODEL 2
REMARK VINA RESULT:     -12.5      0.302      1.638
REMARK SMILES O=C(NCCCNC(=O)c1ccc(C[NH2+][C@@H]2CCCC[C@H]2O)nc1)c1ccc(-c2c3nc(c(-c4c(F)c(F)c(F)c(F)c4F)c4ccc([nH]4)c(-c4c(F)c(F)c(F)c(F)c4F)c4nc(c(-c5c(F)c(F)c(F)c(F)c5F)c5ccc2[nH]5)C=C4)C=C3)cc1
REMARK SMILES IDX 6 1 5 2 4 3 3 4 1 5 2 6 25 8 26 9 87 10 27 11 86 12 28 13
REMARK SMILES IDX 29 14 30 15 80 16 31 17 85 18 79 19 81 20 32 21 84 22 78 23
REMARK SMILES IDX 77 24 33 26 65 27 45 28 64 29 46 30 49 31 63 32 82 33 47 34
REMARK SMILES IDX 48 35 62 37 83 38 50 39 34 40 35 41 43 42 36 43 37 44 41 45
REMARK SMILES IDX 44 46 38 47 39 48 42 49 40 50 66 51 67 52 75 53 68 54 69 55
REMARK SMILES IDX 73 56 76 57 70 58 71 59 74 60 72 61 51 62 52 63 60 64 53 65
REMARK SMILES IDX 54 66 58 67 61 68 55 69 56 70 59 71 57 72 7 73 8 74 9 76
REMARK SMILES IDX 10 77 11 78 24 79 12 80 23 81 13 82 14 83 15 84 16 87 17 88
REMARK SMILES IDX 21 89 18 90 20 91 19 92 22 93
REMARK H PARENT 3 7 81 25 49 36 7 75 15 85 15 86 22 94
REMARK Flexibility Score: inf
ROOT
ATOM      1  C   UNL A   1      33.649  27.120  23.932  1.00  0.00     0.118 C 
ENDROOT
BRANCH   1   2
ATOM      2  C   UNL A   1      33.067  28.492  24.248  1.00  0.00     0.042 C 
BRANCH   2   3
ATOM      3  C   UNL A   1      33.074  28.829  25.733  1.00  0.00     0.118 C 
BRANCH   3   4
ATOM      4  N   UNL A   1      32.713  30.216  25.994  1.00  0.00    -0.352 N 
ATOM      5  O   UNL A   1      32.631  32.182  27.082  1.00  0.00    -0.269 OA
ATOM      6  C   UNL A   1      33.226  31.126  26.886  1.00  0.00     0.251 C 
ATOM      7  H   UNL A   1      31.977  30.560  25.438  1.00  0.00     0.163 HD
BRANCH   6   8
ATOM      8  C   UNL A   1      34.477  30.842  27.622  1.00  0.00     0.039 A 
ATOM      9  C   UNL A   1      34.763  29.556  28.082  1.00  0.00     0.014 A 
ATOM     10  C   UNL A   1      35.406  31.870  27.812  1.00  0.00     0.014 A 
ATOM     11  C   UNL A   1      35.888  29.336  28.867  1.00  0.00     0.010 A 
ATOM     12  C   UNL A   1      36.590  31.624  28.514  1.00  0.00     0.010 A 
ATOM     13  C   UNL A   1      36.826  30.361  29.076  1.00  0.00    -0.014 A 
BRANCH  13  14
ATOM     14  C   UNL A   1      38.067  30.053  29.832  1.00  0.00     0.031 A 
ATOM     15  C   UNL A   1      38.270  30.556  31.232  1.00  0.00     0.074 A 
ATOM     16  C   UNL A   1      38.991  29.261  29.254  1.00  0.00     0.049 A 
ATOM     17  N   UNL A   1      39.271  30.335  32.049  1.00  0.00    -0.248 NA
ATOM     18  C   UNL A   1      37.223  31.424  31.792  1.00  0.00     0.031 C 
ATOM     19  C   UNL A   1      38.908  28.729  27.892  1.00  0.00     0.029 A 
ATOM     20  N   UNL A   1      40.162  28.741  29.742  1.00  0.00    -0.354 N 
ATOM     21  C   UNL A   1      38.979  31.039  33.210  1.00  0.00     0.074 A 
ATOM     22  C   UNL A   1      37.724  31.724  32.982  1.00  0.00     0.031 C 
ATOM     23  C   UNL A   1      39.951  27.916  27.672  1.00  0.00     0.029 A 
ATOM     24  C   UNL A   1      40.806  27.916  28.853  1.00  0.00     0.049 A 
ATOM     25  H   UNL A   1      40.508  28.940  30.642  1.00  0.00     0.167 HD
ATOM     26  C   UNL A   1      39.689  31.097  34.363  1.00  0.00     0.037 A 
ATOM     27  C   UNL A   1      41.964  27.241  28.970  1.00  0.00     0.037 A 
ATOM     28  C   UNL A   1      40.934  30.406  34.586  1.00  0.00     0.049 A 
ATOM     29  C   UNL A   1      42.732  27.333  30.256  1.00  0.00     0.074 A 
ATOM     30  C   UNL A   1      41.727  30.398  35.722  1.00  0.00     0.029 A 
ATOM     31  N   UNL A   1      41.566  29.596  33.654  1.00  0.00    -0.354 N 
ATOM     32  N   UNL A   1      42.433  27.988  31.352  1.00  0.00    -0.248 NA
ATOM     33  C   UNL A   1      43.998  26.592  30.323  1.00  0.00     0.031 C 
ATOM     34  C   UNL A   1      42.855  29.612  35.465  1.00  0.00     0.029 A 
ATOM     35  C   UNL A   1      42.744  29.093  34.184  1.00  0.00     0.049 A 
ATOM     36  H   UNL A   1      41.228  29.406  32.750  1.00  0.00     0.167 HD
ATOM     37  C   UNL A   1      43.468  27.732  32.240  1.00  0.00     0.074 A 
ATOM     38  C   UNL A   1      44.386  26.838  31.566  1.00  0.00     0.031 C 
ATOM     39  C   UNL A   1      43.645  28.205  33.497  1.00  0.00     0.037 A 
BRANCH  26  40
ATOM     40  C   UNL A   1      39.141  31.939  35.477  1.00  0.00     0.064 A 
ATOM     41  C   UNL A   1      38.345  31.386  36.491  1.00  0.00     0.173 A 
ATOM     42  C   UNL A   1      39.460  33.303  35.564  1.00  0.00     0.173 A 
ATOM     43  F   UNL A   1      38.002  30.090  36.448  1.00  0.00    -0.203 F 
ATOM     44  C   UNL A   1      37.874  32.170  37.541  1.00  0.00     0.198 A 
ATOM     45  C   UNL A   1      39.007  34.079  36.629  1.00  0.00     0.198 A 
ATOM     46  F   UNL A   1      40.221  33.882  34.624  1.00  0.00    -0.203 F 
ATOM     47  F   UNL A   1      37.086  31.628  38.480  1.00  0.00    -0.200 F 
ATOM     48  C   UNL A   1      38.211  33.513  37.614  1.00  0.00     0.200 A 
ATOM     49  F   UNL A   1      39.343  35.375  36.704  1.00  0.00    -0.200 F 
ATOM     50  F   UNL A   1      37.765  34.264  38.631  1.00  0.00    -0.200 F 
ENDBRANCH  26  40
BRANCH  27  51
ATOM     51  C   UNL A   1      42.462  26.426  27.832  1.00  0.00     0.064 A 
ATOM     52  C   UNL A   1      43.402  26.941  26.928  1.00  0.00     0.173 A 
ATOM     53  C   UNL A   1      42.011  25.114  27.629  1.00  0.00     0.173 A 
ATOM     54  F   UNL A   1      43.850  28.197  27.071  1.00  0.00    -0.203 F 
ATOM     55  C   UNL A   1      43.859  26.178  25.855  1.00  0.00     0.198 A 
ATOM     56  C   UNL A   1      42.491  24.342  26.575  1.00  0.00     0.198 A 
ATOM     57  F   UNL A   1      41.115  24.574  28.470  1.00  0.00    -0.203 F 
ATOM     58  F   UNL A   1      44.725  26.708  24.982  1.00  0.00    -0.200 F 
ATOM     59  C   UNL A   1      43.408  24.877  25.685  1.00  0.00     0.200 A 
ATOM     60  F   UNL A   1      42.066  23.081  26.423  1.00  0.00    -0.200 F 
ATOM     61  F   UNL A   1      43.853  24.142  24.655  1.00  0.00    -0.200 F 
ENDBRANCH  27  51
BRANCH  39  62
ATOM     62  C   UNL A   1      44.872  27.742  34.226  1.00  0.00     0.064 A 
ATOM     63  C   UNL A   1      46.073  28.465  34.168  1.00  0.00     0.173 A 
ATOM     64  C   UNL A   1      44.841  26.573  34.998  1.00  0.00     0.173 A 
ATOM     65  F   UNL A   1      46.154  29.580  33.427  1.00  0.00    -0.203 F 
ATOM     66  C   UNL A   1      47.208  28.016  34.835  1.00  0.00     0.198 A 
ATOM     67  C   UNL A   1      45.972  26.141  35.686  1.00  0.00     0.198 A 
ATOM     68  F   UNL A   1      43.715  25.850  35.088  1.00  0.00    -0.203 F 
ATOM     69  F   UNL A   1      48.360  28.692  34.723  1.00  0.00    -0.200 F 
ATOM     70  C   UNL A   1      47.157  26.857  35.597  1.00  0.00     0.200 A 
ATOM     71  F   UNL A   1      45.918  25.027  36.429  1.00  0.00    -0.200 F 
ATOM     72  F   UNL A   1      48.252  26.425  36.236  1.00  0.00    -0.200 F 
ENDBRANCH  39  62
ENDBRANCH  13  14
ENDBRANCH   6   8
ENDBRANCH   3   4
ENDBRANCH   2   3
ENDBRANCH   1   2
BRANCH   1  73
ATOM     73  N   UNL A   1      33.291  26.671  22.595  1.00  0.00    -0.352 N 
ATOM     74  C   UNL A   1      33.330  25.404  22.069  1.00  0.00     0.252 C 
ATOM     75  H   UNL A   1      32.976  27.374  21.981  1.00  0.00     0.163 HD
ATOM     76  O   UNL A   1      33.230  25.229  20.858  1.00  0.00    -0.269 OA
BRANCH  74  77
ATOM     77  C   UNL A   1      33.515  24.256  22.962  1.00  0.00     0.058 A 
ATOM     78  C   UNL A   1      34.760  23.654  23.138  1.00  0.00     0.017 A 
ATOM     79  C   UNL A   1      32.429  23.756  23.658  1.00  0.00     0.125 A 
ATOM     80  C   UNL A   1      34.857  22.524  23.943  1.00  0.00     0.030 A 
ATOM     81  N   UNL A   1      32.495  22.650  24.434  1.00  0.00    -0.255 NA
ATOM     82  C   UNL A   1      33.703  22.038  24.559  1.00  0.00     0.094 A 
BRANCH  82  83
ATOM     83  C   UNL A   1      33.774  20.808  25.444  1.00  0.00     0.318 C 
BRANCH  83  84
ATOM     84  N   UNL A   1      34.008  19.597  24.656  1.00  0.00    -0.337 N 
ATOM     85  H   UNL A   1      34.542  18.941  25.225  1.00  0.00     0.346 HD
ATOM     86  H   UNL A   1      34.509  19.880  23.814  1.00  0.00     0.346 HD
BRANCH  84  87
ATOM     87  C   UNL A   1      32.773  18.933  24.217  1.00  0.00     0.211 C 
ATOM     88  C   UNL A   1      32.217  17.960  25.278  1.00  0.00     0.068 C 
ATOM     89  C   UNL A   1      33.041  18.150  22.900  1.00  0.00     0.172 C 
ATOM     90  C   UNL A   1      33.142  16.768  25.518  1.00  0.00     0.006 C 
ATOM     91  C   UNL A   1      33.955  16.942  23.122  1.00  0.00     0.038 C 
ATOM     92  C   UNL A   1      33.433  16.016  24.221  1.00  0.00     0.003 C 
BRANCH  89  93
ATOM     93  O   UNL A   1      31.810  17.696  22.329  1.00  0.00    -0.387 OA
ATOM     94  H   UNL A   1      31.069  17.999  22.878  1.00  0.00     0.211 HD
ENDBRANCH  89  93
ENDBRANCH  84  87
ENDBRANCH  83  84
ENDBRANCH  82  83
ENDBRANCH  74  77
ENDBRANCH   1  73
TORSDOF 14
ENDMDL
MODEL 3
REMARK VINA RESULT:     -12.3      1.609      2.020
REMARK SMILES O=C(NCCCNC(=O)c1ccc(C[NH2+][C@@H]2CCCC[C@H]2O)nc1)c1ccc(-c2c3nc(c(-c4c(F)c(F)c(F)c(F)c4F)c4ccc([nH]4)c(-c4c(F)c(F)c(F)c(F)c4F)c4nc(c(-c5c(F)c(F)c(F)c(F)c5F)c5ccc2[nH]5)C=C4)C=C3)cc1
REMARK SMILES IDX 6 1 5 2 4 3 3 4 1 5 2 6 25 8 26 9 87 10 27 11 86 12 28 13
REMARK SMILES IDX 29 14 30 15 80 16 31 17 85 18 79 19 81 20 32 21 84 22 78 23
REMARK SMILES IDX 77 24 33 26 65 27 45 28 64 29 46 30 49 31 63 32 82 33 47 34
REMARK SMILES IDX 48 35 62 37 83 38 50 39 34 40 35 41 43 42 36 43 37 44 41 45
REMARK SMILES IDX 44 46 38 47 39 48 42 49 40 50 66 51 67 52 75 53 68 54 69 55
REMARK SMILES IDX 73 56 76 57 70 58 71 59 74 60 72 61 51 62 52 63 60 64 53 65
REMARK SMILES IDX 54 66 58 67 61 68 55 69 56 70 59 71 57 72 7 73 8 74 9 76
REMARK SMILES IDX 10 77 11 78 24 79 12 80 23 81 13 82 14 83 15 84 16 87 17 88
REMARK SMILES IDX 21 89 18 90 20 91 19 92 22 93
REMARK H PARENT 3 7 81 25 49 36 7 75 15 85 15 86 22 94
REMARK Flexibility Score: inf
ROOT
ATOM      1  C   UNL A   1      33.276  28.261  22.591  1.00  0.00     0.118 C 
ENDROOT
BRANCH   1   2
ATOM      2  C   UNL A   1      33.944  29.238  23.550  1.00  0.00     0.042 C 
BRANCH   2   3
ATOM      3  C   UNL A   1      33.568  29.013  25.008  1.00  0.00     0.118 C 
BRANCH   3   4
ATOM      4  N   UNL A   1      32.945  30.184  25.613  1.00  0.00    -0.352 N 
ATOM      5  O   UNL A   1      32.461  31.708  27.193  1.00  0.00    -0.269 OA
ATOM      6  C   UNL A   1      33.249  30.870  26.763  1.00  0.00     0.251 C 
ATOM      7  H   UNL A   1      32.176  30.543  25.113  1.00  0.00     0.163 HD
BRANCH   6   8
ATOM      8  C   UNL A   1      34.506  30.603  27.494  1.00  0.00     0.039 A 
ATOM      9  C   UNL A   1      34.790  29.331  27.992  1.00  0.00     0.014 A 
ATOM     10  C   UNL A   1      35.442  31.632  27.643  1.00  0.00     0.014 A 
ATOM     11  C   UNL A   1      35.922  29.128  28.772  1.00  0.00     0.010 A 
ATOM     12  C   UNL A   1      36.632  31.401  28.341  1.00  0.00     0.010 A 
ATOM     13  C   UNL A   1      36.867  30.154  28.939  1.00  0.00    -0.014 A 
BRANCH  13  14
ATOM     14  C   UNL A   1      38.113  29.864  29.693  1.00  0.00     0.031 A 
ATOM     15  C   UNL A   1      38.330  30.402  31.078  1.00  0.00     0.074 A 
ATOM     16  C   UNL A   1      39.031  29.055  29.128  1.00  0.00     0.049 A 
ATOM     17  N   UNL A   1      39.337  30.201  31.892  1.00  0.00    -0.248 NA
ATOM     18  C   UNL A   1      37.289  31.287  31.624  1.00  0.00     0.031 C 
ATOM     19  C   UNL A   1      38.935  28.489  27.780  1.00  0.00     0.029 A 
ATOM     20  N   UNL A   1      40.205  28.545  29.619  1.00  0.00    -0.354 N 
ATOM     21  C   UNL A   1      39.057  30.935  33.036  1.00  0.00     0.074 A 
ATOM     22  C   UNL A   1      37.801  31.616  32.802  1.00  0.00     0.031 C 
ATOM     23  C   UNL A   1      39.975  27.668  27.573  1.00  0.00     0.029 A 
ATOM     24  C   UNL A   1      40.840  27.696  28.746  1.00  0.00     0.049 A 
ATOM     25  H   UNL A   1      40.559  28.767  30.510  1.00  0.00     0.167 HD
ATOM     26  C   UNL A   1      39.776  31.021  34.181  1.00  0.00     0.037 A 
ATOM     27  C   UNL A   1      41.997  27.022  28.870  1.00  0.00     0.037 A 
ATOM     28  C   UNL A   1      41.022  30.333  34.412  1.00  0.00     0.049 A 
ATOM     29  C   UNL A   1      42.777  27.145  30.147  1.00  0.00     0.074 A 
ATOM     30  C   UNL A   1      41.825  30.354  35.540  1.00  0.00     0.029 A 
ATOM     31  N   UNL A   1      41.644  29.498  33.495  1.00  0.00    -0.354 N 
ATOM     32  N   UNL A   1      42.489  27.830  31.228  1.00  0.00    -0.248 NA
ATOM     33  C   UNL A   1      44.042  26.404  30.222  1.00  0.00     0.031 C 
ATOM     34  C   UNL A   1      42.949  29.558  35.294  1.00  0.00     0.029 A 
ATOM     35  C   UNL A   1      42.826  29.007  34.029  1.00  0.00     0.049 A 
ATOM     36  H   UNL A   1      41.298  29.286  32.600  1.00  0.00     0.167 HD
ATOM     37  C   UNL A   1      43.530  27.595  32.114  1.00  0.00     0.074 A 
ATOM     38  C   UNL A   1      44.441  26.681  31.456  1.00  0.00     0.031 C 
ATOM     39  C   UNL A   1      43.719  28.099  33.357  1.00  0.00     0.037 A 
BRANCH  26  40
ATOM     40  C   UNL A   1      39.240  31.894  35.278  1.00  0.00     0.064 A 
ATOM     41  C   UNL A   1      38.445  31.369  36.309  1.00  0.00     0.173 A 
ATOM     42  C   UNL A   1      39.568  33.257  35.331  1.00  0.00     0.173 A 
ATOM     43  F   UNL A   1      38.093  30.075  36.298  1.00  0.00    -0.203 F 
ATOM     44  C   UNL A   1      37.985  32.182  37.342  1.00  0.00     0.198 A 
ATOM     45  C   UNL A   1      39.126  34.061  36.380  1.00  0.00     0.198 A 
ATOM     46  F   UNL A   1      40.328  33.808  34.374  1.00  0.00    -0.203 F 
ATOM     47  F   UNL A   1      37.197  31.667  38.297  1.00  0.00    -0.200 F 
ATOM     48  C   UNL A   1      38.331  33.524  37.381  1.00  0.00     0.200 A 
ATOM     49  F   UNL A   1      39.471  35.355  36.422  1.00  0.00    -0.200 F 
ATOM     50  F   UNL A   1      37.895  34.301  38.382  1.00  0.00    -0.200 F 
ENDBRANCH  26  40
BRANCH  27  51
ATOM     51  C   UNL A   1      42.484  26.177  27.750  1.00  0.00     0.064 A 
ATOM     52  C   UNL A   1      42.009  24.872  27.567  1.00  0.00     0.173 A 
ATOM     53  C   UNL A   1      43.429  26.662  26.835  1.00  0.00     0.173 A 
ATOM     54  F   UNL A   1      41.116  24.357  28.427  1.00  0.00    -0.203 F 
ATOM     55  C   UNL A   1      42.474  24.077  26.521  1.00  0.00     0.198 A 
ATOM     56  C   UNL A   1      43.871  25.879  25.772  1.00  0.00     0.198 A 
ATOM     57  F   UNL A   1      43.911  27.908  26.963  1.00  0.00    -0.203 F 
ATOM     58  F   UNL A   1      42.037  22.818  26.394  1.00  0.00    -0.200 F 
ATOM     59  C   UNL A   1      43.400  24.585  25.621  1.00  0.00     0.200 A 
ATOM     60  F   UNL A   1      44.752  26.379  24.896  1.00  0.00    -0.200 F 
ATOM     61  F   UNL A   1      43.843  23.821  24.612  1.00  0.00    -0.200 F 
ENDBRANCH  27  51
BRANCH  39  62
ATOM     62  C   UNL A   1      44.951  27.653  34.087  1.00  0.00     0.064 A 
ATOM     63  C   UNL A   1      44.950  26.503  34.890  1.00  0.00     0.173 A 
ATOM     64  C   UNL A   1      46.147  28.377  33.972  1.00  0.00     0.173 A 
ATOM     65  F   UNL A   1      43.825  25.789  35.044  1.00  0.00    -0.203 F 
ATOM     66  C   UNL A   1      46.096  26.110  35.575  1.00  0.00     0.198 A 
ATOM     67  C   UNL A   1      47.298  27.965  34.638  1.00  0.00     0.198 A 
ATOM     68  F   UNL A   1      46.199  29.481  33.213  1.00  0.00    -0.203 F 
ATOM     69  F   UNL A   1      46.058  25.039  36.379  1.00  0.00    -0.200 F 
ATOM     70  C   UNL A   1      47.269  26.839  35.446  1.00  0.00     0.200 A 
ATOM     71  F   UNL A   1      48.434  28.665  34.505  1.00  0.00    -0.200 F 
ATOM     72  F   UNL A   1      48.371  26.460  36.108  1.00  0.00    -0.200 F 
ENDBRANCH  39  62
ENDBRANCH  13  14
ENDBRANCH   6   8
ENDBRANCH   3   4
ENDBRANCH   2   3
ENDBRANCH   1   2
BRANCH   1  73
ATOM     73  N   UNL A   1      31.921  28.669  22.253  1.00  0.00    -0.352 N 
ATOM     74  C   UNL A   1      30.731  28.063  22.570  1.00  0.00     0.252 C 
ATOM     75  H   UNL A   1      31.846  29.495  21.723  1.00  0.00     0.163 HD
ATOM     76  O   UNL A   1      29.694  28.395  22.005  1.00  0.00    -0.269 OA
BRANCH  74  77
ATOM     77  C   UNL A   1      30.709  26.996  23.575  1.00  0.00     0.058 A 
ATOM     78  C   UNL A   1      30.613  27.271  24.939  1.00  0.00     0.017 A 
ATOM     79  C   UNL A   1      30.778  25.676  23.166  1.00  0.00     0.125 A 
ATOM     80  C   UNL A   1      30.670  26.219  25.847  1.00  0.00     0.030 A 
ATOM     81  N   UNL A   1      30.849  24.638  24.030  1.00  0.00    -0.255 NA
ATOM     82  C   UNL A   1      30.808  24.919  25.359  1.00  0.00     0.094 A 
BRANCH  82  83
ATOM     83  C   UNL A   1      30.872  23.749  26.322  1.00  0.00     0.318 C 
BRANCH  83  84
ATOM     84  N   UNL A   1      32.256  23.404  26.650  1.00  0.00    -0.337 N 
ATOM     85  H   UNL A   1      32.483  23.809  27.558  1.00  0.00     0.346 HD
ATOM     86  H   UNL A   1      32.842  23.773  25.901  1.00  0.00     0.346 HD
BRANCH  84  87
ATOM     87  C   UNL A   1      32.502  21.956  26.713  1.00  0.00     0.211 C 
ATOM     88  C   UNL A   1      33.966  21.623  27.072  1.00  0.00     0.068 C 
ATOM     89  C   UNL A   1      32.154  21.308  25.343  1.00  0.00     0.172 C 
ATOM     90  C   UNL A   1      34.946  22.058  25.983  1.00  0.00     0.006 C 
ATOM     91  C   UNL A   1      33.135  21.719  24.242  1.00  0.00     0.038 C 
ATOM     92  C   UNL A   1      34.588  21.448  24.631  1.00  0.00     0.003 C 
BRANCH  89  93
ATOM     93  O   UNL A   1      32.158  19.880  25.451  1.00  0.00    -0.387 OA
ATOM     94  H   UNL A   1      32.609  19.620  26.269  1.00  0.00     0.211 HD
ENDBRANCH  89  93
ENDBRANCH  84  87
ENDBRANCH  83  84
ENDBRANCH  82  83
ENDBRANCH  74  77
ENDBRANCH   1  73
TORSDOF 14
ENDMDL
