MODEL 1
REMARK VINA RESULT:     -11.7      0.000      0.000
REMARK SMILES C[C@@H](CC(=O)NCCCNC(=O)c1ccc(-c2c3nc(c(-c4c(F)c(F)c(F)c(F)c4F)c4ccc([nH]4)c(-c4c(F)c(F)c(F)c(F)c4F)c4nc(c(-c5c(F)c(F)c(F)c(F)c5F)c5ccc2[nH]5)C=C4)C=C3)cc1)NC(=O)/C=C/c1cccnc1
REMARK SMILES IDX 7 1 6 2 4 3 5 4 3 6 2 7 1 8 76 9 77 10 78 12 79 13 80 14
REMARK SMILES IDX 81 15 82 16 86 17 83 18 85 19 84 20 8 21 9 22 10 23 11 24
REMARK SMILES IDX 12 26 13 27 14 28 75 29 15 30 74 31 16 32 17 33 18 34 68 35
REMARK SMILES IDX 19 36 73 37 67 38 69 39 20 40 72 41 66 42 65 43 21 45 53 46
REMARK SMILES IDX 33 47 52 48 34 49 37 50 51 51 70 52 35 53 36 54 50 56 71 57
REMARK SMILES IDX 38 58 22 59 23 60 31 61 24 62 25 63 29 64 32 65 26 66 27 67
REMARK SMILES IDX 30 68 28 69 54 70 55 71 63 72 56 73 57 74 61 75 64 76 58 77
REMARK SMILES IDX 59 78 62 79 60 80 39 81 40 82 48 83 41 84 42 85 46 86 49 87
REMARK SMILES IDX 43 88 44 89 47 90 45 91
REMARK H PARENT 6 5 76 11 10 25 69 44 37 55
REMARK Flexibility Score: inf
ROOT
ATOM      1  C   UNL A   1      31.264  30.820  26.441  1.00  0.00     0.117 C 
ENDROOT
BRANCH   1   2
ATOM      2  N   UNL A   1      32.215  30.291  25.476  1.00  0.00    -0.356 N 
ATOM      3  C   UNL A   1      32.715  29.037  25.309  1.00  0.00     0.222 C 
ATOM      4  O   UNL A   1      33.661  28.890  24.534  1.00  0.00    -0.275 OA
ATOM      5  H   UNL A   1      32.556  30.954  24.834  1.00  0.00     0.163 HD
BRANCH   3   6
ATOM      6  C   UNL A   1      32.120  27.853  26.035  1.00  0.00     0.124 C 
BRANCH   6   7
ATOM      7  C   UNL A   1      31.024  27.095  25.272  1.00  0.00     0.088 C 
ATOM      8  C   UNL A   1      30.469  25.916  26.062  1.00  0.00     0.031 C 
BRANCH   7   9
ATOM      9  N   UNL A   1      31.454  26.617  23.961  1.00  0.00    -0.350 N 
ATOM     10  C   UNL A   1      31.203  27.075  22.705  1.00  0.00     0.244 C 
ATOM     11  H   UNL A   1      32.028  25.818  23.992  1.00  0.00     0.164 HD
ATOM     12  O   UNL A   1      31.555  26.402  21.738  1.00  0.00    -0.270 OA
BRANCH  10  13
ATOM     13  C   UNL A   1      30.614  28.417  22.455  1.00  0.00     0.072 C 
ATOM     14  C   UNL A   1      29.359  28.812  22.702  1.00  0.00     0.015 C 
BRANCH  14  15
ATOM     15  C   UNL A   1      28.876  30.171  22.486  1.00  0.00    -0.007 A 
ATOM     16  C   UNL A   1      29.020  31.160  23.455  1.00  0.00     0.011 A 
ATOM     17  C   UNL A   1      28.343  30.537  21.253  1.00  0.00     0.119 A 
ATOM     18  C   UNL A   1      28.645  32.467  23.151  1.00  0.00     0.021 A 
ATOM     19  N   UNL A   1      27.971  31.796  20.931  1.00  0.00    -0.264 NA
ATOM     20  C   UNL A   1      28.136  32.733  21.889  1.00  0.00     0.111 A 
ENDBRANCH  14  15
ENDBRANCH  10  13
ENDBRANCH   7   9
ENDBRANCH   6   7
ENDBRANCH   3   6
ENDBRANCH   1   2
BRANCH   1  21
ATOM     21  C   UNL A   1      31.322  32.347  26.500  1.00  0.00     0.042 C 
BRANCH  21  22
ATOM     22  C   UNL A   1      32.642  32.901  27.015  1.00  0.00     0.118 C 
BRANCH  22  23
ATOM     23  N   UNL A   1      32.485  34.212  27.613  1.00  0.00    -0.352 N 
ATOM     24  C   UNL A   1      33.099  34.750  28.717  1.00  0.00     0.251 C 
ATOM     25  H   UNL A   1      31.842  34.805  27.161  1.00  0.00     0.163 HD
ATOM     26  O   UNL A   1      32.663  35.791  29.197  1.00  0.00    -0.269 OA
BRANCH  24  27
ATOM     27  C   UNL A   1      34.265  34.083  29.346  1.00  0.00     0.039 A 
ATOM     28  C   UNL A   1      35.545  34.412  28.888  1.00  0.00     0.014 A 
ATOM     29  C   UNL A   1      34.117  33.104  30.332  1.00  0.00     0.014 A 
ATOM     30  C   UNL A   1      36.666  33.786  29.435  1.00  0.00     0.010 A 
ATOM     31  C   UNL A   1      35.240  32.541  30.939  1.00  0.00     0.010 A 
ATOM     32  C   UNL A   1      36.527  32.857  30.479  1.00  0.00    -0.014 A 
BRANCH  32  33
ATOM     33  C   UNL A   1      37.719  32.190  31.065  1.00  0.00     0.031 A 
ATOM     34  C   UNL A   1      38.206  32.567  32.438  1.00  0.00     0.074 A 
ATOM     35  C   UNL A   1      38.383  31.263  30.348  1.00  0.00     0.049 A 
ATOM     36  N   UNL A   1      39.217  32.087  33.120  1.00  0.00    -0.248 NA
ATOM     37  C   UNL A   1      37.481  33.647  33.127  1.00  0.00     0.031 C 
ATOM     38  C   UNL A   1      38.057  30.861  28.980  1.00  0.00     0.029 A 
ATOM     39  N   UNL A   1      39.473  30.494  30.671  1.00  0.00    -0.354 N 
ATOM     40  C   UNL A   1      39.258  32.816  34.301  1.00  0.00     0.074 A 
ATOM     41  C   UNL A   1      38.206  33.806  34.224  1.00  0.00     0.031 C 
ATOM     42  C   UNL A   1      38.909  29.900  28.590  1.00  0.00     0.029 A 
ATOM     43  C   UNL A   1      39.854  29.633  29.671  1.00  0.00     0.049 A 
ATOM     44  H   UNL A   1      39.937  30.554  31.537  1.00  0.00     0.167 HD
ATOM     45  C   UNL A   1      40.080  32.657  35.367  1.00  0.00     0.037 A 
ATOM     46  C   UNL A   1      40.847  28.725  29.635  1.00  0.00     0.037 A 
ATOM     47  C   UNL A   1      41.099  31.647  35.460  1.00  0.00     0.049 A 
ATOM     48  C   UNL A   1      41.713  28.532  30.849  1.00  0.00     0.074 A 
ATOM     49  C   UNL A   1      41.926  31.348  36.529  1.00  0.00     0.029 A 
ATOM     50  N   UNL A   1      41.431  30.767  34.440  1.00  0.00    -0.354 N 
ATOM     51  N   UNL A   1      41.681  29.165  31.996  1.00  0.00    -0.248 NA
ATOM     52  C   UNL A   1      42.742  27.486  30.768  1.00  0.00     0.031 C 
ATOM     53  C   UNL A   1      42.785  30.313  36.143  1.00  0.00     0.029 A 
ATOM     54  C   UNL A   1      42.465  29.938  34.848  1.00  0.00     0.049 A 
ATOM     55  H   UNL A   1      40.997  30.735  33.557  1.00  0.00     0.167 HD
ATOM     56  C   UNL A   1      42.670  28.586  32.779  1.00  0.00     0.074 A 
ATOM     57  C   UNL A   1      43.269  27.533  31.983  1.00  0.00     0.031 C 
ATOM     58  C   UNL A   1      43.053  28.899  34.041  1.00  0.00     0.037 A 
BRANCH  45  59
ATOM     59  C   UNL A   1      39.903  33.598  36.524  1.00  0.00     0.064 A 
ATOM     60  C   UNL A   1      40.611  34.808  36.605  1.00  0.00     0.173 A 
ATOM     61  C   UNL A   1      38.994  33.301  37.551  1.00  0.00     0.173 A 
ATOM     62  F   UNL A   1      41.501  35.134  35.656  1.00  0.00    -0.203 F 
ATOM     63  C   UNL A   1      40.441  35.667  37.688  1.00  0.00     0.198 A 
ATOM     64  C   UNL A   1      38.804  34.177  38.617  1.00  0.00     0.198 A 
ATOM     65  F   UNL A   1      38.287  32.162  37.519  1.00  0.00    -0.203 F 
ATOM     66  F   UNL A   1      41.167  36.790  37.770  1.00  0.00    -0.200 F 
ATOM     67  C   UNL A   1      39.534  35.354  38.688  1.00  0.00     0.200 A 
ATOM     68  F   UNL A   1      37.919  33.880  39.577  1.00  0.00    -0.200 F 
ATOM     69  F   UNL A   1      39.368  36.184  39.728  1.00  0.00    -0.200 F 
ENDBRANCH  45  59
BRANCH  46  70
ATOM     70  C   UNL A   1      41.046  27.901  28.415  1.00  0.00     0.064 A 
ATOM     71  C   UNL A   1      41.919  28.317  27.400  1.00  0.00     0.173 A 
ATOM     72  C   UNL A   1      40.378  26.680  28.243  1.00  0.00     0.173 A 
ATOM     73  F   UNL A   1      42.566  29.487  27.511  1.00  0.00    -0.203 F 
ATOM     74  C   UNL A   1      42.106  27.551  26.252  1.00  0.00     0.198 A 
ATOM     75  C   UNL A   1      40.584  25.902  27.106  1.00  0.00     0.198 A 
ATOM     76  F   UNL A   1      39.538  26.236  29.189  1.00  0.00    -0.203 F 
ATOM     77  F   UNL A   1      42.917  27.989  25.280  1.00  0.00    -0.200 F 
ATOM     78  C   UNL A   1      41.443  26.340  26.109  1.00  0.00     0.200 A 
ATOM     79  F   UNL A   1      39.954  24.726  26.978  1.00  0.00    -0.200 F 
ATOM     80  F   UNL A   1      41.627  25.599  25.008  1.00  0.00    -0.200 F 
ENDBRANCH  46  70
BRANCH  58  81
ATOM     81  C   UNL A   1      44.161  28.085  34.640  1.00  0.00     0.064 A 
ATOM     82  C   UNL A   1      43.902  26.899  35.344  1.00  0.00     0.173 A 
ATOM     83  C   UNL A   1      45.498  28.484  34.491  1.00  0.00     0.173 A 
ATOM     84  F   UNL A   1      42.639  26.485  35.527  1.00  0.00    -0.203 F 
ATOM     85  C   UNL A   1      44.939  26.160  35.906  1.00  0.00     0.198 A 
ATOM     86  C   UNL A   1      46.534  27.726  35.029  1.00  0.00     0.198 A 
ATOM     87  F   UNL A   1      45.798  29.606  33.821  1.00  0.00    -0.203 F 
ATOM     88  F   UNL A   1      44.665  25.060  36.620  1.00  0.00    -0.200 F 
ATOM     89  C   UNL A   1      46.254  26.571  35.744  1.00  0.00     0.200 A 
ATOM     90  F   UNL A   1      47.805  28.118  34.864  1.00  0.00    -0.200 F 
ATOM     91  F   UNL A   1      47.251  25.858  36.285  1.00  0.00    -0.200 F 
ENDBRANCH  58  81
ENDBRANCH  32  33
ENDBRANCH  24  27
ENDBRANCH  22  23
ENDBRANCH  21  22
ENDBRANCH   1  21
TORSDOF 14
ENDMDL
MODEL 2
REMARK VINA RESULT:     -11.6      1.882      3.837
REMARK SMILES C[C@@H](CC(=O)NCCCNC(=O)c1ccc(-c2c3nc(c(-c4c(F)c(F)c(F)c(F)c4F)c4ccc([nH]4)c(-c4c(F)c(F)c(F)c(F)c4F)c4nc(c(-c5c(F)c(F)c(F)c(F)c5F)c5ccc2[nH]5)C=C4)C=C3)cc1)NC(=O)/C=C/c1cccnc1
REMARK SMILES IDX 7 1 6 2 4 3 5 4 3 6 2 7 1 8 76 9 77 10 78 12 79 13 80 14
REMARK SMILES IDX 81 15 82 16 86 17 83 18 85 19 84 20 8 21 9 22 10 23 11 24
REMARK SMILES IDX 12 26 13 27 14 28 75 29 15 30 74 31 16 32 17 33 18 34 68 35
REMARK SMILES IDX 19 36 73 37 67 38 69 39 20 40 72 41 66 42 65 43 21 45 53 46
REMARK SMILES IDX 33 47 52 48 34 49 37 50 51 51 70 52 35 53 36 54 50 56 71 57
REMARK SMILES IDX 38 58 22 59 23 60 31 61 24 62 25 63 29 64 32 65 26 66 27 67
REMARK SMILES IDX 30 68 28 69 54 70 55 71 63 72 56 73 57 74 61 75 64 76 58 77
REMARK SMILES IDX 59 78 62 79 60 80 39 81 40 82 48 83 41 84 42 85 46 86 49 87
REMARK SMILES IDX 43 88 44 89 47 90 45 91
REMARK H PARENT 6 5 76 11 10 25 69 44 37 55
REMARK Flexibility Score: inf
ROOT
ATOM      1  C   UNL A   1      31.327  30.877  26.090  1.00  0.00     0.117 C 
ENDROOT
BRANCH   1   2
ATOM      2  N   UNL A   1      32.603  30.271  26.435  1.00  0.00    -0.356 N 
ATOM      3  C   UNL A   1      32.897  29.088  27.040  1.00  0.00     0.222 C 
ATOM      4  O   UNL A   1      34.061  28.894  27.395  1.00  0.00    -0.275 OA
ATOM      5  H   UNL A   1      33.390  30.808  26.186  1.00  0.00     0.163 HD
BRANCH   3   6
ATOM      6  C   UNL A   1      31.836  28.035  27.259  1.00  0.00     0.124 C 
BRANCH   6   7
ATOM      7  C   UNL A   1      31.933  26.804  26.346  1.00  0.00     0.088 C 
ATOM      8  C   UNL A   1      31.358  27.059  24.957  1.00  0.00     0.031 C 
BRANCH   7   9
ATOM      9  N   UNL A   1      31.296  25.615  26.903  1.00  0.00    -0.350 N 
ATOM     10  C   UNL A   1      31.563  24.290  26.747  1.00  0.00     0.244 C 
ATOM     11  H   UNL A   1      30.535  25.806  27.497  1.00  0.00     0.164 HD
ATOM     12  O   UNL A   1      30.778  23.460  27.203  1.00  0.00    -0.270 OA
BRANCH  10  13
ATOM     13  C   UNL A   1      32.830  23.804  26.139  1.00  0.00     0.072 C 
ATOM     14  C   UNL A   1      33.965  23.483  26.772  1.00  0.00     0.015 C 
BRANCH  14  15
ATOM     15  C   UNL A   1      35.147  22.952  26.104  1.00  0.00    -0.007 A 
ATOM     16  C   UNL A   1      36.245  23.756  25.811  1.00  0.00     0.011 A 
ATOM     17  C   UNL A   1      35.243  21.590  25.830  1.00  0.00     0.119 A 
ATOM     18  C   UNL A   1      37.391  23.172  25.276  1.00  0.00     0.021 A 
ATOM     19  N   UNL A   1      36.342  20.996  25.311  1.00  0.00    -0.264 NA
ATOM     20  C   UNL A   1      37.392  21.803  25.051  1.00  0.00     0.111 A 
ENDBRANCH  14  15
ENDBRANCH  10  13
ENDBRANCH   7   9
ENDBRANCH   6   7
ENDBRANCH   3   6
ENDBRANCH   1   2
BRANCH   1  21
ATOM     21  C   UNL A   1      31.278  32.347  26.507  1.00  0.00     0.042 C 
BRANCH  21  22
ATOM     22  C   UNL A   1      32.600  32.893  27.024  1.00  0.00     0.118 C 
BRANCH  22  23
ATOM     23  N   UNL A   1      32.454  34.214  27.603  1.00  0.00    -0.352 N 
ATOM     24  C   UNL A   1      33.076  34.763  28.696  1.00  0.00     0.251 C 
ATOM     25  H   UNL A   1      31.812  34.803  27.145  1.00  0.00     0.163 HD
ATOM     26  O   UNL A   1      32.649  35.815  29.163  1.00  0.00    -0.269 OA
BRANCH  24  27
ATOM     27  C   UNL A   1      34.241  34.099  29.330  1.00  0.00     0.039 A 
ATOM     28  C   UNL A   1      35.518  34.388  28.839  1.00  0.00     0.014 A 
ATOM     29  C   UNL A   1      34.093  33.159  30.353  1.00  0.00     0.014 A 
ATOM     30  C   UNL A   1      36.638  33.762  29.390  1.00  0.00     0.010 A 
ATOM     31  C   UNL A   1      35.217  32.599  30.962  1.00  0.00     0.010 A 
ATOM     32  C   UNL A   1      36.500  32.875  30.469  1.00  0.00    -0.014 A 
BRANCH  32  33
ATOM     33  C   UNL A   1      37.691  32.208  31.059  1.00  0.00     0.031 A 
ATOM     34  C   UNL A   1      38.178  32.591  32.430  1.00  0.00     0.074 A 
ATOM     35  C   UNL A   1      38.353  31.276  30.347  1.00  0.00     0.049 A 
ATOM     36  N   UNL A   1      39.188  32.113  33.115  1.00  0.00    -0.248 NA
ATOM     37  C   UNL A   1      37.456  33.676  33.113  1.00  0.00     0.031 C 
ATOM     38  C   UNL A   1      38.026  30.866  28.981  1.00  0.00     0.029 A 
ATOM     39  N   UNL A   1      39.441  30.506  30.675  1.00  0.00    -0.354 N 
ATOM     40  C   UNL A   1      39.230  32.848  34.292  1.00  0.00     0.074 A 
ATOM     41  C   UNL A   1      38.181  33.840  34.209  1.00  0.00     0.031 C 
ATOM     42  C   UNL A   1      38.876  29.901  28.597  1.00  0.00     0.029 A 
ATOM     43  C   UNL A   1      39.820  29.638  29.680  1.00  0.00     0.049 A 
ATOM     44  H   UNL A   1      39.905  30.569  31.541  1.00  0.00     0.167 HD
ATOM     45  C   UNL A   1      40.052  32.693  35.359  1.00  0.00     0.037 A 
ATOM     46  C   UNL A   1      40.811  28.727  29.648  1.00  0.00     0.037 A 
ATOM     47  C   UNL A   1      41.068  31.681  35.458  1.00  0.00     0.049 A 
ATOM     48  C   UNL A   1      41.676  28.539  30.864  1.00  0.00     0.074 A 
ATOM     49  C   UNL A   1      41.894  31.386  36.529  1.00  0.00     0.029 A 
ATOM     50  N   UNL A   1      41.399  30.794  34.443  1.00  0.00    -0.354 N 
ATOM     51  N   UNL A   1      41.645  29.179  32.007  1.00  0.00    -0.248 NA
ATOM     52  C   UNL A   1      42.702  27.490  30.789  1.00  0.00     0.031 C 
ATOM     53  C   UNL A   1      42.751  30.347  36.148  1.00  0.00     0.029 A 
ATOM     54  C   UNL A   1      42.430  29.965  34.856  1.00  0.00     0.049 A 
ATOM     55  H   UNL A   1      40.965  30.759  33.560  1.00  0.00     0.167 HD
ATOM     56  C   UNL A   1      42.633  28.601  32.794  1.00  0.00     0.074 A 
ATOM     57  C   UNL A   1      43.229  27.543  32.004  1.00  0.00     0.031 C 
ATOM     58  C   UNL A   1      43.016  28.921  34.055  1.00  0.00     0.037 A 
BRANCH  45  59
ATOM     59  C   UNL A   1      39.877  33.641  36.510  1.00  0.00     0.064 A 
ATOM     60  C   UNL A   1      40.557  34.868  36.566  1.00  0.00     0.173 A 
ATOM     61  C   UNL A   1      38.997  33.332  37.559  1.00  0.00     0.173 A 
ATOM     62  F   UNL A   1      41.419  35.205  35.595  1.00  0.00    -0.203 F 
ATOM     63  C   UNL A   1      40.390  35.733  37.644  1.00  0.00     0.198 A 
ATOM     64  C   UNL A   1      38.809  34.214  38.621  1.00  0.00     0.198 A 
ATOM     65  F   UNL A   1      38.316  32.177  37.553  1.00  0.00    -0.203 F 
ATOM     66  F   UNL A   1      41.091  36.874  37.700  1.00  0.00    -0.200 F 
ATOM     67  C   UNL A   1      39.512  35.408  38.666  1.00  0.00     0.200 A 
ATOM     68  F   UNL A   1      37.951  33.905  39.603  1.00  0.00    -0.200 F 
ATOM     69  F   UNL A   1      39.348  36.244  39.701  1.00  0.00    -0.200 F 
ENDBRANCH  45  59
BRANCH  46  70
ATOM     70  C   UNL A   1      41.008  27.897  28.433  1.00  0.00     0.064 A 
ATOM     71  C   UNL A   1      41.865  28.316  27.406  1.00  0.00     0.173 A 
ATOM     72  C   UNL A   1      40.355  26.666  28.278  1.00  0.00     0.173 A 
ATOM     73  F   UNL A   1      42.497  29.495  27.501  1.00  0.00    -0.203 F 
ATOM     74  C   UNL A   1      42.050  27.543  26.262  1.00  0.00     0.198 A 
ATOM     75  C   UNL A   1      40.560  25.881  27.145  1.00  0.00     0.198 A 
ATOM     76  F   UNL A   1      39.531  26.218  29.236  1.00  0.00    -0.203 F 
ATOM     77  F   UNL A   1      42.845  27.984  25.278  1.00  0.00    -0.200 F 
ATOM     78  C   UNL A   1      41.402  26.323  26.136  1.00  0.00     0.200 A 
ATOM     79  F   UNL A   1      39.945  24.696  27.034  1.00  0.00    -0.200 F 
ATOM     80  F   UNL A   1      41.585  25.575  25.039  1.00  0.00    -0.200 F 
ENDBRANCH  46  70
BRANCH  58  81
ATOM     81  C   UNL A   1      44.122  28.107  34.658  1.00  0.00     0.064 A 
ATOM     82  C   UNL A   1      45.463  28.507  34.561  1.00  0.00     0.173 A 
ATOM     83  C   UNL A   1      43.836  26.925  35.358  1.00  0.00     0.173 A 
ATOM     84  F   UNL A   1      45.789  29.621  33.889  1.00  0.00    -0.203 F 
ATOM     85  C   UNL A   1      46.481  27.735  35.115  1.00  0.00     0.198 A 
ATOM     86  C   UNL A   1      44.854  26.172  35.935  1.00  0.00     0.198 A 
ATOM     87  F   UNL A   1      42.569  26.504  35.484  1.00  0.00    -0.203 F 
ATOM     88  F   UNL A   1      47.759  28.108  34.965  1.00  0.00    -0.200 F 
ATOM     89  C   UNL A   1      46.175  26.572  35.806  1.00  0.00     0.200 A 
ATOM     90  F   UNL A   1      44.557  25.053  36.611  1.00  0.00    -0.200 F 
ATOM     91  F   UNL A   1      47.156  25.830  36.339  1.00  0.00    -0.200 F 
ENDBRANCH  58  81
ENDBRANCH  32  33
ENDBRANCH  24  27
ENDBRANCH  22  23
ENDBRANCH  21  22
ENDBRANCH   1  21
TORSDOF 14
ENDMDL
MODEL 3
REMARK VINA RESULT:     -11.6      1.917      3.486
REMARK SMILES C[C@@H](CC(=O)NCCCNC(=O)c1ccc(-c2c3nc(c(-c4c(F)c(F)c(F)c(F)c4F)c4ccc([nH]4)c(-c4c(F)c(F)c(F)c(F)c4F)c4nc(c(-c5c(F)c(F)c(F)c(F)c5F)c5ccc2[nH]5)C=C4)C=C3)cc1)NC(=O)/C=C/c1cccnc1
REMARK SMILES IDX 7 1 6 2 4 3 5 4 3 6 2 7 1 8 76 9 77 10 78 12 79 13 80 14
REMARK SMILES IDX 81 15 82 16 86 17 83 18 85 19 84 20 8 21 9 22 10 23 11 24
REMARK SMILES IDX 12 26 13 27 14 28 75 29 15 30 74 31 16 32 17 33 18 34 68 35
REMARK SMILES IDX 19 36 73 37 67 38 69 39 20 40 72 41 66 42 65 43 21 45 53 46
REMARK SMILES IDX 33 47 52 48 34 49 37 50 51 51 70 52 35 53 36 54 50 56 71 57
REMARK SMILES IDX 38 58 22 59 23 60 31 61 24 62 25 63 29 64 32 65 26 66 27 67
REMARK SMILES IDX 30 68 28 69 54 70 55 71 63 72 56 73 57 74 61 75 64 76 58 77
REMARK SMILES IDX 59 78 62 79 60 80 39 81 40 82 48 83 41 84 42 85 46 86 49 87
REMARK SMILES IDX 43 88 44 89 47 90 45 91
REMARK H PARENT 6 5 76 11 10 25 69 44 37 55
REMARK Flexibility Score: inf
ROOT
ATOM      1  C   UNL A   1      31.398  30.356  26.030  1.00  0.00     0.117 C 
ENDROOT
BRANCH   1   2
ATOM      2  N   UNL A   1      31.044  30.182  24.630  1.00  0.00    -0.356 N 
ATOM      3  C   UNL A   1      30.949  29.061  23.865  1.00  0.00     0.222 C 
ATOM      4  O   UNL A   1      30.819  29.201  22.648  1.00  0.00    -0.275 OA
ATOM      5  H   UNL A   1      30.836  31.018  24.155  1.00  0.00     0.163 HD
BRANCH   3   6
ATOM      6  C   UNL A   1      30.987  27.683  24.485  1.00  0.00     0.124 C 
BRANCH   6   7
ATOM      7  C   UNL A   1      32.259  26.870  24.205  1.00  0.00     0.088 C 
ATOM      8  C   UNL A   1      33.484  27.441  24.909  1.00  0.00     0.031 C 
BRANCH   7   9
ATOM      9  N   UNL A   1      32.560  26.734  22.783  1.00  0.00    -0.350 N 
ATOM     10  C   UNL A   1      32.972  25.667  22.045  1.00  0.00     0.244 C 
ATOM     11  H   UNL A   1      32.445  27.563  22.265  1.00  0.00     0.164 HD
ATOM     12  O   UNL A   1      33.314  25.841  20.876  1.00  0.00    -0.270 OA
BRANCH  10  13
ATOM     13  C   UNL A   1      32.923  24.276  22.568  1.00  0.00     0.072 C 
ATOM     14  C   UNL A   1      33.889  23.618  23.220  1.00  0.00     0.015 C 
BRANCH  14  15
ATOM     15  C   UNL A   1      33.736  22.272  23.758  1.00  0.00    -0.007 A 
ATOM     16  C   UNL A   1      32.626  21.487  23.458  1.00  0.00     0.011 A 
ATOM     17  C   UNL A   1      34.756  21.699  24.513  1.00  0.00     0.119 A 
ATOM     18  C   UNL A   1      32.586  20.168  23.905  1.00  0.00     0.021 A 
ATOM     19  N   UNL A   1      34.744  20.423  24.960  1.00  0.00    -0.264 NA
ATOM     20  C   UNL A   1      33.659  19.686  24.641  1.00  0.00     0.111 A 
ENDBRANCH  14  15
ENDBRANCH  10  13
ENDBRANCH   7   9
ENDBRANCH   6   7
ENDBRANCH   3   6
ENDBRANCH   1   2
BRANCH   1  21
ATOM     21  C   UNL A   1      31.341  31.829  26.439  1.00  0.00     0.042 C 
BRANCH  21  22
ATOM     22  C   UNL A   1      32.673  32.399  26.901  1.00  0.00     0.118 C 
BRANCH  22  23
ATOM     23  N   UNL A   1      32.534  33.739  27.436  1.00  0.00    -0.352 N 
ATOM     24  C   UNL A   1      33.209  34.343  28.468  1.00  0.00     0.251 C 
ATOM     25  H   UNL A   1      31.855  34.298  26.995  1.00  0.00     0.163 HD
ATOM     26  O   UNL A   1      32.788  35.405  28.918  1.00  0.00    -0.269 OA
BRANCH  24  27
ATOM     27  C   UNL A   1      34.422  33.726  29.056  1.00  0.00     0.039 A 
ATOM     28  C   UNL A   1      34.261  32.639  29.920  1.00  0.00     0.014 A 
ATOM     29  C   UNL A   1      35.703  34.232  28.816  1.00  0.00     0.014 A 
ATOM     30  C   UNL A   1      35.377  32.047  30.516  1.00  0.00     0.010 A 
ATOM     31  C   UNL A   1      36.824  33.588  29.341  1.00  0.00     0.010 A 
ATOM     32  C   UNL A   1      36.671  32.504  30.218  1.00  0.00    -0.014 A 
BRANCH  32  33
ATOM     33  C   UNL A   1      37.861  31.875  30.849  1.00  0.00     0.031 A 
ATOM     34  C   UNL A   1      38.283  32.268  32.240  1.00  0.00     0.074 A 
ATOM     35  C   UNL A   1      38.582  30.970  30.159  1.00  0.00     0.049 A 
ATOM     36  N   UNL A   1      39.283  31.821  32.960  1.00  0.00    -0.248 NA
ATOM     37  C   UNL A   1      37.499  33.324  32.899  1.00  0.00     0.031 C 
ATOM     38  C   UNL A   1      38.320  30.557  28.780  1.00  0.00     0.029 A 
ATOM     39  N   UNL A   1      39.682  30.236  30.524  1.00  0.00    -0.354 N 
ATOM     40  C   UNL A   1      39.255  32.550  34.140  1.00  0.00     0.074 A 
ATOM     41  C   UNL A   1      38.176  33.506  34.022  1.00  0.00     0.031 C 
ATOM     42  C   UNL A   1      39.217  29.624  28.424  1.00  0.00     0.029 A 
ATOM     43  C   UNL A   1      40.128  29.388  29.540  1.00  0.00     0.049 A 
ATOM     44  H   UNL A   1      40.111  30.311  31.407  1.00  0.00     0.167 HD
ATOM     45  C   UNL A   1      40.041  32.418  35.237  1.00  0.00     0.037 A 
ATOM     46  C   UNL A   1      41.150  28.512  29.543  1.00  0.00     0.037 A 
ATOM     47  C   UNL A   1      41.088  31.441  35.370  1.00  0.00     0.049 A 
ATOM     48  C   UNL A   1      41.976  28.347  30.790  1.00  0.00     0.074 A 
ATOM     49  C   UNL A   1      41.882  31.169  36.470  1.00  0.00     0.029 A 
ATOM     50  N   UNL A   1      41.486  30.572  34.365  1.00  0.00    -0.354 N 
ATOM     51  N   UNL A   1      41.880  28.979  31.933  1.00  0.00    -0.248 NA
ATOM     52  C   UNL A   1      43.039  27.334  30.748  1.00  0.00     0.031 C 
ATOM     53  C   UNL A   1      42.789  30.162  36.118  1.00  0.00     0.029 A 
ATOM     54  C   UNL A   1      42.530  29.777  34.813  1.00  0.00     0.049 A 
ATOM     55  H   UNL A   1      41.087  30.526  33.465  1.00  0.00     0.167 HD
ATOM     56  C   UNL A   1      42.857  28.432  32.754  1.00  0.00     0.074 A 
ATOM     57  C   UNL A   1      43.518  27.399  31.983  1.00  0.00     0.031 C 
ATOM     58  C   UNL A   1      43.181  28.757  34.030  1.00  0.00     0.037 A 
BRANCH  45  59
ATOM     59  C   UNL A   1      39.790  33.353  36.385  1.00  0.00     0.064 A 
ATOM     60  C   UNL A   1      40.453  34.587  36.490  1.00  0.00     0.173 A 
ATOM     61  C   UNL A   1      38.856  33.025  37.380  1.00  0.00     0.173 A 
ATOM     62  F   UNL A   1      41.363  34.943  35.572  1.00  0.00    -0.203 F 
ATOM     63  C   UNL A   1      40.214  35.440  37.564  1.00  0.00     0.198 A 
ATOM     64  C   UNL A   1      38.598  33.895  38.436  1.00  0.00     0.198 A 
ATOM     65  F   UNL A   1      38.191  31.862  37.325  1.00  0.00    -0.203 F 
ATOM     66  F   UNL A   1      40.898  36.588  37.670  1.00  0.00    -0.200 F 
ATOM     67  C   UNL A   1      39.284  35.096  38.532  1.00  0.00     0.200 A 
ATOM     68  F   UNL A   1      37.690  33.567  39.366  1.00  0.00    -0.200 F 
ATOM     69  F   UNL A   1      39.052  35.921  39.563  1.00  0.00    -0.200 F 
ENDBRANCH  45  59
BRANCH  46  70
ATOM     70  C   UNL A   1      41.422  27.695  28.333  1.00  0.00     0.064 A 
ATOM     71  C   UNL A   1      42.330  28.133  27.358  1.00  0.00     0.173 A 
ATOM     72  C   UNL A   1      40.790  26.460  28.130  1.00  0.00     0.173 A 
ATOM     73  F   UNL A   1      42.944  29.316  27.498  1.00  0.00    -0.203 F 
ATOM     74  C   UNL A   1      42.584  27.372  26.219  1.00  0.00     0.198 A 
ATOM     75  C   UNL A   1      41.064  25.688  27.003  1.00  0.00     0.198 A 
ATOM     76  F   UNL A   1      39.919  25.996  29.037  1.00  0.00    -0.203 F 
ATOM     77  F   UNL A   1      43.428  27.830  25.284  1.00  0.00    -0.200 F 
ATOM     78  C   UNL A   1      41.956  26.148  26.045  1.00  0.00     0.200 A 
ATOM     79  F   UNL A   1      40.467  24.499  26.847  1.00  0.00    -0.200 F 
ATOM     80  F   UNL A   1      42.206  25.413  24.954  1.00  0.00    -0.200 F 
ENDBRANCH  46  70
BRANCH  58  81
ATOM     81  C   UNL A   1      44.291  27.979  34.671  1.00  0.00     0.064 A 
ATOM     82  C   UNL A   1      44.043  26.787  35.369  1.00  0.00     0.173 A 
ATOM     83  C   UNL A   1      45.620  28.419  34.571  1.00  0.00     0.173 A 
ATOM     84  F   UNL A   1      42.788  26.334  35.505  1.00  0.00    -0.203 F 
ATOM     85  C   UNL A   1      45.082  26.081  35.970  1.00  0.00     0.198 A 
ATOM     86  C   UNL A   1      46.658  27.695  35.149  1.00  0.00     0.198 A 
ATOM     87  F   UNL A   1      45.909  29.549  33.909  1.00  0.00    -0.203 F 
ATOM     88  F   UNL A   1      44.816  24.974  36.676  1.00  0.00    -0.200 F 
ATOM     89  C   UNL A   1      46.388  26.533  35.855  1.00  0.00     0.200 A 
ATOM     90  F   UNL A   1      47.922  28.126  35.029  1.00  0.00    -0.200 F 
ATOM     91  F   UNL A   1      47.386  25.852  36.434  1.00  0.00    -0.200 F 
ENDBRANCH  58  81
ENDBRANCH  32  33
ENDBRANCH  24  27
ENDBRANCH  22  23
ENDBRANCH  21  22
ENDBRANCH   1  21
TORSDOF 14
ENDMDL
