MODEL 1
REMARK VINA RESULT:     -15.4      0.000      0.000
REMARK SMILES Cc1ccc([C@@]23C[C@@H]4C[C@@H](C[C@@](C(=O)N5CCC(C(=O)NCCCNC(=O)c6ccc(-c7c8nc(c(-c9c(F)c(F)c(F)c(F)c9F)c9ccc([nH]9)c(-c9c(F)c(F)c(F)c(F)c9F)c9nc(c(-c%10c(F)c(F)c(F)c(F)c%10F)c%10ccc7[nH]%10)C=C9)C=C8)cc6)CC5)(C4)C2)C3)cc1
REMARK SMILES IDX 23 1 22 2 21 3 19 4 20 5 18 7 13 8 14 9 15 10 16 11 92 12
REMARK SMILES IDX 17 13 91 14 12 15 6 16 7 17 94 18 95 19 8 20 10 21 9 22
REMARK SMILES IDX 93 23 11 24 5 25 1 26 2 27 3 28 97 29 4 30 96 31 24 32 25 33
REMARK SMILES IDX 26 34 27 36 28 37 29 38 90 39 30 40 89 41 31 42 32 43 33 44
REMARK SMILES IDX 83 45 34 46 88 47 82 48 84 49 35 50 87 51 81 52 80 53 36 55
REMARK SMILES IDX 68 56 48 57 67 58 49 59 52 60 66 61 85 62 50 63 51 64 65 66
REMARK SMILES IDX 86 67 53 68 37 69 38 70 46 71 39 72 40 73 44 74 47 75 41 76
REMARK SMILES IDX 42 77 45 78 43 79 69 80 70 81 78 82 71 83 72 84 76 85 79 86
REMARK SMILES IDX 73 87 74 88 77 89 75 90 54 91 55 92 63 93 56 94 57 95 61 96
REMARK SMILES IDX 64 97 58 98 59 99 62 100 60 101
REMARK H PARENT 21 6 25 35 84 54 52 65
REMARK Flexibility Score: inf
ROOT
ATOM      1  C   UNL A   1      32.690  30.404  27.429  1.00  0.00     0.042 C 
ENDROOT
BRANCH   1   2
ATOM      2  C   UNL A   1      32.259  31.327  26.298  1.00  0.00     0.117 C 
BRANCH   2   3
ATOM      3  N   UNL A   1      31.234  30.739  25.440  1.00  0.00    -0.356 N 
ATOM      4  C   UNL A   1      31.295  29.719  24.535  1.00  0.00     0.223 C 
ATOM      5  O   UNL A   1      30.254  29.410  23.950  1.00  0.00    -0.275 OA
ATOM      6  H   UNL A   1      30.344  31.150  25.529  1.00  0.00     0.163 HD
BRANCH   4   7
ATOM      7  C   UNL A   1      32.601  29.000  24.209  1.00  0.00     0.082 C 
ATOM      8  C   UNL A   1      32.535  25.233  22.954  1.00  0.00     0.228 C 
ATOM      9  O   UNL A   1      31.837  25.238  21.935  1.00  0.00    -0.274 OA
ATOM     10  N   UNL A   1      33.257  26.370  23.315  1.00  0.00    -0.342 N 
ATOM     11  C   UNL A   1      33.464  27.427  22.335  1.00  0.00     0.120 C 
ATOM     12  C   UNL A   1      33.717  26.755  24.644  1.00  0.00     0.120 C 
ATOM     13  C   UNL A   1      32.734  28.714  22.700  1.00  0.00     0.035 C 
ATOM     14  C   UNL A   1      32.790  27.825  25.180  1.00  0.00     0.035 C 
BRANCH   8  15
ATOM     15  C   UNL A   1      32.647  23.941  23.800  1.00  0.00     0.051 C 
ATOM     16  C   UNL A   1      34.390  22.375  24.879  1.00  0.00    -0.003 C 
ATOM     17  C   UNL A   1      33.603  22.577  26.210  1.00  0.00     0.015 C 
ATOM     18  C   UNL A   1      34.139  23.627  24.011  1.00  0.00     0.028 C 
ATOM     19  C   UNL A   1      33.780  21.172  24.117  1.00  0.00     0.015 C 
ATOM     20  C   UNL A   1      32.094  22.752  25.956  1.00  0.00    -0.009 C 
ATOM     21  C   UNL A   1      32.280  21.409  23.845  1.00  0.00    -0.009 C 
ATOM     22  C   UNL A   1      31.552  21.536  25.191  1.00  0.00     0.007 C 
ATOM     23  C   UNL A   1      31.854  24.016  25.119  1.00  0.00     0.020 C 
ATOM     24  C   UNL A   1      32.077  22.707  23.029  1.00  0.00     0.020 C 
BRANCH  16  25
ATOM     25  C   UNL A   1      35.893  22.176  25.150  1.00  0.00    -0.042 A 
ATOM     26  C   UNL A   1      40.073  21.539  26.146  1.00  0.00     0.044 C 
ATOM     27  C   UNL A   1      38.637  21.749  25.773  1.00  0.00    -0.051 A 
ATOM     28  C   UNL A   1      38.053  22.998  25.970  1.00  0.00     0.004 A 
ATOM     29  C   UNL A   1      37.856  20.721  25.240  1.00  0.00     0.004 A 
ATOM     30  C   UNL A   1      36.709  23.207  25.655  1.00  0.00     0.004 A 
ATOM     31  C   UNL A   1      36.506  20.933  24.928  1.00  0.00     0.004 A 
ENDBRANCH  16  25
ENDBRANCH   8  15
ENDBRANCH   4   7
ENDBRANCH   2   3
ENDBRANCH   1   2
BRANCH   1  32
ATOM     32  C   UNL A   1      34.196  30.316  27.598  1.00  0.00     0.118 C 
BRANCH  32  33
ATOM     33  N   UNL A   1      34.738  31.205  28.621  1.00  0.00    -0.352 N 
ATOM     34  C   UNL A   1      35.904  31.054  29.359  1.00  0.00     0.251 C 
ATOM     35  H   UNL A   1      34.211  32.014  28.812  1.00  0.00     0.163 HD
ATOM     36  O   UNL A   1      36.253  31.890  30.173  1.00  0.00    -0.269 OA
BRANCH  34  37
ATOM     37  C   UNL A   1      36.781  29.903  29.041  1.00  0.00     0.039 A 
ATOM     38  C   UNL A   1      37.102  29.014  30.070  1.00  0.00     0.014 A 
ATOM     39  C   UNL A   1      37.473  29.872  27.834  1.00  0.00     0.014 A 
ATOM     40  C   UNL A   1      38.281  28.277  29.981  1.00  0.00     0.010 A 
ATOM     41  C   UNL A   1      38.698  29.236  27.794  1.00  0.00     0.010 A 
ATOM     42  C   UNL A   1      39.134  28.493  28.897  1.00  0.00    -0.014 A 
BRANCH  42  43
ATOM     43  C   UNL A   1      40.537  28.093  28.898  1.00  0.00     0.031 A 
ATOM     44  C   UNL A   1      40.952  26.776  28.378  1.00  0.00     0.074 A 
ATOM     45  C   UNL A   1      41.486  28.961  29.314  1.00  0.00     0.049 A 
ATOM     46  N   UNL A   1      42.036  26.173  28.742  1.00  0.00    -0.248 NA
ATOM     47  C   UNL A   1      40.161  26.017  27.415  1.00  0.00     0.031 C 
ATOM     48  C   UNL A   1      42.936  28.830  29.163  1.00  0.00     0.029 A 
ATOM     49  N   UNL A   1      41.328  30.065  30.171  1.00  0.00    -0.354 N 
ATOM     50  C   UNL A   1      42.218  25.113  27.895  1.00  0.00     0.074 A 
ATOM     51  C   UNL A   1      41.000  25.019  27.122  1.00  0.00     0.031 C 
ATOM     52  C   UNL A   1      43.534  29.557  30.119  1.00  0.00     0.029 A 
ATOM     53  C   UNL A   1      42.489  30.069  30.985  1.00  0.00     0.049 A 
ATOM     54  H   UNL A   1      40.575  30.699  30.199  1.00  0.00     0.167 HD
ATOM     55  C   UNL A   1      43.423  24.483  27.833  1.00  0.00     0.037 A 
ATOM     56  C   UNL A   1      42.402  29.863  32.331  1.00  0.00     0.037 A 
ATOM     57  C   UNL A   1      44.397  25.019  28.773  1.00  0.00     0.049 A 
ATOM     58  C   UNL A   1      43.155  28.652  32.841  1.00  0.00     0.074 A 
ATOM     59  C   UNL A   1      45.469  25.891  28.675  1.00  0.00     0.029 A 
ATOM     60  N   UNL A   1      44.143  24.887  30.127  1.00  0.00    -0.354 N 
ATOM     61  N   UNL A   1      43.787  27.798  32.084  1.00  0.00    -0.248 NA
ATOM     62  C   UNL A   1      43.152  28.251  34.249  1.00  0.00     0.031 C 
ATOM     63  C   UNL A   1      45.854  26.279  29.991  1.00  0.00     0.029 A 
ATOM     64  C   UNL A   1      45.019  25.639  30.885  1.00  0.00     0.049 A 
ATOM     65  H   UNL A   1      43.427  24.326  30.504  1.00  0.00     0.167 HD
ATOM     66  C   UNL A   1      44.217  26.746  32.851  1.00  0.00     0.074 A 
ATOM     67  C   UNL A   1      43.792  27.072  34.198  1.00  0.00     0.031 C 
ATOM     68  C   UNL A   1      44.857  25.662  32.327  1.00  0.00     0.037 A 
BRANCH  55  69
ATOM     69  C   UNL A   1      43.727  23.530  26.718  1.00  0.00     0.064 A 
ATOM     70  C   UNL A   1      43.402  22.166  26.810  1.00  0.00     0.173 A 
ATOM     71  C   UNL A   1      44.419  23.919  25.556  1.00  0.00     0.173 A 
ATOM     72  F   UNL A   1      42.701  21.685  27.844  1.00  0.00    -0.203 F 
ATOM     73  C   UNL A   1      43.825  21.240  25.854  1.00  0.00     0.198 A 
ATOM     74  C   UNL A   1      44.891  22.986  24.629  1.00  0.00     0.198 A 
ATOM     75  F   UNL A   1      44.670  25.215  25.310  1.00  0.00    -0.203 F 
ATOM     76  F   UNL A   1      43.503  19.947  25.995  1.00  0.00    -0.200 F 
ATOM     77  C   UNL A   1      44.601  21.644  24.785  1.00  0.00     0.200 A 
ATOM     78  F   UNL A   1      45.650  23.392  23.602  1.00  0.00    -0.200 F 
ATOM     79  F   UNL A   1      45.067  20.745  23.908  1.00  0.00    -0.200 F 
ENDBRANCH  55  69
BRANCH  56  80
ATOM     80  C   UNL A   1      41.140  30.387  32.916  1.00  0.00     0.064 A 
ATOM     81  C   UNL A   1      40.972  31.783  33.016  1.00  0.00     0.173 A 
ATOM     82  C   UNL A   1      39.998  29.589  33.035  1.00  0.00     0.173 A 
ATOM     83  F   UNL A   1      42.036  32.596  32.908  1.00  0.00    -0.203 F 
ATOM     84  C   UNL A   1      39.707  32.355  33.105  1.00  0.00     0.198 A 
ATOM     85  C   UNL A   1      38.733  30.166  33.147  1.00  0.00     0.198 A 
ATOM     86  F   UNL A   1      40.085  28.256  32.923  1.00  0.00    -0.203 F 
ATOM     87  F   UNL A   1      39.572  33.689  33.073  1.00  0.00    -0.200 F 
ATOM     88  C   UNL A   1      38.585  31.546  33.145  1.00  0.00     0.200 A 
ATOM     89  F   UNL A   1      37.646  29.383  33.156  1.00  0.00    -0.200 F 
ATOM     90  F   UNL A   1      37.362  32.091  33.135  1.00  0.00    -0.200 F 
ENDBRANCH  56  80
BRANCH  68  91
ATOM     91  C   UNL A   1      45.376  24.522  33.154  1.00  0.00     0.064 A 
ATOM     92  C   UNL A   1      44.583  23.413  33.489  1.00  0.00     0.173 A 
ATOM     93  C   UNL A   1      46.661  24.564  33.738  1.00  0.00     0.173 A 
ATOM     94  F   UNL A   1      43.318  23.317  33.052  1.00  0.00    -0.203 F 
ATOM     95  C   UNL A   1      45.064  22.385  34.303  1.00  0.00     0.198 A 
ATOM     96  C   UNL A   1      47.120  23.562  34.591  1.00  0.00     0.198 A 
ATOM     97  F   UNL A   1      47.513  25.566  33.479  1.00  0.00    -0.203 F 
ATOM     98  F   UNL A   1      44.293  21.317  34.550  1.00  0.00    -0.200 F 
ATOM     99  C   UNL A   1      46.328  22.465  34.860  1.00  0.00     0.200 A 
ATOM    100  F   UNL A   1      48.336  23.667  35.145  1.00  0.00    -0.200 F 
ATOM    101  F   UNL A   1      46.781  21.487  35.656  1.00  0.00    -0.200 F 
ENDBRANCH  68  91
ENDBRANCH  42  43
ENDBRANCH  34  37
ENDBRANCH  32  33
ENDBRANCH   1  32
TORSDOF 12
ENDMDL
MODEL 2
REMARK VINA RESULT:     -15.3      3.613     10.083
REMARK SMILES Cc1ccc([C@@]23C[C@@H]4C[C@@H](C[C@@](C(=O)N5CCC(C(=O)NCCCNC(=O)c6ccc(-c7c8nc(c(-c9c(F)c(F)c(F)c(F)c9F)c9ccc([nH]9)c(-c9c(F)c(F)c(F)c(F)c9F)c9nc(c(-c%10c(F)c(F)c(F)c(F)c%10F)c%10ccc7[nH]%10)C=C9)C=C8)cc6)CC5)(C4)C2)C3)cc1
REMARK SMILES IDX 23 1 22 2 21 3 19 4 20 5 18 7 13 8 14 9 15 10 16 11 92 12
REMARK SMILES IDX 17 13 91 14 12 15 6 16 7 17 94 18 95 19 8 20 10 21 9 22
REMARK SMILES IDX 93 23 11 24 5 25 1 26 2 27 3 28 97 29 4 30 96 31 24 32 25 33
REMARK SMILES IDX 26 34 27 36 28 37 29 38 90 39 30 40 89 41 31 42 32 43 33 44
REMARK SMILES IDX 83 45 34 46 88 47 82 48 84 49 35 50 87 51 81 52 80 53 36 55
REMARK SMILES IDX 68 56 48 57 67 58 49 59 52 60 66 61 85 62 50 63 51 64 65 66
REMARK SMILES IDX 86 67 53 68 37 69 38 70 46 71 39 72 40 73 44 74 47 75 41 76
REMARK SMILES IDX 42 77 45 78 43 79 69 80 70 81 78 82 71 83 72 84 76 85 79 86
REMARK SMILES IDX 73 87 74 88 77 89 75 90 54 91 55 92 63 93 56 94 57 95 61 96
REMARK SMILES IDX 64 97 58 98 59 99 62 100 60 101
REMARK H PARENT 21 6 25 35 84 54 52 65
REMARK Flexibility Score: inf
ROOT
ATOM      1  C   UNL A   1      38.129  21.868  25.075  1.00  0.00     0.042 C 
ENDROOT
BRANCH   1   2
ATOM      2  C   UNL A   1      37.796  20.464  25.557  1.00  0.00     0.117 C 
BRANCH   2   3
ATOM      3  N   UNL A   1      36.524  19.968  25.036  1.00  0.00    -0.356 N 
ATOM      4  C   UNL A   1      35.245  20.410  25.213  1.00  0.00     0.223 C 
ATOM      5  O   UNL A   1      34.344  19.803  24.631  1.00  0.00    -0.275 OA
ATOM      6  H   UNL A   1      36.603  19.175  24.458  1.00  0.00     0.163 HD
BRANCH   4   7
ATOM      7  C   UNL A   1      34.913  21.587  26.127  1.00  0.00     0.082 C 
ATOM      8  C   UNL A   1      31.759  23.873  25.354  1.00  0.00     0.228 C 
ATOM      9  O   UNL A   1      30.791  23.107  25.349  1.00  0.00    -0.274 OA
ATOM     10  N   UNL A   1      32.876  23.587  26.138  1.00  0.00    -0.342 N 
ATOM     11  C   UNL A   1      32.772  22.591  27.195  1.00  0.00     0.120 C 
ATOM     12  C   UNL A   1      34.250  24.036  25.940  1.00  0.00     0.120 C 
ATOM     13  C   UNL A   1      33.608  21.348  26.912  1.00  0.00     0.035 C 
ATOM     14  C   UNL A   1      35.043  22.897  25.336  1.00  0.00     0.035 C 
BRANCH   8  15
ATOM     15  C   UNL A   1      31.705  25.181  24.527  1.00  0.00     0.051 C 
ATOM     16  C   UNL A   1      32.086  27.724  24.737  1.00  0.00    -0.003 C 
ATOM     17  C   UNL A   1      33.041  27.583  23.513  1.00  0.00     0.015 C 
ATOM     18  C   UNL A   1      32.064  26.356  25.454  1.00  0.00     0.028 C 
ATOM     19  C   UNL A   1      30.648  27.981  24.219  1.00  0.00     0.015 C 
ATOM     20  C   UNL A   1      32.566  26.484  22.544  1.00  0.00    -0.009 C 
ATOM     21  C   UNL A   1      30.196  26.835  23.289  1.00  0.00    -0.009 C 
ATOM     22  C   UNL A   1      31.136  26.790  22.076  1.00  0.00     0.007 C 
ATOM     23  C   UNL A   1      32.578  25.126  23.258  1.00  0.00     0.020 C 
ATOM     24  C   UNL A   1      30.254  25.481  24.033  1.00  0.00     0.020 C 
BRANCH  16  25
ATOM     25  C   UNL A   1      32.559  28.842  25.683  1.00  0.00    -0.042 A 
ATOM     26  C   UNL A   1      33.978  32.123  28.152  1.00  0.00     0.044 C 
ATOM     27  C   UNL A   1      33.464  30.988  27.320  1.00  0.00    -0.051 A 
ATOM     28  C   UNL A   1      34.293  29.900  27.057  1.00  0.00     0.004 A 
ATOM     29  C   UNL A   1      32.173  30.991  26.786  1.00  0.00     0.004 A 
ATOM     30  C   UNL A   1      33.843  28.845  26.261  1.00  0.00     0.004 A 
ATOM     31  C   UNL A   1      31.725  29.931  25.985  1.00  0.00     0.004 A 
ENDBRANCH  16  25
ENDBRANCH   8  15
ENDBRANCH   4   7
ENDBRANCH   2   3
ENDBRANCH   1   2
BRANCH   1  32
ATOM     32  C   UNL A   1      38.676  22.769  26.166  1.00  0.00     0.118 C 
BRANCH  32  33
ATOM     33  N   UNL A   1      40.133  22.839  26.214  1.00  0.00    -0.352 N 
ATOM     34  C   UNL A   1      40.930  23.934  26.518  1.00  0.00     0.251 C 
ATOM     35  H   UNL A   1      40.611  22.005  26.004  1.00  0.00     0.163 HD
ATOM     36  O   UNL A   1      42.145  23.848  26.542  1.00  0.00    -0.269 OA
BRANCH  34  37
ATOM     37  C   UNL A   1      40.257  25.187  26.935  1.00  0.00     0.039 A 
ATOM     38  C   UNL A   1      40.634  26.378  26.308  1.00  0.00     0.014 A 
ATOM     39  C   UNL A   1      39.485  25.207  28.092  1.00  0.00     0.014 A 
ATOM     40  C   UNL A   1      40.455  27.582  26.985  1.00  0.00     0.010 A 
ATOM     41  C   UNL A   1      39.415  26.380  28.816  1.00  0.00     0.010 A 
ATOM     42  C   UNL A   1      39.962  27.556  28.291  1.00  0.00    -0.014 A 
BRANCH  42  43
ATOM     43  C   UNL A   1      40.107  28.676  29.216  1.00  0.00     0.031 A 
ATOM     44  C   UNL A   1      39.052  29.700  29.340  1.00  0.00     0.074 A 
ATOM     45  C   UNL A   1      41.186  28.747  30.027  1.00  0.00     0.049 A 
ATOM     46  N   UNL A   1      39.270  30.905  29.753  1.00  0.00    -0.248 NA
ATOM     47  C   UNL A   1      37.659  29.451  28.983  1.00  0.00     0.031 C 
ATOM     48  C   UNL A   1      41.382  29.645  31.166  1.00  0.00     0.029 A 
ATOM     49  N   UNL A   1      42.445  28.148  29.841  1.00  0.00    -0.354 N 
ATOM     50  C   UNL A   1      38.051  31.490  29.968  1.00  0.00     0.074 A 
ATOM     51  C   UNL A   1      37.076  30.572  29.423  1.00  0.00     0.031 C 
ATOM     52  C   UNL A   1      42.699  29.800  31.367  1.00  0.00     0.029 A 
ATOM     53  C   UNL A   1      43.382  29.112  30.288  1.00  0.00     0.049 A 
ATOM     54  H   UNL A   1      42.633  27.251  29.480  1.00  0.00     0.167 HD
ATOM     55  C   UNL A   1      37.959  32.638  30.694  1.00  0.00     0.037 A 
ATOM     56  C   UNL A   1      44.271  29.679  29.423  1.00  0.00     0.037 A 
ATOM     57  C   UNL A   1      39.254  33.149  31.121  1.00  0.00     0.049 A 
ATOM     58  C   UNL A   1      44.158  31.184  29.287  1.00  0.00     0.074 A 
ATOM     59  C   UNL A   1      39.974  33.111  32.304  1.00  0.00     0.029 A 
ATOM     60  N   UNL A   1      40.147  33.567  30.151  1.00  0.00    -0.354 N 
ATOM     61  N   UNL A   1      43.249  31.916  29.870  1.00  0.00    -0.248 NA
ATOM     62  C   UNL A   1      45.005  31.964  28.382  1.00  0.00     0.031 C 
ATOM     63  C   UNL A   1      41.313  33.513  32.027  1.00  0.00     0.029 A 
ATOM     64  C   UNL A   1      41.402  33.798  30.680  1.00  0.00     0.049 A 
ATOM     65  H   UNL A   1      39.918  33.684  29.200  1.00  0.00     0.167 HD
ATOM     66  C   UNL A   1      43.340  33.202  29.406  1.00  0.00     0.074 A 
ATOM     67  C   UNL A   1      44.450  33.183  28.473  1.00  0.00     0.031 C 
ATOM     68  C   UNL A   1      42.478  34.188  29.787  1.00  0.00     0.037 A 
BRANCH  55  69
ATOM     69  C   UNL A   1      36.630  33.125  31.184  1.00  0.00     0.064 A 
ATOM     70  C   UNL A   1      35.839  33.997  30.417  1.00  0.00     0.173 A 
ATOM     71  C   UNL A   1      36.130  32.806  32.461  1.00  0.00     0.173 A 
ATOM     72  F   UNL A   1      36.185  34.334  29.168  1.00  0.00    -0.203 F 
ATOM     73  C   UNL A   1      34.681  34.587  30.927  1.00  0.00     0.198 A 
ATOM     74  C   UNL A   1      35.003  33.437  32.992  1.00  0.00     0.198 A 
ATOM     75  F   UNL A   1      36.742  31.888  33.225  1.00  0.00    -0.203 F 
ATOM     76  F   UNL A   1      33.969  35.425  30.162  1.00  0.00    -0.200 F 
ATOM     77  C   UNL A   1      34.284  34.336  32.227  1.00  0.00     0.200 A 
ATOM     78  F   UNL A   1      34.636  33.192  34.257  1.00  0.00    -0.200 F 
ATOM     79  F   UNL A   1      33.214  34.957  32.739  1.00  0.00    -0.200 F 
ENDBRANCH  55  69
BRANCH  56  80
ATOM     80  C   UNL A   1      44.688  28.757  28.334  1.00  0.00     0.064 A 
ATOM     81  C   UNL A   1      45.529  27.672  28.654  1.00  0.00     0.173 A 
ATOM     82  C   UNL A   1      44.011  28.711  27.111  1.00  0.00     0.173 A 
ATOM     83  F   UNL A   1      46.201  27.665  29.817  1.00  0.00    -0.203 F 
ATOM     84  C   UNL A   1      45.590  26.540  27.846  1.00  0.00     0.198 A 
ATOM     85  C   UNL A   1      44.093  27.584  26.293  1.00  0.00     0.198 A 
ATOM     86  F   UNL A   1      43.176  29.698  26.758  1.00  0.00    -0.203 F 
ATOM     87  F   UNL A   1      46.301  25.475  28.241  1.00  0.00    -0.200 F 
ATOM     88  C   UNL A   1      44.850  26.487  26.677  1.00  0.00     0.200 A 
ATOM     89  F   UNL A   1      43.355  27.521  25.176  1.00  0.00    -0.200 F 
ATOM     90  F   UNL A   1      44.831  25.366  25.945  1.00  0.00    -0.200 F 
ENDBRANCH  56  80
BRANCH  68  91
ATOM     91  C   UNL A   1      42.587  35.612  29.328  1.00  0.00     0.064 A 
ATOM     92  C   UNL A   1      42.001  36.066  28.136  1.00  0.00     0.173 A 
ATOM     93  C   UNL A   1      43.389  36.547  30.018  1.00  0.00     0.173 A 
ATOM     94  F   UNL A   1      41.286  35.234  27.362  1.00  0.00    -0.203 F 
ATOM     95  C   UNL A   1      42.155  37.382  27.695  1.00  0.00     0.198 A 
ATOM     96  C   UNL A   1      43.583  37.845  29.550  1.00  0.00     0.198 A 
ATOM     97  F   UNL A   1      43.987  36.234  31.176  1.00  0.00    -0.203 F 
ATOM     98  F   UNL A   1      41.530  37.788  26.581  1.00  0.00    -0.200 F 
ATOM     99  C   UNL A   1      42.953  38.268  28.397  1.00  0.00     0.200 A 
ATOM    100  F   UNL A   1      44.382  38.683  30.227  1.00  0.00    -0.200 F 
ATOM    101  F   UNL A   1      43.116  39.524  27.963  1.00  0.00    -0.200 F 
ENDBRANCH  68  91
ENDBRANCH  42  43
ENDBRANCH  34  37
ENDBRANCH  32  33
ENDBRANCH   1  32
TORSDOF 12
ENDMDL
MODEL 3
REMARK VINA RESULT:     -15.2      1.462      2.323
REMARK SMILES Cc1ccc([C@@]23C[C@@H]4C[C@@H](C[C@@](C(=O)N5CCC(C(=O)NCCCNC(=O)c6ccc(-c7c8nc(c(-c9c(F)c(F)c(F)c(F)c9F)c9ccc([nH]9)c(-c9c(F)c(F)c(F)c(F)c9F)c9nc(c(-c%10c(F)c(F)c(F)c(F)c%10F)c%10ccc7[nH]%10)C=C9)C=C8)cc6)CC5)(C4)C2)C3)cc1
REMARK SMILES IDX 23 1 22 2 21 3 19 4 20 5 18 7 13 8 14 9 15 10 16 11 92 12
REMARK SMILES IDX 17 13 91 14 12 15 6 16 7 17 94 18 95 19 8 20 10 21 9 22
REMARK SMILES IDX 93 23 11 24 5 25 1 26 2 27 3 28 97 29 4 30 96 31 24 32 25 33
REMARK SMILES IDX 26 34 27 36 28 37 29 38 90 39 30 40 89 41 31 42 32 43 33 44
REMARK SMILES IDX 83 45 34 46 88 47 82 48 84 49 35 50 87 51 81 52 80 53 36 55
REMARK SMILES IDX 68 56 48 57 67 58 49 59 52 60 66 61 85 62 50 63 51 64 65 66
REMARK SMILES IDX 86 67 53 68 37 69 38 70 46 71 39 72 40 73 44 74 47 75 41 76
REMARK SMILES IDX 42 77 45 78 43 79 69 80 70 81 78 82 71 83 72 84 76 85 79 86
REMARK SMILES IDX 73 87 74 88 77 89 75 90 54 91 55 92 63 93 56 94 57 95 61 96
REMARK SMILES IDX 64 97 58 98 59 99 62 100 60 101
REMARK H PARENT 21 6 25 35 84 54 52 65
REMARK Flexibility Score: inf
ROOT
ATOM      1  C   UNL A   1      33.695  31.169  26.913  1.00  0.00     0.042 C 
ENDROOT
BRANCH   1   2
ATOM      2  C   UNL A   1      32.176  31.107  26.828  1.00  0.00     0.117 C 
BRANCH   2   3
ATOM      3  N   UNL A   1      31.621  29.887  27.407  1.00  0.00    -0.356 N 
ATOM      4  C   UNL A   1      31.563  28.610  26.929  1.00  0.00     0.223 C 
ATOM      5  O   UNL A   1      31.043  27.753  27.647  1.00  0.00    -0.275 OA
ATOM      6  H   UNL A   1      31.217  30.006  28.296  1.00  0.00     0.163 HD
BRANCH   4   7
ATOM      7  C   UNL A   1      32.077  28.239  25.541  1.00  0.00     0.082 C 
ATOM      8  C   UNL A   1      32.624  24.425  24.579  1.00  0.00     0.228 C 
ATOM      9  O   UNL A   1      31.524  23.885  24.736  1.00  0.00    -0.274 OA
ATOM     10  N   UNL A   1      32.700  25.776  24.240  1.00  0.00    -0.342 N 
ATOM     11  C   UNL A   1      31.514  26.456  23.742  1.00  0.00     0.120 C 
ATOM     12  C   UNL A   1      33.803  26.699  24.481  1.00  0.00     0.120 C 
ATOM     13  C   UNL A   1      30.999  27.518  24.707  1.00  0.00     0.035 C 
ATOM     14  C   UNL A   1      33.451  27.565  25.672  1.00  0.00     0.035 C 
BRANCH   8  15
ATOM     15  C   UNL A   1      33.917  23.582  24.707  1.00  0.00     0.051 C 
ATOM     16  C   UNL A   1      34.728  21.142  24.910  1.00  0.00    -0.003 C 
ATOM     17  C   UNL A   1      35.650  21.449  23.692  1.00  0.00     0.015 C 
ATOM     18  C   UNL A   1      33.519  22.099  24.817  1.00  0.00     0.028 C 
ATOM     19  C   UNL A   1      35.486  21.503  26.212  1.00  0.00     0.015 C 
ATOM     20  C   UNL A   1      36.131  22.912  23.699  1.00  0.00    -0.009 C 
ATOM     21  C   UNL A   1      35.910  22.987  26.196  1.00  0.00    -0.009 C 
ATOM     22  C   UNL A   1      36.864  23.211  25.015  1.00  0.00     0.007 C 
ATOM     23  C   UNL A   1      34.926  23.853  23.574  1.00  0.00     0.020 C 
ATOM     24  C   UNL A   1      34.673  23.900  26.036  1.00  0.00     0.020 C 
BRANCH  16  25
ATOM     25  C   UNL A   1      34.275  19.670  24.904  1.00  0.00    -0.042 A 
ATOM     26  C   UNL A   1      33.078  15.500  25.122  1.00  0.00     0.044 C 
ATOM     27  C   UNL A   1      33.466  16.944  25.028  1.00  0.00    -0.051 A 
ATOM     28  C   UNL A   1      34.736  17.284  24.571  1.00  0.00     0.004 A 
ATOM     29  C   UNL A   1      32.591  17.968  25.399  1.00  0.00     0.004 A 
ATOM     30  C   UNL A   1      35.127  18.623  24.502  1.00  0.00     0.004 A 
ATOM     31  C   UNL A   1      32.987  19.311  25.332  1.00  0.00     0.004 A 
ENDBRANCH  16  25
ENDBRANCH   8  15
ENDBRANCH   4   7
ENDBRANCH   2   3
ENDBRANCH   1   2
BRANCH   1  32
ATOM     32  C   UNL A   1      34.257  30.535  28.172  1.00  0.00     0.118 C 
BRANCH  32  33
ATOM     33  N   UNL A   1      35.036  31.446  29.007  1.00  0.00    -0.352 N 
ATOM     34  C   UNL A   1      36.295  31.243  29.554  1.00  0.00     0.251 C 
ATOM     35  H   UNL A   1      34.615  32.313  29.207  1.00  0.00     0.163 HD
ATOM     36  O   UNL A   1      36.843  32.103  30.220  1.00  0.00    -0.269 OA
BRANCH  34  37
ATOM     37  C   UNL A   1      37.011  29.994  29.203  1.00  0.00     0.039 A 
ATOM     38  C   UNL A   1      37.280  29.079  30.224  1.00  0.00     0.014 A 
ATOM     39  C   UNL A   1      37.626  29.874  27.961  1.00  0.00     0.014 A 
ATOM     40  C   UNL A   1      38.355  28.206  30.080  1.00  0.00     0.010 A 
ATOM     41  C   UNL A   1      38.763  29.097  27.863  1.00  0.00     0.010 A 
ATOM     42  C   UNL A   1      39.167  28.313  28.949  1.00  0.00    -0.014 A 
BRANCH  42  43
ATOM     43  C   UNL A   1      40.511  27.748  28.880  1.00  0.00     0.031 A 
ATOM     44  C   UNL A   1      40.723  26.330  28.532  1.00  0.00     0.074 A 
ATOM     45  C   UNL A   1      41.588  28.544  29.067  1.00  0.00     0.049 A 
ATOM     46  N   UNL A   1      41.769  25.657  28.881  1.00  0.00    -0.248 NA
ATOM     47  C   UNL A   1      39.752  25.545  27.776  1.00  0.00     0.031 C 
ATOM     48  C   UNL A   1      42.989  28.217  28.801  1.00  0.00     0.029 A 
ATOM     49  N   UNL A   1      41.646  29.769  29.754  1.00  0.00    -0.354 N 
ATOM     50  C   UNL A   1      41.742  24.473  28.193  1.00  0.00     0.074 A 
ATOM     51  C   UNL A   1      40.442  24.420  27.562  1.00  0.00     0.031 C 
ATOM     52  C   UNL A   1      43.764  28.993  29.574  1.00  0.00     0.029 A 
ATOM     53  C   UNL A   1      42.883  29.746  30.445  1.00  0.00     0.049 A 
ATOM     54  H   UNL A   1      40.972  30.488  29.755  1.00  0.00     0.167 HD
ATOM     55  C   UNL A   1      42.858  23.698  28.116  1.00  0.00     0.037 A 
ATOM     56  C   UNL A   1      42.926  29.746  31.809  1.00  0.00     0.037 A 
ATOM     57  C   UNL A   1      43.982  24.239  28.867  1.00  0.00     0.049 A 
ATOM     58  C   UNL A   1      43.596  28.536  32.426  1.00  0.00     0.074 A 
ATOM     59  C   UNL A   1      45.124  24.950  28.535  1.00  0.00     0.029 A 
ATOM     60  N   UNL A   1      43.868  24.332  30.242  1.00  0.00    -0.354 N 
ATOM     61  N   UNL A   1      44.045  27.512  31.753  1.00  0.00    -0.248 NA
ATOM     62  C   UNL A   1      43.708  28.343  33.873  1.00  0.00     0.031 C 
ATOM     63  C   UNL A   1      45.692  25.471  29.733  1.00  0.00     0.029 A 
ATOM     64  C   UNL A   1      44.898  25.072  30.789  1.00  0.00     0.049 A 
ATOM     65  H   UNL A   1      43.142  23.923  30.767  1.00  0.00     0.167 HD
ATOM     66  C   UNL A   1      44.443  26.536  32.629  1.00  0.00     0.074 A 
ATOM     67  C   UNL A   1      44.208  27.099  33.944  1.00  0.00     0.031 C 
ATOM     68  C   UNL A   1      44.901  25.318  32.220  1.00  0.00     0.037 A 
BRANCH  55  69
ATOM     69  C   UNL A   1      42.932  22.566  27.137  1.00  0.00     0.064 A 
ATOM     70  C   UNL A   1      42.198  21.383  27.327  1.00  0.00     0.173 A 
ATOM     71  C   UNL A   1      43.790  22.585  26.021  1.00  0.00     0.173 A 
ATOM     72  F   UNL A   1      41.313  21.265  28.324  1.00  0.00    -0.203 F 
ATOM     73  C   UNL A   1      42.383  20.261  26.516  1.00  0.00     0.198 A 
ATOM     74  C   UNL A   1      44.016  21.446  25.244  1.00  0.00     0.198 A 
ATOM     75  F   UNL A   1      44.443  23.706  25.678  1.00  0.00    -0.203 F 
ATOM     76  F   UNL A   1      41.671  19.150  26.747  1.00  0.00    -0.200 F 
ATOM     77  C   UNL A   1      43.318  20.281  25.499  1.00  0.00     0.200 A 
ATOM     78  F   UNL A   1      44.934  21.477  24.268  1.00  0.00    -0.200 F 
ATOM     79  F   UNL A   1      43.546  19.182  24.768  1.00  0.00    -0.200 F 
ENDBRANCH  55  69
BRANCH  56  80
ATOM     80  C   UNL A   1      41.800  30.498  32.422  1.00  0.00     0.064 A 
ATOM     81  C   UNL A   1      41.840  31.907  32.403  1.00  0.00     0.173 A 
ATOM     82  C   UNL A   1      40.569  29.891  32.689  1.00  0.00     0.173 A 
ATOM     83  F   UNL A   1      42.997  32.541  32.151  1.00  0.00    -0.203 F 
ATOM     84  C   UNL A   1      40.680  32.666  32.519  1.00  0.00     0.198 A 
ATOM     85  C   UNL A   1      39.411  30.657  32.828  1.00  0.00     0.198 A 
ATOM     86  F   UNL A   1      40.456  28.555  32.697  1.00  0.00    -0.203 F 
ATOM     87  F   UNL A   1      40.734  33.997  32.372  1.00  0.00    -0.200 F 
ATOM     88  C   UNL A   1      39.461  32.038  32.706  1.00  0.00     0.200 A 
ATOM     89  F   UNL A   1      38.227  30.047  32.980  1.00  0.00    -0.200 F 
ATOM     90  F   UNL A   1      38.330  32.756  32.724  1.00  0.00    -0.200 F 
ENDBRANCH  56  80
BRANCH  68  91
ATOM     91  C   UNL A   1      45.384  24.253  33.160  1.00  0.00     0.064 A 
ATOM     92  C   UNL A   1      44.583  23.164  33.538  1.00  0.00     0.173 A 
ATOM     93  C   UNL A   1      46.635  24.355  33.805  1.00  0.00     0.173 A 
ATOM     94  F   UNL A   1      43.344  23.018  33.044  1.00  0.00    -0.203 F 
ATOM     95  C   UNL A   1      45.027  22.208  34.454  1.00  0.00     0.198 A 
ATOM     96  C   UNL A   1      47.056  23.428  34.757  1.00  0.00     0.198 A 
ATOM     97  F   UNL A   1      47.493  25.344  33.515  1.00  0.00    -0.203 F 
ATOM     98  F   UNL A   1      44.253  21.153  34.743  1.00  0.00    -0.200 F 
ATOM     99  C   UNL A   1      46.260  22.345  35.070  1.00  0.00     0.200 A 
ATOM    100  F   UNL A   1      48.240  23.590  35.365  1.00  0.00    -0.200 F 
ATOM    101  F   UNL A   1      46.676  21.438  35.962  1.00  0.00    -0.200 F 
ENDBRANCH  68  91
ENDBRANCH  42  43
ENDBRANCH  34  37
ENDBRANCH  32  33
ENDBRANCH   1  32
TORSDOF 12
ENDMDL
