MODEL 1
REMARK VINA RESULT:     -12.7      0.000      0.000
REMARK SMILES CC1CCN(C(=O)N[C@@H]2C=C[C@H](C(=O)NCCCNC(=O)c3ccc(-c4c5nc(c(-c6c(F)c(F)c(F)c(F)c6F)c6ccc([nH]6)c(-c6c(F)c(F)c(F)c(F)c6F)c6nc(c(-c7c(F)c(F)c(F)c(F)c7F)c7ccc4[nH]7)C=C6)C=C5)cc3)C2)CC1
REMARK SMILES IDX 17 1 16 2 15 3 13 4 14 5 12 7 9 8 10 9 85 10 11 11 8 12 1 13
REMARK SMILES IDX 2 14 3 15 87 16 4 17 86 18 5 19 6 20 7 21 18 23 19 24 20 25
REMARK SMILES IDX 21 27 22 28 23 29 84 30 24 31 83 32 25 33 26 34 27 35 77 36
REMARK SMILES IDX 28 37 82 38 76 39 78 40 29 41 81 42 75 43 74 44 30 46 62 47
REMARK SMILES IDX 42 48 61 49 43 50 46 51 60 52 79 53 44 54 45 55 59 57 80 58
REMARK SMILES IDX 47 59 31 60 32 61 40 62 33 63 34 64 38 65 41 66 35 67 36 68
REMARK SMILES IDX 39 69 37 70 63 71 64 72 72 73 65 74 66 75 70 76 73 77 67 78
REMARK SMILES IDX 68 79 71 80 69 81 48 82 49 83 57 84 50 85 51 86 55 87 58 88
REMARK SMILES IDX 52 89 53 90 56 91 54 92
REMARK H PARENT 15 6 8 22 19 26 78 45 46 56
REMARK Flexibility Score: inf
ROOT
ATOM      1  C   UNL A   1      31.508  31.787  26.787  1.00  0.00     0.042 C 
ENDROOT
BRANCH   1   2
ATOM      2  C   UNL A   1      31.830  30.305  26.917  1.00  0.00     0.117 C 
BRANCH   2   3
ATOM      3  N   UNL A   1      32.559  29.804  25.774  1.00  0.00    -0.356 N 
ATOM      4  C   UNL A   1      32.123  29.352  24.570  1.00  0.00     0.227 C 
ATOM      5  O   UNL A   1      33.000  29.142  23.732  1.00  0.00    -0.274 OA
ATOM      6  H   UNL A   1      33.536  29.787  25.888  1.00  0.00     0.163 HD
BRANCH   4   7
ATOM      7  C   UNL A   1      30.634  29.125  24.307  1.00  0.00     0.103 C 
ATOM      8  C   UNL A   1      30.453  27.327  22.630  1.00  0.00     0.107 C 
ATOM      9  C   UNL A   1      30.146  28.701  22.057  1.00  0.00    -0.006 C 
ATOM     10  C   UNL A   1      30.298  27.645  24.116  1.00  0.00     0.047 C 
ATOM     11  C   UNL A   1      30.255  29.676  22.970  1.00  0.00    -0.016 C 
BRANCH   8  12
ATOM     12  N   UNL A   1      31.707  26.925  22.016  1.00  0.00    -0.332 N 
ATOM     13  C   UNL A   1      33.812  23.495  26.604  1.00  0.00     0.008 C 
ATOM     14  C   UNL A   1      33.443  23.403  25.123  1.00  0.00    -0.011 C 
ATOM     15  C   UNL A   1      34.495  24.154  24.292  1.00  0.00     0.025 C 
ATOM     16  C   UNL A   1      32.021  23.941  24.859  1.00  0.00     0.025 C 
ATOM     17  C   UNL A   1      34.087  24.255  22.826  1.00  0.00     0.121 C 
ATOM     18  C   UNL A   1      31.728  24.109  23.359  1.00  0.00     0.121 C 
ATOM     19  N   UNL A   1      32.769  24.884  22.713  1.00  0.00    -0.325 N 
ATOM     20  C   UNL A   1      32.689  26.025  21.986  1.00  0.00     0.317 C 
ATOM     21  O   UNL A   1      33.595  26.333  21.197  1.00  0.00    -0.249 OA
ATOM     22  H   UNL A   1      31.922  27.602  21.335  1.00  0.00     0.165 HD
ENDBRANCH   8  12
ENDBRANCH   4   7
ENDBRANCH   2   3
ENDBRANCH   1   2
BRANCH   1  23
ATOM     23  C   UNL A   1      32.710  32.725  26.860  1.00  0.00     0.118 C 
BRANCH  23  24
ATOM     24  N   UNL A   1      32.440  33.994  27.513  1.00  0.00    -0.352 N 
ATOM     25  C   UNL A   1      33.080  34.612  28.556  1.00  0.00     0.251 C 
ATOM     26  H   UNL A   1      31.674  34.492  27.146  1.00  0.00     0.163 HD
ATOM     27  O   UNL A   1      32.633  35.664  29.005  1.00  0.00    -0.269 OA
BRANCH  25  28
ATOM     28  C   UNL A   1      34.279  34.006  29.171  1.00  0.00     0.039 A 
ATOM     29  C   UNL A   1      34.095  32.977  30.098  1.00  0.00     0.014 A 
ATOM     30  C   UNL A   1      35.568  34.453  28.867  1.00  0.00     0.014 A 
ATOM     31  C   UNL A   1      35.201  32.360  30.679  1.00  0.00     0.010 A 
ATOM     32  C   UNL A   1      36.674  33.787  29.390  1.00  0.00     0.010 A 
ATOM     33  C   UNL A   1      36.502  32.741  30.310  1.00  0.00    -0.014 A 
BRANCH  33  34
ATOM     34  C   UNL A   1      37.682  32.071  30.910  1.00  0.00     0.031 A 
ATOM     35  C   UNL A   1      38.125  32.423  32.302  1.00  0.00     0.074 A 
ATOM     36  C   UNL A   1      38.368  31.159  30.194  1.00  0.00     0.049 A 
ATOM     37  N   UNL A   1      39.126  31.945  32.999  1.00  0.00    -0.248 NA
ATOM     38  C   UNL A   1      37.355  33.468  32.995  1.00  0.00     0.031 C 
ATOM     39  C   UNL A   1      38.063  30.759  28.819  1.00  0.00     0.029 A 
ATOM     40  N   UNL A   1      39.461  30.399  30.527  1.00  0.00    -0.354 N 
ATOM     41  C   UNL A   1      39.106  32.633  34.205  1.00  0.00     0.074 A 
ATOM     42  C   UNL A   1      38.037  33.604  34.122  1.00  0.00     0.031 C 
ATOM     43  C   UNL A   1      38.925  29.802  28.439  1.00  0.00     0.029 A 
ATOM     44  C   UNL A   1      39.860  29.542  29.530  1.00  0.00     0.049 A 
ATOM     45  H   UNL A   1      39.916  30.461  31.397  1.00  0.00     0.167 HD
ATOM     46  C   UNL A   1      39.888  32.452  35.296  1.00  0.00     0.037 A 
ATOM     47  C   UNL A   1      40.862  28.643  29.505  1.00  0.00     0.037 A 
ATOM     48  C   UNL A   1      40.939  31.473  35.386  1.00  0.00     0.049 A 
ATOM     49  C   UNL A   1      41.723  28.466  30.728  1.00  0.00     0.074 A 
ATOM     50  C   UNL A   1      41.766  31.188  36.458  1.00  0.00     0.029 A 
ATOM     51  N   UNL A   1      41.307  30.618  34.358  1.00  0.00    -0.354 N 
ATOM     52  N   UNL A   1      41.654  29.078  31.884  1.00  0.00    -0.248 NA
ATOM     53  C   UNL A   1      42.793  27.463  30.641  1.00  0.00     0.031 C 
ATOM     54  C   UNL A   1      42.660  30.185  36.066  1.00  0.00     0.029 A 
ATOM     55  C   UNL A   1      42.359  29.812  34.767  1.00  0.00     0.049 A 
ATOM     56  H   UNL A   1      40.885  30.587  33.469  1.00  0.00     0.167 HD
ATOM     57  C   UNL A   1      42.643  28.508  32.676  1.00  0.00     0.074 A 
ATOM     58  C   UNL A   1      43.292  27.495  31.869  1.00  0.00     0.031 C 
ATOM     59  C   UNL A   1      42.980  28.794  33.957  1.00  0.00     0.037 A 
BRANCH  46  60
ATOM     60  C   UNL A   1      39.627  33.333  36.484  1.00  0.00     0.064 A 
ATOM     61  C   UNL A   1      38.749  32.944  37.508  1.00  0.00     0.173 A 
ATOM     62  C   UNL A   1      40.269  34.574  36.608  1.00  0.00     0.173 A 
ATOM     63  F   UNL A   1      38.098  31.773  37.429  1.00  0.00    -0.203 F 
ATOM     64  C   UNL A   1      38.495  33.779  38.592  1.00  0.00     0.198 A 
ATOM     65  C   UNL A   1      40.038  35.393  37.711  1.00  0.00     0.198 A 
ATOM     66  F   UNL A   1      41.123  34.993  35.662  1.00  0.00    -0.203 F 
ATOM     67  F   UNL A   1      37.609  33.411  39.527  1.00  0.00    -0.200 F 
ATOM     68  C   UNL A   1      39.145  35.000  38.696  1.00  0.00     0.200 A 
ATOM     69  F   UNL A   1      40.676  36.567  37.817  1.00  0.00    -0.200 F 
ATOM     70  F   UNL A   1      38.902  35.803  39.741  1.00  0.00    -0.200 F 
ENDBRANCH  46  60
BRANCH  47  71
ATOM     71  C   UNL A   1      41.074  27.801  28.300  1.00  0.00     0.064 A 
ATOM     72  C   UNL A   1      40.465  26.544  28.188  1.00  0.00     0.173 A 
ATOM     73  C   UNL A   1      41.894  28.226  27.245  1.00  0.00     0.173 A 
ATOM     74  F   UNL A   1      39.689  26.085  29.181  1.00  0.00    -0.203 F 
ATOM     75  C   UNL A   1      40.685  25.732  27.077  1.00  0.00     0.198 A 
ATOM     76  C   UNL A   1      42.091  27.426  26.121  1.00  0.00     0.198 A 
ATOM     77  F   UNL A   1      42.496  29.423  27.300  1.00  0.00    -0.203 F 
ATOM     78  F   UNL A   1      40.127  24.516  27.016  1.00  0.00    -0.200 F 
ATOM     79  C   UNL A   1      41.494  26.177  26.041  1.00  0.00     0.200 A 
ATOM     80  F   UNL A   1      42.862  27.864  25.116  1.00  0.00    -0.200 F 
ATOM     81  F   UNL A   1      41.704  25.398  24.971  1.00  0.00    -0.200 F 
ENDBRANCH  47  71
BRANCH  59  82
ATOM     82  C   UNL A   1      44.063  27.966  34.586  1.00  0.00     0.064 A 
ATOM     83  C   UNL A   1      45.405  28.372  34.575  1.00  0.00     0.173 A 
ATOM     84  C   UNL A   1      43.744  26.765  35.237  1.00  0.00     0.173 A 
ATOM     85  F   UNL A   1      45.763  29.505  33.954  1.00  0.00    -0.203 F 
ATOM     86  C   UNL A   1      46.393  27.590  35.168  1.00  0.00     0.198 A 
ATOM     87  C   UNL A   1      44.730  26.000  35.854  1.00  0.00     0.198 A 
ATOM     88  F   UNL A   1      42.474  26.336  35.281  1.00  0.00    -0.203 F 
ATOM     89  F   UNL A   1      47.676  27.971  35.102  1.00  0.00    -0.200 F 
ATOM     90  C   UNL A   1      46.054  26.409  35.812  1.00  0.00     0.200 A 
ATOM     91  F   UNL A   1      44.399  24.866  36.487  1.00  0.00    -0.200 F 
ATOM     92  F   UNL A   1      47.006  25.659  36.386  1.00  0.00    -0.200 F 
ENDBRANCH  59  82
ENDBRANCH  33  34
ENDBRANCH  25  28
ENDBRANCH  23  24
ENDBRANCH   1  23
TORSDOF 11
ENDMDL
MODEL 2
REMARK VINA RESULT:     -12.7      0.037      1.140
REMARK SMILES CC1CCN(C(=O)N[C@@H]2C=C[C@H](C(=O)NCCCNC(=O)c3ccc(-c4c5nc(c(-c6c(F)c(F)c(F)c(F)c6F)c6ccc([nH]6)c(-c6c(F)c(F)c(F)c(F)c6F)c6nc(c(-c7c(F)c(F)c(F)c(F)c7F)c7ccc4[nH]7)C=C6)C=C5)cc3)C2)CC1
REMARK SMILES IDX 17 1 16 2 15 3 13 4 14 5 12 7 9 8 10 9 85 10 11 11 8 12 1 13
REMARK SMILES IDX 2 14 3 15 87 16 4 17 86 18 5 19 6 20 7 21 18 23 19 24 20 25
REMARK SMILES IDX 21 27 22 28 23 29 84 30 24 31 83 32 25 33 26 34 27 35 77 36
REMARK SMILES IDX 28 37 82 38 76 39 78 40 29 41 81 42 75 43 74 44 30 46 62 47
REMARK SMILES IDX 42 48 61 49 43 50 46 51 60 52 79 53 44 54 45 55 59 57 80 58
REMARK SMILES IDX 47 59 31 60 32 61 40 62 33 63 34 64 38 65 41 66 35 67 36 68
REMARK SMILES IDX 39 69 37 70 63 71 64 72 72 73 65 74 66 75 70 76 73 77 67 78
REMARK SMILES IDX 68 79 71 80 69 81 48 82 49 83 57 84 50 85 51 86 55 87 58 88
REMARK SMILES IDX 52 89 53 90 56 91 54 92
REMARK H PARENT 15 6 8 22 19 26 78 45 46 56
REMARK Flexibility Score: inf
ROOT
ATOM      1  C   UNL A   1      31.523  31.841  26.750  1.00  0.00     0.042 C 
ENDROOT
BRANCH   1   2
ATOM      2  C   UNL A   1      31.823  30.357  26.906  1.00  0.00     0.117 C 
BRANCH   2   3
ATOM      3  N   UNL A   1      32.558  29.828  25.781  1.00  0.00    -0.356 N 
ATOM      4  C   UNL A   1      32.129  29.344  24.586  1.00  0.00     0.227 C 
ATOM      5  O   UNL A   1      33.011  29.114  23.759  1.00  0.00    -0.274 OA
ATOM      6  H   UNL A   1      33.535  29.816  25.900  1.00  0.00     0.163 HD
BRANCH   4   7
ATOM      7  C   UNL A   1      30.641  29.108  24.321  1.00  0.00     0.103 C 
ATOM      8  C   UNL A   1      30.474  27.305  22.648  1.00  0.00     0.107 C 
ATOM      9  C   UNL A   1      30.159  28.676  22.071  1.00  0.00    -0.006 C 
ATOM     10  C   UNL A   1      30.315  27.625  24.133  1.00  0.00     0.047 C 
ATOM     11  C   UNL A   1      30.261  29.654  22.982  1.00  0.00    -0.016 C 
BRANCH   8  12
ATOM     12  N   UNL A   1      31.731  26.909  22.036  1.00  0.00    -0.332 N 
ATOM     13  C   UNL A   1      33.861  23.522  26.644  1.00  0.00     0.008 C 
ATOM     14  C   UNL A   1      33.493  23.419  25.164  1.00  0.00    -0.011 C 
ATOM     15  C   UNL A   1      34.539  24.173  24.329  1.00  0.00     0.025 C 
ATOM     16  C   UNL A   1      32.066  23.944  24.897  1.00  0.00     0.025 C 
ATOM     17  C   UNL A   1      34.131  24.263  22.862  1.00  0.00     0.121 C 
ATOM     18  C   UNL A   1      31.773  24.101  23.396  1.00  0.00     0.121 C 
ATOM     19  N   UNL A   1      32.808  24.880  22.745  1.00  0.00    -0.325 N 
ATOM     20  C   UNL A   1      32.719  26.017  22.012  1.00  0.00     0.317 C 
ATOM     21  O   UNL A   1      33.624  26.327  21.221  1.00  0.00    -0.249 OA
ATOM     22  H   UNL A   1      31.940  27.585  21.351  1.00  0.00     0.165 HD
ENDBRANCH   8  12
ENDBRANCH   4   7
ENDBRANCH   2   3
ENDBRANCH   1   2
BRANCH   1  23
ATOM     23  C   UNL A   1      32.731  32.766  26.870  1.00  0.00     0.118 C 
BRANCH  23  24
ATOM     24  N   UNL A   1      32.455  34.028  27.535  1.00  0.00    -0.352 N 
ATOM     25  C   UNL A   1      33.088  34.637  28.587  1.00  0.00     0.251 C 
ATOM     26  H   UNL A   1      31.688  34.527  27.171  1.00  0.00     0.163 HD
ATOM     27  O   UNL A   1      32.637  35.683  29.046  1.00  0.00    -0.269 OA
BRANCH  25  28
ATOM     28  C   UNL A   1      34.287  34.029  29.199  1.00  0.00     0.039 A 
ATOM     29  C   UNL A   1      34.104  32.984  30.108  1.00  0.00     0.014 A 
ATOM     30  C   UNL A   1      35.575  34.489  28.912  1.00  0.00     0.014 A 
ATOM     31  C   UNL A   1      35.210  32.364  30.687  1.00  0.00     0.010 A 
ATOM     32  C   UNL A   1      36.682  33.821  29.431  1.00  0.00     0.010 A 
ATOM     33  C   UNL A   1      36.511  32.759  30.333  1.00  0.00    -0.014 A 
BRANCH  33  34
ATOM     34  C   UNL A   1      37.692  32.087  30.929  1.00  0.00     0.031 A 
ATOM     35  C   UNL A   1      38.140  32.440  32.320  1.00  0.00     0.074 A 
ATOM     36  C   UNL A   1      38.373  31.173  30.212  1.00  0.00     0.049 A 
ATOM     37  N   UNL A   1      39.141  31.960  33.014  1.00  0.00    -0.248 NA
ATOM     38  C   UNL A   1      37.374  33.487  33.014  1.00  0.00     0.031 C 
ATOM     39  C   UNL A   1      38.063  30.773  28.839  1.00  0.00     0.029 A 
ATOM     40  N   UNL A   1      39.466  30.411  30.542  1.00  0.00    -0.354 N 
ATOM     41  C   UNL A   1      39.127  32.649  34.220  1.00  0.00     0.074 A 
ATOM     42  C   UNL A   1      38.060  33.622  34.139  1.00  0.00     0.031 C 
ATOM     43  C   UNL A   1      38.922  29.814  28.456  1.00  0.00     0.029 A 
ATOM     44  C   UNL A   1      39.860  29.552  29.544  1.00  0.00     0.049 A 
ATOM     45  H   UNL A   1      39.924  30.473  31.411  1.00  0.00     0.167 HD
ATOM     46  C   UNL A   1      39.912  32.466  35.308  1.00  0.00     0.037 A 
ATOM     47  C   UNL A   1      40.859  28.651  29.517  1.00  0.00     0.037 A 
ATOM     48  C   UNL A   1      40.961  31.485  35.396  1.00  0.00     0.049 A 
ATOM     49  C   UNL A   1      41.724  28.474  30.737  1.00  0.00     0.074 A 
ATOM     50  C   UNL A   1      41.791  31.199  36.465  1.00  0.00     0.029 A 
ATOM     51  N   UNL A   1      41.324  30.629  34.367  1.00  0.00    -0.354 N 
ATOM     52  N   UNL A   1      41.660  29.086  31.893  1.00  0.00    -0.248 NA
ATOM     53  C   UNL A   1      42.791  27.467  30.648  1.00  0.00     0.031 C 
ATOM     54  C   UNL A   1      42.682  30.194  36.071  1.00  0.00     0.029 A 
ATOM     55  C   UNL A   1      42.376  29.821  34.773  1.00  0.00     0.049 A 
ATOM     56  H   UNL A   1      40.900  30.598  33.479  1.00  0.00     0.167 HD
ATOM     57  C   UNL A   1      42.650  28.515  32.683  1.00  0.00     0.074 A 
ATOM     58  C   UNL A   1      43.294  27.500  31.874  1.00  0.00     0.031 C 
ATOM     59  C   UNL A   1      42.992  28.801  33.962  1.00  0.00     0.037 A 
BRANCH  46  60
ATOM     60  C   UNL A   1      39.656  33.349  36.496  1.00  0.00     0.064 A 
ATOM     61  C   UNL A   1      40.295  34.591  36.639  1.00  0.00     0.173 A 
ATOM     62  C   UNL A   1      38.755  32.958  37.497  1.00  0.00     0.173 A 
ATOM     63  F   UNL A   1      41.178  35.005  35.717  1.00  0.00    -0.203 F 
ATOM     64  C   UNL A   1      40.070  35.390  37.756  1.00  0.00     0.198 A 
ATOM     65  C   UNL A   1      38.506  33.775  38.597  1.00  0.00     0.198 A 
ATOM     66  F   UNL A   1      38.111  31.784  37.408  1.00  0.00    -0.203 F 
ATOM     67  F   UNL A   1      40.736  36.544  37.898  1.00  0.00    -0.200 F 
ATOM     68  C   UNL A   1      39.170  34.984  38.731  1.00  0.00     0.200 A 
ATOM     69  F   UNL A   1      37.627  33.388  39.532  1.00  0.00    -0.200 F 
ATOM     70  F   UNL A   1      38.952  35.756  39.805  1.00  0.00    -0.200 F 
ENDBRANCH  46  60
BRANCH  47  71
ATOM     71  C   UNL A   1      41.066  27.808  28.311  1.00  0.00     0.064 A 
ATOM     72  C   UNL A   1      40.457  26.550  28.204  1.00  0.00     0.173 A 
ATOM     73  C   UNL A   1      41.880  28.232  27.252  1.00  0.00     0.173 A 
ATOM     74  F   UNL A   1      39.686  26.092  29.202  1.00  0.00    -0.203 F 
ATOM     75  C   UNL A   1      40.672  25.737  27.093  1.00  0.00     0.198 A 
ATOM     76  C   UNL A   1      42.072  27.431  26.128  1.00  0.00     0.198 A 
ATOM     77  F   UNL A   1      42.481  29.429  27.303  1.00  0.00    -0.203 F 
ATOM     78  F   UNL A   1      40.114  24.520  27.037  1.00  0.00    -0.200 F 
ATOM     79  C   UNL A   1      41.475  26.181  26.053  1.00  0.00     0.200 A 
ATOM     80  F   UNL A   1      42.838  27.868  25.119  1.00  0.00    -0.200 F 
ATOM     81  F   UNL A   1      41.680  25.401  24.983  1.00  0.00    -0.200 F 
ENDBRANCH  47  71
BRANCH  59  82
ATOM     82  C   UNL A   1      44.075  27.971  34.588  1.00  0.00     0.064 A 
ATOM     83  C   UNL A   1      45.419  28.368  34.562  1.00  0.00     0.173 A 
ATOM     84  C   UNL A   1      43.754  26.777  35.252  1.00  0.00     0.173 A 
ATOM     85  F   UNL A   1      45.779  29.493  33.928  1.00  0.00    -0.203 F 
ATOM     86  C   UNL A   1      46.407  27.584  35.153  1.00  0.00     0.198 A 
ATOM     87  C   UNL A   1      44.741  26.011  35.867  1.00  0.00     0.198 A 
ATOM     88  F   UNL A   1      42.481  26.357  35.311  1.00  0.00    -0.203 F 
ATOM     89  F   UNL A   1      47.692  27.956  35.072  1.00  0.00    -0.200 F 
ATOM     90  C   UNL A   1      46.067  26.411  35.810  1.00  0.00     0.200 A 
ATOM     91  F   UNL A   1      44.408  24.884  36.512  1.00  0.00    -0.200 F 
ATOM     92  F   UNL A   1      47.019  25.660  36.381  1.00  0.00    -0.200 F 
ENDBRANCH  59  82
ENDBRANCH  33  34
ENDBRANCH  25  28
ENDBRANCH  23  24
ENDBRANCH   1  23
TORSDOF 11
ENDMDL
MODEL 3
REMARK VINA RESULT:     -12.7      0.110      1.614
REMARK SMILES CC1CCN(C(=O)N[C@@H]2C=C[C@H](C(=O)NCCCNC(=O)c3ccc(-c4c5nc(c(-c6c(F)c(F)c(F)c(F)c6F)c6ccc([nH]6)c(-c6c(F)c(F)c(F)c(F)c6F)c6nc(c(-c7c(F)c(F)c(F)c(F)c7F)c7ccc4[nH]7)C=C6)C=C5)cc3)C2)CC1
REMARK SMILES IDX 17 1 16 2 15 3 13 4 14 5 12 7 9 8 10 9 85 10 11 11 8 12 1 13
REMARK SMILES IDX 2 14 3 15 87 16 4 17 86 18 5 19 6 20 7 21 18 23 19 24 20 25
REMARK SMILES IDX 21 27 22 28 23 29 84 30 24 31 83 32 25 33 26 34 27 35 77 36
REMARK SMILES IDX 28 37 82 38 76 39 78 40 29 41 81 42 75 43 74 44 30 46 62 47
REMARK SMILES IDX 42 48 61 49 43 50 46 51 60 52 79 53 44 54 45 55 59 57 80 58
REMARK SMILES IDX 47 59 31 60 32 61 40 62 33 63 34 64 38 65 41 66 35 67 36 68
REMARK SMILES IDX 39 69 37 70 63 71 64 72 72 73 65 74 66 75 70 76 73 77 67 78
REMARK SMILES IDX 68 79 71 80 69 81 48 82 49 83 57 84 50 85 51 86 55 87 58 88
REMARK SMILES IDX 52 89 53 90 56 91 54 92
REMARK H PARENT 15 6 8 22 19 26 78 45 46 56
REMARK Flexibility Score: inf
ROOT
ATOM      1  C   UNL A   1      31.463  31.727  26.859  1.00  0.00     0.042 C 
ENDROOT
BRANCH   1   2
ATOM      2  C   UNL A   1      31.815  30.248  26.924  1.00  0.00     0.117 C 
BRANCH   2   3
ATOM      3  N   UNL A   1      32.554  29.811  25.763  1.00  0.00    -0.356 N 
ATOM      4  C   UNL A   1      32.130  29.413  24.536  1.00  0.00     0.227 C 
ATOM      5  O   UNL A   1      33.013  29.255  23.693  1.00  0.00    -0.274 OA
ATOM      6  H   UNL A   1      33.532  29.802  25.881  1.00  0.00     0.163 HD
BRANCH   4   7
ATOM      7  C   UNL A   1      30.644  29.180  24.255  1.00  0.00     0.103 C 
ATOM      8  C   UNL A   1      30.489  27.347  22.614  1.00  0.00     0.107 C 
ATOM      9  C   UNL A   1      30.191  28.708  22.007  1.00  0.00    -0.006 C 
ATOM     10  C   UNL A   1      30.311  27.696  24.090  1.00  0.00     0.047 C 
ATOM     11  C   UNL A   1      30.286  29.703  22.901  1.00  0.00    -0.016 C 
BRANCH   8  12
ATOM     12  N   UNL A   1      31.753  26.932  22.027  1.00  0.00    -0.332 N 
ATOM     13  C   UNL A   1      33.626  23.319  26.575  1.00  0.00     0.008 C 
ATOM     14  C   UNL A   1      33.303  23.279  25.081  1.00  0.00    -0.011 C 
ATOM     15  C   UNL A   1      34.399  24.028  24.306  1.00  0.00     0.025 C 
ATOM     16  C   UNL A   1      31.903  23.860  24.789  1.00  0.00     0.025 C 
ATOM     17  C   UNL A   1      34.041  24.182  22.832  1.00  0.00     0.121 C 
ATOM     18  C   UNL A   1      31.663  24.078  23.286  1.00  0.00     0.121 C 
ATOM     19  N   UNL A   1      32.742  24.846  22.696  1.00  0.00    -0.325 N 
ATOM     20  C   UNL A   1      32.713  26.010  22.002  1.00  0.00     0.317 C 
ATOM     21  O   UNL A   1      33.651  26.318  21.251  1.00  0.00    -0.249 OA
ATOM     22  H   UNL A   1      32.005  27.624  21.374  1.00  0.00     0.165 HD
ENDBRANCH   8  12
ENDBRANCH   4   7
ENDBRANCH   2   3
ENDBRANCH   1   2
BRANCH   1  23
ATOM     23  C   UNL A   1      32.653  32.682  26.877  1.00  0.00     0.118 C 
BRANCH  23  24
ATOM     24  N   UNL A   1      32.387  33.958  27.518  1.00  0.00    -0.352 N 
ATOM     25  C   UNL A   1      33.028  34.584  28.555  1.00  0.00     0.251 C 
ATOM     26  H   UNL A   1      31.623  34.455  27.145  1.00  0.00     0.163 HD
ATOM     27  O   UNL A   1      32.584  35.641  28.995  1.00  0.00    -0.269 OA
BRANCH  25  28
ATOM     28  C   UNL A   1      34.224  33.979  29.178  1.00  0.00     0.039 A 
ATOM     29  C   UNL A   1      34.035  32.947  30.101  1.00  0.00     0.014 A 
ATOM     30  C   UNL A   1      35.514  34.430  28.885  1.00  0.00     0.014 A 
ATOM     31  C   UNL A   1      35.139  32.331  30.688  1.00  0.00     0.010 A 
ATOM     32  C   UNL A   1      36.617  33.765  29.414  1.00  0.00     0.010 A 
ATOM     33  C   UNL A   1      36.441  32.716  30.330  1.00  0.00    -0.014 A 
BRANCH  33  34
ATOM     34  C   UNL A   1      37.619  32.048  30.937  1.00  0.00     0.031 A 
ATOM     35  C   UNL A   1      38.067  32.417  32.323  1.00  0.00     0.074 A 
ATOM     36  C   UNL A   1      38.297  31.121  30.233  1.00  0.00     0.049 A 
ATOM     37  N   UNL A   1      39.066  31.944  33.025  1.00  0.00    -0.248 NA
ATOM     38  C   UNL A   1      37.305  33.477  33.002  1.00  0.00     0.031 C 
ATOM     39  C   UNL A   1      37.986  30.703  28.865  1.00  0.00     0.029 A 
ATOM     40  N   UNL A   1      39.386  30.359  30.574  1.00  0.00    -0.354 N 
ATOM     41  C   UNL A   1      39.053  32.649  34.220  1.00  0.00     0.074 A 
ATOM     42  C   UNL A   1      37.991  33.626  34.125  1.00  0.00     0.031 C 
ATOM     43  C   UNL A   1      38.841  29.735  28.496  1.00  0.00     0.029 A 
ATOM     44  C   UNL A   1      39.777  29.485  29.589  1.00  0.00     0.049 A 
ATOM     45  H   UNL A   1      39.844  30.431  31.443  1.00  0.00     0.167 HD
ATOM     46  C   UNL A   1      39.837  32.479  35.312  1.00  0.00     0.037 A 
ATOM     47  C   UNL A   1      40.773  28.580  29.575  1.00  0.00     0.037 A 
ATOM     48  C   UNL A   1      40.883  31.494  35.414  1.00  0.00     0.049 A 
ATOM     49  C   UNL A   1      41.636  28.415  30.798  1.00  0.00     0.074 A 
ATOM     50  C   UNL A   1      41.710  31.220  36.488  1.00  0.00     0.029 A 
ATOM     51  N   UNL A   1      41.243  30.622  34.397  1.00  0.00    -0.354 N 
ATOM     52  N   UNL A   1      41.574  29.044  31.945  1.00  0.00    -0.248 NA
ATOM     53  C   UNL A   1      42.699  27.404  30.724  1.00  0.00     0.031 C 
ATOM     54  C   UNL A   1      42.597  30.206  36.109  1.00  0.00     0.029 A 
ATOM     55  C   UNL A   1      42.290  29.816  34.816  1.00  0.00     0.049 A 
ATOM     56  H   UNL A   1      40.819  30.581  33.510  1.00  0.00     0.167 HD
ATOM     57  C   UNL A   1      42.561  28.480  32.744  1.00  0.00     0.074 A 
ATOM     58  C   UNL A   1      43.201  27.451  31.949  1.00  0.00     0.031 C 
ATOM     59  C   UNL A   1      42.903  28.782  34.020  1.00  0.00     0.037 A 
BRANCH  46  60
ATOM     60  C   UNL A   1      39.585  33.379  36.487  1.00  0.00     0.064 A 
ATOM     61  C   UNL A   1      38.744  32.990  37.542  1.00  0.00     0.173 A 
ATOM     62  C   UNL A   1      40.198  34.638  36.568  1.00  0.00     0.173 A 
ATOM     63  F   UNL A   1      38.121  31.802  37.506  1.00  0.00    -0.203 F 
ATOM     64  C   UNL A   1      38.497  33.842  38.615  1.00  0.00     0.198 A 
ATOM     65  C   UNL A   1      39.975  35.475  37.659  1.00  0.00     0.198 A 
ATOM     66  F   UNL A   1      41.016  35.057  35.591  1.00  0.00    -0.203 F 
ATOM     67  F   UNL A   1      37.645  33.472  39.580  1.00  0.00    -0.200 F 
ATOM     68  C   UNL A   1      39.118  35.081  38.675  1.00  0.00     0.200 A 
ATOM     69  F   UNL A   1      40.585  36.666  37.723  1.00  0.00    -0.200 F 
ATOM     70  F   UNL A   1      38.882  35.900  39.710  1.00  0.00    -0.200 F 
ENDBRANCH  46  60
BRANCH  47  71
ATOM     71  C   UNL A   1      40.977  27.718  28.381  1.00  0.00     0.064 A 
ATOM     72  C   UNL A   1      41.833  28.120  27.347  1.00  0.00     0.173 A 
ATOM     73  C   UNL A   1      40.318  26.489  28.245  1.00  0.00     0.173 A 
ATOM     74  F   UNL A   1      42.471  29.298  27.424  1.00  0.00    -0.203 F 
ATOM     75  C   UNL A   1      42.005  27.335  26.208  1.00  0.00     0.198 A 
ATOM     76  C   UNL A   1      40.512  25.691  27.118  1.00  0.00     0.198 A 
ATOM     77  F   UNL A   1      39.492  26.057  29.209  1.00  0.00    -0.203 F 
ATOM     78  F   UNL A   1      42.794  27.763  25.213  1.00  0.00    -0.200 F 
ATOM     79  C   UNL A   1      41.349  26.118  26.098  1.00  0.00     0.200 A 
ATOM     80  F   UNL A   1      39.887  24.510  27.021  1.00  0.00    -0.200 F 
ATOM     81  F   UNL A   1      41.516  25.362  25.004  1.00  0.00    -0.200 F 
ENDBRANCH  47  71
BRANCH  59  82
ATOM     82  C   UNL A   1      43.982  27.957  34.658  1.00  0.00     0.064 A 
ATOM     83  C   UNL A   1      43.700  26.753  35.319  1.00  0.00     0.173 A 
ATOM     84  C   UNL A   1      45.323  28.364  34.575  1.00  0.00     0.173 A 
ATOM     85  F   UNL A   1      42.434  26.328  35.437  1.00  0.00    -0.203 F 
ATOM     86  C   UNL A   1      44.718  26.001  35.900  1.00  0.00     0.198 A 
ATOM     87  C   UNL A   1      46.341  27.594  35.132  1.00  0.00     0.198 A 
ATOM     88  F   UNL A   1      45.646  29.504  33.947  1.00  0.00    -0.203 F 
ATOM     89  F   UNL A   1      44.421  24.880  36.572  1.00  0.00    -0.200 F 
ATOM     90  C   UNL A   1      46.037  26.419  35.801  1.00  0.00     0.200 A 
ATOM     91  F   UNL A   1      47.616  27.993  35.024  1.00  0.00    -0.200 F 
ATOM     92  F   UNL A   1      47.016  25.692  36.358  1.00  0.00    -0.200 F 
ENDBRANCH  59  82
ENDBRANCH  33  34
ENDBRANCH  25  28
ENDBRANCH  23  24
ENDBRANCH   1  23
TORSDOF 11
ENDMDL
