MODEL 1
REMARK VINA RESULT:     -11.5      0.000      0.000
REMARK SMILES CC[C@@](C)(NS(=O)(=O)c1ccc(F)c(Cl)c1)C(=O)NCCCNC(=O)c1ccc(-c2c3nc(c(-c4c(F)c(F)c(F)c(F)c4F)c4ccc([nH]4)c(-c4c(F)c(F)c(F)c(F)c4F)c4nc(c(-c5c(F)c(F)c(F)c(F)c5F)c5ccc2[nH]5)C=C4)C=C3)cc1
REMARK SMILES IDX 20 1 19 2 17 3 18 4 3 6 4 7 2 8 1 9 5 10 6 12 7 13 8 14 9 15
REMARK SMILES IDX 10 16 16 17 11 18 14 19 12 20 15 21 13 22 21 23 22 24 23 25
REMARK SMILES IDX 24 26 25 28 26 29 27 30 88 31 28 32 87 33 29 34 30 35 31 36
REMARK SMILES IDX 81 37 32 38 86 39 80 40 82 41 33 42 85 43 79 44 78 45 34 47
REMARK SMILES IDX 66 48 46 49 65 50 47 51 50 52 64 53 83 54 48 55 49 56 63 58
REMARK SMILES IDX 84 59 51 60 35 61 36 62 44 63 37 64 38 65 42 66 45 67 39 68
REMARK SMILES IDX 40 69 43 70 41 71 67 72 68 73 76 74 69 75 70 76 74 77 77 78
REMARK SMILES IDX 71 79 72 80 75 81 73 82 52 83 53 84 61 85 54 86 55 87 59 88
REMARK SMILES IDX 62 89 56 90 57 91 60 92 58 93
REMARK H PARENT 19 5 5 11 23 27 82 46 50 57
REMARK Flexibility Score: inf
ROOT
ATOM      1  C   UNL A   1      31.106  30.591  25.532  1.00  0.00     0.117 C 
ENDROOT
BRANCH   1   2
ATOM      2  N   UNL A   1      32.223  29.975  24.807  1.00  0.00    -0.354 N 
ATOM      3  C   UNL A   1      33.008  28.850  24.863  1.00  0.00     0.241 C 
ATOM      4  O   UNL A   1      33.744  28.714  23.873  1.00  0.00    -0.273 OA
ATOM      5  H   UNL A   1      32.493  30.541  24.048  1.00  0.00     0.163 HD
BRANCH   3   6
ATOM      6  C   UNL A   1      33.137  27.842  26.035  1.00  0.00     0.108 C 
ATOM      7  C   UNL A   1      34.231  26.803  25.767  1.00  0.00     0.040 C 
BRANCH   6   8
ATOM      8  C   UNL A   1      33.517  28.562  27.402  1.00  0.00     0.030 C 
ATOM      9  C   UNL A   1      34.750  29.450  27.484  1.00  0.00     0.006 C 
ENDBRANCH   6   8
BRANCH   6  10
ATOM     10  N   UNL A   1      31.877  27.168  26.434  1.00  0.00    -0.196 NA
ATOM     11  H   UNL A   1      31.331  27.915  26.862  1.00  0.00     0.142 HD
BRANCH  10  12
ATOM     12  S   UNL A   1      30.759  26.319  25.563  1.00  0.00     0.241 S 
ATOM     13  O   UNL A   1      29.837  25.716  26.501  1.00  0.00    -0.207 OA
ATOM     14  O   UNL A   1      30.266  27.268  24.597  1.00  0.00    -0.207 OA
BRANCH  12  15
ATOM     15  C   UNL A   1      31.529  25.002  24.642  1.00  0.00     0.084 A 
ATOM     16  C   UNL A   1      31.947  25.185  23.325  1.00  0.00     0.025 A 
ATOM     17  C   UNL A   1      31.471  23.698  25.136  1.00  0.00     0.045 A 
ATOM     18  C   UNL A   1      32.341  24.073  22.561  1.00  0.00     0.042 A 
ATOM     19  C   UNL A   1      31.917  22.599  24.413  1.00  0.00     0.078 A 
ATOM     20  C   UNL A   1      32.337  22.790  23.112  1.00  0.00     0.141 A 
ATOM     21  Cl  UNL A   1      31.887  21.041  25.141  1.00  0.00    -0.081 Cl
ATOM     22  F   UNL A   1      32.699  21.745  22.354  1.00  0.00    -0.205 F 
ENDBRANCH  12  15
ENDBRANCH  10  12
ENDBRANCH   6  10
ENDBRANCH   3   6
ENDBRANCH   1   2
BRANCH   1  23
ATOM     23  C   UNL A   1      31.270  31.716  26.604  1.00  0.00     0.042 C 
BRANCH  23  24
ATOM     24  C   UNL A   1      32.553  32.504  26.949  1.00  0.00     0.118 C 
BRANCH  24  25
ATOM     25  N   UNL A   1      32.363  33.868  27.394  1.00  0.00    -0.352 N 
ATOM     26  C   UNL A   1      33.033  34.538  28.399  1.00  0.00     0.251 C 
ATOM     27  H   UNL A   1      31.670  34.383  26.921  1.00  0.00     0.163 HD
ATOM     28  O   UNL A   1      32.639  35.644  28.761  1.00  0.00    -0.269 OA
BRANCH  26  29
ATOM     29  C   UNL A   1      34.203  33.937  29.093  1.00  0.00     0.039 A 
ATOM     30  C   UNL A   1      35.485  34.347  28.713  1.00  0.00     0.014 A 
ATOM     31  C   UNL A   1      34.064  32.889  30.008  1.00  0.00     0.014 A 
ATOM     32  C   UNL A   1      36.618  33.738  29.271  1.00  0.00     0.010 A 
ATOM     33  C   UNL A   1      35.201  32.295  30.586  1.00  0.00     0.010 A 
ATOM     34  C   UNL A   1      36.493  32.712  30.225  1.00  0.00    -0.014 A 
BRANCH  34  35
ATOM     35  C   UNL A   1      37.724  32.126  30.838  1.00  0.00     0.031 A 
ATOM     36  C   UNL A   1      38.180  32.510  32.222  1.00  0.00     0.074 A 
ATOM     37  C   UNL A   1      38.420  31.197  30.151  1.00  0.00     0.049 A 
ATOM     38  N   UNL A   1      39.145  31.998  32.950  1.00  0.00    -0.248 NA
ATOM     39  C   UNL A   1      37.467  33.618  32.872  1.00  0.00     0.031 C 
ATOM     40  C   UNL A   1      38.117  30.766  28.786  1.00  0.00     0.029 A 
ATOM     41  N   UNL A   1      39.509  30.435  30.504  1.00  0.00    -0.354 N 
ATOM     42  C   UNL A   1      39.148  32.712  34.143  1.00  0.00     0.074 A 
ATOM     43  C   UNL A   1      38.124  33.729  34.019  1.00  0.00     0.031 C 
ATOM     44  C   UNL A   1      38.965  29.787  28.435  1.00  0.00     0.029 A 
ATOM     45  C   UNL A   1      39.894  29.539  29.535  1.00  0.00     0.049 A 
ATOM     46  H   UNL A   1      39.970  30.522  31.370  1.00  0.00     0.167 HD
ATOM     47  C   UNL A   1      39.914  32.523  35.247  1.00  0.00     0.037 A 
ATOM     48  C   UNL A   1      40.874  28.614  29.531  1.00  0.00     0.037 A 
ATOM     49  C   UNL A   1      40.939  31.512  35.366  1.00  0.00     0.049 A 
ATOM     50  C   UNL A   1      41.722  28.436  30.763  1.00  0.00     0.074 A 
ATOM     51  C   UNL A   1      41.740  31.217  36.456  1.00  0.00     0.029 A 
ATOM     52  N   UNL A   1      41.313  30.640  34.353  1.00  0.00    -0.354 N 
ATOM     53  N   UNL A   1      41.654  29.059  31.914  1.00  0.00    -0.248 NA
ATOM     54  C   UNL A   1      42.776  27.413  30.699  1.00  0.00     0.031 C 
ATOM     55  C   UNL A   1      42.639  30.210  36.084  1.00  0.00     0.029 A 
ATOM     56  C   UNL A   1      42.352  29.829  34.784  1.00  0.00     0.049 A 
ATOM     57  H   UNL A   1      40.900  30.603  33.460  1.00  0.00     0.167 HD
ATOM     58  C   UNL A   1      42.632  28.489  32.718  1.00  0.00     0.074 A 
ATOM     59  C   UNL A   1      43.264  27.451  31.930  1.00  0.00     0.031 C 
ATOM     60  C   UNL A   1      42.977  28.798  33.993  1.00  0.00     0.037 A 
BRANCH  47  61
ATOM     61  C   UNL A   1      39.684  33.434  36.423  1.00  0.00     0.064 A 
ATOM     62  C   UNL A   1      40.329  34.676  36.531  1.00  0.00     0.173 A 
ATOM     63  C   UNL A   1      38.772  33.085  37.431  1.00  0.00     0.173 A 
ATOM     64  F   UNL A   1      41.211  35.063  35.597  1.00  0.00    -0.203 F 
ATOM     65  C   UNL A   1      40.097  35.516  37.619  1.00  0.00     0.198 A 
ATOM     66  C   UNL A   1      38.517  33.942  38.500  1.00  0.00     0.198 A 
ATOM     67  F   UNL A   1      38.113  31.918  37.374  1.00  0.00    -0.203 F 
ATOM     68  F   UNL A   1      40.764  36.674  37.724  1.00  0.00    -0.200 F 
ATOM     69  C   UNL A   1      39.188  35.151  38.599  1.00  0.00     0.200 A 
ATOM     70  F   UNL A   1      37.622  33.596  39.436  1.00  0.00    -0.200 F 
ATOM     71  F   UNL A   1      38.959  35.963  39.641  1.00  0.00    -0.200 F 
ENDBRANCH  47  61
BRANCH  48  72
ATOM     72  C   UNL A   1      41.093  27.764  28.329  1.00  0.00     0.064 A 
ATOM     73  C   UNL A   1      41.927  28.183  27.282  1.00  0.00     0.173 A 
ATOM     74  C   UNL A   1      40.460  26.519  28.194  1.00  0.00     0.173 A 
ATOM     75  F   UNL A   1      42.540  29.375  27.350  1.00  0.00    -0.203 F 
ATOM     76  C   UNL A   1      42.100  27.403  26.140  1.00  0.00     0.198 A 
ATOM     77  C   UNL A   1      40.660  25.725  27.067  1.00  0.00     0.198 A 
ATOM     78  F   UNL A   1      39.652  26.068  29.165  1.00  0.00    -0.203 F 
ATOM     79  F   UNL A   1      42.860  27.855  25.132  1.00  0.00    -0.200 F 
ATOM     80  C   UNL A   1      41.472  26.172  26.036  1.00  0.00     0.200 A 
ATOM     81  F   UNL A   1      40.064  24.528  26.979  1.00  0.00    -0.200 F 
ATOM     82  F   UNL A   1      41.642  25.420  24.939  1.00  0.00    -0.200 F 
ENDBRANCH  48  72
BRANCH  60  83
ATOM     83  C   UNL A   1      44.068  27.980  34.628  1.00  0.00     0.064 A 
ATOM     84  C   UNL A   1      43.796  26.791  35.323  1.00  0.00     0.173 A 
ATOM     85  C   UNL A   1      45.409  28.383  34.524  1.00  0.00     0.173 A 
ATOM     86  F   UNL A   1      42.531  26.365  35.463  1.00  0.00    -0.203 F 
ATOM     87  C   UNL A   1      44.819  26.059  35.922  1.00  0.00     0.198 A 
ATOM     88  C   UNL A   1      46.432  27.630  35.092  1.00  0.00     0.198 A 
ATOM     89  F   UNL A   1      45.729  29.507  33.865  1.00  0.00    -0.203 F 
ATOM     90  F   UNL A   1      44.526  24.963  36.635  1.00  0.00    -0.200 F 
ATOM     91  C   UNL A   1      46.136  26.475  35.802  1.00  0.00     0.200 A 
ATOM     92  F   UNL A   1      47.706  28.024  34.960  1.00  0.00    -0.200 F 
ATOM     93  F   UNL A   1      47.119  25.770  36.377  1.00  0.00    -0.200 F 
ENDBRANCH  60  83
ENDBRANCH  34  35
ENDBRANCH  26  29
ENDBRANCH  24  25
ENDBRANCH  23  24
ENDBRANCH   1  23
TORSDOF 14
ENDMDL
MODEL 2
REMARK VINA RESULT:     -11.4      1.877      3.283
REMARK SMILES CC[C@@](C)(NS(=O)(=O)c1ccc(F)c(Cl)c1)C(=O)NCCCNC(=O)c1ccc(-c2c3nc(c(-c4c(F)c(F)c(F)c(F)c4F)c4ccc([nH]4)c(-c4c(F)c(F)c(F)c(F)c4F)c4nc(c(-c5c(F)c(F)c(F)c(F)c5F)c5ccc2[nH]5)C=C4)C=C3)cc1
REMARK SMILES IDX 20 1 19 2 17 3 18 4 3 6 4 7 2 8 1 9 5 10 6 12 7 13 8 14 9 15
REMARK SMILES IDX 10 16 16 17 11 18 14 19 12 20 15 21 13 22 21 23 22 24 23 25
REMARK SMILES IDX 24 26 25 28 26 29 27 30 88 31 28 32 87 33 29 34 30 35 31 36
REMARK SMILES IDX 81 37 32 38 86 39 80 40 82 41 33 42 85 43 79 44 78 45 34 47
REMARK SMILES IDX 66 48 46 49 65 50 47 51 50 52 64 53 83 54 48 55 49 56 63 58
REMARK SMILES IDX 84 59 51 60 35 61 36 62 44 63 37 64 38 65 42 66 45 67 39 68
REMARK SMILES IDX 40 69 43 70 41 71 67 72 68 73 76 74 69 75 70 76 74 77 77 78
REMARK SMILES IDX 71 79 72 80 75 81 73 82 52 83 53 84 61 85 54 86 55 87 59 88
REMARK SMILES IDX 62 89 56 90 57 91 60 92 58 93
REMARK H PARENT 19 5 5 11 23 27 82 46 50 57
REMARK Flexibility Score: inf
ROOT
ATOM      1  C   UNL A   1      31.420  27.407  26.633  1.00  0.00     0.117 C 
ENDROOT
BRANCH   1   2
ATOM      2  N   UNL A   1      31.020  26.001  26.498  1.00  0.00    -0.354 N 
ATOM      3  C   UNL A   1      30.781  25.076  25.514  1.00  0.00     0.241 C 
ATOM      4  O   UNL A   1      30.617  23.925  25.949  1.00  0.00    -0.273 OA
ATOM      5  H   UNL A   1      30.878  25.599  27.386  1.00  0.00     0.163 HD
BRANCH   3   6
ATOM      6  C   UNL A   1      30.596  25.333  23.995  1.00  0.00     0.108 C 
ATOM      7  C   UNL A   1      30.278  24.040  23.238  1.00  0.00     0.040 C 
BRANCH   6   8
ATOM      8  C   UNL A   1      29.399  26.340  23.702  1.00  0.00     0.030 C 
ATOM      9  C   UNL A   1      29.689  27.777  23.293  1.00  0.00     0.006 C 
ENDBRANCH   6   8
BRANCH   6  10
ATOM     10  N   UNL A   1      31.712  26.053  23.333  1.00  0.00    -0.196 NA
ATOM     11  H   UNL A   1      31.817  26.900  23.893  1.00  0.00     0.142 HD
BRANCH  10  12
ATOM     12  S   UNL A   1      33.269  25.608  23.007  1.00  0.00     0.241 S 
ATOM     13  O   UNL A   1      33.282  24.974  21.706  1.00  0.00    -0.207 OA
ATOM     14  O   UNL A   1      34.034  26.812  23.215  1.00  0.00    -0.207 OA
BRANCH  12  15
ATOM     15  C   UNL A   1      33.858  24.415  24.194  1.00  0.00     0.084 A 
ATOM     16  C   UNL A   1      34.748  24.774  25.204  1.00  0.00     0.025 A 
ATOM     17  C   UNL A   1      33.649  23.056  23.957  1.00  0.00     0.045 A 
ATOM     18  C   UNL A   1      35.361  23.774  25.977  1.00  0.00     0.042 A 
ATOM     19  C   UNL A   1      34.199  22.061  24.754  1.00  0.00     0.078 A 
ATOM     20  C   UNL A   1      35.074  22.425  25.758  1.00  0.00     0.141 A 
ATOM     21  Cl  UNL A   1      33.812  20.414  24.436  1.00  0.00    -0.081 Cl
ATOM     22  F   UNL A   1      35.688  21.490  26.497  1.00  0.00    -0.205 F 
ENDBRANCH  12  15
ENDBRANCH  10  12
ENDBRANCH   6  10
ENDBRANCH   3   6
ENDBRANCH   1   2
BRANCH   1  23
ATOM     23  C   UNL A   1      32.866  27.937  26.369  1.00  0.00     0.042 C 
BRANCH  23  24
ATOM     24  C   UNL A   1      33.276  29.167  25.530  1.00  0.00     0.118 C 
BRANCH  24  25
ATOM     25  N   UNL A   1      32.760  30.444  25.977  1.00  0.00    -0.352 N 
ATOM     26  C   UNL A   1      33.265  31.269  26.962  1.00  0.00     0.251 C 
ATOM     27  H   UNL A   1      31.948  30.764  25.522  1.00  0.00     0.163 HD
ATOM     28  O   UNL A   1      32.615  32.244  27.332  1.00  0.00    -0.269 OA
BRANCH  26  29
ATOM     29  C   UNL A   1      34.566  30.988  27.627  1.00  0.00     0.039 A 
ATOM     30  C   UNL A   1      34.717  29.777  28.310  1.00  0.00     0.014 A 
ATOM     31  C   UNL A   1      35.581  31.947  27.703  1.00  0.00     0.014 A 
ATOM     32  C   UNL A   1      35.888  29.513  29.032  1.00  0.00     0.010 A 
ATOM     33  C   UNL A   1      36.767  31.671  28.407  1.00  0.00     0.010 A 
ATOM     34  C   UNL A   1      36.936  30.450  29.081  1.00  0.00    -0.014 A 
BRANCH  34  35
ATOM     35  C   UNL A   1      38.193  30.108  29.815  1.00  0.00     0.031 A 
ATOM     36  C   UNL A   1      38.455  30.607  31.212  1.00  0.00     0.074 A 
ATOM     37  C   UNL A   1      39.096  29.297  29.226  1.00  0.00     0.049 A 
ATOM     38  N   UNL A   1      39.429  30.295  32.036  1.00  0.00    -0.248 NA
ATOM     39  C   UNL A   1      37.508  31.590  31.754  1.00  0.00     0.031 C 
ATOM     40  C   UNL A   1      38.990  28.779  27.862  1.00  0.00     0.029 A 
ATOM     41  N   UNL A   1      40.267  28.750  29.698  1.00  0.00    -0.354 N 
ATOM     42  C   UNL A   1      39.206  31.033  33.193  1.00  0.00     0.074 A 
ATOM     43  C   UNL A   1      38.036  31.850  32.944  1.00  0.00     0.031 C 
ATOM     44  C   UNL A   1      40.022  27.955  27.623  1.00  0.00     0.029 A 
ATOM     45  C   UNL A   1      40.882  27.908  28.802  1.00  0.00     0.049 A 
ATOM     46  H   UNL A   1      40.629  28.942  30.593  1.00  0.00     0.167 HD
ATOM     47  C   UNL A   1      39.897  31.015  34.361  1.00  0.00     0.037 A 
ATOM     48  C   UNL A   1      42.004  27.171  28.916  1.00  0.00     0.037 A 
ATOM     49  C   UNL A   1      41.067  30.205  34.604  1.00  0.00     0.049 A 
ATOM     50  C   UNL A   1      42.762  27.181  30.218  1.00  0.00     0.074 A 
ATOM     51  C   UNL A   1      41.811  30.089  35.767  1.00  0.00     0.029 A 
ATOM     52  N   UNL A   1      41.671  29.384  33.664  1.00  0.00    -0.354 N 
ATOM     53  N   UNL A   1      42.489  27.817  31.331  1.00  0.00    -0.248 NA
ATOM     54  C   UNL A   1      43.979  26.360  30.282  1.00  0.00     0.031 C 
ATOM     55  C   UNL A   1      42.899  29.246  35.511  1.00  0.00     0.029 A 
ATOM     56  C   UNL A   1      42.795  28.782  34.211  1.00  0.00     0.049 A 
ATOM     57  H   UNL A   1      41.349  29.248  32.743  1.00  0.00     0.167 HD
ATOM     58  C   UNL A   1      43.479  27.452  32.234  1.00  0.00     0.074 A 
ATOM     59  C   UNL A   1      44.346  26.519  31.545  1.00  0.00     0.031 C 
ATOM     60  C   UNL A   1      43.655  27.854  33.517  1.00  0.00     0.037 A 
BRANCH  47  61
ATOM     61  C   UNL A   1      39.412  31.905  35.474  1.00  0.00     0.064 A 
ATOM     62  C   UNL A   1      38.513  31.443  36.449  1.00  0.00     0.173 A 
ATOM     63  C   UNL A   1      39.886  33.220  35.598  1.00  0.00     0.173 A 
ATOM     64  F   UNL A   1      38.027  30.195  36.382  1.00  0.00    -0.203 F 
ATOM     65  C   UNL A   1      38.081  32.273  37.482  1.00  0.00     0.198 A 
ATOM     66  C   UNL A   1      39.478  34.037  36.651  1.00  0.00     0.198 A 
ATOM     67  F   UNL A   1      40.758  33.712  34.706  1.00  0.00    -0.203 F 
ATOM     68  F   UNL A   1      37.184  31.824  38.370  1.00  0.00    -0.200 F 
ATOM     69  C   UNL A   1      38.568  33.567  37.585  1.00  0.00     0.200 A 
ATOM     70  F   UNL A   1      39.966  35.281  36.761  1.00  0.00    -0.200 F 
ATOM     71  F   UNL A   1      38.159  34.362  38.584  1.00  0.00    -0.200 F 
ENDBRANCH  47  61
BRANCH  48  72
ATOM     72  C   UNL A   1      42.470  26.337  27.773  1.00  0.00     0.064 A 
ATOM     73  C   UNL A   1      41.956  25.051  27.553  1.00  0.00     0.173 A 
ATOM     74  C   UNL A   1      43.450  26.805  26.885  1.00  0.00     0.173 A 
ATOM     75  F   UNL A   1      41.032  24.547  28.385  1.00  0.00    -0.203 F 
ATOM     76  C   UNL A   1      42.421  24.257  26.506  1.00  0.00     0.198 A 
ATOM     77  C   UNL A   1      43.889  26.024  25.819  1.00  0.00     0.198 A 
ATOM     78  F   UNL A   1      43.975  28.028  27.048  1.00  0.00    -0.203 F 
ATOM     79  F   UNL A   1      41.951  23.011  26.353  1.00  0.00    -0.200 F 
ATOM     80  C   UNL A   1      43.382  24.747  25.635  1.00  0.00     0.200 A 
ATOM     81  F   UNL A   1      44.807  26.508  24.969  1.00  0.00    -0.200 F 
ATOM     82  F   UNL A   1      43.826  23.984  24.626  1.00  0.00    -0.200 F 
ENDBRANCH  48  72
BRANCH  60  83
ATOM     83  C   UNL A   1      44.813  27.261  34.272  1.00  0.00     0.064 A 
ATOM     84  C   UNL A   1      44.694  26.061  34.990  1.00  0.00     0.173 A 
ATOM     85  C   UNL A   1      46.066  27.894  34.261  1.00  0.00     0.173 A 
ATOM     86  F   UNL A   1      43.517  25.420  35.046  1.00  0.00    -0.203 F 
ATOM     87  C   UNL A   1      45.774  25.539  35.700  1.00  0.00     0.198 A 
ATOM     88  C   UNL A   1      47.153  27.350  34.941  1.00  0.00     0.198 A 
ATOM     89  F   UNL A   1      46.240  29.039  33.584  1.00  0.00    -0.203 F 
ATOM     90  F   UNL A   1      45.617  24.427  36.432  1.00  0.00    -0.200 F 
ATOM     91  C   UNL A   1      47.002  26.180  35.671  1.00  0.00     0.200 A 
ATOM     92  F   UNL A   1      48.344  27.962  34.897  1.00  0.00    -0.200 F 
ATOM     93  F   UNL A   1      48.040  25.677  36.353  1.00  0.00    -0.200 F 
ENDBRANCH  60  83
ENDBRANCH  34  35
ENDBRANCH  26  29
ENDBRANCH  24  25
ENDBRANCH  23  24
ENDBRANCH   1  23
TORSDOF 14
ENDMDL
MODEL 3
REMARK VINA RESULT:     -11.4      2.210      3.678
REMARK SMILES CC[C@@](C)(NS(=O)(=O)c1ccc(F)c(Cl)c1)C(=O)NCCCNC(=O)c1ccc(-c2c3nc(c(-c4c(F)c(F)c(F)c(F)c4F)c4ccc([nH]4)c(-c4c(F)c(F)c(F)c(F)c4F)c4nc(c(-c5c(F)c(F)c(F)c(F)c5F)c5ccc2[nH]5)C=C4)C=C3)cc1
REMARK SMILES IDX 20 1 19 2 17 3 18 4 3 6 4 7 2 8 1 9 5 10 6 12 7 13 8 14 9 15
REMARK SMILES IDX 10 16 16 17 11 18 14 19 12 20 15 21 13 22 21 23 22 24 23 25
REMARK SMILES IDX 24 26 25 28 26 29 27 30 88 31 28 32 87 33 29 34 30 35 31 36
REMARK SMILES IDX 81 37 32 38 86 39 80 40 82 41 33 42 85 43 79 44 78 45 34 47
REMARK SMILES IDX 66 48 46 49 65 50 47 51 50 52 64 53 83 54 48 55 49 56 63 58
REMARK SMILES IDX 84 59 51 60 35 61 36 62 44 63 37 64 38 65 42 66 45 67 39 68
REMARK SMILES IDX 40 69 43 70 41 71 67 72 68 73 76 74 69 75 70 76 74 77 77 78
REMARK SMILES IDX 71 79 72 80 75 81 73 82 52 83 53 84 61 85 54 86 55 87 59 88
REMARK SMILES IDX 62 89 56 90 57 91 60 92 58 93
REMARK H PARENT 19 5 5 11 23 27 82 46 50 57
REMARK Flexibility Score: inf
ROOT
ATOM      1  C   UNL A   1      31.386  26.631  25.710  1.00  0.00     0.117 C 
ENDROOT
BRANCH   1   2
ATOM      2  N   UNL A   1      30.895  25.386  26.312  1.00  0.00    -0.354 N 
ATOM      3  C   UNL A   1      31.319  24.101  26.540  1.00  0.00     0.241 C 
ATOM      4  O   UNL A   1      30.551  23.451  27.266  1.00  0.00    -0.273 OA
ATOM      5  H   UNL A   1      29.982  25.510  26.659  1.00  0.00     0.163 HD
BRANCH   3   6
ATOM      6  C   UNL A   1      32.548  23.384  25.920  1.00  0.00     0.108 C 
ATOM      7  C   UNL A   1      33.779  23.489  26.826  1.00  0.00     0.040 C 
BRANCH   6   8
ATOM      8  C   UNL A   1      32.281  21.833  25.691  1.00  0.00     0.030 C 
ATOM      9  C   UNL A   1      33.314  20.805  26.128  1.00  0.00     0.006 C 
ENDBRANCH   6   8
BRANCH   6  10
ATOM     10  N   UNL A   1      32.893  23.799  24.538  1.00  0.00    -0.196 NA
ATOM     11  H   UNL A   1      32.149  24.451  24.290  1.00  0.00     0.142 HD
BRANCH  10  12
ATOM     12  S   UNL A   1      34.249  24.496  23.903  1.00  0.00     0.241 S 
ATOM     13  O   UNL A   1      34.132  24.452  22.462  1.00  0.00    -0.207 OA
ATOM     14  O   UNL A   1      34.336  25.773  24.568  1.00  0.00    -0.207 OA
BRANCH  12  15
ATOM     15  C   UNL A   1      35.712  23.583  24.354  1.00  0.00     0.084 A 
ATOM     16  C   UNL A   1      35.885  22.255  23.969  1.00  0.00     0.025 A 
ATOM     17  C   UNL A   1      36.568  24.100  25.327  1.00  0.00     0.045 A 
ATOM     18  C   UNL A   1      36.934  21.502  24.526  1.00  0.00     0.042 A 
ATOM     19  C   UNL A   1      37.645  23.388  25.837  1.00  0.00     0.078 A 
ATOM     20  C   UNL A   1      37.815  22.076  25.444  1.00  0.00     0.141 A 
ATOM     21  Cl  UNL A   1      38.697  24.144  26.969  1.00  0.00    -0.081 Cl
ATOM     22  F   UNL A   1      38.795  21.329  25.974  1.00  0.00    -0.205 F 
ENDBRANCH  12  15
ENDBRANCH  10  12
ENDBRANCH   6  10
ENDBRANCH   3   6
ENDBRANCH   1   2
BRANCH   1  23
ATOM     23  C   UNL A   1      31.987  27.823  26.524  1.00  0.00     0.042 C 
BRANCH  23  24
ATOM     24  C   UNL A   1      32.976  28.897  26.022  1.00  0.00     0.118 C 
BRANCH  24  25
ATOM     25  N   UNL A   1      32.577  30.275  26.223  1.00  0.00    -0.352 N 
ATOM     26  C   UNL A   1      33.188  31.232  27.008  1.00  0.00     0.251 C 
ATOM     27  H   UNL A   1      31.769  30.564  25.741  1.00  0.00     0.163 HD
ATOM     28  O   UNL A   1      32.630  32.310  27.199  1.00  0.00    -0.269 OA
BRANCH  26  29
ATOM     29  C   UNL A   1      34.496  30.982  27.672  1.00  0.00     0.039 A 
ATOM     30  C   UNL A   1      34.685  29.762  28.330  1.00  0.00     0.014 A 
ATOM     31  C   UNL A   1      35.478  31.972  27.771  1.00  0.00     0.014 A 
ATOM     32  C   UNL A   1      35.863  29.523  29.051  1.00  0.00     0.010 A 
ATOM     33  C   UNL A   1      36.670  31.722  28.475  1.00  0.00     0.010 A 
ATOM     34  C   UNL A   1      36.878  30.493  29.124  1.00  0.00    -0.014 A 
BRANCH  34  35
ATOM     35  C   UNL A   1      38.143  30.179  29.855  1.00  0.00     0.031 A 
ATOM     36  C   UNL A   1      38.395  30.679  31.254  1.00  0.00     0.074 A 
ATOM     37  C   UNL A   1      39.065  29.391  29.263  1.00  0.00     0.049 A 
ATOM     38  N   UNL A   1      39.377  30.388  32.075  1.00  0.00    -0.248 NA
ATOM     39  C   UNL A   1      37.426  31.638  31.800  1.00  0.00     0.031 C 
ATOM     40  C   UNL A   1      38.970  28.875  27.898  1.00  0.00     0.029 A 
ATOM     41  N   UNL A   1      40.248  28.870  29.732  1.00  0.00    -0.354 N 
ATOM     42  C   UNL A   1      39.138  31.116  33.235  1.00  0.00     0.074 A 
ATOM     43  C   UNL A   1      37.949  31.906  32.990  1.00  0.00     0.031 C 
ATOM     44  C   UNL A   1      40.020  28.077  27.654  1.00  0.00     0.029 A 
ATOM     45  C   UNL A   1      40.883  28.045  28.833  1.00  0.00     0.049 A 
ATOM     46  H   UNL A   1      40.608  29.068  30.627  1.00  0.00     0.167 HD
ATOM     47  C   UNL A   1      39.830  31.111  34.402  1.00  0.00     0.037 A 
ATOM     48  C   UNL A   1      42.022  27.334  28.944  1.00  0.00     0.037 A 
ATOM     49  C   UNL A   1      41.019  30.328  34.642  1.00  0.00     0.049 A 
ATOM     50  C   UNL A   1      42.780  27.359  30.245  1.00  0.00     0.074 A 
ATOM     51  C   UNL A   1      41.767  30.225  35.804  1.00  0.00     0.029 A 
ATOM     52  N   UNL A   1      41.642  29.524  33.699  1.00  0.00    -0.354 N 
ATOM     53  N   UNL A   1      42.494  27.984  31.360  1.00  0.00    -0.248 NA
ATOM     54  C   UNL A   1      44.017  26.566  30.305  1.00  0.00     0.031 C 
ATOM     55  C   UNL A   1      42.875  29.409  35.544  1.00  0.00     0.029 A 
ATOM     56  C   UNL A   1      42.780  28.947  34.243  1.00  0.00     0.049 A 
ATOM     57  H   UNL A   1      41.322  29.384  32.778  1.00  0.00     0.167 HD
ATOM     58  C   UNL A   1      43.493  27.639  32.261  1.00  0.00     0.074 A 
ATOM     59  C   UNL A   1      44.381  26.729  31.569  1.00  0.00     0.031 C 
ATOM     60  C   UNL A   1      43.660  28.042  33.545  1.00  0.00     0.037 A 
BRANCH  47  61
ATOM     61  C   UNL A   1      39.325  31.986  35.519  1.00  0.00     0.064 A 
ATOM     62  C   UNL A   1      38.444  31.498  36.497  1.00  0.00     0.173 A 
ATOM     63  C   UNL A   1      39.764  33.313  35.643  1.00  0.00     0.173 A 
ATOM     64  F   UNL A   1      37.990  30.237  36.429  1.00  0.00    -0.203 F 
ATOM     65  C   UNL A   1      37.993  32.315  37.533  1.00  0.00     0.198 A 
ATOM     66  C   UNL A   1      39.339  34.117  36.699  1.00  0.00     0.198 A 
ATOM     67  F   UNL A   1      40.620  33.830  34.749  1.00  0.00    -0.203 F 
ATOM     68  F   UNL A   1      37.111  31.840  38.423  1.00  0.00    -0.200 F 
ATOM     69  C   UNL A   1      38.446  33.621  37.636  1.00  0.00     0.200 A 
ATOM     70  F   UNL A   1      39.793  35.373  36.810  1.00  0.00    -0.200 F 
ATOM     71  F   UNL A   1      38.019  34.404  38.638  1.00  0.00    -0.200 F 
ENDBRANCH  47  61
BRANCH  48  72
ATOM     72  C   UNL A   1      42.505  26.516  27.798  1.00  0.00     0.064 A 
ATOM     73  C   UNL A   1      43.317  27.071  26.797  1.00  0.00     0.173 A 
ATOM     74  C   UNL A   1      42.153  25.164  27.671  1.00  0.00     0.173 A 
ATOM     75  F   UNL A   1      43.665  28.365  26.858  1.00  0.00    -0.203 F 
ATOM     76  C   UNL A   1      43.736  26.314  25.705  1.00  0.00     0.198 A 
ATOM     77  C   UNL A   1      42.601  24.399  26.597  1.00  0.00     0.198 A 
ATOM     78  F   UNL A   1      41.380  24.581  28.599  1.00  0.00    -0.203 F 
ATOM     79  F   UNL A   1      44.465  26.885  24.736  1.00  0.00    -0.200 F 
ATOM     80  C   UNL A   1      43.384  24.976  25.609  1.00  0.00     0.200 A 
ATOM     81  F   UNL A   1      42.272  23.102  26.517  1.00  0.00    -0.200 F 
ATOM     82  F   UNL A   1      43.791  24.247  24.560  1.00  0.00    -0.200 F 
ENDBRANCH  48  72
BRANCH  60  83
ATOM     83  C   UNL A   1      44.833  27.473  34.297  1.00  0.00     0.064 A 
ATOM     84  C   UNL A   1      46.041  28.176  34.429  1.00  0.00     0.173 A 
ATOM     85  C   UNL A   1      44.741  26.214  34.909  1.00  0.00     0.173 A 
ATOM     86  F   UNL A   1      46.189  29.379  33.853  1.00  0.00    -0.203 F 
ATOM     87  C   UNL A   1      47.123  27.623  35.110  1.00  0.00     0.198 A 
ATOM     88  C   UNL A   1      45.811  25.680  35.622  1.00  0.00     0.198 A 
ATOM     89  F   UNL A   1      43.608  25.500  34.823  1.00  0.00    -0.203 F 
ATOM     90  F   UNL A   1      48.286  28.286  35.166  1.00  0.00    -0.200 F 
ATOM     91  C   UNL A   1      47.006  26.380  35.711  1.00  0.00     0.200 A 
ATOM     92  F   UNL A   1      45.691  24.485  36.216  1.00  0.00    -0.200 F 
ATOM     93  F   UNL A   1      48.047  25.850  36.368  1.00  0.00    -0.200 F 
ENDBRANCH  60  83
ENDBRANCH  34  35
ENDBRANCH  26  29
ENDBRANCH  24  25
ENDBRANCH  23  24
ENDBRANCH   1  23
TORSDOF 14
ENDMDL
