MODEL 1
REMARK VINA RESULT:     -13.1      0.000      0.000
REMARK SMILES CC[C@@H](C)[C@H](NC(=O)NCc1ccc(C)cc1)C(=O)NCCCNC(=O)c1ccc(-c2c3nc(c(-c4c(F)c(F)c(F)c(F)c4F)c4ccc([nH]4)c(-c4c(F)c(F)c(F)c(F)c4F)c4nc(c(-c5c(F)c(F)c(F)c(F)c5F)c5ccc2[nH]5)C=C4)C=C3)cc1
REMARK SMILES IDX 21 1 20 2 18 3 19 4 5 6 3 7 4 8 2 9 1 10 6 11 7 12 8 14 9 15
REMARK SMILES IDX 10 17 11 18 12 19 17 20 13 21 16 22 14 23 15 24 22 25 23 26
REMARK SMILES IDX 24 27 25 28 26 30 27 31 28 32 89 33 29 34 88 35 30 36 31 37
REMARK SMILES IDX 32 38 82 39 33 40 87 41 81 42 83 43 34 44 86 45 80 46 79 47
REMARK SMILES IDX 35 49 67 50 47 51 66 52 48 53 51 54 65 55 84 56 49 57 50 58
REMARK SMILES IDX 64 60 85 61 52 62 36 63 37 64 45 65 38 66 39 67 43 68 46 69
REMARK SMILES IDX 40 70 41 71 44 72 42 73 68 74 69 75 77 76 70 77 71 78 75 79
REMARK SMILES IDX 78 80 72 81 73 82 76 83 74 84 53 85 54 86 62 87 55 88 56 89
REMARK SMILES IDX 60 90 63 91 57 92 58 93 61 94 59 95
REMARK H PARENT 20 5 6 13 9 16 24 29 83 48 51 59
REMARK Flexibility Score: inf
ROOT
ATOM      1  C   UNL A   1      31.896  30.064  25.377  1.00  0.00     0.117 C 
ENDROOT
BRANCH   1   2
ATOM      2  N   UNL A   1      32.980  29.139  25.091  1.00  0.00    -0.354 N 
ATOM      3  C   UNL A   1      33.077  28.061  24.264  1.00  0.00     0.242 C 
ATOM      4  O   UNL A   1      34.218  27.615  24.087  1.00  0.00    -0.273 OA
ATOM      5  H   UNL A   1      33.804  29.330  25.594  1.00  0.00     0.163 HD
BRANCH   3   6
ATOM      6  C   UNL A   1      31.890  27.469  23.461  1.00  0.00     0.175 C 
BRANCH   6   7
ATOM      7  C   UNL A   1      31.040  26.437  24.262  1.00  0.00     0.018 C 
ATOM      8  C   UNL A   1      29.539  26.468  23.969  1.00  0.00     0.010 C 
BRANCH   7   9
ATOM      9  C   UNL A   1      31.322  26.601  25.773  1.00  0.00     0.002 C 
ATOM     10  C   UNL A   1      31.593  25.291  26.501  1.00  0.00     0.004 C 
ENDBRANCH   7   9
ENDBRANCH   6   7
BRANCH   6  11
ATOM     11  N   UNL A   1      32.281  27.006  22.131  1.00  0.00    -0.326 N 
ATOM     12  C   UNL A   1      32.961  25.981  21.621  1.00  0.00     0.315 C 
ATOM     13  H   UNL A   1      31.956  27.612  21.427  1.00  0.00     0.166 HD
ATOM     14  O   UNL A   1      33.065  25.950  20.391  1.00  0.00    -0.249 OA
ATOM     15  N   UNL A   1      33.552  25.009  22.314  1.00  0.00    -0.334 N 
ATOM     16  H   UNL A   1      34.081  24.408  21.742  1.00  0.00     0.165 HD
BRANCH  15  17
ATOM     17  C   UNL A   1      33.599  24.628  23.709  1.00  0.00     0.153 C 
BRANCH  17  18
ATOM     18  C   UNL A   1      34.925  24.044  24.154  1.00  0.00    -0.029 A 
ATOM     19  C   UNL A   1      35.378  24.324  25.454  1.00  0.00     0.006 A 
ATOM     20  C   UNL A   1      35.658  23.132  23.381  1.00  0.00     0.006 A 
ATOM     21  C   UNL A   1      36.522  23.705  25.966  1.00  0.00     0.004 A 
ATOM     22  C   UNL A   1      36.810  22.523  23.889  1.00  0.00     0.004 A 
ATOM     23  C   UNL A   1      37.245  22.796  25.189  1.00  0.00    -0.051 A 
ATOM     24  C   UNL A   1      38.440  22.097  25.767  1.00  0.00     0.044 C 
ENDBRANCH  17  18
ENDBRANCH  15  17
ENDBRANCH   6  11
ENDBRANCH   3   6
ENDBRANCH   1   2
BRANCH   1  25
ATOM     25  C   UNL A   1      32.036  30.766  26.716  1.00  0.00     0.042 C 
BRANCH  25  26
ATOM     26  C   UNL A   1      33.306  30.370  27.440  1.00  0.00     0.118 C 
BRANCH  26  27
ATOM     27  N   UNL A   1      33.946  31.443  28.202  1.00  0.00    -0.352 N 
ATOM     28  C   UNL A   1      35.156  31.397  28.887  1.00  0.00     0.251 C 
ATOM     29  H   UNL A   1      33.463  32.300  28.233  1.00  0.00     0.163 HD
ATOM     30  O   UNL A   1      35.594  32.368  29.477  1.00  0.00    -0.269 OA
BRANCH  28  31
ATOM     31  C   UNL A   1      35.959  30.156  28.772  1.00  0.00     0.039 A 
ATOM     32  C   UNL A   1      36.408  29.556  29.950  1.00  0.00     0.014 A 
ATOM     33  C   UNL A   1      36.530  29.844  27.544  1.00  0.00     0.014 A 
ATOM     34  C   UNL A   1      37.613  28.858  29.925  1.00  0.00     0.010 A 
ATOM     35  C   UNL A   1      37.792  29.289  27.547  1.00  0.00     0.010 A 
ATOM     36  C   UNL A   1      38.362  28.850  28.748  1.00  0.00    -0.014 A 
BRANCH  36  37
ATOM     37  C   UNL A   1      39.779  28.500  28.710  1.00  0.00     0.031 A 
ATOM     38  C   UNL A   1      40.189  27.123  28.359  1.00  0.00     0.074 A 
ATOM     39  C   UNL A   1      40.723  29.444  28.933  1.00  0.00     0.049 A 
ATOM     40  N   UNL A   1      41.297  26.581  28.738  1.00  0.00    -0.248 NA
ATOM     41  C   UNL A   1      39.356  26.229  27.564  1.00  0.00     0.031 C 
ATOM     42  C   UNL A   1      42.165  29.321  28.715  1.00  0.00     0.029 A 
ATOM     43  N   UNL A   1      40.581  30.670  29.610  1.00  0.00    -0.354 N 
ATOM     44  C   UNL A   1      41.447  25.409  28.037  1.00  0.00     0.074 A 
ATOM     45  C   UNL A   1      40.192  25.212  27.350  1.00  0.00     0.031 C 
ATOM     46  C   UNL A   1      42.797  30.210  29.497  1.00  0.00     0.029 A 
ATOM     47  C   UNL A   1      41.790  30.846  30.325  1.00  0.00     0.049 A 
ATOM     48  H   UNL A   1      39.806  31.276  29.588  1.00  0.00     0.167 HD
ATOM     49  C   UNL A   1      42.660  24.789  28.003  1.00  0.00     0.037 A 
ATOM     50  C   UNL A   1      41.813  30.900  31.688  1.00  0.00     0.037 A 
ATOM     51  C   UNL A   1      43.638  25.472  28.839  1.00  0.00     0.049 A 
ATOM     52  C   UNL A   1      42.662  29.827  32.329  1.00  0.00     0.074 A 
ATOM     53  C   UNL A   1      44.636  26.392  28.560  1.00  0.00     0.029 A 
ATOM     54  N   UNL A   1      43.448  25.509  30.218  1.00  0.00    -0.354 N 
ATOM     55  N   UNL A   1      43.055  28.745  31.715  1.00  0.00    -0.248 NA
ATOM     56  C   UNL A   1      43.096  29.867  33.723  1.00  0.00     0.031 C 
ATOM     57  C   UNL A   1      45.008  27.023  29.771  1.00  0.00     0.029 A 
ATOM     58  C   UNL A   1      44.251  26.476  30.792  1.00  0.00     0.049 A 
ATOM     59  H   UNL A   1      42.827  24.928  30.715  1.00  0.00     0.167 HD
ATOM     60  C   UNL A   1      43.743  27.946  32.592  1.00  0.00     0.074 A 
ATOM     61  C   UNL A   1      43.761  28.703  33.829  1.00  0.00     0.031 C 
ATOM     62  C   UNL A   1      44.224  26.722  32.226  1.00  0.00     0.037 A 
BRANCH  49  63
ATOM     63  C   UNL A   1      42.983  23.756  26.955  1.00  0.00     0.064 A 
ATOM     64  C   UNL A   1      42.665  22.395  27.143  1.00  0.00     0.173 A 
ATOM     65  C   UNL A   1      43.693  24.046  25.776  1.00  0.00     0.173 A 
ATOM     66  F   UNL A   1      41.911  21.987  28.170  1.00  0.00    -0.203 F 
ATOM     67  C   UNL A   1      43.134  21.395  26.287  1.00  0.00     0.198 A 
ATOM     68  C   UNL A   1      44.214  23.043  24.954  1.00  0.00     0.198 A 
ATOM     69  F   UNL A   1      43.887  25.315  25.388  1.00  0.00    -0.203 F 
ATOM     70  F   UNL A   1      42.814  20.115  26.524  1.00  0.00    -0.200 F 
ATOM     71  C   UNL A   1      43.945  21.715  25.218  1.00  0.00     0.200 A 
ATOM     72  F   UNL A   1      44.993  23.373  23.913  1.00  0.00    -0.200 F 
ATOM     73  F   UNL A   1      44.452  20.751  24.439  1.00  0.00    -0.200 F 
ENDBRANCH  49  63
BRANCH  50  74
ATOM     74  C   UNL A   1      40.581  31.489  32.271  1.00  0.00     0.064 A 
ATOM     75  C   UNL A   1      40.358  32.870  32.103  1.00  0.00     0.173 A 
ATOM     76  C   UNL A   1      39.485  30.698  32.634  1.00  0.00     0.173 A 
ATOM     77  F   UNL A   1      41.377  33.674  31.755  1.00  0.00    -0.203 F 
ATOM     78  C   UNL A   1      39.077  33.413  32.163  1.00  0.00     0.198 A 
ATOM     79  C   UNL A   1      38.203  31.249  32.712  1.00  0.00     0.198 A 
ATOM     80  F   UNL A   1      39.625  29.375  32.790  1.00  0.00    -0.203 F 
ATOM     81  F   UNL A   1      38.884  34.707  31.871  1.00  0.00    -0.200 F 
ATOM     82  C   UNL A   1      37.996  32.595  32.441  1.00  0.00     0.200 A 
ATOM     83  F   UNL A   1      37.151  30.454  32.949  1.00  0.00    -0.200 F 
ATOM     84  F   UNL A   1      36.751  33.092  32.399  1.00  0.00    -0.200 F 
ENDBRANCH  50  74
BRANCH  62  85
ATOM     85  C   UNL A   1      44.808  25.681  33.151  1.00  0.00     0.064 A 
ATOM     86  C   UNL A   1      46.158  25.295  33.146  1.00  0.00     0.173 A 
ATOM     87  C   UNL A   1      44.022  25.133  34.194  1.00  0.00     0.173 A 
ATOM     88  F   UNL A   1      47.035  25.836  32.291  1.00  0.00    -0.203 F 
ATOM     89  C   UNL A   1      46.666  24.375  34.068  1.00  0.00     0.198 A 
ATOM     90  C   UNL A   1      44.546  24.261  35.148  1.00  0.00     0.198 A 
ATOM     91  F   UNL A   1      42.725  25.445  34.335  1.00  0.00    -0.203 F 
ATOM     92  F   UNL A   1      47.952  24.003  33.993  1.00  0.00    -0.200 F 
ATOM     93  C   UNL A   1      45.865  23.867  35.074  1.00  0.00     0.200 A 
ATOM     94  F   UNL A   1      43.768  23.822  36.148  1.00  0.00    -0.200 F 
ATOM     95  F   UNL A   1      46.368  23.020  35.981  1.00  0.00    -0.200 F 
ENDBRANCH  62  85
ENDBRANCH  36  37
ENDBRANCH  28  31
ENDBRANCH  26  27
ENDBRANCH  25  26
ENDBRANCH   1  25
TORSDOF 15
ENDMDL
MODEL 2
REMARK VINA RESULT:     -13.0      3.079      9.383
REMARK SMILES CC[C@@H](C)[C@H](NC(=O)NCc1ccc(C)cc1)C(=O)NCCCNC(=O)c1ccc(-c2c3nc(c(-c4c(F)c(F)c(F)c(F)c4F)c4ccc([nH]4)c(-c4c(F)c(F)c(F)c(F)c4F)c4nc(c(-c5c(F)c(F)c(F)c(F)c5F)c5ccc2[nH]5)C=C4)C=C3)cc1
REMARK SMILES IDX 21 1 20 2 18 3 19 4 5 6 3 7 4 8 2 9 1 10 6 11 7 12 8 14 9 15
REMARK SMILES IDX 10 17 11 18 12 19 17 20 13 21 16 22 14 23 15 24 22 25 23 26
REMARK SMILES IDX 24 27 25 28 26 30 27 31 28 32 89 33 29 34 88 35 30 36 31 37
REMARK SMILES IDX 32 38 82 39 33 40 87 41 81 42 83 43 34 44 86 45 80 46 79 47
REMARK SMILES IDX 35 49 67 50 47 51 66 52 48 53 51 54 65 55 84 56 49 57 50 58
REMARK SMILES IDX 64 60 85 61 52 62 36 63 37 64 45 65 38 66 39 67 43 68 46 69
REMARK SMILES IDX 40 70 41 71 44 72 42 73 68 74 69 75 77 76 70 77 71 78 75 79
REMARK SMILES IDX 78 80 72 81 73 82 76 83 74 84 53 85 54 86 62 87 55 88 56 89
REMARK SMILES IDX 60 90 63 91 57 92 58 93 61 94 59 95
REMARK H PARENT 20 5 6 13 9 16 24 29 83 48 51 59
REMARK Flexibility Score: inf
ROOT
ATOM      1  C   UNL A   1      36.064  21.031  25.221  1.00  0.00     0.117 C 
ENDROOT
BRANCH   1   2
ATOM      2  N   UNL A   1      35.622  21.650  26.459  1.00  0.00    -0.354 N 
ATOM      3  C   UNL A   1      34.500  22.346  26.792  1.00  0.00     0.242 C 
ATOM      4  O   UNL A   1      34.328  22.552  28.000  1.00  0.00    -0.273 OA
ATOM      5  H   UNL A   1      36.259  21.544  27.203  1.00  0.00     0.163 HD
BRANCH   3   6
ATOM      6  C   UNL A   1      33.402  22.765  25.779  1.00  0.00     0.175 C 
BRANCH   6   7
ATOM      7  C   UNL A   1      32.286  21.695  25.583  1.00  0.00     0.018 C 
ATOM      8  C   UNL A   1      32.490  20.756  24.393  1.00  0.00     0.010 C 
BRANCH   7   9
ATOM      9  C   UNL A   1      30.909  22.394  25.518  1.00  0.00     0.002 C 
ATOM     10  C   UNL A   1      30.515  23.115  26.801  1.00  0.00     0.004 C 
ENDBRANCH   7   9
ENDBRANCH   6   7
BRANCH   6  11
ATOM     11  N   UNL A   1      33.952  23.279  24.528  1.00  0.00    -0.326 N 
ATOM     12  C   UNL A   1      33.922  24.427  23.852  1.00  0.00     0.315 C 
ATOM     13  H   UNL A   1      34.485  22.597  24.060  1.00  0.00     0.166 HD
ATOM     14  O   UNL A   1      34.552  24.455  22.791  1.00  0.00    -0.249 OA
ATOM     15  N   UNL A   1      33.262  25.528  24.207  1.00  0.00    -0.334 N 
ATOM     16  H   UNL A   1      33.298  26.226  23.514  1.00  0.00     0.165 HD
BRANCH  15  17
ATOM     17  C   UNL A   1      32.505  25.940  25.369  1.00  0.00     0.153 C 
BRANCH  17  18
ATOM     18  C   UNL A   1      32.846  27.326  25.879  1.00  0.00    -0.029 A 
ATOM     19  C   UNL A   1      31.801  28.147  26.335  1.00  0.00     0.006 A 
ATOM     20  C   UNL A   1      34.163  27.780  26.042  1.00  0.00     0.006 A 
ATOM     21  C   UNL A   1      32.066  29.379  26.940  1.00  0.00     0.004 A 
ATOM     22  C   UNL A   1      34.427  29.018  26.636  1.00  0.00     0.004 A 
ATOM     23  C   UNL A   1      33.382  29.822  27.101  1.00  0.00    -0.051 A 
ATOM     24  C   UNL A   1      33.658  31.120  27.800  1.00  0.00     0.044 C 
ENDBRANCH  17  18
ENDBRANCH  15  17
ENDBRANCH   6  11
ENDBRANCH   3   6
ENDBRANCH   1   2
BRANCH   1  25
ATOM     25  C   UNL A   1      37.566  21.103  25.010  1.00  0.00     0.042 C 
BRANCH  25  26
ATOM     26  C   UNL A   1      38.183  22.305  25.694  1.00  0.00     0.118 C 
BRANCH  26  27
ATOM     27  N   UNL A   1      39.610  22.184  25.995  1.00  0.00    -0.352 N 
ATOM     28  C   UNL A   1      40.486  23.188  26.396  1.00  0.00     0.251 C 
ATOM     29  H   UNL A   1      39.996  21.283  25.902  1.00  0.00     0.163 HD
ATOM     30  O   UNL A   1      41.658  22.957  26.631  1.00  0.00    -0.269 OA
BRANCH  28  31
ATOM     31  C   UNL A   1      39.913  24.532  26.646  1.00  0.00     0.039 A 
ATOM     32  C   UNL A   1      40.608  25.641  26.157  1.00  0.00     0.014 A 
ATOM     33  C   UNL A   1      38.944  24.670  27.632  1.00  0.00     0.014 A 
ATOM     34  C   UNL A   1      40.526  26.840  26.859  1.00  0.00     0.010 A 
ATOM     35  C   UNL A   1      38.980  25.806  28.412  1.00  0.00     0.010 A 
ATOM     36  C   UNL A   1      39.819  26.871  28.061  1.00  0.00    -0.014 A 
BRANCH  36  37
ATOM     37  C   UNL A   1      39.984  27.928  29.054  1.00  0.00     0.031 A 
ATOM     38  C   UNL A   1      39.024  29.052  29.101  1.00  0.00     0.074 A 
ATOM     39  C   UNL A   1      40.974  27.855  29.974  1.00  0.00     0.049 A 
ATOM     40  N   UNL A   1      39.305  30.224  29.563  1.00  0.00    -0.248 NA
ATOM     41  C   UNL A   1      37.661  28.948  28.594  1.00  0.00     0.031 C 
ATOM     42  C   UNL A   1      41.143  28.695  31.160  1.00  0.00     0.029 A 
ATOM     43  N   UNL A   1      42.168  27.112  29.906  1.00  0.00    -0.354 N 
ATOM     44  C   UNL A   1      38.126  30.922  29.669  1.00  0.00     0.074 A 
ATOM     45  C   UNL A   1      37.136  30.101  29.013  1.00  0.00     0.031 C 
ATOM     46  C   UNL A   1      42.436  28.683  31.517  1.00  0.00     0.029 A 
ATOM     47  C   UNL A   1      43.154  27.932  30.504  1.00  0.00     0.049 A 
ATOM     48  H   UNL A   1      42.289  26.213  29.524  1.00  0.00     0.167 HD
ATOM     49  C   UNL A   1      38.079  32.063  30.413  1.00  0.00     0.037 A 
ATOM     50  C   UNL A   1      44.226  28.393  29.798  1.00  0.00     0.037 A 
ATOM     51  C   UNL A   1      39.390  32.421  30.937  1.00  0.00     0.049 A 
ATOM     52  C   UNL A   1      44.321  29.900  29.741  1.00  0.00     0.074 A 
ATOM     53  C   UNL A   1      40.000  32.216  32.164  1.00  0.00     0.029 A 
ATOM     54  N   UNL A   1      40.404  32.777  30.052  1.00  0.00    -0.354 N 
ATOM     55  N   UNL A   1      43.330  30.703  30.016  1.00  0.00    -0.248 NA
ATOM     56  C   UNL A   1      45.523  30.618  29.328  1.00  0.00     0.031 C 
ATOM     57  C   UNL A   1      41.394  32.398  32.001  1.00  0.00     0.029 A 
ATOM     58  C   UNL A   1      41.633  32.731  30.680  1.00  0.00     0.049 A 
ATOM     59  H   UNL A   1      40.264  33.027  29.110  1.00  0.00     0.167 HD
ATOM     60  C   UNL A   1      43.719  32.000  29.800  1.00  0.00     0.074 A 
ATOM     61  C   UNL A   1      45.107  31.896  29.393  1.00  0.00     0.031 C 
ATOM     62  C   UNL A   1      42.857  33.047  29.960  1.00  0.00     0.037 A 
BRANCH  49  63
ATOM     63  C   UNL A   1      36.768  32.635  30.887  1.00  0.00     0.064 A 
ATOM     64  C   UNL A   1      36.002  33.491  30.070  1.00  0.00     0.173 A 
ATOM     65  C   UNL A   1      36.262  32.438  32.185  1.00  0.00     0.173 A 
ATOM     66  F   UNL A   1      36.310  33.693  28.784  1.00  0.00    -0.203 F 
ATOM     67  C   UNL A   1      34.896  34.193  30.556  1.00  0.00     0.198 A 
ATOM     68  C   UNL A   1      35.195  33.185  32.690  1.00  0.00     0.198 A 
ATOM     69  F   UNL A   1      36.788  31.503  32.990  1.00  0.00    -0.203 F 
ATOM     70  F   UNL A   1      34.215  35.008  29.738  1.00  0.00    -0.200 F 
ATOM     71  C   UNL A   1      34.520  34.074  31.878  1.00  0.00     0.200 A 
ATOM     72  F   UNL A   1      34.836  33.049  33.975  1.00  0.00    -0.200 F 
ATOM     73  F   UNL A   1      33.503  34.800  32.362  1.00  0.00    -0.200 F 
ENDBRANCH  49  63
BRANCH  50  74
ATOM     74  C   UNL A   1      44.667  27.461  28.729  1.00  0.00     0.064 A 
ATOM     75  C   UNL A   1      45.264  26.244  29.112  1.00  0.00     0.173 A 
ATOM     76  C   UNL A   1      44.187  27.559  27.418  1.00  0.00     0.173 A 
ATOM     77  F   UNL A   1      45.742  26.096  30.359  1.00  0.00    -0.203 F 
ATOM     78  C   UNL A   1      45.262  25.135  28.268  1.00  0.00     0.198 A 
ATOM     79  C   UNL A   1      44.203  26.451  26.568  1.00  0.00     0.198 A 
ATOM     80  F   UNL A   1      43.590  28.683  26.997  1.00  0.00    -0.203 F 
ATOM     81  F   UNL A   1      45.723  23.957  28.711  1.00  0.00    -0.200 F 
ATOM     82  C   UNL A   1      44.706  25.233  27.005  1.00  0.00     0.200 A 
ATOM     83  F   UNL A   1      43.636  26.533  25.356  1.00  0.00    -0.200 F 
ATOM     84  F   UNL A   1      44.609  24.144  26.230  1.00  0.00    -0.200 F 
ENDBRANCH  50  74
BRANCH  62  85
ATOM     85  C   UNL A   1      43.112  34.479  29.557  1.00  0.00     0.064 A 
ATOM     86  C   UNL A   1      43.289  35.533  30.468  1.00  0.00     0.173 A 
ATOM     87  C   UNL A   1      43.330  34.809  28.196  1.00  0.00     0.173 A 
ATOM     88  F   UNL A   1      43.234  35.327  31.791  1.00  0.00    -0.203 F 
ATOM     89  C   UNL A   1      43.590  36.832  30.047  1.00  0.00     0.198 A 
ATOM     90  C   UNL A   1      43.688  36.093  27.784  1.00  0.00     0.198 A 
ATOM     91  F   UNL A   1      43.227  33.890  27.225  1.00  0.00    -0.203 F 
ATOM     92  F   UNL A   1      43.703  37.813  30.954  1.00  0.00    -0.200 F 
ATOM     93  C   UNL A   1      43.799  37.110  28.709  1.00  0.00     0.200 A 
ATOM     94  F   UNL A   1      43.941  36.331  26.490  1.00  0.00    -0.200 F 
ATOM     95  F   UNL A   1      44.130  38.346  28.316  1.00  0.00    -0.200 F 
ENDBRANCH  62  85
ENDBRANCH  36  37
ENDBRANCH  28  31
ENDBRANCH  26  27
ENDBRANCH  25  26
ENDBRANCH   1  25
TORSDOF 15
ENDMDL
MODEL 3
REMARK VINA RESULT:     -12.9      3.917      9.827
REMARK SMILES CC[C@@H](C)[C@H](NC(=O)NCc1ccc(C)cc1)C(=O)NCCCNC(=O)c1ccc(-c2c3nc(c(-c4c(F)c(F)c(F)c(F)c4F)c4ccc([nH]4)c(-c4c(F)c(F)c(F)c(F)c4F)c4nc(c(-c5c(F)c(F)c(F)c(F)c5F)c5ccc2[nH]5)C=C4)C=C3)cc1
REMARK SMILES IDX 21 1 20 2 18 3 19 4 5 6 3 7 4 8 2 9 1 10 6 11 7 12 8 14 9 15
REMARK SMILES IDX 10 17 11 18 12 19 17 20 13 21 16 22 14 23 15 24 22 25 23 26
REMARK SMILES IDX 24 27 25 28 26 30 27 31 28 32 89 33 29 34 88 35 30 36 31 37
REMARK SMILES IDX 32 38 82 39 33 40 87 41 81 42 83 43 34 44 86 45 80 46 79 47
REMARK SMILES IDX 35 49 67 50 47 51 66 52 48 53 51 54 65 55 84 56 49 57 50 58
REMARK SMILES IDX 64 60 85 61 52 62 36 63 37 64 45 65 38 66 39 67 43 68 46 69
REMARK SMILES IDX 40 70 41 71 44 72 42 73 68 74 69 75 77 76 70 77 71 78 75 79
REMARK SMILES IDX 78 80 72 81 73 82 76 83 74 84 53 85 54 86 62 87 55 88 56 89
REMARK SMILES IDX 60 90 63 91 57 92 58 93 61 94 59 95
REMARK H PARENT 20 5 6 13 9 16 24 29 83 48 51 59
REMARK Flexibility Score: inf
ROOT
ATOM      1  C   UNL A   1      36.919  21.709  25.374  1.00  0.00     0.117 C 
ENDROOT
BRANCH   1   2
ATOM      2  N   UNL A   1      36.114  22.135  26.506  1.00  0.00    -0.354 N 
ATOM      3  C   UNL A   1      34.885  22.716  26.595  1.00  0.00     0.242 C 
ATOM      4  O   UNL A   1      34.383  22.754  27.726  1.00  0.00    -0.273 OA
ATOM      5  H   UNL A   1      36.539  21.971  27.378  1.00  0.00     0.163 HD
BRANCH   3   6
ATOM      6  C   UNL A   1      34.058  23.198  25.374  1.00  0.00     0.175 C 
BRANCH   6   7
ATOM      7  C   UNL A   1      34.456  24.616  24.864  1.00  0.00     0.018 C 
ATOM      8  C   UNL A   1      33.921  25.780  25.700  1.00  0.00     0.010 C 
BRANCH   7   9
ATOM      9  C   UNL A   1      34.054  24.759  23.378  1.00  0.00     0.002 C 
ATOM     10  C   UNL A   1      33.471  26.120  23.019  1.00  0.00     0.004 C 
ENDBRANCH   7   9
ENDBRANCH   6   7
BRANCH   6  11
ATOM     11  N   UNL A   1      32.619  23.020  25.559  1.00  0.00    -0.326 N 
ATOM     12  C   UNL A   1      31.706  22.102  25.247  1.00  0.00     0.315 C 
ATOM     13  H   UNL A   1      32.220  23.780  26.040  1.00  0.00     0.166 HD
ATOM     14  O   UNL A   1      30.548  22.337  25.606  1.00  0.00    -0.249 OA
ATOM     15  N   UNL A   1      31.926  20.977  24.571  1.00  0.00    -0.334 N 
ATOM     16  H   UNL A   1      31.093  20.492  24.368  1.00  0.00     0.165 HD
BRANCH  15  17
ATOM     17  C   UNL A   1      33.098  20.297  24.064  1.00  0.00     0.153 C 
BRANCH  17  18
ATOM     18  C   UNL A   1      33.170  18.825  24.418  1.00  0.00    -0.029 A 
ATOM     19  C   UNL A   1      32.681  18.412  25.669  1.00  0.00     0.006 A 
ATOM     20  C   UNL A   1      33.577  17.838  23.509  1.00  0.00     0.006 A 
ATOM     21  C   UNL A   1      32.596  17.055  25.995  1.00  0.00     0.004 A 
ATOM     22  C   UNL A   1      33.504  16.481  23.841  1.00  0.00     0.004 A 
ATOM     23  C   UNL A   1      33.002  16.078  25.082  1.00  0.00    -0.051 A 
ATOM     24  C   UNL A   1      32.857  14.625  25.422  1.00  0.00     0.044 C 
ENDBRANCH  17  18
ENDBRANCH  15  17
ENDBRANCH   6  11
ENDBRANCH   3   6
ENDBRANCH   1   2
BRANCH   1  25
ATOM     25  C   UNL A   1      38.410  21.702  25.660  1.00  0.00     0.042 C 
BRANCH  25  26
ATOM     26  C   UNL A   1      38.913  23.059  26.110  1.00  0.00     0.118 C 
BRANCH  26  27
ATOM     27  N   UNL A   1      40.358  23.145  26.323  1.00  0.00    -0.352 N 
ATOM     28  C   UNL A   1      41.101  24.264  26.687  1.00  0.00     0.251 C 
ATOM     29  H   UNL A   1      40.865  22.312  26.193  1.00  0.00     0.163 HD
ATOM     30  O   UNL A   1      42.306  24.206  26.849  1.00  0.00    -0.269 OA
BRANCH  28  31
ATOM     31  C   UNL A   1      40.355  25.508  26.992  1.00  0.00     0.039 A 
ATOM     32  C   UNL A   1      40.756  26.685  26.356  1.00  0.00     0.014 A 
ATOM     33  C   UNL A   1      39.555  25.544  28.128  1.00  0.00     0.014 A 
ATOM     34  C   UNL A   1      40.586  27.894  27.024  1.00  0.00     0.010 A 
ATOM     35  C   UNL A   1      39.526  26.715  28.855  1.00  0.00     0.010 A 
ATOM     36  C   UNL A   1      40.096  27.880  28.330  1.00  0.00    -0.014 A 
BRANCH  36  37
ATOM     37  C   UNL A   1      40.240  29.008  29.245  1.00  0.00     0.031 A 
ATOM     38  C   UNL A   1      39.174  30.030  29.330  1.00  0.00     0.074 A 
ATOM     39  C   UNL A   1      41.315  29.093  30.064  1.00  0.00     0.049 A 
ATOM     40  N   UNL A   1      39.370  31.250  29.701  1.00  0.00    -0.248 NA
ATOM     41  C   UNL A   1      37.788  29.757  28.968  1.00  0.00     0.031 C 
ATOM     42  C   UNL A   1      41.504  30.017  31.182  1.00  0.00     0.029 A 
ATOM     43  N   UNL A   1      42.569  28.472  29.915  1.00  0.00    -0.354 N 
ATOM     44  C   UNL A   1      38.139  31.830  29.888  1.00  0.00     0.074 A 
ATOM     45  C   UNL A   1      37.185  30.874  29.378  1.00  0.00     0.031 C 
ATOM     46  C   UNL A   1      42.819  30.158  31.407  1.00  0.00     0.029 A 
ATOM     47  C   UNL A   1      43.515  29.424  30.368  1.00  0.00     0.049 A 
ATOM     48  H   UNL A   1      42.750  27.568  29.570  1.00  0.00     0.167 HD
ATOM     49  C   UNL A   1      38.040  33.004  30.573  1.00  0.00     0.037 A 
ATOM     50  C   UNL A   1      44.460  29.946  29.534  1.00  0.00     0.037 A 
ATOM     51  C   UNL A   1      39.349  33.525  30.944  1.00  0.00     0.049 A 
ATOM     52  C   UNL A   1      44.386  31.449  29.391  1.00  0.00     0.074 A 
ATOM     53  C   UNL A   1      40.091  33.459  32.113  1.00  0.00     0.029 A 
ATOM     54  N   UNL A   1      40.230  33.927  29.944  1.00  0.00    -0.354 N 
ATOM     55  N   UNL A   1      43.346  32.162  29.722  1.00  0.00    -0.248 NA
ATOM     56  C   UNL A   1      45.461  32.259  28.823  1.00  0.00     0.031 C 
ATOM     57  C   UNL A   1      41.436  33.772  31.802  1.00  0.00     0.029 A 
ATOM     58  C   UNL A   1      41.512  34.045  30.448  1.00  0.00     0.049 A 
ATOM     59  H   UNL A   1      39.976  34.102  29.009  1.00  0.00     0.167 HD
ATOM     60  C   UNL A   1      43.571  33.476  29.402  1.00  0.00     0.074 A 
ATOM     61  C   UNL A   1      44.918  33.489  28.863  1.00  0.00     0.031 C 
ATOM     62  C   UNL A   1      42.621  34.439  29.593  1.00  0.00     0.037 A 
BRANCH  49  63
ATOM     63  C   UNL A   1      36.726  33.468  31.147  1.00  0.00     0.064 A 
ATOM     64  C   UNL A   1      35.740  34.064  30.334  1.00  0.00     0.173 A 
ATOM     65  C   UNL A   1      36.424  33.427  32.520  1.00  0.00     0.173 A 
ATOM     66  F   UNL A   1      35.850  34.086  29.001  1.00  0.00    -0.203 F 
ATOM     67  C   UNL A   1      34.608  34.685  30.869  1.00  0.00     0.198 A 
ATOM     68  C   UNL A   1      35.325  34.101  33.061  1.00  0.00     0.198 A 
ATOM     69  F   UNL A   1      37.185  32.720  33.368  1.00  0.00    -0.203 F 
ATOM     70  F   UNL A   1      33.712  35.252  30.050  1.00  0.00    -0.200 F 
ATOM     71  C   UNL A   1      34.424  34.742  32.235  1.00  0.00     0.200 A 
ATOM     72  F   UNL A   1      35.156  34.137  34.391  1.00  0.00    -0.200 F 
ATOM     73  F   UNL A   1      33.375  35.397  32.751  1.00  0.00    -0.200 F 
ENDBRANCH  49  63
BRANCH  50  74
ATOM     74  C   UNL A   1      44.895  28.999  28.476  1.00  0.00     0.064 A 
ATOM     75  C   UNL A   1      45.715  27.916  28.849  1.00  0.00     0.173 A 
ATOM     76  C   UNL A   1      44.239  28.918  27.243  1.00  0.00     0.173 A 
ATOM     77  F   UNL A   1      46.368  27.944  30.023  1.00  0.00    -0.203 F 
ATOM     78  C   UNL A   1      45.772  26.752  28.087  1.00  0.00     0.198 A 
ATOM     79  C   UNL A   1      44.314  27.755  26.471  1.00  0.00     0.198 A 
ATOM     80  F   UNL A   1      43.428  29.905  26.839  1.00  0.00    -0.203 F 
ATOM     81  F   UNL A   1      46.461  25.693  28.535  1.00  0.00    -0.200 F 
ATOM     82  C   UNL A   1      45.048  26.662  26.911  1.00  0.00     0.200 A 
ATOM     83  F   UNL A   1      43.589  27.654  25.349  1.00  0.00    -0.200 F 
ATOM     84  F   UNL A   1      45.019  25.509  26.228  1.00  0.00    -0.200 F 
ENDBRANCH  50  74
BRANCH  62  85
ATOM     85  C   UNL A   1      42.682  35.862  29.093  1.00  0.00     0.064 A 
ATOM     86  C   UNL A   1      41.968  36.334  27.979  1.00  0.00     0.173 A 
ATOM     87  C   UNL A   1      43.375  36.850  29.834  1.00  0.00     0.173 A 
ATOM     88  F   UNL A   1      41.172  35.524  27.268  1.00  0.00    -0.203 F 
ATOM     89  C   UNL A   1      42.004  37.677  27.594  1.00  0.00     0.198 A 
ATOM     90  C   UNL A   1      43.360  38.199  29.481  1.00  0.00     0.198 A 
ATOM     91  F   UNL A   1      44.070  36.541  30.939  1.00  0.00    -0.203 F 
ATOM     92  F   UNL A   1      41.343  38.068  26.495  1.00  0.00    -0.200 F 
ATOM     93  C   UNL A   1      42.689  38.610  28.348  1.00  0.00     0.200 A 
ATOM     94  F   UNL A   1      43.986  39.097  30.255  1.00  0.00    -0.200 F 
ATOM     95  F   UNL A   1      42.684  39.903  27.999  1.00  0.00    -0.200 F 
ENDBRANCH  62  85
ENDBRANCH  36  37
ENDBRANCH  28  31
ENDBRANCH  26  27
ENDBRANCH  25  26
ENDBRANCH   1  25
TORSDOF 15
ENDMDL
