MODEL 1
REMARK VINA RESULT:     -12.3      0.000      0.000
REMARK SMILES CC1(C)C[C@@H]([NH2+]C[C@@H]2CCCC[C@@H]2C(=O)NCCCNC(=O)c2ccc(-c3c4nc(c(-c5c(F)c(F)c(F)c(F)c5F)c5ccc([nH]5)c(-c5c(F)c(F)c(F)c(F)c5F)c5nc(c(-c6c(F)c(F)c(F)c(F)c6F)c6ccc3[nH]6)C=C5)C=C4)cc2)C(C)(C)O1
REMARK SMILES IDX 17 1 16 2 14 3 15 4 13 6 8 7 9 8 10 9 12 10 11 11 7 12 6 13
REMARK SMILES IDX 5 16 1 17 2 18 3 19 4 20 89 21 86 22 87 23 88 24 18 25 19 26
REMARK SMILES IDX 20 27 21 28 22 30 23 31 24 32 85 33 25 34 84 35 26 36 27 37
REMARK SMILES IDX 28 38 78 39 29 40 83 41 77 42 79 43 30 44 82 45 76 46 75 47
REMARK SMILES IDX 31 49 63 50 43 51 62 52 44 53 47 54 61 55 80 56 45 57 46 58
REMARK SMILES IDX 60 60 81 61 48 62 32 63 33 64 41 65 34 66 35 67 39 68 42 69
REMARK SMILES IDX 36 70 37 71 40 72 38 73 64 74 65 75 73 76 66 77 67 78 71 79
REMARK SMILES IDX 74 80 68 81 69 82 72 83 70 84 49 85 50 86 58 87 51 88 52 89
REMARK SMILES IDX 56 90 59 91 53 92 54 93 57 94 55 95
REMARK H PARENT 16 5 6 14 6 15 20 29 79 48 47 59
REMARK Flexibility Score: inf
ROOT
ATOM      1  C   UNL A   1      31.354  30.762  26.371  1.00  0.00     0.117 C 
ENDROOT
BRANCH   1   2
ATOM      2  N   UNL A   1      32.297  30.314  25.363  1.00  0.00    -0.356 N 
ATOM      3  C   UNL A   1      32.459  29.123  24.726  1.00  0.00     0.223 C 
ATOM      4  O   UNL A   1      33.451  29.017  24.003  1.00  0.00    -0.275 OA
ATOM      5  H   UNL A   1      32.943  31.005  25.086  1.00  0.00     0.163 HD
BRANCH   3   6
ATOM      6  C   UNL A   1      31.418  28.011  24.856  1.00  0.00     0.087 C 
ATOM      7  C   UNL A   1      31.993  26.583  24.696  1.00  0.00     0.056 C 
ATOM      8  C   UNL A   1      32.465  26.301  23.261  1.00  0.00     0.010 C 
ATOM      9  C   UNL A   1      31.321  26.515  22.269  1.00  0.00     0.001 C 
ATOM     10  C   UNL A   1      30.286  28.237  23.837  1.00  0.00     0.014 C 
ATOM     11  C   UNL A   1      30.674  27.891  22.399  1.00  0.00     0.001 C 
BRANCH   7  12
ATOM     12  C   UNL A   1      33.060  26.194  25.741  1.00  0.00     0.265 C 
BRANCH  12  13
ATOM     13  N   UNL A   1      33.065  24.790  26.165  1.00  0.00    -0.341 N 
ATOM     14  H   UNL A   1      32.763  24.763  27.140  1.00  0.00     0.346 HD
ATOM     15  H   UNL A   1      32.447  24.316  25.506  1.00  0.00     0.346 HD
BRANCH  13  16
ATOM     16  C   UNL A   1      34.338  24.062  26.079  1.00  0.00     0.217 C 
ATOM     17  C   UNL A   1      36.472  22.922  23.270  1.00  0.00     0.042 C 
ATOM     18  C   UNL A   1      36.111  23.166  24.735  1.00  0.00     0.069 C 
ATOM     19  C   UNL A   1      37.377  23.303  25.580  1.00  0.00     0.042 C 
ATOM     20  C   UNL A   1      35.200  24.378  24.869  1.00  0.00     0.103 C 
ATOM     21  O   UNL A   1      35.369  22.044  25.233  1.00  0.00    -0.363 OA
ATOM     22  C   UNL A   1      34.201  22.512  25.947  1.00  0.00     0.115 C 
ATOM     23  C   UNL A   1      32.996  22.051  25.117  1.00  0.00     0.048 C 
ATOM     24  C   UNL A   1      34.166  21.820  27.309  1.00  0.00     0.048 C 
ENDBRANCH  13  16
ENDBRANCH  12  13
ENDBRANCH   7  12
ENDBRANCH   3   6
ENDBRANCH   1   2
BRANCH   1  25
ATOM     25  C   UNL A   1      31.375  32.282  26.521  1.00  0.00     0.042 C 
BRANCH  25  26
ATOM     26  C   UNL A   1      32.639  32.844  27.157  1.00  0.00     0.118 C 
BRANCH  26  27
ATOM     27  N   UNL A   1      32.456  34.199  27.653  1.00  0.00    -0.352 N 
ATOM     28  C   UNL A   1      33.058  34.850  28.700  1.00  0.00     0.251 C 
ATOM     29  H   UNL A   1      31.796  34.735  27.157  1.00  0.00     0.163 HD
ATOM     30  O   UNL A   1      32.604  35.931  29.072  1.00  0.00    -0.269 OA
BRANCH  28  31
ATOM     31  C   UNL A   1      34.230  34.272  29.400  1.00  0.00     0.039 A 
ATOM     32  C   UNL A   1      34.011  33.485  30.536  1.00  0.00     0.014 A 
ATOM     33  C   UNL A   1      35.539  34.544  28.993  1.00  0.00     0.014 A 
ATOM     34  C   UNL A   1      35.093  32.933  31.228  1.00  0.00     0.010 A 
ATOM     35  C   UNL A   1      36.613  33.926  29.632  1.00  0.00     0.010 A 
ATOM     36  C   UNL A   1      36.404  33.125  30.765  1.00  0.00    -0.014 A 
BRANCH  36  37
ATOM     37  C   UNL A   1      37.569  32.523  31.464  1.00  0.00     0.031 A 
ATOM     38  C   UNL A   1      38.305  31.364  30.847  1.00  0.00     0.074 A 
ATOM     39  C   UNL A   1      37.926  32.970  32.684  1.00  0.00     0.049 A 
ATOM     40  N   UNL A   1      39.280  30.642  31.340  1.00  0.00    -0.248 NA
ATOM     41  C   UNL A   1      37.866  30.942  29.509  1.00  0.00     0.031 C 
ATOM     42  C   UNL A   1      37.267  34.054  33.413  1.00  0.00     0.029 A 
ATOM     43  N   UNL A   1      38.922  32.556  33.533  1.00  0.00    -0.354 N 
ATOM     44  C   UNL A   1      39.551  29.669  30.387  1.00  0.00     0.074 A 
ATOM     45  C   UNL A   1      38.607  29.862  29.307  1.00  0.00     0.031 C 
ATOM     46  C   UNL A   1      37.882  34.227  34.593  1.00  0.00     0.029 A 
ATOM     47  C   UNL A   1      38.954  33.245  34.721  1.00  0.00     0.049 A 
ATOM     48  H   UNL A   1      39.553  31.834  33.312  1.00  0.00     0.167 HD
ATOM     49  C   UNL A   1      40.512  28.715  30.400  1.00  0.00     0.037 A 
ATOM     50  C   UNL A   1      39.750  33.094  35.796  1.00  0.00     0.037 A 
ATOM     51  C   UNL A   1      41.475  28.547  31.456  1.00  0.00     0.049 A 
ATOM     52  C   UNL A   1      40.822  32.038  35.781  1.00  0.00     0.074 A 
ATOM     53  C   UNL A   1      42.532  27.656  31.527  1.00  0.00     0.029 A 
ATOM     54  N   UNL A   1      41.497  29.289  32.627  1.00  0.00    -0.354 N 
ATOM     55  N   UNL A   1      41.109  31.166  34.845  1.00  0.00    -0.248 NA
ATOM     56  C   UNL A   1      41.684  31.950  36.968  1.00  0.00     0.031 C 
ATOM     57  C   UNL A   1      43.171  27.833  32.760  1.00  0.00     0.029 A 
ATOM     58  C   UNL A   1      42.538  28.863  33.437  1.00  0.00     0.049 A 
ATOM     59  H   UNL A   1      40.867  30.011  32.852  1.00  0.00     0.167 HD
ATOM     60  C   UNL A   1      42.195  30.442  35.318  1.00  0.00     0.074 A 
ATOM     61  C   UNL A   1      42.525  30.987  36.618  1.00  0.00     0.031 C 
ATOM     62  C   UNL A   1      42.858  29.418  34.728  1.00  0.00     0.037 A 
BRANCH  49  63
ATOM     63  C   UNL A   1      40.573  27.777  29.228  1.00  0.00     0.064 A 
ATOM     64  C   UNL A   1      39.741  26.650  29.144  1.00  0.00     0.173 A 
ATOM     65  C   UNL A   1      41.455  28.023  28.165  1.00  0.00     0.173 A 
ATOM     66  F   UNL A   1      38.890  26.363  30.139  1.00  0.00    -0.203 F 
ATOM     67  C   UNL A   1      39.815  25.786  28.054  1.00  0.00     0.198 A 
ATOM     68  C   UNL A   1      41.503  27.173  27.062  1.00  0.00     0.198 A 
ATOM     69  F   UNL A   1      42.266  29.091  28.191  1.00  0.00    -0.203 F 
ATOM     70  F   UNL A   1      39.048  24.687  28.021  1.00  0.00    -0.200 F 
ATOM     71  C   UNL A   1      40.689  26.051  27.012  1.00  0.00     0.200 A 
ATOM     72  F   UNL A   1      42.340  27.438  26.049  1.00  0.00    -0.200 F 
ATOM     73  F   UNL A   1      40.756  25.221  25.962  1.00  0.00    -0.200 F 
ENDBRANCH  49  63
BRANCH  50  74
ATOM     74  C   UNL A   1      39.575  33.982  36.974  1.00  0.00     0.064 A 
ATOM     75  C   UNL A   1      40.176  35.247  37.017  1.00  0.00     0.173 A 
ATOM     76  C   UNL A   1      38.796  33.590  38.072  1.00  0.00     0.173 A 
ATOM     77  F   UNL A   1      40.947  35.657  36.000  1.00  0.00    -0.203 F 
ATOM     78  C   UNL A   1      40.019  36.081  38.123  1.00  0.00     0.198 A 
ATOM     79  C   UNL A   1      38.619  34.435  39.166  1.00  0.00     0.198 A 
ATOM     80  F   UNL A   1      38.197  32.391  38.077  1.00  0.00    -0.203 F 
ATOM     81  F   UNL A   1      40.637  37.269  38.155  1.00  0.00    -0.200 F 
ATOM     82  C   UNL A   1      39.235  35.677  39.192  1.00  0.00     0.200 A 
ATOM     83  F   UNL A   1      37.850  34.047  40.193  1.00  0.00    -0.200 F 
ATOM     84  F   UNL A   1      39.079  36.482  40.253  1.00  0.00    -0.200 F 
ENDBRANCH  50  74
BRANCH  62  85
ATOM     85  C   UNL A   1      44.025  28.836  35.468  1.00  0.00     0.064 A 
ATOM     86  C   UNL A   1      43.869  27.763  36.357  1.00  0.00     0.173 A 
ATOM     87  C   UNL A   1      45.321  29.331  35.253  1.00  0.00     0.173 A 
ATOM     88  F   UNL A   1      42.649  27.266  36.607  1.00  0.00    -0.203 F 
ATOM     89  C   UNL A   1      44.966  27.218  37.019  1.00  0.00     0.198 A 
ATOM     90  C   UNL A   1      46.418  28.766  35.896  1.00  0.00     0.198 A 
ATOM     91  F   UNL A   1      45.523  30.352  34.408  1.00  0.00    -0.203 F 
ATOM     92  F   UNL A   1      44.790  26.220  37.895  1.00  0.00    -0.200 F 
ATOM     93  C   UNL A   1      46.240  27.715  36.783  1.00  0.00     0.200 A 
ATOM     94  F   UNL A   1      47.649  29.240  35.658  1.00  0.00    -0.200 F 
ATOM     95  F   UNL A   1      47.295  27.185  37.416  1.00  0.00    -0.200 F 
ENDBRANCH  62  85
ENDBRANCH  36  37
ENDBRANCH  28  31
ENDBRANCH  26  27
ENDBRANCH  25  26
ENDBRANCH   1  25
TORSDOF 13
ENDMDL
MODEL 2
REMARK VINA RESULT:     -12.3      0.121      1.677
REMARK SMILES CC1(C)C[C@@H]([NH2+]C[C@@H]2CCCC[C@@H]2C(=O)NCCCNC(=O)c2ccc(-c3c4nc(c(-c5c(F)c(F)c(F)c(F)c5F)c5ccc([nH]5)c(-c5c(F)c(F)c(F)c(F)c5F)c5nc(c(-c6c(F)c(F)c(F)c(F)c6F)c6ccc3[nH]6)C=C5)C=C4)cc2)C(C)(C)O1
REMARK SMILES IDX 17 1 16 2 14 3 15 4 13 6 8 7 9 8 10 9 12 10 11 11 7 12 6 13
REMARK SMILES IDX 5 16 1 17 2 18 3 19 4 20 89 21 86 22 87 23 88 24 18 25 19 26
REMARK SMILES IDX 20 27 21 28 22 30 23 31 24 32 85 33 25 34 84 35 26 36 27 37
REMARK SMILES IDX 28 38 78 39 29 40 83 41 77 42 79 43 30 44 82 45 76 46 75 47
REMARK SMILES IDX 31 49 63 50 43 51 62 52 44 53 47 54 61 55 80 56 45 57 46 58
REMARK SMILES IDX 60 60 81 61 48 62 32 63 33 64 41 65 34 66 35 67 39 68 42 69
REMARK SMILES IDX 36 70 37 71 40 72 38 73 64 74 65 75 73 76 66 77 67 78 71 79
REMARK SMILES IDX 74 80 68 81 69 82 72 83 70 84 49 85 50 86 58 87 51 88 52 89
REMARK SMILES IDX 56 90 59 91 53 92 54 93 57 94 55 95
REMARK H PARENT 16 5 6 14 6 15 20 29 79 48 47 59
REMARK Flexibility Score: inf
ROOT
ATOM      1  C   UNL A   1      31.403  30.755  26.398  1.00  0.00     0.117 C 
ENDROOT
BRANCH   1   2
ATOM      2  N   UNL A   1      32.319  30.317  25.360  1.00  0.00    -0.356 N 
ATOM      3  C   UNL A   1      32.464  29.132  24.707  1.00  0.00     0.223 C 
ATOM      4  O   UNL A   1      33.436  29.034  23.958  1.00  0.00    -0.275 OA
ATOM      5  H   UNL A   1      32.958  31.010  25.075  1.00  0.00     0.163 HD
BRANCH   3   6
ATOM      6  C   UNL A   1      31.426  28.020  24.852  1.00  0.00     0.087 C 
ATOM      7  C   UNL A   1      32.000  26.592  24.692  1.00  0.00     0.056 C 
ATOM      8  C   UNL A   1      32.459  26.305  23.254  1.00  0.00     0.010 C 
ATOM      9  C   UNL A   1      31.304  26.513  22.272  1.00  0.00     0.001 C 
ATOM     10  C   UNL A   1      30.283  28.240  23.844  1.00  0.00     0.014 C 
ATOM     11  C   UNL A   1      30.657  27.889  22.403  1.00  0.00     0.001 C 
BRANCH   7  12
ATOM     12  C   UNL A   1      33.079  26.209  25.728  1.00  0.00     0.265 C 
BRANCH  12  13
ATOM     13  N   UNL A   1      33.054  24.820  26.200  1.00  0.00    -0.341 N 
ATOM     14  H   UNL A   1      32.768  24.835  27.180  1.00  0.00     0.346 HD
ATOM     15  H   UNL A   1      32.413  24.341  25.568  1.00  0.00     0.346 HD
BRANCH  13  16
ATOM     16  C   UNL A   1      34.306  24.056  26.119  1.00  0.00     0.217 C 
ATOM     17  C   UNL A   1      36.477  22.953  23.324  1.00  0.00     0.042 C 
ATOM     18  C   UNL A   1      36.085  23.154  24.787  1.00  0.00     0.069 C 
ATOM     19  C   UNL A   1      37.332  23.219  25.669  1.00  0.00     0.042 C 
ATOM     20  C   UNL A   1      35.208  24.388  24.944  1.00  0.00     0.103 C 
ATOM     21  O   UNL A   1      35.296  22.038  25.223  1.00  0.00    -0.363 OA
ATOM     22  C   UNL A   1      34.124  22.517  25.925  1.00  0.00     0.115 C 
ATOM     23  C   UNL A   1      32.928  22.126  25.048  1.00  0.00     0.048 C 
ATOM     24  C   UNL A   1      34.031  21.777  27.259  1.00  0.00     0.048 C 
ENDBRANCH  13  16
ENDBRANCH  12  13
ENDBRANCH   7  12
ENDBRANCH   3   6
ENDBRANCH   1   2
BRANCH   1  25
ATOM     25  C   UNL A   1      31.397  32.276  26.534  1.00  0.00     0.042 C 
BRANCH  25  26
ATOM     26  C   UNL A   1      32.691  32.875  27.068  1.00  0.00     0.118 C 
BRANCH  26  27
ATOM     27  N   UNL A   1      32.500  34.203  27.627  1.00  0.00    -0.352 N 
ATOM     28  C   UNL A   1      33.069  34.794  28.726  1.00  0.00     0.251 C 
ATOM     29  H   UNL A   1      31.860  34.770  27.138  1.00  0.00     0.163 HD
ATOM     30  O   UNL A   1      32.609  35.859  29.139  1.00  0.00    -0.269 OA
BRANCH  28  31
ATOM     31  C   UNL A   1      34.213  34.173  29.434  1.00  0.00     0.039 A 
ATOM     32  C   UNL A   1      35.510  34.471  29.002  1.00  0.00     0.014 A 
ATOM     33  C   UNL A   1      34.027  33.258  30.474  1.00  0.00     0.014 A 
ATOM     34  C   UNL A   1      36.613  33.895  29.640  1.00  0.00     0.010 A 
ATOM     35  C   UNL A   1      35.127  32.749  31.164  1.00  0.00     0.010 A 
ATOM     36  C   UNL A   1      36.433  33.050  30.746  1.00  0.00    -0.014 A 
BRANCH  36  37
ATOM     37  C   UNL A   1      37.589  32.450  31.461  1.00  0.00     0.031 A 
ATOM     38  C   UNL A   1      38.337  31.294  30.853  1.00  0.00     0.074 A 
ATOM     39  C   UNL A   1      37.928  32.897  32.686  1.00  0.00     0.049 A 
ATOM     40  N   UNL A   1      39.307  30.574  31.359  1.00  0.00    -0.248 NA
ATOM     41  C   UNL A   1      37.917  30.872  29.508  1.00  0.00     0.031 C 
ATOM     42  C   UNL A   1      37.256  33.979  33.406  1.00  0.00     0.029 A 
ATOM     43  N   UNL A   1      38.913  32.485  33.549  1.00  0.00    -0.354 N 
ATOM     44  C   UNL A   1      39.594  29.603  30.409  1.00  0.00     0.074 A 
ATOM     45  C   UNL A   1      38.665  29.794  29.316  1.00  0.00     0.031 C 
ATOM     46  C   UNL A   1      37.854  34.153  34.595  1.00  0.00     0.029 A 
ATOM     47  C   UNL A   1      38.927  33.173  34.737  1.00  0.00     0.049 A 
ATOM     48  H   UNL A   1      39.549  31.765  33.336  1.00  0.00     0.167 HD
ATOM     49  C   UNL A   1      40.557  28.651  30.434  1.00  0.00     0.037 A 
ATOM     50  C   UNL A   1      39.708  33.023  35.824  1.00  0.00     0.037 A 
ATOM     51  C   UNL A   1      41.506  28.485  31.504  1.00  0.00     0.049 A 
ATOM     52  C   UNL A   1      40.782  31.970  35.822  1.00  0.00     0.074 A 
ATOM     53  C   UNL A   1      42.564  27.596  31.589  1.00  0.00     0.029 A 
ATOM     54  N   UNL A   1      41.509  29.225  32.676  1.00  0.00    -0.354 N 
ATOM     55  N   UNL A   1      41.085  31.100  34.890  1.00  0.00    -0.248 NA
ATOM     56  C   UNL A   1      41.628  31.883  37.021  1.00  0.00     0.031 C 
ATOM     57  C   UNL A   1      43.185  27.774  32.831  1.00  0.00     0.029 A 
ATOM     58  C   UNL A   1      42.540  28.802  33.500  1.00  0.00     0.049 A 
ATOM     59  H   UNL A   1      40.874  29.946  32.892  1.00  0.00     0.167 HD
ATOM     60  C   UNL A   1      42.166  30.378  35.377  1.00  0.00     0.074 A 
ATOM     61  C   UNL A   1      42.477  30.923  36.683  1.00  0.00     0.031 C 
ATOM     62  C   UNL A   1      42.840  29.356  34.795  1.00  0.00     0.037 A 
BRANCH  49  63
ATOM     63  C   UNL A   1      40.637  27.714  29.263  1.00  0.00     0.064 A 
ATOM     64  C   UNL A   1      39.789  26.602  29.151  1.00  0.00     0.173 A 
ATOM     65  C   UNL A   1      41.554  27.948  28.227  1.00  0.00     0.173 A 
ATOM     66  F   UNL A   1      38.903  26.328  30.120  1.00  0.00    -0.203 F 
ATOM     67  C   UNL A   1      39.880  25.739  28.062  1.00  0.00     0.198 A 
ATOM     68  C   UNL A   1      41.621  27.099  27.124  1.00  0.00     0.198 A 
ATOM     69  F   UNL A   1      42.383  29.001  28.280  1.00  0.00    -0.203 F 
ATOM     70  F   UNL A   1      39.096  24.654  28.003  1.00  0.00    -0.200 F 
ATOM     71  C   UNL A   1      40.790  25.991  27.047  1.00  0.00     0.200 A 
ATOM     72  F   UNL A   1      42.492  27.351  26.138  1.00  0.00    -0.200 F 
ATOM     73  F   UNL A   1      40.874  25.161  25.998  1.00  0.00    -0.200 F 
ENDBRANCH  49  63
BRANCH  50  74
ATOM     74  C   UNL A   1      39.514  33.910  36.999  1.00  0.00     0.064 A 
ATOM     75  C   UNL A   1      38.742  33.497  38.093  1.00  0.00     0.173 A 
ATOM     76  C   UNL A   1      40.103  35.181  37.057  1.00  0.00     0.173 A 
ATOM     77  F   UNL A   1      38.141  32.299  38.074  1.00  0.00    -0.203 F 
ATOM     78  C   UNL A   1      38.552  34.329  39.195  1.00  0.00     0.198 A 
ATOM     79  C   UNL A   1      39.934  36.002  38.171  1.00  0.00     0.198 A 
ATOM     80  F   UNL A   1      40.854  35.621  36.037  1.00  0.00    -0.203 F 
ATOM     81  F   UNL A   1      37.777  33.925  40.210  1.00  0.00    -0.200 F 
ATOM     82  C   UNL A   1      39.154  35.577  39.236  1.00  0.00     0.200 A 
ATOM     83  F   UNL A   1      40.527  37.203  38.212  1.00  0.00    -0.200 F 
ATOM     84  F   UNL A   1      38.977  36.374  40.299  1.00  0.00    -0.200 F 
ENDBRANCH  50  74
BRANCH  62  85
ATOM     85  C   UNL A   1      43.999  28.777  35.552  1.00  0.00     0.064 A 
ATOM     86  C   UNL A   1      45.302  29.270  35.388  1.00  0.00     0.173 A 
ATOM     87  C   UNL A   1      43.795  27.748  36.484  1.00  0.00     0.173 A 
ATOM     88  F   UNL A   1      45.548  30.242  34.498  1.00  0.00    -0.203 F 
ATOM     89  C   UNL A   1      46.363  28.738  36.115  1.00  0.00     0.198 A 
ATOM     90  C   UNL A   1      44.855  27.238  37.228  1.00  0.00     0.198 A 
ATOM     91  F   UNL A   1      42.567  27.247  36.682  1.00  0.00    -0.203 F 
ATOM     92  F   UNL A   1      47.607  29.194  35.913  1.00  0.00    -0.200 F 
ATOM     93  C   UNL A   1      46.138  27.728  37.039  1.00  0.00     0.200 A 
ATOM     94  F   UNL A   1      44.634  26.270  38.129  1.00  0.00    -0.200 F 
ATOM     95  F   UNL A   1      47.160  27.222  37.743  1.00  0.00    -0.200 F 
ENDBRANCH  62  85
ENDBRANCH  36  37
ENDBRANCH  28  31
ENDBRANCH  26  27
ENDBRANCH  25  26
ENDBRANCH   1  25
TORSDOF 13
ENDMDL
MODEL 3
REMARK VINA RESULT:     -12.3      2.315      3.491
REMARK SMILES CC1(C)C[C@@H]([NH2+]C[C@@H]2CCCC[C@@H]2C(=O)NCCCNC(=O)c2ccc(-c3c4nc(c(-c5c(F)c(F)c(F)c(F)c5F)c5ccc([nH]5)c(-c5c(F)c(F)c(F)c(F)c5F)c5nc(c(-c6c(F)c(F)c(F)c(F)c6F)c6ccc3[nH]6)C=C5)C=C4)cc2)C(C)(C)O1
REMARK SMILES IDX 17 1 16 2 14 3 15 4 13 6 8 7 9 8 10 9 12 10 11 11 7 12 6 13
REMARK SMILES IDX 5 16 1 17 2 18 3 19 4 20 89 21 86 22 87 23 88 24 18 25 19 26
REMARK SMILES IDX 20 27 21 28 22 30 23 31 24 32 85 33 25 34 84 35 26 36 27 37
REMARK SMILES IDX 28 38 78 39 29 40 83 41 77 42 79 43 30 44 82 45 76 46 75 47
REMARK SMILES IDX 31 49 63 50 43 51 62 52 44 53 47 54 61 55 80 56 45 57 46 58
REMARK SMILES IDX 60 60 81 61 48 62 32 63 33 64 41 65 34 66 35 67 39 68 42 69
REMARK SMILES IDX 36 70 37 71 40 72 38 73 64 74 65 75 73 76 66 77 67 78 71 79
REMARK SMILES IDX 74 80 68 81 69 82 72 83 70 84 49 85 50 86 58 87 51 88 52 89
REMARK SMILES IDX 56 90 59 91 53 92 54 93 57 94 55 95
REMARK H PARENT 16 5 6 14 6 15 20 29 79 48 47 59
REMARK Flexibility Score: inf
ROOT
ATOM      1  C   UNL A   1      32.726  28.024  22.820  1.00  0.00     0.117 C 
ENDROOT
BRANCH   1   2
ATOM      2  N   UNL A   1      31.785  28.752  21.989  1.00  0.00    -0.356 N 
ATOM      3  C   UNL A   1      30.533  29.229  22.226  1.00  0.00     0.223 C 
ATOM      4  O   UNL A   1      29.933  29.699  21.258  1.00  0.00    -0.275 OA
ATOM      5  H   UNL A   1      32.117  28.938  21.080  1.00  0.00     0.163 HD
BRANCH   3   6
ATOM      6  C   UNL A   1      29.945  29.237  23.637  1.00  0.00     0.087 C 
ATOM      7  C   UNL A   1      28.630  28.435  23.781  1.00  0.00     0.056 C 
ATOM      8  C   UNL A   1      27.460  29.093  23.031  1.00  0.00     0.010 C 
ATOM      9  C   UNL A   1      27.251  30.527  23.520  1.00  0.00     0.001 C 
ATOM     10  C   UNL A   1      29.727  30.689  24.100  1.00  0.00     0.014 C 
ATOM     11  C   UNL A   1      28.522  31.369  23.449  1.00  0.00     0.001 C 
BRANCH   7  12
ATOM     12  C   UNL A   1      28.751  26.931  23.455  1.00  0.00     0.265 C 
BRANCH  12  13
ATOM     13  N   UNL A   1      29.359  26.094  24.495  1.00  0.00    -0.341 N 
ATOM     14  H   UNL A   1      29.425  26.658  25.342  1.00  0.00     0.346 HD
ATOM     15  H   UNL A   1      28.751  25.278  24.563  1.00  0.00     0.346 HD
BRANCH  13  16
ATOM     16  C   UNL A   1      30.696  25.546  24.226  1.00  0.00     0.217 C 
ATOM     17  C   UNL A   1      31.951  22.248  23.093  1.00  0.00     0.042 C 
ATOM     18  C   UNL A   1      32.061  23.722  23.477  1.00  0.00     0.069 C 
ATOM     19  C   UNL A   1      33.262  24.366  22.784  1.00  0.00     0.042 C 
ATOM     20  C   UNL A   1      30.763  24.456  23.171  1.00  0.00     0.103 C 
ATOM     21  O   UNL A   1      32.262  23.829  24.894  1.00  0.00    -0.363 OA
ATOM     22  C   UNL A   1      31.367  24.827  25.438  1.00  0.00     0.115 C 
ATOM     23  C   UNL A   1      30.390  24.059  26.339  1.00  0.00     0.048 C 
ATOM     24  C   UNL A   1      32.189  25.789  26.295  1.00  0.00     0.048 C 
ENDBRANCH  13  16
ENDBRANCH  12  13
ENDBRANCH   7  12
ENDBRANCH   3   6
ENDBRANCH   1   2
BRANCH   1  25
ATOM     25  C   UNL A   1      33.682  28.969  23.546  1.00  0.00     0.042 C 
BRANCH  25  26
ATOM     26  C   UNL A   1      33.578  28.939  25.065  1.00  0.00     0.118 C 
BRANCH  26  27
ATOM     27  N   UNL A   1      32.963  30.141  25.603  1.00  0.00    -0.352 N 
ATOM     28  C   UNL A   1      33.271  30.870  26.724  1.00  0.00     0.251 C 
ATOM     29  H   UNL A   1      32.205  30.489  25.079  1.00  0.00     0.163 HD
ATOM     30  O   UNL A   1      32.488  31.740  27.105  1.00  0.00    -0.269 OA
BRANCH  28  31
ATOM     31  C   UNL A   1      34.515  30.623  27.491  1.00  0.00     0.039 A 
ATOM     32  C   UNL A   1      35.439  31.665  27.621  1.00  0.00     0.014 A 
ATOM     33  C   UNL A   1      34.810  29.369  28.031  1.00  0.00     0.014 A 
ATOM     34  C   UNL A   1      36.629  31.465  28.330  1.00  0.00     0.010 A 
ATOM     35  C   UNL A   1      35.955  29.193  28.808  1.00  0.00     0.010 A 
ATOM     36  C   UNL A   1      36.884  30.235  28.954  1.00  0.00    -0.014 A 
BRANCH  36  37
ATOM     37  C   UNL A   1      38.126  30.007  29.739  1.00  0.00     0.031 A 
ATOM     38  C   UNL A   1      39.205  29.105  29.202  1.00  0.00     0.074 A 
ATOM     39  C   UNL A   1      38.257  30.553  30.963  1.00  0.00     0.049 A 
ATOM     40  N   UNL A   1      40.313  28.705  29.774  1.00  0.00    -0.248 NA
ATOM     41  C   UNL A   1      38.995  28.557  27.854  1.00  0.00     0.031 C 
ATOM     42  C   UNL A   1      37.266  31.407  31.618  1.00  0.00     0.029 A 
ATOM     43  N   UNL A   1      39.272  30.458  31.882  1.00  0.00    -0.354 N 
ATOM     44  C   UNL A   1      40.916  27.842  28.869  1.00  0.00     0.074 A 
ATOM     45  C   UNL A   1      40.030  27.738  27.730  1.00  0.00     0.031 C 
ATOM     46  C   UNL A   1      37.725  31.766  32.827  1.00  0.00     0.029 A 
ATOM     47  C   UNL A   1      39.026  31.141  33.048  1.00  0.00     0.049 A 
ATOM     48  H   UNL A   1      40.099  29.948  31.721  1.00  0.00     0.167 HD
ATOM     49  C   UNL A   1      42.110  27.209  28.967  1.00  0.00     0.037 A 
ATOM     50  C   UNL A   1      39.759  31.241  34.172  1.00  0.00     0.037 A 
ATOM     51  C   UNL A   1      43.009  27.342  30.083  1.00  0.00     0.049 A 
ATOM     52  C   UNL A   1      41.089  30.543  34.253  1.00  0.00     0.074 A 
ATOM     53  C   UNL A   1      44.272  26.798  30.244  1.00  0.00     0.029 A 
ATOM     54  N   UNL A   1      42.738  28.072  31.231  1.00  0.00    -0.354 N 
ATOM     55  N   UNL A   1      41.678  29.782  33.363  1.00  0.00    -0.248 NA
ATOM     56  C   UNL A   1      41.860  30.725  35.491  1.00  0.00     0.031 C 
ATOM     57  C   UNL A   1      44.750  27.169  31.506  1.00  0.00     0.029 A 
ATOM     58  C   UNL A   1      43.803  27.978  32.113  1.00  0.00     0.049 A 
ATOM     59  H   UNL A   1      41.913  28.582  31.395  1.00  0.00     0.167 HD
ATOM     60  C   UNL A   1      42.894  29.412  33.921  1.00  0.00     0.074 A 
ATOM     61  C   UNL A   1      42.966  30.045  35.221  1.00  0.00     0.031 C 
ATOM     62  C   UNL A   1      43.862  28.618  33.403  1.00  0.00     0.037 A 
BRANCH  49  63
ATOM     63  C   UNL A   1      42.516  26.315  27.831  1.00  0.00     0.064 A 
ATOM     64  C   UNL A   1      42.034  25.002  27.718  1.00  0.00     0.173 A 
ATOM     65  C   UNL A   1      43.378  26.786  26.829  1.00  0.00     0.173 A 
ATOM     66  F   UNL A   1      41.218  24.500  28.656  1.00  0.00    -0.203 F 
ATOM     67  C   UNL A   1      42.427  24.184  26.662  1.00  0.00     0.198 A 
ATOM     68  C   UNL A   1      43.744  25.974  25.757  1.00  0.00     0.198 A 
ATOM     69  F   UNL A   1      43.862  28.036  26.884  1.00  0.00    -0.203 F 
ATOM     70  F   UNL A   1      41.995  22.917  26.604  1.00  0.00    -0.200 F 
ATOM     71  C   UNL A   1      43.274  24.671  25.680  1.00  0.00     0.200 A 
ATOM     72  F   UNL A   1      44.553  26.451  24.802  1.00  0.00    -0.200 F 
ATOM     73  F   UNL A   1      43.648  23.883  24.662  1.00  0.00    -0.200 F 
ENDBRANCH  49  63
BRANCH  50  74
ATOM     74  C   UNL A   1      39.257  32.054  35.309  1.00  0.00     0.064 A 
ATOM     75  C   UNL A   1      39.509  33.431  35.377  1.00  0.00     0.173 A 
ATOM     76  C   UNL A   1      38.508  31.475  36.344  1.00  0.00     0.173 A 
ATOM     77  F   UNL A   1      40.238  34.025  34.422  1.00  0.00    -0.203 F 
ATOM     78  C   UNL A   1      39.045  34.196  36.445  1.00  0.00     0.198 A 
ATOM     79  C   UNL A   1      38.023  32.246  37.399  1.00  0.00     0.198 A 
ATOM     80  F   UNL A   1      38.237  30.162  36.324  1.00  0.00    -0.203 F 
ATOM     81  F   UNL A   1      39.334  35.503  36.505  1.00  0.00    -0.200 F 
ATOM     82  C   UNL A   1      38.296  33.604  37.451  1.00  0.00     0.200 A 
ATOM     83  F   UNL A   1      37.289  31.673  38.363  1.00  0.00    -0.200 F 
ATOM     84  F   UNL A   1      37.845  34.342  38.475  1.00  0.00    -0.200 F 
ENDBRANCH  50  74
BRANCH  62  85
ATOM     85  C   UNL A   1      45.097  28.411  34.229  1.00  0.00     0.064 A 
ATOM     86  C   UNL A   1      46.189  29.288  34.149  1.00  0.00     0.173 A 
ATOM     87  C   UNL A   1      45.171  27.348  35.142  1.00  0.00     0.173 A 
ATOM     88  F   UNL A   1      46.170  30.310  33.281  1.00  0.00    -0.203 F 
ATOM     89  C   UNL A   1      47.318  29.097  34.940  1.00  0.00     0.198 A 
ATOM     90  C   UNL A   1      46.291  27.175  35.949  1.00  0.00     0.198 A 
ATOM     91  F   UNL A   1      44.151  26.485  35.260  1.00  0.00    -0.203 F 
ATOM     92  F   UNL A   1      48.367  29.922  34.818  1.00  0.00    -0.200 F 
ATOM     93  C   UNL A   1      47.366  28.046  35.844  1.00  0.00     0.200 A 
ATOM     94  F   UNL A   1      46.332  26.166  36.830  1.00  0.00    -0.200 F 
ATOM     95  F   UNL A   1      48.451  27.867  36.609  1.00  0.00    -0.200 F 
ENDBRANCH  62  85
ENDBRANCH  36  37
ENDBRANCH  28  31
ENDBRANCH  26  27
ENDBRANCH  25  26
ENDBRANCH   1  25
TORSDOF 13
ENDMDL
