MODEL 1
REMARK VINA RESULT:     -13.6      0.000      0.000
REMARK SMILES Cc1nc(Nc2ccc(C(=O)NCCCNC(=O)c3ccc(-c4c5nc(c(-c6c(F)c(F)c(F)c(F)c6F)c6ccc([nH]6)c(-c6c(F)c(F)c(F)c(F)c6F)c6nc(c(-c7c(F)c(F)c(F)c(F)c7F)c7ccc4[nH]7)C=C6)C=C5)cc3)cc2)c2c(C)c(C)sc2n1
REMARK SMILES IDX 14 1 13 2 12 3 10 4 11 5 9 7 6 8 7 9 83 10 8 11 82 12 5 13
REMARK SMILES IDX 4 15 1 16 2 17 3 18 91 19 90 20 84 21 89 22 85 23 87 24
REMARK SMILES IDX 86 25 88 26 15 27 16 28 17 29 18 31 19 32 20 33 81 34 21 35
REMARK SMILES IDX 80 36 22 37 23 38 24 39 74 40 25 41 79 42 73 43 75 44 26 45
REMARK SMILES IDX 78 46 72 47 71 48 27 50 59 51 39 52 58 53 40 54 43 55 57 56
REMARK SMILES IDX 76 57 41 58 42 59 56 61 77 62 44 63 28 64 29 65 37 66 30 67
REMARK SMILES IDX 31 68 35 69 38 70 32 71 33 72 36 73 34 74 60 75 61 76 69 77
REMARK SMILES IDX 62 78 63 79 67 80 70 81 64 82 65 83 68 84 66 85 45 86 46 87
REMARK SMILES IDX 54 88 47 89 48 90 52 91 55 92 49 93 50 94 53 95 51 96
REMARK H PARENT 12 6 5 14 16 30 75 49 43 60
REMARK Flexibility Score: inf
ROOT
ATOM      1  C   UNL A   1      37.171  21.653  24.757  1.00  0.00     0.042 C 
ENDROOT
BRANCH   1   2
ATOM      2  C   UNL A   1      35.811  21.480  25.447  1.00  0.00     0.118 C 
BRANCH   2   3
ATOM      3  N   UNL A   1      35.153  20.265  25.000  1.00  0.00    -0.352 N 
ATOM      4  C   UNL A   1      33.863  19.953  24.658  1.00  0.00     0.251 C 
ATOM      5  O   UNL A   1      33.652  18.788  24.305  1.00  0.00    -0.269 OA
ATOM      6  H   UNL A   1      35.769  19.499  24.925  1.00  0.00     0.163 HD
BRANCH   4   7
ATOM      7  C   UNL A   1      32.745  20.938  24.586  1.00  0.00     0.039 A 
ATOM      8  C   UNL A   1      31.043  23.173  24.324  1.00  0.00     0.040 A 
ATOM      9  C   UNL A   1      31.641  22.612  23.195  1.00  0.00     0.027 A 
ATOM     10  C   UNL A   1      31.151  22.494  25.542  1.00  0.00     0.027 A 
ATOM     11  C   UNL A   1      32.512  21.528  23.332  1.00  0.00     0.016 A 
ATOM     12  C   UNL A   1      31.966  21.358  25.665  1.00  0.00     0.016 A 
BRANCH   8  13
ATOM     13  N   UNL A   1      30.448  24.431  24.219  1.00  0.00    -0.340 N 
ATOM     14  H   UNL A   1      29.480  24.413  24.038  1.00  0.00     0.168 HD
BRANCH  13  15
ATOM     15  C   UNL A   1      30.998  25.714  24.332  1.00  0.00     0.143 A 
ATOM     16  C   UNL A   1      34.256  26.901  25.602  1.00  0.00     0.090 C 
ATOM     17  C   UNL A   1      32.910  26.916  24.946  1.00  0.00     0.129 A 
ATOM     18  N   UNL A   1      32.246  25.749  24.864  1.00  0.00    -0.215 NA
ATOM     19  N   UNL A   1      32.486  28.088  24.473  1.00  0.00    -0.222 NA
ATOM     20  C   UNL A   1      31.225  28.047  24.021  1.00  0.00     0.129 A 
ATOM     21  C   UNL A   1      30.381  26.946  23.986  1.00  0.00     0.057 A 
ATOM     22  S   UNL A   1      30.520  29.460  23.390  1.00  0.00    -0.120 S 
ATOM     23  C   UNL A   1      29.025  27.393  23.678  1.00  0.00    -0.024 A 
ATOM     24  C   UNL A   1      29.010  28.696  23.202  1.00  0.00     0.007 A 
ATOM     25  C   UNL A   1      27.764  26.614  23.876  1.00  0.00     0.046 C 
ATOM     26  C   UNL A   1      27.853  29.470  22.653  1.00  0.00     0.057 C 
ENDBRANCH  13  15
ENDBRANCH   8  13
ENDBRANCH   4   7
ENDBRANCH   2   3
ENDBRANCH   1   2
BRANCH   1  27
ATOM     27  C   UNL A   1      38.137  22.567  25.531  1.00  0.00     0.118 C 
BRANCH  27  28
ATOM     28  N   UNL A   1      38.903  21.794  26.498  1.00  0.00    -0.352 N 
ATOM     29  C   UNL A   1      40.031  22.082  27.204  1.00  0.00     0.251 C 
ATOM     30  H   UNL A   1      38.537  20.897  26.674  1.00  0.00     0.163 HD
ATOM     31  O   UNL A   1      40.639  21.135  27.721  1.00  0.00    -0.269 OA
BRANCH  29  32
ATOM     32  C   UNL A   1      40.554  23.450  27.399  1.00  0.00     0.039 A 
ATOM     33  C   UNL A   1      39.666  24.400  27.924  1.00  0.00     0.014 A 
ATOM     34  C   UNL A   1      41.806  23.864  26.931  1.00  0.00     0.014 A 
ATOM     35  C   UNL A   1      40.023  25.744  27.984  1.00  0.00     0.010 A 
ATOM     36  C   UNL A   1      42.168  25.218  27.000  1.00  0.00     0.010 A 
ATOM     37  C   UNL A   1      41.277  26.165  27.522  1.00  0.00    -0.014 A 
BRANCH  37  38
ATOM     38  C   UNL A   1      41.615  27.591  27.689  1.00  0.00     0.031 A 
ATOM     39  C   UNL A   1      40.488  28.563  27.606  1.00  0.00     0.074 A 
ATOM     40  C   UNL A   1      42.727  27.992  28.342  1.00  0.00     0.049 A 
ATOM     41  N   UNL A   1      39.738  28.880  28.623  1.00  0.00    -0.248 NA
ATOM     42  C   UNL A   1      40.007  29.084  26.328  1.00  0.00     0.031 C 
ATOM     43  C   UNL A   1      43.284  27.297  29.507  1.00  0.00     0.029 A 
ATOM     44  N   UNL A   1      43.420  29.178  28.283  1.00  0.00    -0.354 N 
ATOM     45  C   UNL A   1      38.662  29.590  28.127  1.00  0.00     0.074 A 
ATOM     46  C   UNL A   1      38.877  29.703  26.701  1.00  0.00     0.031 C 
ATOM     47  C   UNL A   1      44.111  28.145  30.154  1.00  0.00     0.029 A 
ATOM     48  C   UNL A   1      44.271  29.365  29.369  1.00  0.00     0.049 A 
ATOM     49  H   UNL A   1      43.326  29.828  27.550  1.00  0.00     0.167 HD
ATOM     50  C   UNL A   1      37.647  30.047  28.906  1.00  0.00     0.037 A 
ATOM     51  C   UNL A   1      44.635  30.573  29.880  1.00  0.00     0.037 A 
ATOM     52  C   UNL A   1      37.770  29.802  30.311  1.00  0.00     0.049 A 
ATOM     53  C   UNL A   1      43.332  31.034  30.482  1.00  0.00     0.074 A 
ATOM     54  C   UNL A   1      37.355  28.849  31.216  1.00  0.00     0.029 A 
ATOM     55  N   UNL A   1      38.525  30.679  31.052  1.00  0.00    -0.354 N 
ATOM     56  N   UNL A   1      42.845  30.663  31.638  1.00  0.00    -0.248 NA
ATOM     57  C   UNL A   1      42.367  31.683  29.592  1.00  0.00     0.031 C 
ATOM     58  C   UNL A   1      38.257  28.955  32.321  1.00  0.00     0.029 A 
ATOM     59  C   UNL A   1      39.194  29.930  31.985  1.00  0.00     0.049 A 
ATOM     60  H   UNL A   1      38.575  31.655  30.937  1.00  0.00     0.167 HD
ATOM     61  C   UNL A   1      41.460  30.789  31.509  1.00  0.00     0.074 A 
ATOM     62  C   UNL A   1      41.235  31.452  30.243  1.00  0.00     0.031 C 
ATOM     63  C   UNL A   1      40.570  30.180  32.343  1.00  0.00     0.037 A 
BRANCH  50  64
ATOM     64  C   UNL A   1      36.537  30.888  28.425  1.00  0.00     0.064 A 
ATOM     65  C   UNL A   1      36.668  32.280  28.519  1.00  0.00     0.173 A 
ATOM     66  C   UNL A   1      35.291  30.357  28.083  1.00  0.00     0.173 A 
ATOM     67  F   UNL A   1      37.851  32.821  28.853  1.00  0.00    -0.203 F 
ATOM     68  C   UNL A   1      35.575  33.116  28.325  1.00  0.00     0.198 A 
ATOM     69  C   UNL A   1      34.198  31.198  27.880  1.00  0.00     0.198 A 
ATOM     70  F   UNL A   1      35.122  29.030  27.992  1.00  0.00    -0.203 F 
ATOM     71  F   UNL A   1      35.717  34.440  28.471  1.00  0.00    -0.200 F 
ATOM     72  C   UNL A   1      34.338  32.574  28.016  1.00  0.00     0.200 A 
ATOM     73  F   UNL A   1      32.999  30.678  27.584  1.00  0.00    -0.200 F 
ATOM     74  F   UNL A   1      33.276  33.378  27.863  1.00  0.00    -0.200 F 
ENDBRANCH  50  64
BRANCH  51  75
ATOM     75  C   UNL A   1      45.481  31.423  28.979  1.00  0.00     0.064 A 
ATOM     76  C   UNL A   1      46.806  31.712  29.376  1.00  0.00     0.173 A 
ATOM     77  C   UNL A   1      45.075  31.981  27.757  1.00  0.00     0.173 A 
ATOM     78  F   UNL A   1      47.246  31.327  30.584  1.00  0.00    -0.203 F 
ATOM     79  C   UNL A   1      47.697  32.395  28.547  1.00  0.00     0.198 A 
ATOM     80  C   UNL A   1      45.976  32.641  26.914  1.00  0.00     0.198 A 
ATOM     81  F   UNL A   1      43.804  31.894  27.344  1.00  0.00    -0.203 F 
ATOM     82  F   UNL A   1      48.956  32.612  28.954  1.00  0.00    -0.200 F 
ATOM     83  C   UNL A   1      47.290  32.830  27.301  1.00  0.00     0.200 A 
ATOM     84  F   UNL A   1      45.565  33.073  25.714  1.00  0.00    -0.200 F 
ATOM     85  F   UNL A   1      48.157  33.435  26.478  1.00  0.00    -0.200 F 
ENDBRANCH  51  75
BRANCH  63  86
ATOM     86  C   UNL A   1      41.156  29.531  33.547  1.00  0.00     0.064 A 
ATOM     87  C   UNL A   1      41.309  30.259  34.733  1.00  0.00     0.173 A 
ATOM     88  C   UNL A   1      41.525  28.177  33.549  1.00  0.00     0.173 A 
ATOM     89  F   UNL A   1      40.961  31.556  34.783  1.00  0.00    -0.203 F 
ATOM     90  C   UNL A   1      41.793  29.649  35.886  1.00  0.00     0.198 A 
ATOM     91  C   UNL A   1      41.982  27.565  34.711  1.00  0.00     0.198 A 
ATOM     92  F   UNL A   1      41.419  27.435  32.435  1.00  0.00    -0.203 F 
ATOM     93  F   UNL A   1      41.922  30.360  37.015  1.00  0.00    -0.200 F 
ATOM     94  C   UNL A   1      42.114  28.300  35.878  1.00  0.00     0.200 A 
ATOM     95  F   UNL A   1      42.274  26.256  34.706  1.00  0.00    -0.200 F 
ATOM     96  F   UNL A   1      42.538  27.703  37.001  1.00  0.00    -0.200 F 
ENDBRANCH  63  86
ENDBRANCH  37  38
ENDBRANCH  29  32
ENDBRANCH  27  28
ENDBRANCH   1  27
TORSDOF 12
ENDMDL
MODEL 2
REMARK VINA RESULT:     -13.4      0.828      2.053
REMARK SMILES Cc1nc(Nc2ccc(C(=O)NCCCNC(=O)c3ccc(-c4c5nc(c(-c6c(F)c(F)c(F)c(F)c6F)c6ccc([nH]6)c(-c6c(F)c(F)c(F)c(F)c6F)c6nc(c(-c7c(F)c(F)c(F)c(F)c7F)c7ccc4[nH]7)C=C6)C=C5)cc3)cc2)c2c(C)c(C)sc2n1
REMARK SMILES IDX 14 1 13 2 12 3 10 4 11 5 9 7 6 8 7 9 83 10 8 11 82 12 5 13
REMARK SMILES IDX 4 15 1 16 2 17 3 18 91 19 90 20 84 21 89 22 85 23 87 24
REMARK SMILES IDX 86 25 88 26 15 27 16 28 17 29 18 31 19 32 20 33 81 34 21 35
REMARK SMILES IDX 80 36 22 37 23 38 24 39 74 40 25 41 79 42 73 43 75 44 26 45
REMARK SMILES IDX 78 46 72 47 71 48 27 50 59 51 39 52 58 53 40 54 43 55 57 56
REMARK SMILES IDX 76 57 41 58 42 59 56 61 77 62 44 63 28 64 29 65 37 66 30 67
REMARK SMILES IDX 31 68 35 69 38 70 32 71 33 72 36 73 34 74 60 75 61 76 69 77
REMARK SMILES IDX 62 78 63 79 67 80 70 81 64 82 65 83 68 84 66 85 45 86 46 87
REMARK SMILES IDX 54 88 47 89 48 90 52 91 55 92 49 93 50 94 53 95 51 96
REMARK H PARENT 12 6 5 14 16 30 75 49 43 60
REMARK Flexibility Score: inf
ROOT
ATOM      1  C   UNL A   1      37.408  20.772  25.196  1.00  0.00     0.042 C 
ENDROOT
BRANCH   1   2
ATOM      2  C   UNL A   1      35.993  21.364  25.274  1.00  0.00     0.118 C 
BRANCH   2   3
ATOM      3  N   UNL A   1      34.988  20.321  25.173  1.00  0.00    -0.352 N 
ATOM      4  C   UNL A   1      33.650  20.259  25.463  1.00  0.00     0.251 C 
ATOM      5  O   UNL A   1      33.086  19.183  25.240  1.00  0.00    -0.269 OA
ATOM      6  H   UNL A   1      35.346  19.474  24.817  1.00  0.00     0.163 HD
BRANCH   4   7
ATOM      7  C   UNL A   1      32.830  21.417  25.923  1.00  0.00     0.039 A 
ATOM      8  C   UNL A   1      31.481  23.863  26.325  1.00  0.00     0.040 A 
ATOM      9  C   UNL A   1      31.084  23.005  25.298  1.00  0.00     0.027 A 
ATOM     10  C   UNL A   1      32.418  23.401  27.254  1.00  0.00     0.027 A 
ATOM     11  C   UNL A   1      31.778  21.812  25.078  1.00  0.00     0.016 A 
ATOM     12  C   UNL A   1      33.062  22.166  27.077  1.00  0.00     0.016 A 
BRANCH   8  13
ATOM     13  N   UNL A   1      31.006  25.175  26.331  1.00  0.00    -0.340 N 
ATOM     14  H   UNL A   1      30.972  25.595  27.220  1.00  0.00     0.168 HD
BRANCH  13  15
ATOM     15  C   UNL A   1      30.571  25.994  25.280  1.00  0.00     0.143 A 
ATOM     16  C   UNL A   1      27.216  26.640  23.880  1.00  0.00     0.090 C 
ATOM     17  C   UNL A   1      28.688  26.768  24.127  1.00  0.00     0.129 A 
ATOM     18  N   UNL A   1      29.233  25.962  25.055  1.00  0.00    -0.215 NA
ATOM     19  N   UNL A   1      29.338  27.693  23.420  1.00  0.00    -0.222 NA
ATOM     20  C   UNL A   1      30.665  27.656  23.602  1.00  0.00     0.129 A 
ATOM     21  C   UNL A   1      31.376  26.801  24.432  1.00  0.00     0.057 A 
ATOM     22  S   UNL A   1      31.651  28.761  22.766  1.00  0.00    -0.120 S 
ATOM     23  C   UNL A   1      32.800  26.912  24.128  1.00  0.00    -0.024 A 
ATOM     24  C   UNL A   1      33.073  28.032  23.354  1.00  0.00     0.007 A 
ATOM     25  C   UNL A   1      33.873  25.951  24.525  1.00  0.00     0.046 C 
ATOM     26  C   UNL A   1      34.405  28.574  22.944  1.00  0.00     0.057 C 
ENDBRANCH  13  15
ENDBRANCH   8  13
ENDBRANCH   4   7
ENDBRANCH   2   3
ENDBRANCH   1   2
BRANCH   1  27
ATOM     27  C   UNL A   1      38.517  21.800  25.477  1.00  0.00     0.118 C 
BRANCH  27  28
ATOM     28  N   UNL A   1      39.434  21.293  26.488  1.00  0.00    -0.352 N 
ATOM     29  C   UNL A   1      40.442  21.890  27.184  1.00  0.00     0.251 C 
ATOM     30  H   UNL A   1      39.300  20.343  26.711  1.00  0.00     0.163 HD
ATOM     31  O   UNL A   1      41.257  21.153  27.753  1.00  0.00    -0.269 OA
BRANCH  29  32
ATOM     32  C   UNL A   1      40.603  23.354  27.306  1.00  0.00     0.039 A 
ATOM     33  C   UNL A   1      41.814  23.898  26.857  1.00  0.00     0.014 A 
ATOM     34  C   UNL A   1      39.695  24.168  27.991  1.00  0.00     0.014 A 
ATOM     35  C   UNL A   1      42.115  25.238  27.086  1.00  0.00     0.010 A 
ATOM     36  C   UNL A   1      39.994  25.520  28.213  1.00  0.00     0.010 A 
ATOM     37  C   UNL A   1      41.208  26.061  27.767  1.00  0.00    -0.014 A 
BRANCH  37  38
ATOM     38  C   UNL A   1      41.560  27.486  27.903  1.00  0.00     0.031 A 
ATOM     39  C   UNL A   1      40.445  28.469  27.783  1.00  0.00     0.074 A 
ATOM     40  C   UNL A   1      42.669  27.891  28.558  1.00  0.00     0.049 A 
ATOM     41  N   UNL A   1      39.687  28.820  28.783  1.00  0.00    -0.248 NA
ATOM     42  C   UNL A   1      39.985  28.963  26.486  1.00  0.00     0.031 C 
ATOM     43  C   UNL A   1      43.205  27.220  29.747  1.00  0.00     0.029 A 
ATOM     44  N   UNL A   1      43.377  29.068  28.479  1.00  0.00    -0.354 N 
ATOM     45  C   UNL A   1      38.625  29.529  28.256  1.00  0.00     0.074 A 
ATOM     46  C   UNL A   1      38.858  29.604  26.830  1.00  0.00     0.031 C 
ATOM     47  C   UNL A   1      44.034  28.074  30.383  1.00  0.00     0.029 A 
ATOM     48  C   UNL A   1      44.216  29.272  29.569  1.00  0.00     0.049 A 
ATOM     49  H   UNL A   1      43.298  29.700  27.728  1.00  0.00     0.167 HD
ATOM     50  C   UNL A   1      37.606  30.016  29.012  1.00  0.00     0.037 A 
ATOM     51  C   UNL A   1      44.588  30.488  30.054  1.00  0.00     0.037 A 
ATOM     52  C   UNL A   1      37.710  29.805  30.423  1.00  0.00     0.049 A 
ATOM     53  C   UNL A   1      43.284  30.979  30.630  1.00  0.00     0.074 A 
ATOM     54  C   UNL A   1      37.274  28.880  31.346  1.00  0.00     0.029 A 
ATOM     55  N   UNL A   1      38.467  30.692  31.152  1.00  0.00    -0.354 N 
ATOM     56  N   UNL A   1      42.780  30.642  31.788  1.00  0.00    -0.248 NA
ATOM     57  C   UNL A   1      42.337  31.616  29.713  1.00  0.00     0.031 C 
ATOM     58  C   UNL A   1      38.165  29.003  32.460  1.00  0.00     0.029 A 
ATOM     59  C   UNL A   1      39.117  29.959  32.110  1.00  0.00     0.049 A 
ATOM     60  H   UNL A   1      38.530  31.664  31.012  1.00  0.00     0.167 HD
ATOM     61  C   UNL A   1      41.398  30.780  31.640  1.00  0.00     0.074 A 
ATOM     62  C   UNL A   1      41.195  31.414  30.355  1.00  0.00     0.031 C 
ATOM     63  C   UNL A   1      40.491  30.203  32.479  1.00  0.00     0.037 A 
BRANCH  50  64
ATOM     64  C   UNL A   1      36.512  30.858  28.496  1.00  0.00     0.064 A 
ATOM     65  C   UNL A   1      36.652  32.250  28.571  1.00  0.00     0.173 A 
ATOM     66  C   UNL A   1      35.269  30.330  28.140  1.00  0.00     0.173 A 
ATOM     67  F   UNL A   1      37.833  32.787  28.918  1.00  0.00    -0.203 F 
ATOM     68  C   UNL A   1      35.569  33.090  28.343  1.00  0.00     0.198 A 
ATOM     69  C   UNL A   1      34.186  31.175  27.903  1.00  0.00     0.198 A 
ATOM     70  F   UNL A   1      35.091  29.002  28.068  1.00  0.00    -0.203 F 
ATOM     71  F   UNL A   1      35.718  34.416  28.470  1.00  0.00    -0.200 F 
ATOM     72  C   UNL A   1      34.334  32.552  28.020  1.00  0.00     0.200 A 
ATOM     73  F   UNL A   1      32.988  30.659  27.594  1.00  0.00    -0.200 F 
ATOM     74  F   UNL A   1      33.281  33.361  27.835  1.00  0.00    -0.200 F 
ENDBRANCH  50  64
BRANCH  51  75
ATOM     75  C   UNL A   1      45.454  31.306  29.143  1.00  0.00     0.064 A 
ATOM     76  C   UNL A   1      46.757  31.641  29.574  1.00  0.00     0.173 A 
ATOM     77  C   UNL A   1      45.087  31.792  27.879  1.00  0.00     0.173 A 
ATOM     78  F   UNL A   1      47.157  31.328  30.817  1.00  0.00    -0.203 F 
ATOM     79  C   UNL A   1      47.669  32.297  28.746  1.00  0.00     0.198 A 
ATOM     80  C   UNL A   1      46.009  32.423  27.037  1.00  0.00     0.198 A 
ATOM     81  F   UNL A   1      43.836  31.658  27.422  1.00  0.00    -0.203 F 
ATOM     82  F   UNL A   1      48.907  32.558  29.188  1.00  0.00    -0.200 F 
ATOM     83  C   UNL A   1      47.304  32.658  27.463  1.00  0.00     0.200 A 
ATOM     84  F   UNL A   1      45.639  32.784  25.801  1.00  0.00    -0.200 F 
ATOM     85  F   UNL A   1      48.192  33.236  26.643  1.00  0.00    -0.200 F 
ENDBRANCH  51  75
BRANCH  63  86
ATOM     86  C   UNL A   1      41.055  29.577  33.705  1.00  0.00     0.064 A 
ATOM     87  C   UNL A   1      41.396  28.219  33.707  1.00  0.00     0.173 A 
ATOM     88  C   UNL A   1      41.304  30.324  34.867  1.00  0.00     0.173 A 
ATOM     89  F   UNL A   1      41.185  27.466  32.615  1.00  0.00    -0.203 F 
ATOM     90  C   UNL A   1      41.986  27.634  34.823  1.00  0.00     0.198 A 
ATOM     91  C   UNL A   1      41.919  29.742  35.970  1.00  0.00     0.198 A 
ATOM     92  F   UNL A   1      40.979  31.625  34.929  1.00  0.00    -0.203 F 
ATOM     93  F   UNL A   1      42.315  26.335  34.802  1.00  0.00    -0.200 F 
ATOM     94  C   UNL A   1      42.261  28.399  35.947  1.00  0.00     0.200 A 
ATOM     95  F   UNL A   1      42.202  30.488  37.048  1.00  0.00    -0.200 F 
ATOM     96  F   UNL A   1      42.869  27.845  37.005  1.00  0.00    -0.200 F 
ENDBRANCH  63  86
ENDBRANCH  37  38
ENDBRANCH  29  32
ENDBRANCH  27  28
ENDBRANCH   1  27
TORSDOF 12
ENDMDL
MODEL 3
REMARK VINA RESULT:     -13.4      3.384      8.143
REMARK SMILES Cc1nc(Nc2ccc(C(=O)NCCCNC(=O)c3ccc(-c4c5nc(c(-c6c(F)c(F)c(F)c(F)c6F)c6ccc([nH]6)c(-c6c(F)c(F)c(F)c(F)c6F)c6nc(c(-c7c(F)c(F)c(F)c(F)c7F)c7ccc4[nH]7)C=C6)C=C5)cc3)cc2)c2c(C)c(C)sc2n1
REMARK SMILES IDX 14 1 13 2 12 3 10 4 11 5 9 7 6 8 7 9 83 10 8 11 82 12 5 13
REMARK SMILES IDX 4 15 1 16 2 17 3 18 91 19 90 20 84 21 89 22 85 23 87 24
REMARK SMILES IDX 86 25 88 26 15 27 16 28 17 29 18 31 19 32 20 33 81 34 21 35
REMARK SMILES IDX 80 36 22 37 23 38 24 39 74 40 25 41 79 42 73 43 75 44 26 45
REMARK SMILES IDX 78 46 72 47 71 48 27 50 59 51 39 52 58 53 40 54 43 55 57 56
REMARK SMILES IDX 76 57 41 58 42 59 56 61 77 62 44 63 28 64 29 65 37 66 30 67
REMARK SMILES IDX 31 68 35 69 38 70 32 71 33 72 36 73 34 74 60 75 61 76 69 77
REMARK SMILES IDX 62 78 63 79 67 80 70 81 64 82 65 83 68 84 66 85 45 86 46 87
REMARK SMILES IDX 54 88 47 89 48 90 52 91 55 92 49 93 50 94 53 95 51 96
REMARK H PARENT 12 6 5 14 16 30 75 49 43 60
REMARK Flexibility Score: inf
ROOT
ATOM      1  C   UNL A   1      32.318  30.060  26.764  1.00  0.00     0.042 C 
ENDROOT
BRANCH   1   2
ATOM      2  C   UNL A   1      32.327  29.685  25.275  1.00  0.00     0.118 C 
BRANCH   2   3
ATOM      3  N   UNL A   1      31.075  30.056  24.640  1.00  0.00    -0.352 N 
ATOM      4  C   UNL A   1      30.232  29.426  23.762  1.00  0.00     0.251 C 
ATOM      5  O   UNL A   1      29.220  30.049  23.425  1.00  0.00    -0.269 OA
ATOM      6  H   UNL A   1      30.764  30.955  24.897  1.00  0.00     0.163 HD
BRANCH   4   7
ATOM      7  C   UNL A   1      30.405  28.024  23.281  1.00  0.00     0.039 A 
ATOM      8  C   UNL A   1      31.065  25.318  22.830  1.00  0.00     0.040 A 
ATOM      9  C   UNL A   1      30.217  25.666  23.883  1.00  0.00     0.027 A 
ATOM     10  C   UNL A   1      31.417  26.305  21.904  1.00  0.00     0.027 A 
ATOM     11  C   UNL A   1      29.922  27.010  24.126  1.00  0.00     0.016 A 
ATOM     12  C   UNL A   1      31.055  27.645  22.105  1.00  0.00     0.016 A 
BRANCH   8  13
ATOM     13  N   UNL A   1      31.607  24.032  22.796  1.00  0.00    -0.340 N 
ATOM     14  H   UNL A   1      31.278  23.468  22.059  1.00  0.00     0.168 HD
BRANCH  13  15
ATOM     15  C   UNL A   1      32.542  23.412  23.635  1.00  0.00     0.143 A 
ATOM     16  C   UNL A   1      35.113  24.782  25.904  1.00  0.00     0.090 C 
ATOM     17  C   UNL A   1      34.218  23.793  25.222  1.00  0.00     0.129 A 
ATOM     18  N   UNL A   1      33.338  24.269  24.325  1.00  0.00    -0.215 NA
ATOM     19  N   UNL A   1      34.352  22.516  25.582  1.00  0.00    -0.222 NA
ATOM     20  C   UNL A   1      33.613  21.681  24.838  1.00  0.00     0.129 A 
ATOM     21  C   UNL A   1      32.754  22.018  23.801  1.00  0.00     0.057 A 
ATOM     22  S   UNL A   1      33.670  20.012  25.153  1.00  0.00    -0.120 S 
ATOM     23  C   UNL A   1      32.364  20.803  23.089  1.00  0.00    -0.024 A 
ATOM     24  C   UNL A   1      32.682  19.661  23.812  1.00  0.00     0.007 A 
ATOM     25  C   UNL A   1      31.745  20.726  21.731  1.00  0.00     0.046 C 
ATOM     26  C   UNL A   1      32.334  18.240  23.501  1.00  0.00     0.057 C 
ENDBRANCH  13  15
ENDBRANCH   8  13
ENDBRANCH   4   7
ENDBRANCH   2   3
ENDBRANCH   1   2
BRANCH   1  27
ATOM     27  C   UNL A   1      33.727  30.199  27.368  1.00  0.00     0.118 C 
BRANCH  27  28
ATOM     28  N   UNL A   1      34.222  31.557  27.193  1.00  0.00    -0.352 N 
ATOM     29  C   UNL A   1      35.242  32.236  27.786  1.00  0.00     0.251 C 
ATOM     30  H   UNL A   1      33.727  32.081  26.522  1.00  0.00     0.163 HD
ATOM     31  O   UNL A   1      35.249  33.469  27.674  1.00  0.00    -0.269 OA
BRANCH  29  32
ATOM     32  C   UNL A   1      36.339  31.587  28.534  1.00  0.00     0.039 A 
ATOM     33  C   UNL A   1      37.168  30.715  27.814  1.00  0.00     0.014 A 
ATOM     34  C   UNL A   1      36.470  31.670  29.924  1.00  0.00     0.014 A 
ATOM     35  C   UNL A   1      38.118  29.938  28.472  1.00  0.00     0.010 A 
ATOM     36  C   UNL A   1      37.433  30.893  30.585  1.00  0.00     0.010 A 
ATOM     37  C   UNL A   1      38.257  30.019  29.864  1.00  0.00    -0.014 A 
BRANCH  37  38
ATOM     38  C   UNL A   1      39.336  29.225  30.482  1.00  0.00     0.031 A 
ATOM     39  C   UNL A   1      39.476  27.812  30.027  1.00  0.00     0.074 A 
ATOM     40  C   UNL A   1      40.421  29.802  31.040  1.00  0.00     0.049 A 
ATOM     41  N   UNL A   1      40.162  27.463  28.976  1.00  0.00    -0.248 NA
ATOM     42  C   UNL A   1      38.684  26.730  30.607  1.00  0.00     0.031 C 
ATOM     43  C   UNL A   1      41.052  31.022  30.526  1.00  0.00     0.029 A 
ATOM     44  N   UNL A   1      41.310  29.323  31.974  1.00  0.00    -0.354 N 
ATOM     45  C   UNL A   1      39.860  26.140  28.717  1.00  0.00     0.074 A 
ATOM     46  C   UNL A   1      38.950  25.723  29.762  1.00  0.00     0.031 C 
ATOM     47  C   UNL A   1      42.303  31.100  31.025  1.00  0.00     0.029 A 
ATOM     48  C   UNL A   1      42.500  30.042  32.012  1.00  0.00     0.049 A 
ATOM     49  H   UNL A   1      41.123  28.551  32.556  1.00  0.00     0.167 HD
ATOM     50  C   UNL A   1      40.367  25.452  27.660  1.00  0.00     0.037 A 
ATOM     51  C   UNL A   1      43.710  29.535  32.373  1.00  0.00     0.037 A 
ATOM     52  C   UNL A   1      41.295  26.161  26.833  1.00  0.00     0.049 A 
ATOM     53  C   UNL A   1      43.994  28.617  31.212  1.00  0.00     0.074 A 
ATOM     54  C   UNL A   1      41.260  26.908  25.676  1.00  0.00     0.029 A 
ATOM     55  N   UNL A   1      42.610  26.204  27.234  1.00  0.00    -0.354 N 
ATOM     56  N   UNL A   1      44.463  28.974  30.045  1.00  0.00    -0.248 NA
ATOM     57  C   UNL A   1      43.404  27.277  31.249  1.00  0.00     0.031 C 
ATOM     58  C   UNL A   1      42.435  27.725  25.714  1.00  0.00     0.029 A 
ATOM     59  C   UNL A   1      43.074  27.455  26.922  1.00  0.00     0.049 A 
ATOM     60  H   UNL A   1      43.118  25.478  27.662  1.00  0.00     0.167 HD
ATOM     61  C   UNL A   1      43.983  28.016  29.148  1.00  0.00     0.074 A 
ATOM     62  C   UNL A   1      43.370  26.984  29.956  1.00  0.00     0.031 C 
ATOM     63  C   UNL A   1      43.942  28.205  27.799  1.00  0.00     0.037 A 
BRANCH  50  64
ATOM     64  C   UNL A   1      40.143  24.018  27.412  1.00  0.00     0.064 A 
ATOM     65  C   UNL A   1      41.067  23.100  27.929  1.00  0.00     0.173 A 
ATOM     66  C   UNL A   1      39.178  23.558  26.511  1.00  0.00     0.173 A 
ATOM     67  F   UNL A   1      42.011  23.513  28.790  1.00  0.00    -0.203 F 
ATOM     68  C   UNL A   1      41.059  21.771  27.523  1.00  0.00     0.198 A 
ATOM     69  C   UNL A   1      39.167  22.222  26.112  1.00  0.00     0.198 A 
ATOM     70  F   UNL A   1      38.282  24.406  25.986  1.00  0.00    -0.203 F 
ATOM     71  F   UNL A   1      41.986  20.927  27.995  1.00  0.00    -0.200 F 
ATOM     72  C   UNL A   1      40.116  21.335  26.606  1.00  0.00     0.200 A 
ATOM     73  F   UNL A   1      38.258  21.796  25.224  1.00  0.00    -0.200 F 
ATOM     74  F   UNL A   1      40.130  20.061  26.189  1.00  0.00    -0.200 F 
ENDBRANCH  50  64
BRANCH  51  75
ATOM     75  C   UNL A   1      43.831  29.121  33.810  1.00  0.00     0.064 A 
ATOM     76  C   UNL A   1      44.890  29.655  34.577  1.00  0.00     0.173 A 
ATOM     77  C   UNL A   1      42.983  28.227  34.480  1.00  0.00     0.173 A 
ATOM     78  F   UNL A   1      45.825  30.421  33.993  1.00  0.00    -0.203 F 
ATOM     79  C   UNL A   1      45.010  29.416  35.947  1.00  0.00     0.198 A 
ATOM     80  C   UNL A   1      43.085  28.010  35.859  1.00  0.00     0.198 A 
ATOM     81  F   UNL A   1      42.030  27.551  33.825  1.00  0.00    -0.203 F 
ATOM     82  F   UNL A   1      46.011  29.977  36.639  1.00  0.00    -0.200 F 
ATOM     83  C   UNL A   1      44.085  28.619  36.594  1.00  0.00     0.200 A 
ATOM     84  F   UNL A   1      42.192  27.222  36.473  1.00  0.00    -0.200 F 
ATOM     85  F   UNL A   1      44.160  28.432  37.918  1.00  0.00    -0.200 F 
ENDBRANCH  51  75
BRANCH  63  86
ATOM     86  C   UNL A   1      44.637  29.421  27.297  1.00  0.00     0.064 A 
ATOM     87  C   UNL A   1      43.933  30.623  27.152  1.00  0.00     0.173 A 
ATOM     88  C   UNL A   1      46.008  29.417  27.000  1.00  0.00     0.173 A 
ATOM     89  F   UNL A   1      42.621  30.677  27.434  1.00  0.00    -0.203 F 
ATOM     90  C   UNL A   1      44.583  31.785  26.748  1.00  0.00     0.198 A 
ATOM     91  C   UNL A   1      46.659  30.587  26.622  1.00  0.00     0.198 A 
ATOM     92  F   UNL A   1      46.729  28.289  27.100  1.00  0.00    -0.203 F 
ATOM     93  F   UNL A   1      43.894  32.928  26.627  1.00  0.00    -0.200 F 
ATOM     94  C   UNL A   1      45.947  31.769  26.498  1.00  0.00     0.200 A 
ATOM     95  F   UNL A   1      47.982  30.574  26.400  1.00  0.00    -0.200 F 
ATOM     96  F   UNL A   1      46.580  32.899  26.151  1.00  0.00    -0.200 F 
ENDBRANCH  63  86
ENDBRANCH  37  38
ENDBRANCH  29  32
ENDBRANCH  27  28
ENDBRANCH   1  27
TORSDOF 12
ENDMDL
