MODEL 1
REMARK VINA RESULT:     -12.4      0.000      0.000
REMARK SMILES CC(C)(C[NH2+]Cc1ccc2c(c1)OCO2)C(=O)NCCCNC(=O)c1ccc(-c2c3nc(c(-c4c(F)c(F)c(F)c(F)c4F)c4ccc([nH]4)c(-c4c(F)c(F)c(F)c(F)c4F)c4nc(c(-c5c(F)c(F)c(F)c(F)c5F)c5ccc2[nH]5)C=C4)C=C3)cc1
REMARK SMILES IDX 19 1 18 2 16 3 17 4 2 6 1 7 3 8 4 9 5 10 6 13 7 14 8 15
REMARK SMILES IDX 12 16 9 17 11 18 10 19 13 20 15 21 14 22 20 23 21 24 22 25
REMARK SMILES IDX 23 26 24 28 25 29 26 30 87 31 27 32 86 33 28 34 29 35 30 36
REMARK SMILES IDX 80 37 31 38 85 39 79 40 81 41 32 42 84 43 78 44 77 45 33 47
REMARK SMILES IDX 65 48 45 49 64 50 46 51 49 52 63 53 82 54 47 55 48 56 62 58
REMARK SMILES IDX 83 59 50 60 34 61 35 62 43 63 36 64 37 65 41 66 44 67 38 68
REMARK SMILES IDX 39 69 42 70 40 71 66 72 67 73 75 74 68 75 69 76 73 77 76 78
REMARK SMILES IDX 70 79 71 80 74 81 72 82 51 83 52 84 60 85 53 86 54 87 58 88
REMARK SMILES IDX 61 89 55 90 56 91 59 92 57 93
REMARK H PARENT 18 5 5 11 5 12 22 27 81 46 49 57
REMARK Flexibility Score: inf
ROOT
ATOM      1  C   UNL A   1      31.375  30.760  26.391  1.00  0.00     0.117 C 
ENDROOT
BRANCH   1   2
ATOM      2  N   UNL A   1      32.365  30.285  25.444  1.00  0.00    -0.355 N 
ATOM      3  C   UNL A   1      32.766  29.043  25.061  1.00  0.00     0.231 C 
ATOM      4  O   UNL A   1      33.657  29.019  24.204  1.00  0.00    -0.274 OA
ATOM      5  H   UNL A   1      32.845  31.010  24.984  1.00  0.00     0.163 HD
BRANCH   3   6
ATOM      6  C   UNL A   1      32.131  27.745  25.594  1.00  0.00     0.092 C 
ATOM      7  C   UNL A   1      31.814  27.932  27.100  1.00  0.00     0.027 C 
ATOM      8  C   UNL A   1      33.154  26.593  25.520  1.00  0.00     0.027 C 
BRANCH   6   9
ATOM      9  C   UNL A   1      30.830  27.362  24.847  1.00  0.00     0.277 C 
BRANCH   9  10
ATOM     10  N   UNL A   1      30.646  28.043  23.557  1.00  0.00    -0.342 N 
ATOM     11  H   UNL A   1      31.150  27.520  22.841  1.00  0.00     0.346 HD
ATOM     12  H   UNL A   1      31.004  28.993  23.665  1.00  0.00     0.346 HD
BRANCH  10  13
ATOM     13  C   UNL A   1      29.242  28.156  23.149  1.00  0.00     0.297 C 
BRANCH  13  14
ATOM     14  C   UNL A   1      28.823  29.568  22.816  1.00  0.00     0.010 A 
ATOM     15  C   UNL A   1      29.053  30.608  23.749  1.00  0.00     0.013 A 
ATOM     16  C   UNL A   1      28.288  29.873  21.554  1.00  0.00     0.060 A 
ATOM     17  C   UNL A   1      28.783  31.939  23.425  1.00  0.00     0.051 A 
ATOM     18  C   UNL A   1      28.033  31.197  21.263  1.00  0.00     0.166 A 
ATOM     19  C   UNL A   1      28.280  32.201  22.170  1.00  0.00     0.165 A 
ATOM     20  O   UNL A   1      27.549  31.672  20.084  1.00  0.00    -0.454 OA
ATOM     21  O   UNL A   1      27.987  33.432  21.675  1.00  0.00    -0.454 OA
ATOM     22  C   UNL A   1      27.534  33.090  20.349  1.00  0.00     0.468 C 
ENDBRANCH  13  14
ENDBRANCH  10  13
ENDBRANCH   9  10
ENDBRANCH   6   9
ENDBRANCH   3   6
ENDBRANCH   1   2
BRANCH   1  23
ATOM     23  C   UNL A   1      31.365  32.280  26.510  1.00  0.00     0.042 C 
BRANCH  23  24
ATOM     24  C   UNL A   1      32.605  32.861  27.179  1.00  0.00     0.118 C 
BRANCH  24  25
ATOM     25  N   UNL A   1      32.414  34.237  27.622  1.00  0.00    -0.352 N 
ATOM     26  C   UNL A   1      33.013  34.943  28.634  1.00  0.00     0.251 C 
ATOM     27  H   UNL A   1      31.743  34.744  27.111  1.00  0.00     0.163 HD
ATOM     28  O   UNL A   1      32.556  36.040  28.958  1.00  0.00    -0.269 OA
BRANCH  26  29
ATOM     29  C   UNL A   1      34.184  34.401  29.353  1.00  0.00     0.039 A 
ATOM     30  C   UNL A   1      33.976  33.684  30.536  1.00  0.00     0.014 A 
ATOM     31  C   UNL A   1      35.485  34.627  28.898  1.00  0.00     0.014 A 
ATOM     32  C   UNL A   1      35.064  33.139  31.222  1.00  0.00     0.010 A 
ATOM     33  C   UNL A   1      36.562  34.015  29.536  1.00  0.00     0.010 A 
ATOM     34  C   UNL A   1      36.364  33.268  30.707  1.00  0.00    -0.014 A 
BRANCH  34  35
ATOM     35  C   UNL A   1      37.528  32.636  31.376  1.00  0.00     0.031 A 
ATOM     36  C   UNL A   1      38.249  31.492  30.720  1.00  0.00     0.074 A 
ATOM     37  C   UNL A   1      37.889  33.043  32.609  1.00  0.00     0.049 A 
ATOM     38  N   UNL A   1      39.225  30.751  31.184  1.00  0.00    -0.248 NA
ATOM     39  C   UNL A   1      37.795  31.110  29.374  1.00  0.00     0.031 C 
ATOM     40  C   UNL A   1      37.239  34.110  33.371  1.00  0.00     0.029 A 
ATOM     41  N   UNL A   1      38.883  32.597  33.444  1.00  0.00    -0.354 N 
ATOM     42  C   UNL A   1      39.483  29.807  30.199  1.00  0.00     0.074 A 
ATOM     43  C   UNL A   1      38.532  30.036  29.133  1.00  0.00     0.031 C 
ATOM     44  C   UNL A   1      37.861  34.249  34.552  1.00  0.00     0.029 A 
ATOM     45  C   UNL A   1      38.928  33.257  34.647  1.00  0.00     0.049 A 
ATOM     46  H   UNL A   1      39.504  31.872  33.204  1.00  0.00     0.167 HD
ATOM     47  C   UNL A   1      40.441  28.849  30.176  1.00  0.00     0.037 A 
ATOM     48  C   UNL A   1      39.734  33.077  35.711  1.00  0.00     0.037 A 
ATOM     49  C   UNL A   1      41.407  28.646  31.224  1.00  0.00     0.049 A 
ATOM     50  C   UNL A   1      40.794  32.012  35.658  1.00  0.00     0.074 A 
ATOM     51  C   UNL A   1      42.459  27.746  31.266  1.00  0.00     0.029 A 
ATOM     52  N   UNL A   1      41.438  29.354  32.416  1.00  0.00    -0.354 N 
ATOM     53  N   UNL A   1      41.071  31.168  34.694  1.00  0.00    -0.248 NA
ATOM     54  C   UNL A   1      41.658  31.877  36.839  1.00  0.00     0.031 C 
ATOM     55  C   UNL A   1      43.101  27.882  32.501  1.00  0.00     0.029 A 
ATOM     56  C   UNL A   1      42.479  28.898  33.209  1.00  0.00     0.049 A 
ATOM     57  H   UNL A   1      40.814  30.073  32.662  1.00  0.00     0.167 HD
ATOM     58  C   UNL A   1      42.155  30.423  35.139  1.00  0.00     0.074 A 
ATOM     59  C   UNL A   1      42.495  30.924  36.454  1.00  0.00     0.031 C 
ATOM     60  C   UNL A   1      42.809  29.414  34.512  1.00  0.00     0.037 A 
BRANCH  47  61
ATOM     61  C   UNL A   1      40.497  27.952  28.975  1.00  0.00     0.064 A 
ATOM     62  C   UNL A   1      41.305  28.253  27.868  1.00  0.00     0.173 A 
ATOM     63  C   UNL A   1      39.761  26.758  28.942  1.00  0.00     0.173 A 
ATOM     64  F   UNL A   1      42.020  29.388  27.843  1.00  0.00    -0.203 F 
ATOM     65  C   UNL A   1      41.352  27.408  26.762  1.00  0.00     0.198 A 
ATOM     66  C   UNL A   1      39.833  25.899  27.848  1.00  0.00     0.198 A 
ATOM     67  F   UNL A   1      38.978  26.417  29.977  1.00  0.00    -0.203 F 
ATOM     68  F   UNL A   1      42.094  27.742  25.696  1.00  0.00    -0.200 F 
ATOM     69  C   UNL A   1      40.623  26.229  26.756  1.00  0.00     0.200 A 
ATOM     70  F   UNL A   1      39.138  24.754  27.849  1.00  0.00    -0.200 F 
ATOM     71  F   UNL A   1      40.674  25.413  25.694  1.00  0.00    -0.200 F 
ENDBRANCH  47  61
BRANCH  48  72
ATOM     72  C   UNL A   1      39.586  33.944  36.908  1.00  0.00     0.064 A 
ATOM     73  C   UNL A   1      40.218  35.193  36.972  1.00  0.00     0.173 A 
ATOM     74  C   UNL A   1      38.813  33.546  38.009  1.00  0.00     0.173 A 
ATOM     75  F   UNL A   1      40.984  35.608  35.952  1.00  0.00    -0.203 F 
ATOM     76  C   UNL A   1      40.100  36.005  38.099  1.00  0.00     0.198 A 
ATOM     77  C   UNL A   1      38.673  34.370  39.124  1.00  0.00     0.198 A 
ATOM     78  F   UNL A   1      38.182  32.363  37.994  1.00  0.00    -0.203 F 
ATOM     79  F   UNL A   1      40.751  37.174  38.151  1.00  0.00    -0.200 F 
ATOM     80  C   UNL A   1      39.323  35.594  39.171  1.00  0.00     0.200 A 
ATOM     81  F   UNL A   1      37.909  33.977  40.153  1.00  0.00    -0.200 F 
ATOM     82  F   UNL A   1      39.205  36.376  40.254  1.00  0.00    -0.200 F 
ENDBRANCH  48  72
BRANCH  60  83
ATOM     83  C   UNL A   1      43.981  28.809  35.228  1.00  0.00     0.064 A 
ATOM     84  C   UNL A   1      45.285  29.292  35.044  1.00  0.00     0.173 A 
ATOM     85  C   UNL A   1      43.790  27.760  36.140  1.00  0.00     0.173 A 
ATOM     86  F   UNL A   1      45.520  30.283  34.172  1.00  0.00    -0.203 F 
ATOM     87  C   UNL A   1      46.358  28.729  35.729  1.00  0.00     0.198 A 
ATOM     88  C   UNL A   1      44.862  27.219  36.844  1.00  0.00     0.198 A 
ATOM     89  F   UNL A   1      42.561  27.267  36.355  1.00  0.00    -0.203 F 
ATOM     90  F   UNL A   1      47.602  29.175  35.504  1.00  0.00    -0.200 F 
ATOM     91  C   UNL A   1      46.145  27.699  36.634  1.00  0.00     0.200 A 
ATOM     92  F   UNL A   1      44.653  26.232  37.726  1.00  0.00    -0.200 F 
ATOM     93  F   UNL A   1      47.180  27.164  37.297  1.00  0.00    -0.200 F 
ENDBRANCH  60  83
ENDBRANCH  34  35
ENDBRANCH  26  29
ENDBRANCH  24  25
ENDBRANCH  23  24
ENDBRANCH   1  23
TORSDOF 14
ENDMDL
MODEL 2
REMARK VINA RESULT:     -12.1      0.720      7.505
REMARK SMILES CC(C)(C[NH2+]Cc1ccc2c(c1)OCO2)C(=O)NCCCNC(=O)c1ccc(-c2c3nc(c(-c4c(F)c(F)c(F)c(F)c4F)c4ccc([nH]4)c(-c4c(F)c(F)c(F)c(F)c4F)c4nc(c(-c5c(F)c(F)c(F)c(F)c5F)c5ccc2[nH]5)C=C4)C=C3)cc1
REMARK SMILES IDX 19 1 18 2 16 3 17 4 2 6 1 7 3 8 4 9 5 10 6 13 7 14 8 15
REMARK SMILES IDX 12 16 9 17 11 18 10 19 13 20 15 21 14 22 20 23 21 24 22 25
REMARK SMILES IDX 23 26 24 28 25 29 26 30 87 31 27 32 86 33 28 34 29 35 30 36
REMARK SMILES IDX 80 37 31 38 85 39 79 40 81 41 32 42 84 43 78 44 77 45 33 47
REMARK SMILES IDX 65 48 45 49 64 50 46 51 49 52 63 53 82 54 47 55 48 56 62 58
REMARK SMILES IDX 83 59 50 60 34 61 35 62 43 63 36 64 37 65 41 66 44 67 38 68
REMARK SMILES IDX 39 69 42 70 40 71 66 72 67 73 75 74 68 75 69 76 73 77 76 78
REMARK SMILES IDX 70 79 71 80 74 81 72 82 51 83 52 84 60 85 53 86 54 87 58 88
REMARK SMILES IDX 61 89 55 90 56 91 59 92 57 93
REMARK H PARENT 18 5 5 11 5 12 22 27 81 46 49 57
REMARK Flexibility Score: inf
ROOT
ATOM      1  C   UNL A   1      31.432  30.742  26.498  1.00  0.00     0.117 C 
ENDROOT
BRANCH   1   2
ATOM      2  N   UNL A   1      32.391  30.299  25.505  1.00  0.00    -0.355 N 
ATOM      3  C   UNL A   1      32.795  29.071  25.083  1.00  0.00     0.231 C 
ATOM      4  O   UNL A   1      33.652  29.076  24.193  1.00  0.00    -0.274 OA
ATOM      5  H   UNL A   1      32.842  31.040  25.040  1.00  0.00     0.163 HD
BRANCH   3   6
ATOM      6  C   UNL A   1      32.200  27.753  25.616  1.00  0.00     0.092 C 
ATOM      7  C   UNL A   1      31.783  27.962  27.095  1.00  0.00     0.027 C 
ATOM      8  C   UNL A   1      33.286  26.658  25.636  1.00  0.00     0.027 C 
BRANCH   6   9
ATOM      9  C   UNL A   1      30.968  27.280  24.805  1.00  0.00     0.277 C 
BRANCH   9  10
ATOM     10  N   UNL A   1      30.717  28.047  23.577  1.00  0.00    -0.342 N 
ATOM     11  H   UNL A   1      31.195  27.585  22.803  1.00  0.00     0.346 HD
ATOM     12  H   UNL A   1      31.065  28.993  23.737  1.00  0.00     0.346 HD
BRANCH  10  13
ATOM     13  C   UNL A   1      29.294  28.163  23.240  1.00  0.00     0.297 C 
BRANCH  13  14
ATOM     14  C   UNL A   1      28.870  29.572  22.895  1.00  0.00     0.010 A 
ATOM     15  C   UNL A   1      29.062  30.614  23.834  1.00  0.00     0.013 A 
ATOM     16  C   UNL A   1      28.369  29.872  21.617  1.00  0.00     0.060 A 
ATOM     17  C   UNL A   1      28.788  31.942  23.502  1.00  0.00     0.051 A 
ATOM     18  C   UNL A   1      28.110  31.193  21.319  1.00  0.00     0.166 A 
ATOM     19  C   UNL A   1      28.320  32.199  22.233  1.00  0.00     0.165 A 
ATOM     20  O   UNL A   1      27.656  31.663  20.127  1.00  0.00    -0.454 OA
ATOM     21  O   UNL A   1      28.028  33.427  21.729  1.00  0.00    -0.454 OA
ATOM     22  C   UNL A   1      27.618  33.081  20.391  1.00  0.00     0.468 C 
ENDBRANCH  13  14
ENDBRANCH  10  13
ENDBRANCH   9  10
ENDBRANCH   6   9
ENDBRANCH   3   6
ENDBRANCH   1   2
BRANCH   1  23
ATOM     23  C   UNL A   1      31.380  32.260  26.622  1.00  0.00     0.042 C 
BRANCH  23  24
ATOM     24  C   UNL A   1      32.708  32.899  27.011  1.00  0.00     0.118 C 
BRANCH  24  25
ATOM     25  N   UNL A   1      32.543  34.212  27.624  1.00  0.00    -0.352 N 
ATOM     26  C   UNL A   1      33.141  34.765  28.728  1.00  0.00     0.251 C 
ATOM     27  H   UNL A   1      31.895  34.798  27.172  1.00  0.00     0.163 HD
ATOM     28  O   UNL A   1      32.706  35.824  29.182  1.00  0.00    -0.269 OA
BRANCH  26  29
ATOM     29  C   UNL A   1      34.284  34.104  29.390  1.00  0.00     0.039 A 
ATOM     30  C   UNL A   1      34.036  33.250  30.469  1.00  0.00     0.014 A 
ATOM     31  C   UNL A   1      35.599  34.348  28.986  1.00  0.00     0.014 A 
ATOM     32  C   UNL A   1      35.096  32.592  31.096  1.00  0.00     0.010 A 
ATOM     33  C   UNL A   1      36.647  33.629  29.557  1.00  0.00     0.010 A 
ATOM     34  C   UNL A   1      36.408  32.747  30.621  1.00  0.00    -0.014 A 
BRANCH  34  35
ATOM     35  C   UNL A   1      37.543  32.003  31.222  1.00  0.00     0.031 A 
ATOM     36  C   UNL A   1      38.018  32.337  32.608  1.00  0.00     0.074 A 
ATOM     37  C   UNL A   1      38.193  31.077  30.490  1.00  0.00     0.049 A 
ATOM     38  N   UNL A   1      39.047  31.866  33.268  1.00  0.00    -0.248 NA
ATOM     39  C   UNL A   1      37.252  33.357  33.340  1.00  0.00     0.031 C 
ATOM     40  C   UNL A   1      37.859  30.697  29.117  1.00  0.00     0.029 A 
ATOM     41  N   UNL A   1      39.281  30.298  30.795  1.00  0.00    -0.354 N 
ATOM     42  C   UNL A   1      39.062  32.548  34.478  1.00  0.00     0.074 A 
ATOM     43  C   UNL A   1      37.972  33.497  34.444  1.00  0.00     0.031 C 
ATOM     44  C   UNL A   1      38.711  29.744  28.704  1.00  0.00     0.029 A 
ATOM     45  C   UNL A   1      39.674  29.475  29.768  1.00  0.00     0.049 A 
ATOM     46  H   UNL A   1      39.738  30.326  31.667  1.00  0.00     0.167 HD
ATOM     47  C   UNL A   1      39.898  32.380  35.532  1.00  0.00     0.037 A 
ATOM     48  C   UNL A   1      40.700  28.607  29.690  1.00  0.00     0.037 A 
ATOM     49  C   UNL A   1      40.962  31.411  35.575  1.00  0.00     0.049 A 
ATOM     50  C   UNL A   1      41.609  28.435  30.875  1.00  0.00     0.074 A 
ATOM     51  C   UNL A   1      41.821  31.119  36.620  1.00  0.00     0.029 A 
ATOM     52  N   UNL A   1      41.311  30.576  34.524  1.00  0.00    -0.354 N 
ATOM     53  N   UNL A   1      41.575  29.038  32.038  1.00  0.00    -0.248 NA
ATOM     54  C   UNL A   1      42.699  27.457  30.739  1.00  0.00     0.031 C 
ATOM     55  C   UNL A   1      42.717  30.135  36.188  1.00  0.00     0.029 A 
ATOM     56  C   UNL A   1      42.386  29.781  34.890  1.00  0.00     0.049 A 
ATOM     57  H   UNL A   1      40.862  30.551  33.649  1.00  0.00     0.167 HD
ATOM     58  C   UNL A   1      42.615  28.495  32.781  1.00  0.00     0.074 A 
ATOM     59  C   UNL A   1      43.254  27.503  31.941  1.00  0.00     0.031 C 
ATOM     60  C   UNL A   1      43.004  28.792  34.045  1.00  0.00     0.037 A 
BRANCH  47  61
ATOM     61  C   UNL A   1      39.691  33.261  36.729  1.00  0.00     0.064 A 
ATOM     62  C   UNL A   1      38.785  32.920  37.745  1.00  0.00     0.173 A 
ATOM     63  C   UNL A   1      40.431  34.443  36.881  1.00  0.00     0.173 A 
ATOM     64  F   UNL A   1      38.043  31.807  37.642  1.00  0.00    -0.203 F 
ATOM     65  C   UNL A   1      38.606  33.743  38.853  1.00  0.00     0.198 A 
ATOM     66  C   UNL A   1      40.273  35.249  38.006  1.00  0.00     0.198 A 
ATOM     67  F   UNL A   1      41.316  34.812  35.943  1.00  0.00    -0.203 F 
ATOM     68  F   UNL A   1      37.699  33.422  39.786  1.00  0.00    -0.200 F 
ATOM     69  C   UNL A   1      39.355  34.903  38.987  1.00  0.00     0.200 A 
ATOM     70  F   UNL A   1      41.007  36.362  38.140  1.00  0.00    -0.200 F 
ATOM     71  F   UNL A   1      39.188  35.691  40.057  1.00  0.00    -0.200 F 
ENDBRANCH  47  61
BRANCH  48  72
ATOM     72  C   UNL A   1      40.908  27.814  28.450  1.00  0.00     0.064 A 
ATOM     73  C   UNL A   1      40.252  26.589  28.264  1.00  0.00     0.173 A 
ATOM     74  C   UNL A   1      41.760  28.260  27.430  1.00  0.00     0.173 A 
ATOM     75  F   UNL A   1      39.442  26.112  29.221  1.00  0.00    -0.203 F 
ATOM     76  C   UNL A   1      40.456  25.830  27.113  1.00  0.00     0.198 A 
ATOM     77  C   UNL A   1      41.942  27.514  26.267  1.00  0.00     0.198 A 
ATOM     78  F   UNL A   1      42.405  29.429  27.557  1.00  0.00    -0.203 F 
ATOM     79  F   UNL A   1      39.850  24.642  26.981  1.00  0.00    -0.200 F 
ATOM     80  C   UNL A   1      41.296  26.296  26.114  1.00  0.00     0.200 A 
ATOM     81  F   UNL A   1      42.743  27.974  25.297  1.00  0.00    -0.200 F 
ATOM     82  F   UNL A   1      41.488  25.569  25.004  1.00  0.00    -0.200 F 
ENDBRANCH  48  72
BRANCH  60  83
ATOM     83  C   UNL A   1      44.154  28.011  34.609  1.00  0.00     0.064 A 
ATOM     84  C   UNL A   1      45.472  28.484  34.534  1.00  0.00     0.173 A 
ATOM     85  C   UNL A   1      43.928  26.795  35.271  1.00  0.00     0.173 A 
ATOM     86  F   UNL A   1      45.741  29.635  33.898  1.00  0.00    -0.203 F 
ATOM     87  C   UNL A   1      46.526  27.755  35.078  1.00  0.00     0.198 A 
ATOM     88  C   UNL A   1      44.980  26.082  35.838  1.00  0.00     0.198 A 
ATOM     89  F   UNL A   1      42.685  26.303  35.375  1.00  0.00    -0.203 F 
ATOM     90  F   UNL A   1      47.783  28.202  34.954  1.00  0.00    -0.200 F 
ATOM     91  C   UNL A   1      46.278  26.558  35.736  1.00  0.00     0.200 A 
ATOM     92  F   UNL A   1      44.738  24.933  36.485  1.00  0.00    -0.200 F 
ATOM     93  F   UNL A   1      47.293  25.862  36.266  1.00  0.00    -0.200 F 
ENDBRANCH  60  83
ENDBRANCH  34  35
ENDBRANCH  26  29
ENDBRANCH  24  25
ENDBRANCH  23  24
ENDBRANCH   1  23
TORSDOF 14
ENDMDL
MODEL 3
REMARK VINA RESULT:     -12.1      0.692      7.330
REMARK SMILES CC(C)(C[NH2+]Cc1ccc2c(c1)OCO2)C(=O)NCCCNC(=O)c1ccc(-c2c3nc(c(-c4c(F)c(F)c(F)c(F)c4F)c4ccc([nH]4)c(-c4c(F)c(F)c(F)c(F)c4F)c4nc(c(-c5c(F)c(F)c(F)c(F)c5F)c5ccc2[nH]5)C=C4)C=C3)cc1
REMARK SMILES IDX 19 1 18 2 16 3 17 4 2 6 1 7 3 8 4 9 5 10 6 13 7 14 8 15
REMARK SMILES IDX 12 16 9 17 11 18 10 19 13 20 15 21 14 22 20 23 21 24 22 25
REMARK SMILES IDX 23 26 24 28 25 29 26 30 87 31 27 32 86 33 28 34 29 35 30 36
REMARK SMILES IDX 80 37 31 38 85 39 79 40 81 41 32 42 84 43 78 44 77 45 33 47
REMARK SMILES IDX 65 48 45 49 64 50 46 51 49 52 63 53 82 54 47 55 48 56 62 58
REMARK SMILES IDX 83 59 50 60 34 61 35 62 43 63 36 64 37 65 41 66 44 67 38 68
REMARK SMILES IDX 39 69 42 70 40 71 66 72 67 73 75 74 68 75 69 76 73 77 76 78
REMARK SMILES IDX 70 79 71 80 74 81 72 82 51 83 52 84 60 85 53 86 54 87 58 88
REMARK SMILES IDX 61 89 55 90 56 91 59 92 57 93
REMARK H PARENT 18 5 5 11 5 12 22 27 81 46 49 57
REMARK Flexibility Score: inf
ROOT
ATOM      1  C   UNL A   1      31.557  30.776  26.728  1.00  0.00     0.117 C 
ENDROOT
BRANCH   1   2
ATOM      2  N   UNL A   1      32.272  30.374  25.532  1.00  0.00    -0.355 N 
ATOM      3  C   UNL A   1      32.552  29.165  24.977  1.00  0.00     0.231 C 
ATOM      4  O   UNL A   1      33.198  29.206  23.924  1.00  0.00    -0.274 OA
ATOM      5  H   UNL A   1      32.627  31.133  25.015  1.00  0.00     0.163 HD
BRANCH   3   6
ATOM      6  C   UNL A   1      32.059  27.828  25.564  1.00  0.00     0.092 C 
ATOM      7  C   UNL A   1      31.508  28.088  26.989  1.00  0.00     0.027 C 
ATOM      8  C   UNL A   1      33.250  26.864  25.743  1.00  0.00     0.027 C 
BRANCH   6   9
ATOM      9  C   UNL A   1      30.952  27.167  24.705  1.00  0.00     0.277 C 
BRANCH   9  10
ATOM     10  N   UNL A   1      30.675  27.854  23.436  1.00  0.00    -0.342 N 
ATOM     11  H   UNL A   1      31.078  27.305  22.677  1.00  0.00     0.346 HD
ATOM     12  H   UNL A   1      31.089  28.784  23.501  1.00  0.00     0.346 HD
BRANCH  10  13
ATOM     13  C   UNL A   1      29.244  28.037  23.170  1.00  0.00     0.297 C 
BRANCH  13  14
ATOM     14  C   UNL A   1      28.865  29.469  22.873  1.00  0.00     0.010 A 
ATOM     15  C   UNL A   1      29.140  30.480  23.825  1.00  0.00     0.013 A 
ATOM     16  C   UNL A   1      28.324  29.818  21.625  1.00  0.00     0.060 A 
ATOM     17  C   UNL A   1      28.907  31.826  23.533  1.00  0.00     0.051 A 
ATOM     18  C   UNL A   1      28.107  31.155  21.367  1.00  0.00     0.166 A 
ATOM     19  C   UNL A   1      28.396  32.130  22.292  1.00  0.00     0.165 A 
ATOM     20  O   UNL A   1      27.623  31.671  20.205  1.00  0.00    -0.454 OA
ATOM     21  O   UNL A   1      28.135  33.381  21.827  1.00  0.00    -0.454 OA
ATOM     22  C   UNL A   1      27.655  33.082  20.500  1.00  0.00     0.468 C 
ENDBRANCH  13  14
ENDBRANCH  10  13
ENDBRANCH   9  10
ENDBRANCH   6   9
ENDBRANCH   3   6
ENDBRANCH   1   2
BRANCH   1  23
ATOM     23  C   UNL A   1      31.403  32.289  26.834  1.00  0.00     0.042 C 
BRANCH  23  24
ATOM     24  C   UNL A   1      32.719  33.038  27.010  1.00  0.00     0.118 C 
BRANCH  24  25
ATOM     25  N   UNL A   1      32.546  34.339  27.647  1.00  0.00    -0.352 N 
ATOM     26  C   UNL A   1      33.129  34.870  28.768  1.00  0.00     0.251 C 
ATOM     27  H   UNL A   1      31.903  34.934  27.198  1.00  0.00     0.163 HD
ATOM     28  O   UNL A   1      32.689  35.920  29.238  1.00  0.00    -0.269 OA
BRANCH  26  29
ATOM     29  C   UNL A   1      34.265  34.197  29.431  1.00  0.00     0.039 A 
ATOM     30  C   UNL A   1      34.000  33.263  30.439  1.00  0.00     0.014 A 
ATOM     31  C   UNL A   1      35.586  34.504  29.100  1.00  0.00     0.014 A 
ATOM     32  C   UNL A   1      35.053  32.592  31.063  1.00  0.00     0.010 A 
ATOM     33  C   UNL A   1      36.632  33.776  29.665  1.00  0.00     0.010 A 
ATOM     34  C   UNL A   1      36.378  32.816  30.655  1.00  0.00    -0.014 A 
BRANCH  34  35
ATOM     35  C   UNL A   1      37.510  32.063  31.251  1.00  0.00     0.031 A 
ATOM     36  C   UNL A   1      38.001  32.401  32.630  1.00  0.00     0.074 A 
ATOM     37  C   UNL A   1      38.143  31.125  30.520  1.00  0.00     0.049 A 
ATOM     38  N   UNL A   1      39.030  31.924  33.285  1.00  0.00    -0.248 NA
ATOM     39  C   UNL A   1      37.253  33.435  33.363  1.00  0.00     0.031 C 
ATOM     40  C   UNL A   1      37.793  30.740  29.152  1.00  0.00     0.029 A 
ATOM     41  N   UNL A   1      39.226  30.336  30.820  1.00  0.00    -0.354 N 
ATOM     42  C   UNL A   1      39.064  32.613  34.490  1.00  0.00     0.074 A 
ATOM     43  C   UNL A   1      37.984  33.574  34.459  1.00  0.00     0.031 C 
ATOM     44  C   UNL A   1      38.631  29.775  28.739  1.00  0.00     0.029 A 
ATOM     45  C   UNL A   1      39.600  29.502  29.795  1.00  0.00     0.049 A 
ATOM     46  H   UNL A   1      39.690  30.365  31.688  1.00  0.00     0.167 HD
ATOM     47  C   UNL A   1      39.907  32.443  35.537  1.00  0.00     0.037 A 
ATOM     48  C   UNL A   1      40.616  28.622  29.714  1.00  0.00     0.037 A 
ATOM     49  C   UNL A   1      40.960  31.463  35.578  1.00  0.00     0.049 A 
ATOM     50  C   UNL A   1      41.534  28.449  30.893  1.00  0.00     0.074 A 
ATOM     51  C   UNL A   1      41.826  31.168  36.618  1.00  0.00     0.029 A 
ATOM     52  N   UNL A   1      41.291  30.617  34.530  1.00  0.00    -0.354 N 
ATOM     53  N   UNL A   1      41.516  29.060  32.052  1.00  0.00    -0.248 NA
ATOM     54  C   UNL A   1      42.611  27.458  30.754  1.00  0.00     0.031 C 
ATOM     55  C   UNL A   1      42.707  30.172  36.184  1.00  0.00     0.029 A 
ATOM     56  C   UNL A   1      42.360  29.813  34.891  1.00  0.00     0.049 A 
ATOM     57  H   UNL A   1      40.834  30.591  33.659  1.00  0.00     0.167 HD
ATOM     58  C   UNL A   1      42.557  28.511  32.789  1.00  0.00     0.074 A 
ATOM     59  C   UNL A   1      43.177  27.506  31.951  1.00  0.00     0.031 C 
ATOM     60  C   UNL A   1      42.960  28.812  34.048  1.00  0.00     0.037 A 
BRANCH  47  61
ATOM     61  C   UNL A   1      39.720  33.334  36.730  1.00  0.00     0.064 A 
ATOM     62  C   UNL A   1      40.399  34.556  36.850  1.00  0.00     0.173 A 
ATOM     63  C   UNL A   1      38.825  32.980  37.751  1.00  0.00     0.173 A 
ATOM     64  F   UNL A   1      41.276  34.936  35.908  1.00  0.00    -0.203 F 
ATOM     65  C   UNL A   1      40.213  35.376  37.959  1.00  0.00     0.198 A 
ATOM     66  C   UNL A   1      38.616  33.817  38.845  1.00  0.00     0.198 A 
ATOM     67  F   UNL A   1      38.143  31.827  37.683  1.00  0.00    -0.203 F 
ATOM     68  F   UNL A   1      40.910  36.515  38.075  1.00  0.00    -0.200 F 
ATOM     69  C   UNL A   1      39.316  35.010  38.952  1.00  0.00     0.200 A 
ATOM     70  F   UNL A   1      37.740  33.468  39.797  1.00  0.00    -0.200 F 
ATOM     71  F   UNL A   1      39.132  35.803  40.016  1.00  0.00    -0.200 F 
ENDBRANCH  47  61
BRANCH  48  72
ATOM     72  C   UNL A   1      40.804  27.819  28.478  1.00  0.00     0.064 A 
ATOM     73  C   UNL A   1      41.607  28.293  27.431  1.00  0.00     0.173 A 
ATOM     74  C   UNL A   1      40.190  26.569  28.317  1.00  0.00     0.173 A 
ATOM     75  F   UNL A   1      42.198  29.492  27.531  1.00  0.00    -0.203 F 
ATOM     76  C   UNL A   1      41.773  27.555  26.260  1.00  0.00     0.198 A 
ATOM     77  C   UNL A   1      40.379  25.819  27.158  1.00  0.00     0.198 A 
ATOM     78  F   UNL A   1      39.418  26.069  29.293  1.00  0.00    -0.203 F 
ATOM     79  F   UNL A   1      42.510  28.050  25.258  1.00  0.00    -0.200 F 
ATOM     80  C   UNL A   1      41.164  26.316  26.128  1.00  0.00     0.200 A 
ATOM     81  F   UNL A   1      39.801  24.616  27.039  1.00  0.00    -0.200 F 
ATOM     82  F   UNL A   1      41.327  25.604  25.004  1.00  0.00    -0.200 F 
ENDBRANCH  48  72
BRANCH  60  83
ATOM     83  C   UNL A   1      44.107  28.022  34.608  1.00  0.00     0.064 A 
ATOM     84  C   UNL A   1      45.430  28.473  34.505  1.00  0.00     0.173 A 
ATOM     85  C   UNL A   1      43.872  26.819  35.291  1.00  0.00     0.173 A 
ATOM     86  F   UNL A   1      45.707  29.610  33.848  1.00  0.00    -0.203 F 
ATOM     87  C   UNL A   1      46.481  27.736  35.046  1.00  0.00     0.198 A 
ATOM     88  C   UNL A   1      44.922  26.100  35.854  1.00  0.00     0.198 A 
ATOM     89  F   UNL A   1      42.623  26.348  35.421  1.00  0.00    -0.203 F 
ATOM     90  F   UNL A   1      47.742  28.162  34.896  1.00  0.00    -0.200 F 
ATOM     91  C   UNL A   1      46.225  26.554  35.726  1.00  0.00     0.200 A 
ATOM     92  F   UNL A   1      44.672  24.964  36.521  1.00  0.00    -0.200 F 
ATOM     93  F   UNL A   1      47.237  25.850  36.251  1.00  0.00    -0.200 F 
ENDBRANCH  60  83
ENDBRANCH  34  35
ENDBRANCH  26  29
ENDBRANCH  24  25
ENDBRANCH  23  24
ENDBRANCH   1  23
TORSDOF 14
ENDMDL
