MODEL 1
REMARK VINA RESULT:     -12.7      0.000      0.000
REMARK SMILES Cc1cccc(Nc2ccccc2C(=O)NCCCNC(=O)c2ccc(-c3c4nc(c(-c5c(F)c(F)c(F)c(F)c5F)c5ccc([nH]5)c(-c5c(F)c(F)c(F)c(F)c5F)c5nc(c(-c6c(F)c(F)c(F)c(F)c6F)c6ccc3[nH]6)C=C5)C=C4)cc2)c1C
REMARK SMILES IDX 18 1 17 2 16 3 14 4 15 5 13 7 8 8 9 9 10 10 12 11 11 12 7 13
REMARK SMILES IDX 6 15 1 16 2 17 3 18 86 19 4 20 87 21 5 22 19 23 20 24 21 25
REMARK SMILES IDX 22 27 23 28 24 29 85 30 25 31 84 32 26 33 27 34 28 35 78 36
REMARK SMILES IDX 29 37 83 38 77 39 79 40 30 41 82 42 76 43 75 44 31 46 63 47
REMARK SMILES IDX 43 48 62 49 44 50 47 51 61 52 80 53 45 54 46 55 60 57 81 58
REMARK SMILES IDX 48 59 32 60 33 61 41 62 34 63 35 64 39 65 42 66 36 67 37 68
REMARK SMILES IDX 40 69 38 70 64 71 65 72 73 73 66 74 67 75 71 76 74 77 68 78
REMARK SMILES IDX 69 79 72 80 70 81 49 82 50 83 58 84 51 85 52 86 56 87 59 88
REMARK SMILES IDX 53 89 54 90 57 91 55 92
REMARK H PARENT 16 6 7 14 20 26 79 45 47 56
REMARK Flexibility Score: inf
ROOT
ATOM      1  C   UNL A   1      31.584  29.021  26.248  1.00  0.00     0.042 C 
ENDROOT
BRANCH   1   2
ATOM      2  C   UNL A   1      32.048  27.766  26.946  1.00  0.00     0.118 C 
BRANCH   2   3
ATOM      3  N   UNL A   1      31.173  26.630  26.890  1.00  0.00    -0.352 N 
ATOM      4  C   UNL A   1      31.466  25.367  26.431  1.00  0.00     0.253 C 
ATOM      5  O   UNL A   1      30.689  24.467  26.765  1.00  0.00    -0.269 OA
ATOM      6  H   UNL A   1      30.256  26.772  27.218  1.00  0.00     0.163 HD
BRANCH   4   7
ATOM      7  C   UNL A   1      32.548  25.053  25.434  1.00  0.00     0.063 A 
ATOM      8  C   UNL A   1      32.548  25.140  24.023  1.00  0.00     0.051 A 
ATOM      9  C   UNL A   1      33.683  24.643  23.330  1.00  0.00     0.027 A 
ATOM     10  C   UNL A   1      34.810  24.150  23.986  1.00  0.00     0.002 A 
ATOM     11  C   UNL A   1      33.718  24.570  26.077  1.00  0.00     0.016 A 
ATOM     12  C   UNL A   1      34.838  24.138  25.367  1.00  0.00     0.001 A 
BRANCH   8  13
ATOM     13  N   UNL A   1      31.606  25.764  23.173  1.00  0.00    -0.355 N 
ATOM     14  H   UNL A   1      31.300  25.167  22.453  1.00  0.00     0.167 HD
BRANCH  13  15
ATOM     15  C   UNL A   1      31.001  27.036  23.108  1.00  0.00     0.042 A 
ATOM     16  C   UNL A   1      27.630  28.850  23.080  1.00  0.00     0.044 C 
ATOM     17  C   UNL A   1      29.102  28.558  22.959  1.00  0.00    -0.046 A 
ATOM     18  C   UNL A   1      29.947  29.565  22.468  1.00  0.00     0.004 A 
ATOM     19  C   UNL A   1      29.636  27.297  23.331  1.00  0.00    -0.025 A 
ATOM     20  C   UNL A   1      31.310  29.344  22.341  1.00  0.00     0.002 A 
ATOM     21  C   UNL A   1      28.736  26.283  23.992  1.00  0.00     0.047 C 
ATOM     22  C   UNL A   1      31.829  28.093  22.660  1.00  0.00     0.026 A 
ENDBRANCH  13  15
ENDBRANCH   8  13
ENDBRANCH   4   7
ENDBRANCH   2   3
ENDBRANCH   1   2
BRANCH   1  23
ATOM     23  C   UNL A   1      32.702  29.985  25.880  1.00  0.00     0.118 C 
BRANCH  23  24
ATOM     24  N   UNL A   1      32.549  31.339  26.421  1.00  0.00    -0.352 N 
ATOM     25  C   UNL A   1      33.317  32.078  27.299  1.00  0.00     0.251 C 
ATOM     26  H   UNL A   1      31.747  31.810  26.098  1.00  0.00     0.163 HD
ATOM     27  O   UNL A   1      32.932  33.171  27.683  1.00  0.00    -0.269 OA
BRANCH  25  28
ATOM     28  C   UNL A   1      34.590  31.530  27.820  1.00  0.00     0.039 A 
ATOM     29  C   UNL A   1      35.681  32.384  28.013  1.00  0.00     0.014 A 
ATOM     30  C   UNL A   1      34.701  30.183  28.147  1.00  0.00     0.014 A 
ATOM     31  C   UNL A   1      36.834  31.904  28.643  1.00  0.00     0.010 A 
ATOM     32  C   UNL A   1      35.774  29.749  28.908  1.00  0.00     0.010 A 
ATOM     33  C   UNL A   1      36.864  30.598  29.150  1.00  0.00    -0.014 A 
BRANCH  33  34
ATOM     34  C   UNL A   1      38.026  30.054  29.897  1.00  0.00     0.031 A 
ATOM     35  C   UNL A   1      38.272  30.512  31.310  1.00  0.00     0.074 A 
ATOM     36  C   UNL A   1      38.917  29.256  29.277  1.00  0.00     0.049 A 
ATOM     37  N   UNL A   1      39.314  30.323  32.079  1.00  0.00    -0.248 NA
ATOM     38  C   UNL A   1      37.226  31.354  31.918  1.00  0.00     0.031 C 
ATOM     39  C   UNL A   1      38.830  28.803  27.888  1.00  0.00     0.029 A 
ATOM     40  N   UNL A   1      40.087  28.703  29.732  1.00  0.00    -0.354 N 
ATOM     41  C   UNL A   1      39.064  31.055  33.233  1.00  0.00     0.074 A 
ATOM     42  C   UNL A   1      37.817  31.757  33.031  1.00  0.00     0.031 C 
ATOM     43  C   UNL A   1      39.887  28.023  27.612  1.00  0.00     0.029 A 
ATOM     44  C   UNL A   1      40.748  27.955  28.788  1.00  0.00     0.049 A 
ATOM     45  H   UNL A   1      40.423  28.830  30.650  1.00  0.00     0.167 HD
ATOM     46  C   UNL A   1      39.788  31.106  34.376  1.00  0.00     0.037 A 
ATOM     47  C   UNL A   1      41.920  27.297  28.864  1.00  0.00     0.037 A 
ATOM     48  C   UNL A   1      40.998  30.360  34.587  1.00  0.00     0.049 A 
ATOM     49  C   UNL A   1      42.684  27.324  30.161  1.00  0.00     0.074 A 
ATOM     50  C   UNL A   1      41.778  30.281  35.725  1.00  0.00     0.029 A 
ATOM     51  N   UNL A   1      41.595  29.551  33.631  1.00  0.00    -0.354 N 
ATOM     52  N   UNL A   1      42.410  27.969  31.269  1.00  0.00    -0.248 NA
ATOM     53  C   UNL A   1      43.911  26.521  30.222  1.00  0.00     0.031 C 
ATOM     54  C   UNL A   1      42.868  29.447  35.446  1.00  0.00     0.029 A 
ATOM     55  C   UNL A   1      42.739  28.970  34.151  1.00  0.00     0.049 A 
ATOM     56  H   UNL A   1      41.255  29.411  32.717  1.00  0.00     0.167 HD
ATOM     57  C   UNL A   1      43.414  27.634  32.166  1.00  0.00     0.074 A 
ATOM     58  C   UNL A   1      44.294  26.712  31.476  1.00  0.00     0.031 C 
ATOM     59  C   UNL A   1      43.594  28.050  33.444  1.00  0.00     0.037 A 
BRANCH  46  60
ATOM     60  C   UNL A   1      39.268  31.984  35.481  1.00  0.00     0.064 A 
ATOM     61  C   UNL A   1      39.640  33.335  35.586  1.00  0.00     0.173 A 
ATOM     62  C   UNL A   1      38.399  31.469  36.455  1.00  0.00     0.173 A 
ATOM     63  F   UNL A   1      40.479  33.875  34.690  1.00  0.00    -0.203 F 
ATOM     64  C   UNL A   1      39.203  34.121  36.650  1.00  0.00     0.198 A 
ATOM     65  C   UNL A   1      37.934  32.269  37.496  1.00  0.00     0.198 A 
ATOM     66  F   UNL A   1      38.007  30.188  36.404  1.00  0.00    -0.203 F 
ATOM     67  F   UNL A   1      39.635  35.383  36.768  1.00  0.00    -0.200 F 
ATOM     68  C   UNL A   1      38.347  33.589  37.600  1.00  0.00     0.200 A 
ATOM     69  F   UNL A   1      37.095  31.759  38.409  1.00  0.00    -0.200 F 
ATOM     70  F   UNL A   1      37.929  34.345  38.625  1.00  0.00    -0.200 F 
ENDBRANCH  46  60
BRANCH  47  71
ATOM     71  C   UNL A   1      42.413  26.527  27.692  1.00  0.00     0.064 A 
ATOM     72  C   UNL A   1      43.331  27.092  26.795  1.00  0.00     0.173 A 
ATOM     73  C   UNL A   1      42.002  25.208  27.458  1.00  0.00     0.173 A 
ATOM     74  F   UNL A   1      43.741  28.358  26.967  1.00  0.00    -0.203 F 
ATOM     75  C   UNL A   1      43.805  26.374  25.700  1.00  0.00     0.198 A 
ATOM     76  C   UNL A   1      42.499  24.479  26.378  1.00  0.00     0.198 A 
ATOM     77  F   UNL A   1      41.135  24.616  28.292  1.00  0.00    -0.203 F 
ATOM     78  F   UNL A   1      44.654  26.951  24.839  1.00  0.00    -0.200 F 
ATOM     79  C   UNL A   1      43.395  25.066  25.497  1.00  0.00     0.200 A 
ATOM     80  F   UNL A   1      42.114  23.209  26.194  1.00  0.00    -0.200 F 
ATOM     81  F   UNL A   1      43.861  24.370  24.450  1.00  0.00    -0.200 F 
ENDBRANCH  47  71
BRANCH  59  82
ATOM     82  C   UNL A   1      44.766  27.484  34.191  1.00  0.00     0.064 A 
ATOM     83  C   UNL A   1      44.700  26.235  34.826  1.00  0.00     0.173 A 
ATOM     84  C   UNL A   1      45.983  28.181  34.228  1.00  0.00     0.173 A 
ATOM     85  F   UNL A   1      43.554  25.538  34.829  1.00  0.00    -0.203 F 
ATOM     86  C   UNL A   1      45.805  25.716  35.494  1.00  0.00     0.198 A 
ATOM     87  C   UNL A   1      47.094  27.644  34.870  1.00  0.00     0.198 A 
ATOM     88  F   UNL A   1      46.097  29.375  33.628  1.00  0.00    -0.203 F 
ATOM     89  F   UNL A   1      45.708  24.544  36.134  1.00  0.00    -0.200 F 
ATOM     90  C   UNL A   1      47.003  26.417  35.509  1.00  0.00     0.200 A 
ATOM     91  F   UNL A   1      48.254  28.316  34.871  1.00  0.00    -0.200 F 
ATOM     92  F   UNL A   1      48.068  25.911  36.145  1.00  0.00    -0.200 F 
ENDBRANCH  59  82
ENDBRANCH  33  34
ENDBRANCH  25  28
ENDBRANCH  23  24
ENDBRANCH   1  23
TORSDOF 12
ENDMDL
MODEL 2
REMARK VINA RESULT:     -12.6      2.010      8.171
REMARK SMILES Cc1cccc(Nc2ccccc2C(=O)NCCCNC(=O)c2ccc(-c3c4nc(c(-c5c(F)c(F)c(F)c(F)c5F)c5ccc([nH]5)c(-c5c(F)c(F)c(F)c(F)c5F)c5nc(c(-c6c(F)c(F)c(F)c(F)c6F)c6ccc3[nH]6)C=C5)C=C4)cc2)c1C
REMARK SMILES IDX 18 1 17 2 16 3 14 4 15 5 13 7 8 8 9 9 10 10 12 11 11 12 7 13
REMARK SMILES IDX 6 15 1 16 2 17 3 18 86 19 4 20 87 21 5 22 19 23 20 24 21 25
REMARK SMILES IDX 22 27 23 28 24 29 85 30 25 31 84 32 26 33 27 34 28 35 78 36
REMARK SMILES IDX 29 37 83 38 77 39 79 40 30 41 82 42 76 43 75 44 31 46 63 47
REMARK SMILES IDX 43 48 62 49 44 50 47 51 61 52 80 53 45 54 46 55 60 57 81 58
REMARK SMILES IDX 48 59 32 60 33 61 41 62 34 63 35 64 39 65 42 66 36 67 37 68
REMARK SMILES IDX 40 69 38 70 64 71 65 72 73 73 66 74 67 75 71 76 74 77 68 78
REMARK SMILES IDX 69 79 72 80 70 81 49 82 50 83 58 84 51 85 52 86 56 87 59 88
REMARK SMILES IDX 53 89 54 90 57 91 55 92
REMARK H PARENT 16 6 7 14 20 26 79 45 47 56
REMARK Flexibility Score: inf
ROOT
ATOM      1  C   UNL A   1      31.695  31.745  26.802  1.00  0.00     0.042 C 
ENDROOT
BRANCH   1   2
ATOM      2  C   UNL A   1      31.988  30.265  26.775  1.00  0.00     0.118 C 
BRANCH   2   3
ATOM      3  N   UNL A   1      32.896  29.801  25.765  1.00  0.00    -0.352 N 
ATOM      4  C   UNL A   1      32.590  29.119  24.611  1.00  0.00     0.253 C 
ATOM      5  O   UNL A   1      33.462  29.100  23.737  1.00  0.00    -0.269 OA
ATOM      6  H   UNL A   1      33.849  29.993  25.918  1.00  0.00     0.163 HD
BRANCH   4   7
ATOM      7  C   UNL A   1      31.360  28.273  24.422  1.00  0.00     0.063 A 
ATOM      8  C   UNL A   1      31.056  26.978  24.899  1.00  0.00     0.051 A 
ATOM      9  C   UNL A   1      29.857  26.370  24.442  1.00  0.00     0.027 A 
ATOM     10  C   UNL A   1      28.947  27.026  23.616  1.00  0.00     0.002 A 
ATOM     11  C   UNL A   1      30.405  28.928  23.601  1.00  0.00     0.016 A 
ATOM     12  C   UNL A   1      29.210  28.322  23.214  1.00  0.00     0.001 A 
BRANCH   8  13
ATOM     13  N   UNL A   1      31.732  26.210  25.875  1.00  0.00    -0.355 N 
ATOM     14  H   UNL A   1      31.441  26.428  26.790  1.00  0.00     0.167 HD
BRANCH  13  15
ATOM     15  C   UNL A   1      32.724  25.207  25.853  1.00  0.00     0.042 A 
ATOM     16  C   UNL A   1      33.744  21.844  27.370  1.00  0.00     0.044 C 
ATOM     17  C   UNL A   1      33.782  23.150  26.622  1.00  0.00    -0.046 A 
ATOM     18  C   UNL A   1      35.000  23.567  26.064  1.00  0.00     0.004 A 
ATOM     19  C   UNL A   1      32.618  23.949  26.474  1.00  0.00    -0.025 A 
ATOM     20  C   UNL A   1      35.083  24.761  25.363  1.00  0.00     0.002 A 
ATOM     21  C   UNL A   1      31.292  23.413  26.953  1.00  0.00     0.047 C 
ATOM     22  C   UNL A   1      33.956  25.569  25.258  1.00  0.00     0.026 A 
ENDBRANCH  13  15
ENDBRANCH   8  13
ENDBRANCH   4   7
ENDBRANCH   2   3
ENDBRANCH   1   2
BRANCH   1  23
ATOM     23  C   UNL A   1      32.861  32.608  27.261  1.00  0.00     0.118 C 
BRANCH  23  24
ATOM     24  N   UNL A   1      32.503  33.982  27.624  1.00  0.00    -0.352 N 
ATOM     25  C   UNL A   1      33.011  34.853  28.568  1.00  0.00     0.251 C 
ATOM     26  H   UNL A   1      31.761  34.355  27.095  1.00  0.00     0.163 HD
ATOM     27  O   UNL A   1      32.479  35.937  28.755  1.00  0.00    -0.269 OA
BRANCH  25  28
ATOM     28  C   UNL A   1      34.174  34.461  29.395  1.00  0.00     0.039 A 
ATOM     29  C   UNL A   1      33.963  33.904  30.662  1.00  0.00     0.014 A 
ATOM     30  C   UNL A   1      35.470  34.611  28.915  1.00  0.00     0.014 A 
ATOM     31  C   UNL A   1      35.047  33.396  31.385  1.00  0.00     0.010 A 
ATOM     32  C   UNL A   1      36.517  33.970  29.555  1.00  0.00     0.010 A 
ATOM     33  C   UNL A   1      36.325  33.370  30.807  1.00  0.00    -0.014 A 
BRANCH  33  34
ATOM     34  C   UNL A   1      37.501  32.773  31.489  1.00  0.00     0.031 A 
ATOM     35  C   UNL A   1      38.227  31.628  30.835  1.00  0.00     0.074 A 
ATOM     36  C   UNL A   1      37.838  33.170  32.732  1.00  0.00     0.049 A 
ATOM     37  N   UNL A   1      39.148  30.836  31.323  1.00  0.00    -0.248 NA
ATOM     38  C   UNL A   1      37.813  31.287  29.462  1.00  0.00     0.031 C 
ATOM     39  C   UNL A   1      37.164  34.217  33.501  1.00  0.00     0.029 A 
ATOM     40  N   UNL A   1      38.821  32.719  33.576  1.00  0.00    -0.354 N 
ATOM     41  C   UNL A   1      39.385  29.887  30.337  1.00  0.00     0.074 A 
ATOM     42  C   UNL A   1      38.457  30.148  29.261  1.00  0.00     0.031 C 
ATOM     43  C   UNL A   1      37.768  34.345  34.694  1.00  0.00     0.029 A 
ATOM     44  C   UNL A   1      38.842  33.362  34.790  1.00  0.00     0.049 A 
ATOM     45  H   UNL A   1      39.452  32.003  33.335  1.00  0.00     0.167 HD
ATOM     46  C   UNL A   1      40.321  28.909  30.311  1.00  0.00     0.037 A 
ATOM     47  C   UNL A   1      39.635  33.171  35.862  1.00  0.00     0.037 A 
ATOM     48  C   UNL A   1      41.276  28.693  31.363  1.00  0.00     0.049 A 
ATOM     49  C   UNL A   1      40.704  32.113  35.793  1.00  0.00     0.074 A 
ATOM     50  C   UNL A   1      42.312  27.779  31.417  1.00  0.00     0.029 A 
ATOM     51  N   UNL A   1      41.315  29.418  32.546  1.00  0.00    -0.354 N 
ATOM     52  N   UNL A   1      40.962  31.260  34.832  1.00  0.00    -0.248 NA
ATOM     53  C   UNL A   1      41.599  32.002  36.951  1.00  0.00     0.031 C 
ATOM     54  C   UNL A   1      42.958  27.928  32.650  1.00  0.00     0.029 A 
ATOM     55  C   UNL A   1      42.355  28.967  33.342  1.00  0.00     0.049 A 
ATOM     56  H   UNL A   1      40.695  30.143  32.785  1.00  0.00     0.167 HD
ATOM     57  C   UNL A   1      42.061  30.526  35.256  1.00  0.00     0.074 A 
ATOM     58  C   UNL A   1      42.431  31.049  36.556  1.00  0.00     0.031 C 
ATOM     59  C   UNL A   1      42.707  29.511  34.629  1.00  0.00     0.037 A 
BRANCH  46  60
ATOM     60  C   UNL A   1      40.358  28.024  29.097  1.00  0.00     0.064 A 
ATOM     61  C   UNL A   1      41.115  28.360  27.962  1.00  0.00     0.173 A 
ATOM     62  C   UNL A   1      39.620  26.831  29.058  1.00  0.00     0.173 A 
ATOM     63  F   UNL A   1      41.829  29.496  27.939  1.00  0.00    -0.203 F 
ATOM     64  C   UNL A   1      41.091  27.564  26.819  1.00  0.00     0.198 A 
ATOM     65  C   UNL A   1      39.628  26.018  27.927  1.00  0.00     0.198 A 
ATOM     66  F   UNL A   1      38.882  26.457  30.113  1.00  0.00    -0.203 F 
ATOM     67  F   UNL A   1      41.761  27.949  25.724  1.00  0.00    -0.200 F 
ATOM     68  C   UNL A   1      40.352  26.392  26.805  1.00  0.00     0.200 A 
ATOM     69  F   UNL A   1      38.925  24.878  27.917  1.00  0.00    -0.200 F 
ATOM     70  F   UNL A   1      40.328  25.628  25.703  1.00  0.00    -0.200 F 
ENDBRANCH  46  60
BRANCH  47  71
ATOM     71  C   UNL A   1      39.472  34.028  37.065  1.00  0.00     0.064 A 
ATOM     72  C   UNL A   1      38.748  33.576  38.177  1.00  0.00     0.173 A 
ATOM     73  C   UNL A   1      40.055  35.301  37.141  1.00  0.00     0.173 A 
ATOM     74  F   UNL A   1      38.157  32.372  38.146  1.00  0.00    -0.203 F 
ATOM     75  C   UNL A   1      38.599  34.370  39.312  1.00  0.00     0.198 A 
ATOM     76  C   UNL A   1      39.930  36.083  38.287  1.00  0.00     0.198 A 
ATOM     77  F   UNL A   1      40.767  35.776  36.109  1.00  0.00    -0.203 F 
ATOM     78  F   UNL A   1      37.871  33.927  40.346  1.00  0.00    -0.200 F 
ATOM     79  C   UNL A   1      39.196  35.620  39.370  1.00  0.00     0.200 A 
ATOM     80  F   UNL A   1      40.522  37.284  38.346  1.00  0.00    -0.200 F 
ATOM     81  F   UNL A   1      39.063  36.379  40.467  1.00  0.00    -0.200 F 
ENDBRANCH  47  71
BRANCH  59  82
ATOM     82  C   UNL A   1      43.900  28.925  35.324  1.00  0.00     0.064 A 
ATOM     83  C   UNL A   1      43.773  27.870  36.239  1.00  0.00     0.173 A 
ATOM     84  C   UNL A   1      45.189  29.396  35.033  1.00  0.00     0.173 A 
ATOM     85  F   UNL A   1      42.561  27.396  36.561  1.00  0.00    -0.203 F 
ATOM     86  C   UNL A   1      44.895  27.324  36.857  1.00  0.00     0.198 A 
ATOM     87  C   UNL A   1      46.309  28.826  35.628  1.00  0.00     0.198 A 
ATOM     88  F   UNL A   1      45.362  30.398  34.158  1.00  0.00    -0.203 F 
ATOM     89  F   UNL A   1      44.749  26.349  37.764  1.00  0.00    -0.200 F 
ATOM     90  C   UNL A   1      46.162  27.797  36.545  1.00  0.00     0.200 A 
ATOM     91  F   UNL A   1      47.533  29.275  35.315  1.00  0.00    -0.200 F 
ATOM     92  F   UNL A   1      47.241  27.263  37.135  1.00  0.00    -0.200 F 
ENDBRANCH  59  82
ENDBRANCH  33  34
ENDBRANCH  25  28
ENDBRANCH  23  24
ENDBRANCH   1  23
TORSDOF 12
ENDMDL
MODEL 3
REMARK VINA RESULT:     -12.6      5.006      8.413
REMARK SMILES Cc1cccc(Nc2ccccc2C(=O)NCCCNC(=O)c2ccc(-c3c4nc(c(-c5c(F)c(F)c(F)c(F)c5F)c5ccc([nH]5)c(-c5c(F)c(F)c(F)c(F)c5F)c5nc(c(-c6c(F)c(F)c(F)c(F)c6F)c6ccc3[nH]6)C=C5)C=C4)cc2)c1C
REMARK SMILES IDX 18 1 17 2 16 3 14 4 15 5 13 7 8 8 9 9 10 10 12 11 11 12 7 13
REMARK SMILES IDX 6 15 1 16 2 17 3 18 86 19 4 20 87 21 5 22 19 23 20 24 21 25
REMARK SMILES IDX 22 27 23 28 24 29 85 30 25 31 84 32 26 33 27 34 28 35 78 36
REMARK SMILES IDX 29 37 83 38 77 39 79 40 30 41 82 42 76 43 75 44 31 46 63 47
REMARK SMILES IDX 43 48 62 49 44 50 47 51 61 52 80 53 45 54 46 55 60 57 81 58
REMARK SMILES IDX 48 59 32 60 33 61 41 62 34 63 35 64 39 65 42 66 36 67 37 68
REMARK SMILES IDX 40 69 38 70 64 71 65 72 73 73 66 74 67 75 71 76 74 77 68 78
REMARK SMILES IDX 69 79 72 80 70 81 49 82 50 83 58 84 51 85 52 86 56 87 59 88
REMARK SMILES IDX 53 89 54 90 57 91 55 92
REMARK H PARENT 16 6 7 14 20 26 79 45 47 56
REMARK Flexibility Score: inf
ROOT
ATOM      1  C   UNL A   1      38.066  20.248  25.014  1.00  0.00     0.042 C 
ENDROOT
BRANCH   1   2
ATOM      2  C   UNL A   1      37.179  21.465  24.920  1.00  0.00     0.118 C 
BRANCH   2   3
ATOM      3  N   UNL A   1      36.287  21.705  26.018  1.00  0.00    -0.352 N 
ATOM      4  C   UNL A   1      34.926  21.512  26.052  1.00  0.00     0.253 C 
ATOM      5  O   UNL A   1      34.405  21.469  27.170  1.00  0.00    -0.269 OA
ATOM      6  H   UNL A   1      36.698  22.048  26.844  1.00  0.00     0.163 HD
BRANCH   4   7
ATOM      7  C   UNL A   1      34.035  21.523  24.840  1.00  0.00     0.063 A 
ATOM      8  C   UNL A   1      33.690  22.578  23.964  1.00  0.00     0.051 A 
ATOM      9  C   UNL A   1      32.708  22.319  22.972  1.00  0.00     0.027 A 
ATOM     10  C   UNL A   1      32.138  21.062  22.786  1.00  0.00     0.002 A 
ATOM     11  C   UNL A   1      33.457  20.246  24.613  1.00  0.00     0.016 A 
ATOM     12  C   UNL A   1      32.533  20.013  23.594  1.00  0.00     0.001 A 
BRANCH   8  13
ATOM     13  N   UNL A   1      34.269  23.863  23.852  1.00  0.00    -0.355 N 
ATOM     14  H   UNL A   1      35.138  23.843  23.390  1.00  0.00     0.167 HD
BRANCH  13  15
ATOM     15  C   UNL A   1      33.900  25.167  24.245  1.00  0.00     0.042 A 
ATOM     16  C   UNL A   1      33.273  28.715  22.953  1.00  0.00     0.044 C 
ATOM     17  C   UNL A   1      33.508  27.543  23.869  1.00  0.00    -0.046 A 
ATOM     18  C   UNL A   1      33.653  27.786  25.243  1.00  0.00     0.004 A 
ATOM     19  C   UNL A   1      33.581  26.218  23.365  1.00  0.00    -0.025 A 
ATOM     20  C   UNL A   1      33.867  26.738  26.126  1.00  0.00     0.002 A 
ATOM     21  C   UNL A   1      33.278  25.966  21.910  1.00  0.00     0.047 C 
ATOM     22  C   UNL A   1      33.988  25.443  25.630  1.00  0.00     0.026 A 
ENDBRANCH  13  15
ENDBRANCH   8  13
ENDBRANCH   4   7
ENDBRANCH   2   3
ENDBRANCH   1   2
BRANCH   1  23
ATOM     23  C   UNL A   1      39.171  20.355  26.054  1.00  0.00     0.118 C 
BRANCH  23  24
ATOM     24  N   UNL A   1      40.161  19.274  26.013  1.00  0.00    -0.352 N 
ATOM     25  C   UNL A   1      41.537  19.274  26.126  1.00  0.00     0.251 C 
ATOM     26  H   UNL A   1      39.772  18.380  25.878  1.00  0.00     0.163 HD
ATOM     27  O   UNL A   1      42.168  18.242  25.962  1.00  0.00    -0.269 OA
BRANCH  25  28
ATOM     28  C   UNL A   1      42.263  20.535  26.397  1.00  0.00     0.039 A 
ATOM     29  C   UNL A   1      42.760  21.290  25.329  1.00  0.00     0.014 A 
ATOM     30  C   UNL A   1      42.429  20.992  27.701  1.00  0.00     0.014 A 
ATOM     31  C   UNL A   1      43.313  22.552  25.569  1.00  0.00     0.010 A 
ATOM     32  C   UNL A   1      42.829  22.299  27.923  1.00  0.00     0.010 A 
ATOM     33  C   UNL A   1      43.295  23.091  26.864  1.00  0.00    -0.014 A 
BRANCH  33  34
ATOM     34  C   UNL A   1      43.794  24.454  27.171  1.00  0.00     0.031 A 
ATOM     35  C   UNL A   1      42.831  25.491  27.686  1.00  0.00     0.074 A 
ATOM     36  C   UNL A   1      45.064  24.794  26.879  1.00  0.00     0.049 A 
ATOM     37  N   UNL A   1      42.996  26.780  27.840  1.00  0.00    -0.248 NA
ATOM     38  C   UNL A   1      41.473  25.021  28.012  1.00  0.00     0.031 C 
ATOM     39  C   UNL A   1      46.072  23.900  26.306  1.00  0.00     0.029 A 
ATOM     40  N   UNL A   1      45.718  25.994  27.001  1.00  0.00    -0.354 N 
ATOM     41  C   UNL A   1      41.759  27.271  28.235  1.00  0.00     0.074 A 
ATOM     42  C   UNL A   1      40.834  26.161  28.216  1.00  0.00     0.031 C 
ATOM     43  C   UNL A   1      47.223  24.575  26.150  1.00  0.00     0.029 A 
ATOM     44  C   UNL A   1      47.022  25.958  26.570  1.00  0.00     0.049 A 
ATOM     45  H   UNL A   1      45.293  26.805  27.364  1.00  0.00     0.167 HD
ATOM     46  C   UNL A   1      41.429  28.527  28.620  1.00  0.00     0.037 A 
ATOM     47  C   UNL A   1      47.946  26.936  26.513  1.00  0.00     0.037 A 
ATOM     48  C   UNL A   1      42.370  29.611  28.688  1.00  0.00     0.049 A 
ATOM     49  C   UNL A   1      47.576  28.313  26.994  1.00  0.00     0.074 A 
ATOM     50  C   UNL A   1      42.168  30.906  29.126  1.00  0.00     0.029 A 
ATOM     51  N   UNL A   1      43.704  29.515  28.315  1.00  0.00    -0.354 N 
ATOM     52  N   UNL A   1      46.419  28.755  27.424  1.00  0.00    -0.248 NA
ATOM     53  C   UNL A   1      48.641  29.322  26.994  1.00  0.00     0.031 C 
ATOM     54  C   UNL A   1      43.373  31.605  28.987  1.00  0.00     0.029 A 
ATOM     55  C   UNL A   1      44.337  30.731  28.508  1.00  0.00     0.049 A 
ATOM     56  H   UNL A   1      44.135  28.703  27.965  1.00  0.00     0.167 HD
ATOM     57  C   UNL A   1      46.620  30.084  27.769  1.00  0.00     0.074 A 
ATOM     58  C   UNL A   1      48.018  30.370  27.513  1.00  0.00     0.031 C 
ATOM     59  C   UNL A   1      45.732  30.987  28.252  1.00  0.00     0.037 A 
BRANCH  46  60
ATOM     60  C   UNL A   1      39.999  28.774  29.011  1.00  0.00     0.064 A 
ATOM     61  C   UNL A   1      39.555  28.601  30.333  1.00  0.00     0.173 A 
ATOM     62  C   UNL A   1      39.054  29.176  28.055  1.00  0.00     0.173 A 
ATOM     63  F   UNL A   1      40.413  28.204  31.286  1.00  0.00    -0.203 F 
ATOM     64  C   UNL A   1      38.215  28.771  30.671  1.00  0.00     0.198 A 
ATOM     65  C   UNL A   1      37.722  29.383  28.404  1.00  0.00     0.198 A 
ATOM     66  F   UNL A   1      39.421  29.362  26.778  1.00  0.00    -0.203 F 
ATOM     67  F   UNL A   1      37.806  28.524  31.923  1.00  0.00    -0.200 F 
ATOM     68  C   UNL A   1      37.301  29.167  29.708  1.00  0.00     0.200 A 
ATOM     69  F   UNL A   1      36.841  29.779  27.475  1.00  0.00    -0.200 F 
ATOM     70  F   UNL A   1      36.011  29.328  30.033  1.00  0.00    -0.200 F 
ENDBRANCH  46  60
BRANCH  47  71
ATOM     71  C   UNL A   1      49.316  26.631  26.023  1.00  0.00     0.064 A 
ATOM     72  C   UNL A   1      50.266  26.039  26.866  1.00  0.00     0.173 A 
ATOM     73  C   UNL A   1      49.696  26.897  24.700  1.00  0.00     0.173 A 
ATOM     74  F   UNL A   1      49.956  25.780  28.145  1.00  0.00    -0.203 F 
ATOM     75  C   UNL A   1      51.548  25.741  26.412  1.00  0.00     0.198 A 
ATOM     76  C   UNL A   1      50.970  26.573  24.237  1.00  0.00     0.198 A 
ATOM     77  F   UNL A   1      48.821  27.452  23.848  1.00  0.00    -0.203 F 
ATOM     78  F   UNL A   1      52.448  25.209  27.250  1.00  0.00    -0.200 F 
ATOM     79  C   UNL A   1      51.897  26.000  25.095  1.00  0.00     0.200 A 
ATOM     80  F   UNL A   1      51.298  26.809  22.960  1.00  0.00    -0.200 F 
ATOM     81  F   UNL A   1      53.128  25.702  24.654  1.00  0.00    -0.200 F 
ENDBRANCH  47  71
BRANCH  59  82
ATOM     82  C   UNL A   1      46.252  32.358  28.570  1.00  0.00     0.064 A 
ATOM     83  C   UNL A   1      46.777  32.672  29.832  1.00  0.00     0.173 A 
ATOM     84  C   UNL A   1      46.268  33.354  27.581  1.00  0.00     0.173 A 
ATOM     85  F   UNL A   1      46.770  31.757  30.813  1.00  0.00    -0.203 F 
ATOM     86  C   UNL A   1      47.276  33.943  30.100  1.00  0.00     0.198 A 
ATOM     87  C   UNL A   1      46.798  34.613  27.844  1.00  0.00     0.198 A 
ATOM     88  F   UNL A   1      45.786  33.099  26.356  1.00  0.00    -0.203 F 
ATOM     89  F   UNL A   1      47.729  34.237  31.326  1.00  0.00    -0.200 F 
ATOM     90  C   UNL A   1      47.293  34.910  29.105  1.00  0.00     0.200 A 
ATOM     91  F   UNL A   1      46.826  35.540  26.877  1.00  0.00    -0.200 F 
ATOM     92  F   UNL A   1      47.783  36.130  29.364  1.00  0.00    -0.200 F 
ENDBRANCH  59  82
ENDBRANCH  33  34
ENDBRANCH  25  28
ENDBRANCH  23  24
ENDBRANCH   1  23
TORSDOF 12
ENDMDL
