MODEL 1
REMARK VINA RESULT:     -12.1      0.000      0.000
REMARK SMILES CC(C)(C)OC(=O)N1CC[C@@]2(CCC[C@@H](C(=O)NCCCNC(=O)c3ccc(-c4c5nc(c(-c6c(F)c(F)c(F)c(F)c6F)c6ccc([nH]6)c(-c6c(F)c(F)c(F)c(F)c6F)c6nc(c(-c7c(F)c(F)c(F)c(F)c7F)c7ccc4[nH]7)C=C6)C=C5)cc3)O2)C1
REMARK SMILES IDX 19 1 18 2 16 3 17 4 15 6 8 7 9 8 89 9 10 10 11 11 12 12
REMARK SMILES IDX 88 13 13 14 14 15 6 16 7 17 5 18 2 19 1 20 3 21 4 22 20 23
REMARK SMILES IDX 21 24 22 25 23 26 24 28 25 29 26 30 87 31 27 32 86 33 28 34
REMARK SMILES IDX 29 35 30 36 80 37 31 38 85 39 79 40 81 41 32 42 84 43 78 44
REMARK SMILES IDX 77 45 33 47 65 48 45 49 64 50 46 51 49 52 63 53 82 54 47 55
REMARK SMILES IDX 48 56 62 58 83 59 50 60 34 61 35 62 43 63 36 64 37 65 41 66
REMARK SMILES IDX 44 67 38 68 39 69 42 70 40 71 66 72 67 73 75 74 68 75 69 76
REMARK SMILES IDX 73 77 76 78 70 79 71 80 74 81 72 82 51 83 52 84 60 85 53 86
REMARK SMILES IDX 54 87 58 88 61 89 55 90 56 91 59 92 57 93
REMARK H PARENT 18 5 22 27 81 46 49 57
REMARK Flexibility Score: inf
ROOT
ATOM      1  C   UNL A   1      37.623  20.723  24.672  1.00  0.00     0.117 C 
ENDROOT
BRANCH   1   2
ATOM      2  N   UNL A   1      38.138  21.927  25.299  1.00  0.00    -0.354 N 
ATOM      3  C   UNL A   1      37.501  23.117  25.527  1.00  0.00     0.249 C 
ATOM      4  O   UNL A   1      38.144  24.019  26.066  1.00  0.00    -0.272 OA
ATOM      5  H   UNL A   1      39.074  21.882  25.600  1.00  0.00     0.163 HD
BRANCH   3   6
ATOM      6  C   UNL A   1      36.047  23.293  25.047  1.00  0.00     0.207 C 
ATOM      7  N   UNL A   1      32.493  26.157  26.192  1.00  0.00    -0.305 N 
ATOM      8  C   UNL A   1      32.074  24.806  26.479  1.00  0.00     0.126 C 
ATOM      9  C   UNL A   1      33.862  26.215  25.747  1.00  0.00     0.158 C 
ATOM     10  C   UNL A   1      33.226  23.912  26.018  1.00  0.00     0.059 C 
ATOM     11  C   UNL A   1      34.182  24.817  25.206  1.00  0.00     0.089 C 
ATOM     12  C   UNL A   1      33.960  24.764  23.687  1.00  0.00     0.037 C 
ATOM     13  O   UNL A   1      35.555  24.552  25.507  1.00  0.00    -0.360 OA
ATOM     14  C   UNL A   1      34.522  23.490  23.063  1.00  0.00     0.006 C 
ATOM     15  C   UNL A   1      35.956  23.245  23.524  1.00  0.00     0.042 C 
BRANCH   7  16
ATOM     16  C   UNL A   1      31.730  27.288  26.288  1.00  0.00     0.410 C 
ATOM     17  O   UNL A   1      30.983  27.499  27.237  1.00  0.00    -0.224 OA
BRANCH  16  18
ATOM     18  O   UNL A   1      31.878  28.106  25.216  1.00  0.00    -0.444 OA
BRANCH  18  19
ATOM     19  C   UNL A   1      30.987  27.988  24.072  1.00  0.00     0.106 C 
ATOM     20  C   UNL A   1      31.897  27.652  22.881  1.00  0.00     0.056 C 
ATOM     21  C   UNL A   1      30.315  29.342  23.833  1.00  0.00     0.056 C 
ATOM     22  C   UNL A   1      29.951  26.858  24.194  1.00  0.00     0.056 C 
ENDBRANCH  18  19
ENDBRANCH  16  18
ENDBRANCH   7  16
ENDBRANCH   3   6
ENDBRANCH   1   2
BRANCH   1  23
ATOM     23  C   UNL A   1      38.473  19.502  24.987  1.00  0.00     0.042 C 
BRANCH  23  24
ATOM     24  C   UNL A   1      39.473  19.718  26.114  1.00  0.00     0.118 C 
BRANCH  24  25
ATOM     25  N   UNL A   1      40.631  18.842  26.019  1.00  0.00    -0.352 N 
ATOM     26  C   UNL A   1      41.971  19.137  26.033  1.00  0.00     0.251 C 
ATOM     27  H   UNL A   1      40.419  17.883  25.930  1.00  0.00     0.163 HD
ATOM     28  O   UNL A   1      42.789  18.259  25.772  1.00  0.00    -0.269 OA
BRANCH  26  29
ATOM     29  C   UNL A   1      42.439  20.507  26.338  1.00  0.00     0.039 A 
ATOM     30  C   UNL A   1      42.828  21.334  25.280  1.00  0.00     0.014 A 
ATOM     31  C   UNL A   1      42.533  20.970  27.652  1.00  0.00     0.014 A 
ATOM     32  C   UNL A   1      43.260  22.637  25.538  1.00  0.00     0.010 A 
ATOM     33  C   UNL A   1      42.872  22.297  27.901  1.00  0.00     0.010 A 
ATOM     34  C   UNL A   1      43.258  23.139  26.849  1.00  0.00    -0.014 A 
BRANCH  34  35
ATOM     35  C   UNL A   1      43.698  24.527  27.143  1.00  0.00     0.031 A 
ATOM     36  C   UNL A   1      42.709  25.535  27.667  1.00  0.00     0.074 A 
ATOM     37  C   UNL A   1      44.971  24.895  26.899  1.00  0.00     0.049 A 
ATOM     38  N   UNL A   1      42.881  26.806  27.932  1.00  0.00    -0.248 NA
ATOM     39  C   UNL A   1      41.336  25.057  27.897  1.00  0.00     0.031 C 
ATOM     40  C   UNL A   1      46.014  24.024  26.354  1.00  0.00     0.029 A 
ATOM     41  N   UNL A   1      45.603  26.101  27.074  1.00  0.00    -0.354 N 
ATOM     42  C   UNL A   1      41.642  27.276  28.346  1.00  0.00     0.074 A 
ATOM     43  C   UNL A   1      40.711  26.176  28.234  1.00  0.00     0.031 C 
ATOM     44  C   UNL A   1      47.162  24.714  26.268  1.00  0.00     0.029 A 
ATOM     45  C   UNL A   1      46.928  26.085  26.713  1.00  0.00     0.049 A 
ATOM     46  H   UNL A   1      45.150  26.901  27.425  1.00  0.00     0.167 HD
ATOM     47  C   UNL A   1      41.314  28.507  28.808  1.00  0.00     0.037 A 
ATOM     48  C   UNL A   1      47.849  27.068  26.735  1.00  0.00     0.037 A 
ATOM     49  C   UNL A   1      42.246  29.595  28.940  1.00  0.00     0.049 A 
ATOM     50  C   UNL A   1      47.453  28.431  27.240  1.00  0.00     0.074 A 
ATOM     51  C   UNL A   1      42.021  30.869  29.432  1.00  0.00     0.029 A 
ATOM     52  N   UNL A   1      43.583  29.536  28.579  1.00  0.00    -0.354 N 
ATOM     53  N   UNL A   1      46.292  28.848  27.684  1.00  0.00    -0.248 NA
ATOM     54  C   UNL A   1      48.504  29.459  27.256  1.00  0.00     0.031 C 
ATOM     55  C   UNL A   1      43.212  31.595  29.325  1.00  0.00     0.029 A 
ATOM     56  C   UNL A   1      44.194  30.755  28.824  1.00  0.00     0.049 A 
ATOM     57  H   UNL A   1      44.033  28.744  28.204  1.00  0.00     0.167 HD
ATOM     58  C   UNL A   1      46.482  30.168  28.071  1.00  0.00     0.074 A 
ATOM     59  C   UNL A   1      47.874  30.479  27.819  1.00  0.00     0.031 C 
ATOM     60  C   UNL A   1      45.586  31.043  28.588  1.00  0.00     0.037 A 
BRANCH  47  61
ATOM     61  C   UNL A   1      39.884  28.737  29.214  1.00  0.00     0.064 A 
ATOM     62  C   UNL A   1      39.448  28.512  30.529  1.00  0.00     0.173 A 
ATOM     63  C   UNL A   1      38.948  29.220  28.287  1.00  0.00     0.173 A 
ATOM     64  F   UNL A   1      40.299  28.039  31.452  1.00  0.00    -0.203 F 
ATOM     65  C   UNL A   1      38.121  28.730  30.892  1.00  0.00     0.198 A 
ATOM     66  C   UNL A   1      37.630  29.470  28.663  1.00  0.00     0.198 A 
ATOM     67  F   UNL A   1      39.311  29.458  27.019  1.00  0.00    -0.203 F 
ATOM     68  F   UNL A   1      37.717  28.455  32.140  1.00  0.00    -0.200 F 
ATOM     69  C   UNL A   1      37.216  29.217  29.962  1.00  0.00     0.200 A 
ATOM     70  F   UNL A   1      36.760  29.955  27.767  1.00  0.00    -0.200 F 
ATOM     71  F   UNL A   1      35.942  29.435  30.316  1.00  0.00    -0.200 F 
ENDBRANCH  47  61
BRANCH  48  72
ATOM     72  C   UNL A   1      49.245  26.797  26.300  1.00  0.00     0.064 A 
ATOM     73  C   UNL A   1      49.635  26.995  24.968  1.00  0.00     0.173 A 
ATOM     74  C   UNL A   1      50.209  26.312  27.196  1.00  0.00     0.173 A 
ATOM     75  F   UNL A   1      48.744  27.440  24.069  1.00  0.00    -0.203 F 
ATOM     76  C   UNL A   1      50.926  26.691  24.542  1.00  0.00     0.198 A 
ATOM     77  C   UNL A   1      51.509  26.038  26.775  1.00  0.00     0.198 A 
ATOM     78  F   UNL A   1      49.890  26.110  28.482  1.00  0.00    -0.203 F 
ATOM     79  F   UNL A   1      51.255  26.835  23.251  1.00  0.00    -0.200 F 
ATOM     80  C   UNL A   1      51.863  26.216  25.446  1.00  0.00     0.200 A 
ATOM     81  F   UNL A   1      52.416  25.594  27.656  1.00  0.00    -0.200 F 
ATOM     82  F   UNL A   1      53.105  25.922  25.037  1.00  0.00    -0.200 F 
ENDBRANCH  48  72
BRANCH  60  83
ATOM     83  C   UNL A   1      46.095  32.402  28.980  1.00  0.00     0.064 A 
ATOM     84  C   UNL A   1      46.076  33.487  28.091  1.00  0.00     0.173 A 
ATOM     85  C   UNL A   1      46.583  32.624  30.278  1.00  0.00     0.173 A 
ATOM     86  F   UNL A   1      45.632  33.324  26.836  1.00  0.00    -0.203 F 
ATOM     87  C   UNL A   1      46.557  34.735  28.476  1.00  0.00     0.198 A 
ATOM     88  C   UNL A   1      47.030  33.882  30.670  1.00  0.00     0.198 A 
ATOM     89  F   UNL A   1      46.615  31.623  31.169  1.00  0.00    -0.203 F 
ATOM     90  F   UNL A   1      46.583  35.742  27.591  1.00  0.00    -0.200 F 
ATOM     91  C   UNL A   1      47.028  34.934  29.766  1.00  0.00     0.200 A 
ATOM     92  F   UNL A   1      47.469  34.075  31.921  1.00  0.00    -0.200 F 
ATOM     93  F   UNL A   1      47.486  36.137  30.135  1.00  0.00    -0.200 F 
ENDBRANCH  60  83
ENDBRANCH  34  35
ENDBRANCH  26  29
ENDBRANCH  24  25
ENDBRANCH  23  24
ENDBRANCH   1  23
TORSDOF 13
ENDMDL
MODEL 2
REMARK VINA RESULT:     -12.1      5.468     11.150
REMARK SMILES CC(C)(C)OC(=O)N1CC[C@@]2(CCC[C@@H](C(=O)NCCCNC(=O)c3ccc(-c4c5nc(c(-c6c(F)c(F)c(F)c(F)c6F)c6ccc([nH]6)c(-c6c(F)c(F)c(F)c(F)c6F)c6nc(c(-c7c(F)c(F)c(F)c(F)c7F)c7ccc4[nH]7)C=C6)C=C5)cc3)O2)C1
REMARK SMILES IDX 19 1 18 2 16 3 17 4 15 6 8 7 9 8 89 9 10 10 11 11 12 12
REMARK SMILES IDX 88 13 13 14 14 15 6 16 7 17 5 18 2 19 1 20 3 21 4 22 20 23
REMARK SMILES IDX 21 24 22 25 23 26 24 28 25 29 26 30 87 31 27 32 86 33 28 34
REMARK SMILES IDX 29 35 30 36 80 37 31 38 85 39 79 40 81 41 32 42 84 43 78 44
REMARK SMILES IDX 77 45 33 47 65 48 45 49 64 50 46 51 49 52 63 53 82 54 47 55
REMARK SMILES IDX 48 56 62 58 83 59 50 60 34 61 35 62 43 63 36 64 37 65 41 66
REMARK SMILES IDX 44 67 38 68 39 69 42 70 40 71 66 72 67 73 75 74 68 75 69 76
REMARK SMILES IDX 73 77 76 78 70 79 71 80 74 81 72 82 51 83 52 84 60 85 53 86
REMARK SMILES IDX 54 87 58 88 61 89 55 90 56 91 59 92 57 93
REMARK H PARENT 18 5 22 27 81 46 49 57
REMARK Flexibility Score: inf
ROOT
ATOM      1  C   UNL A   1      31.661  30.902  26.726  1.00  0.00     0.117 C 
ENDROOT
BRANCH   1   2
ATOM      2  N   UNL A   1      32.938  30.489  27.279  1.00  0.00    -0.354 N 
ATOM      3  C   UNL A   1      33.588  29.292  27.141  1.00  0.00     0.249 C 
ATOM      4  O   UNL A   1      34.667  29.154  27.720  1.00  0.00    -0.272 OA
ATOM      5  H   UNL A   1      33.400  31.162  27.831  1.00  0.00     0.163 HD
BRANCH   3   6
ATOM      6  C   UNL A   1      32.917  28.164  26.333  1.00  0.00     0.207 C 
ATOM      7  N   UNL A   1      34.465  24.426  23.929  1.00  0.00    -0.305 N 
ATOM      8  C   UNL A   1      33.783  25.292  22.997  1.00  0.00     0.126 C 
ATOM      9  C   UNL A   1      34.540  25.003  25.248  1.00  0.00     0.158 C 
ATOM     10  C   UNL A   1      33.233  26.446  23.836  1.00  0.00     0.059 C 
ATOM     11  C   UNL A   1      33.404  26.029  25.316  1.00  0.00     0.089 C 
ATOM     12  C   UNL A   1      32.149  25.402  25.942  1.00  0.00     0.037 C 
ATOM     13  O   UNL A   1      33.863  27.113  26.128  1.00  0.00    -0.360 OA
ATOM     14  C   UNL A   1      31.088  26.445  26.285  1.00  0.00     0.006 C 
ATOM     15  C   UNL A   1      31.698  27.606  27.064  1.00  0.00     0.042 C 
BRANCH   7  16
ATOM     16  C   UNL A   1      34.982  23.187  23.667  1.00  0.00     0.410 C 
ATOM     17  O   UNL A   1      35.693  22.964  22.694  1.00  0.00    -0.224 OA
BRANCH  16  18
ATOM     18  O   UNL A   1      34.593  22.259  24.578  1.00  0.00    -0.444 OA
BRANCH  18  19
ATOM     19  C   UNL A   1      33.384  21.479  24.361  1.00  0.00     0.106 C 
ATOM     20  C   UNL A   1      32.440  21.864  25.510  1.00  0.00     0.056 C 
ATOM     21  C   UNL A   1      33.734  19.993  24.467  1.00  0.00     0.056 C 
ATOM     22  C   UNL A   1      32.657  21.795  23.043  1.00  0.00     0.056 C 
ENDBRANCH  18  19
ENDBRANCH  16  18
ENDBRANCH   7  16
ENDBRANCH   3   6
ENDBRANCH   1   2
BRANCH   1  23
ATOM     23  C   UNL A   1      31.464  32.408  26.797  1.00  0.00     0.042 C 
BRANCH  23  24
ATOM     24  C   UNL A   1      32.734  33.184  27.114  1.00  0.00     0.118 C 
BRANCH  24  25
ATOM     25  N   UNL A   1      32.468  34.474  27.733  1.00  0.00    -0.352 N 
ATOM     26  C   UNL A   1      33.021  35.055  28.847  1.00  0.00     0.251 C 
ATOM     27  H   UNL A   1      31.782  35.018  27.280  1.00  0.00     0.163 HD
ATOM     28  O   UNL A   1      32.535  36.088  29.298  1.00  0.00    -0.269 OA
BRANCH  26  29
ATOM     29  C   UNL A   1      34.183  34.437  29.523  1.00  0.00     0.039 A 
ATOM     30  C   UNL A   1      33.963  33.676  30.674  1.00  0.00     0.014 A 
ATOM     31  C   UNL A   1      35.485  34.629  29.056  1.00  0.00     0.014 A 
ATOM     32  C   UNL A   1      35.041  33.069  31.324  1.00  0.00     0.010 A 
ATOM     33  C   UNL A   1      36.545  33.946  29.646  1.00  0.00     0.010 A 
ATOM     34  C   UNL A   1      36.338  33.175  30.798  1.00  0.00    -0.014 A 
BRANCH  34  35
ATOM     35  C   UNL A   1      37.495  32.524  31.465  1.00  0.00     0.031 A 
ATOM     36  C   UNL A   1      38.218  31.393  30.781  1.00  0.00     0.074 A 
ATOM     37  C   UNL A   1      37.868  32.915  32.698  1.00  0.00     0.049 A 
ATOM     38  N   UNL A   1      39.211  30.659  31.216  1.00  0.00    -0.248 NA
ATOM     39  C   UNL A   1      37.741  31.018  29.439  1.00  0.00     0.031 C 
ATOM     40  C   UNL A   1      37.225  33.971  33.483  1.00  0.00     0.029 A 
ATOM     41  N   UNL A   1      38.880  32.468  33.511  1.00  0.00    -0.354 N 
ATOM     42  C   UNL A   1      39.467  29.736  30.211  1.00  0.00     0.074 A 
ATOM     43  C   UNL A   1      38.484  29.954  29.174  1.00  0.00     0.031 C 
ATOM     44  C   UNL A   1      37.874  34.109  34.649  1.00  0.00     0.029 A 
ATOM     45  C   UNL A   1      38.954  33.128  34.713  1.00  0.00     0.049 A 
ATOM     46  H   UNL A   1      39.494  31.742  33.256  1.00  0.00     0.167 HD
ATOM     47  C   UNL A   1      40.452  28.808  30.144  1.00  0.00     0.037 A 
ATOM     48  C   UNL A   1      39.796  32.959  35.750  1.00  0.00     0.037 A 
ATOM     49  C   UNL A   1      41.443  28.607  31.168  1.00  0.00     0.049 A 
ATOM     50  C   UNL A   1      40.873  31.910  35.655  1.00  0.00     0.074 A 
ATOM     51  C   UNL A   1      42.505  27.719  31.179  1.00  0.00     0.029 A 
ATOM     52  N   UNL A   1      41.495  29.307  32.364  1.00  0.00    -0.354 N 
ATOM     53  N   UNL A   1      41.142  31.082  34.675  1.00  0.00    -0.248 NA
ATOM     54  C   UNL A   1      41.772  31.781  36.810  1.00  0.00     0.031 C 
ATOM     55  C   UNL A   1      43.171  27.849  32.402  1.00  0.00     0.029 A 
ATOM     56  C   UNL A   1      42.562  28.861  33.127  1.00  0.00     0.049 A 
ATOM     57  H   UNL A   1      40.866  30.016  32.632  1.00  0.00     0.167 HD
ATOM     58  C   UNL A   1      42.262  30.366  35.075  1.00  0.00     0.074 A 
ATOM     59  C   UNL A   1      42.630  30.865  36.384  1.00  0.00     0.031 C 
ATOM     60  C   UNL A   1      42.928  29.383  34.419  1.00  0.00     0.037 A 
BRANCH  47  61
ATOM     61  C   UNL A   1      40.510  27.945  28.915  1.00  0.00     0.064 A 
ATOM     62  C   UNL A   1      41.289  28.301  27.802  1.00  0.00     0.173 A 
ATOM     63  C   UNL A   1      39.806  26.733  28.859  1.00  0.00     0.173 A 
ATOM     64  F   UNL A   1      41.972  29.456  27.798  1.00  0.00    -0.203 F 
ATOM     65  C   UNL A   1      41.335  27.493  26.669  1.00  0.00     0.198 A 
ATOM     66  C   UNL A   1      39.882  25.910  27.737  1.00  0.00     0.198 A 
ATOM     67  F   UNL A   1      39.051  26.340  29.895  1.00  0.00    -0.203 F 
ATOM     68  F   UNL A   1      42.042  27.882  25.600  1.00  0.00    -0.200 F 
ATOM     69  C   UNL A   1      40.639  26.294  26.641  1.00  0.00     0.200 A 
ATOM     70  F   UNL A   1      39.221  24.745  27.718  1.00  0.00    -0.200 F 
ATOM     71  F   UNL A   1      40.691  25.513  25.554  1.00  0.00    -0.200 F 
ENDBRANCH  47  61
BRANCH  48  72
ATOM     72  C   UNL A   1      39.683  33.822  36.955  1.00  0.00     0.064 A 
ATOM     73  C   UNL A   1      38.911  33.423  38.057  1.00  0.00     0.173 A 
ATOM     74  C   UNL A   1      40.320  35.069  37.025  1.00  0.00     0.173 A 
ATOM     75  F   UNL A   1      38.267  32.247  38.031  1.00  0.00    -0.203 F 
ATOM     76  C   UNL A   1      38.757  34.251  39.166  1.00  0.00     0.198 A 
ATOM     77  C   UNL A   1      40.191  35.882  38.149  1.00  0.00     0.198 A 
ATOM     78  F   UNL A   1      41.076  35.495  36.002  1.00  0.00    -0.203 F 
ATOM     79  F   UNL A   1      37.966  33.869  40.179  1.00  0.00    -0.200 F 
ATOM     80  C   UNL A   1      39.400  35.478  39.214  1.00  0.00     0.200 A 
ATOM     81  F   UNL A   1      40.827  37.061  38.197  1.00  0.00    -0.200 F 
ATOM     82  F   UNL A   1      39.250  36.275  40.280  1.00  0.00    -0.200 F 
ENDBRANCH  48  72
BRANCH  60  83
ATOM     83  C   UNL A   1      44.161  28.828  35.075  1.00  0.00     0.064 A 
ATOM     84  C   UNL A   1      44.112  27.715  35.927  1.00  0.00     0.173 A 
ATOM     85  C   UNL A   1      45.415  29.405  34.820  1.00  0.00     0.173 A 
ATOM     86  F   UNL A   1      42.937  27.135  36.213  1.00  0.00    -0.203 F 
ATOM     87  C   UNL A   1      45.268  27.222  36.526  1.00  0.00     0.198 A 
ATOM     88  C   UNL A   1      46.573  28.887  35.392  1.00  0.00     0.198 A 
ATOM     89  F   UNL A   1      45.519  30.467  34.006  1.00  0.00    -0.203 F 
ATOM     90  F   UNL A   1      45.189  26.194  37.382  1.00  0.00    -0.200 F 
ATOM     91  C   UNL A   1      46.498  27.804  36.253  1.00  0.00     0.200 A 
ATOM     92  F   UNL A   1      47.761  29.442  35.115  1.00  0.00    -0.200 F 
ATOM     93  F   UNL A   1      47.609  27.324  36.828  1.00  0.00    -0.200 F 
ENDBRANCH  60  83
ENDBRANCH  34  35
ENDBRANCH  26  29
ENDBRANCH  24  25
ENDBRANCH  23  24
ENDBRANCH   1  23
TORSDOF 13
ENDMDL
MODEL 3
REMARK VINA RESULT:     -12.1      5.345      9.953
REMARK SMILES CC(C)(C)OC(=O)N1CC[C@@]2(CCC[C@@H](C(=O)NCCCNC(=O)c3ccc(-c4c5nc(c(-c6c(F)c(F)c(F)c(F)c6F)c6ccc([nH]6)c(-c6c(F)c(F)c(F)c(F)c6F)c6nc(c(-c7c(F)c(F)c(F)c(F)c7F)c7ccc4[nH]7)C=C6)C=C5)cc3)O2)C1
REMARK SMILES IDX 19 1 18 2 16 3 17 4 15 6 8 7 9 8 89 9 10 10 11 11 12 12
REMARK SMILES IDX 88 13 13 14 14 15 6 16 7 17 5 18 2 19 1 20 3 21 4 22 20 23
REMARK SMILES IDX 21 24 22 25 23 26 24 28 25 29 26 30 87 31 27 32 86 33 28 34
REMARK SMILES IDX 29 35 30 36 80 37 31 38 85 39 79 40 81 41 32 42 84 43 78 44
REMARK SMILES IDX 77 45 33 47 65 48 45 49 64 50 46 51 49 52 63 53 82 54 47 55
REMARK SMILES IDX 48 56 62 58 83 59 50 60 34 61 35 62 43 63 36 64 37 65 41 66
REMARK SMILES IDX 44 67 38 68 39 69 42 70 40 71 66 72 67 73 75 74 68 75 69 76
REMARK SMILES IDX 73 77 76 78 70 79 71 80 74 81 72 82 51 83 52 84 60 85 53 86
REMARK SMILES IDX 54 87 58 88 61 89 55 90 56 91 59 92 57 93
REMARK H PARENT 18 5 22 27 81 46 49 57
REMARK Flexibility Score: inf
ROOT
ATOM      1  C   UNL A   1      31.753  31.132  26.714  1.00  0.00     0.117 C 
ENDROOT
BRANCH   1   2
ATOM      2  N   UNL A   1      33.048  30.717  27.220  1.00  0.00    -0.354 N 
ATOM      3  C   UNL A   1      33.670  29.503  27.098  1.00  0.00     0.249 C 
ATOM      4  O   UNL A   1      34.774  29.367  27.628  1.00  0.00    -0.272 OA
ATOM      5  H   UNL A   1      33.549  31.402  27.720  1.00  0.00     0.163 HD
BRANCH   3   6
ATOM      6  C   UNL A   1      32.941  28.357  26.371  1.00  0.00     0.207 C 
ATOM      7  N   UNL A   1      34.303  24.531  23.994  1.00  0.00    -0.305 N 
ATOM      8  C   UNL A   1      33.571  25.374  23.079  1.00  0.00     0.126 C 
ATOM      9  C   UNL A   1      34.467  25.147  25.286  1.00  0.00     0.158 C 
ATOM     10  C   UNL A   1      33.084  26.559  23.915  1.00  0.00     0.059 C 
ATOM     11  C   UNL A   1      33.345  26.187  25.393  1.00  0.00     0.089 C 
ATOM     12  C   UNL A   1      32.128  25.592  26.117  1.00  0.00     0.037 C 
ATOM     13  O   UNL A   1      33.863  27.291  26.139  1.00  0.00    -0.360 OA
ATOM     14  C   UNL A   1      31.099  26.655  26.493  1.00  0.00     0.006 C 
ATOM     15  C   UNL A   1      31.767  27.834  27.194  1.00  0.00     0.042 C 
BRANCH   7  16
ATOM     16  C   UNL A   1      34.793  23.279  23.739  1.00  0.00     0.410 C 
ATOM     17  O   UNL A   1      35.475  23.028  22.752  1.00  0.00    -0.224 OA
BRANCH  16  18
ATOM     18  O   UNL A   1      34.413  22.373  24.674  1.00  0.00    -0.444 OA
BRANCH  18  19
ATOM     19  C   UNL A   1      33.238  21.543  24.458  1.00  0.00     0.106 C 
ATOM     20  C   UNL A   1      32.258  21.926  25.576  1.00  0.00     0.056 C 
ATOM     21  C   UNL A   1      33.639  20.074  24.615  1.00  0.00     0.056 C 
ATOM     22  C   UNL A   1      32.527  21.793  23.117  1.00  0.00     0.056 C 
ENDBRANCH  18  19
ENDBRANCH  16  18
ENDBRANCH   7  16
ENDBRANCH   3   6
ENDBRANCH   1   2
BRANCH   1  23
ATOM     23  C   UNL A   1      31.525  32.626  26.875  1.00  0.00     0.042 C 
BRANCH  23  24
ATOM     24  C   UNL A   1      32.787  33.414  27.194  1.00  0.00     0.118 C 
BRANCH  24  25
ATOM     25  N   UNL A   1      32.527  34.597  28.001  1.00  0.00    -0.352 N 
ATOM     26  C   UNL A   1      33.088  35.005  29.184  1.00  0.00     0.251 C 
ATOM     27  H   UNL A   1      31.837  35.201  27.640  1.00  0.00     0.163 HD
ATOM     28  O   UNL A   1      32.605  35.959  29.788  1.00  0.00    -0.269 OA
BRANCH  26  29
ATOM     29  C   UNL A   1      34.256  34.295  29.751  1.00  0.00     0.039 A 
ATOM     30  C   UNL A   1      34.040  33.342  30.751  1.00  0.00     0.014 A 
ATOM     31  C   UNL A   1      35.557  34.582  29.334  1.00  0.00     0.014 A 
ATOM     32  C   UNL A   1      35.123  32.646  31.294  1.00  0.00     0.010 A 
ATOM     33  C   UNL A   1      36.624  33.822  29.805  1.00  0.00     0.010 A 
ATOM     34  C   UNL A   1      36.422  32.859  30.804  1.00  0.00    -0.014 A 
BRANCH  34  35
ATOM     35  C   UNL A   1      37.584  32.117  31.356  1.00  0.00     0.031 A 
ATOM     36  C   UNL A   1      38.094  32.435  32.737  1.00  0.00     0.074 A 
ATOM     37  C   UNL A   1      38.209  31.192  30.603  1.00  0.00     0.049 A 
ATOM     38  N   UNL A   1      39.125  31.942  33.376  1.00  0.00    -0.248 NA
ATOM     39  C   UNL A   1      37.361  33.467  33.491  1.00  0.00     0.031 C 
ATOM     40  C   UNL A   1      37.839  30.820  29.236  1.00  0.00     0.029 A 
ATOM     41  N   UNL A   1      39.292  30.395  30.881  1.00  0.00    -0.354 N 
ATOM     42  C   UNL A   1      39.169  32.608  34.593  1.00  0.00     0.074 A 
ATOM     43  C   UNL A   1      38.107  33.588  34.579  1.00  0.00     0.031 C 
ATOM     44  C   UNL A   1      38.660  29.850  28.806  1.00  0.00     0.029 A 
ATOM     45  C   UNL A   1      39.639  29.557  29.849  1.00  0.00     0.049 A 
ATOM     46  H   UNL A   1      39.775  30.422  31.738  1.00  0.00     0.167 HD
ATOM     47  C   UNL A   1      40.002  32.402  35.641  1.00  0.00     0.037 A 
ATOM     48  C   UNL A   1      40.636  28.657  29.755  1.00  0.00     0.037 A 
ATOM     49  C   UNL A   1      41.046  31.412  35.662  1.00  0.00     0.049 A 
ATOM     50  C   UNL A   1      41.557  28.459  30.931  1.00  0.00     0.074 A 
ATOM     51  C   UNL A   1      41.920  31.099  36.688  1.00  0.00     0.029 A 
ATOM     52  N   UNL A   1      41.356  30.571  34.603  1.00  0.00    -0.354 N 
ATOM     53  N   UNL A   1      41.553  29.054  32.099  1.00  0.00    -0.248 NA
ATOM     54  C   UNL A   1      42.616  27.451  30.776  1.00  0.00     0.031 C 
ATOM     55  C   UNL A   1      42.788  30.101  36.235  1.00  0.00     0.029 A 
ATOM     56  C   UNL A   1      42.416  29.749  34.947  1.00  0.00     0.049 A 
ATOM     57  H   UNL A   1      40.890  30.560  33.736  1.00  0.00     0.167 HD
ATOM     58  C   UNL A   1      42.576  28.467  32.831  1.00  0.00     0.074 A 
ATOM     59  C   UNL A   1      43.173  27.460  31.979  1.00  0.00     0.031 C 
ATOM     60  C   UNL A   1      42.985  28.736  34.095  1.00  0.00     0.037 A 
BRANCH  47  61
ATOM     61  C   UNL A   1      39.811  33.263  36.859  1.00  0.00     0.064 A 
ATOM     62  C   UNL A   1      40.559  34.434  37.057  1.00  0.00     0.173 A 
ATOM     63  C   UNL A   1      38.847  32.932  37.824  1.00  0.00     0.173 A 
ATOM     64  F   UNL A   1      41.502  34.791  36.172  1.00  0.00    -0.203 F 
ATOM     65  C   UNL A   1      40.371  35.224  38.189  1.00  0.00     0.198 A 
ATOM     66  C   UNL A   1      38.638  33.743  38.937  1.00  0.00     0.198 A 
ATOM     67  F   UNL A   1      38.100  31.827  37.683  1.00  0.00    -0.203 F 
ATOM     68  F   UNL A   1      41.136  36.307  38.382  1.00  0.00    -0.200 F 
ATOM     69  C   UNL A   1      39.406  34.882  39.123  1.00  0.00     0.200 A 
ATOM     70  F   UNL A   1      37.694  33.419  39.831  1.00  0.00    -0.200 F 
ATOM     71  F   UNL A   1      39.221  35.648  40.207  1.00  0.00    -0.200 F 
ENDBRANCH  47  61
BRANCH  48  72
ATOM     72  C   UNL A   1      40.800  27.846  28.519  1.00  0.00     0.064 A 
ATOM     73  C   UNL A   1      41.589  28.308  27.455  1.00  0.00     0.173 A 
ATOM     74  C   UNL A   1      40.155  26.611  28.364  1.00  0.00     0.173 A 
ATOM     75  F   UNL A   1      42.210  29.492  27.548  1.00  0.00    -0.203 F 
ATOM     76  C   UNL A   1      41.701  27.579  26.273  1.00  0.00     0.198 A 
ATOM     77  C   UNL A   1      40.295  25.867  27.193  1.00  0.00     0.198 A 
ATOM     78  F   UNL A   1      39.394  26.121  29.353  1.00  0.00    -0.203 F 
ATOM     79  F   UNL A   1      42.415  28.071  25.251  1.00  0.00    -0.200 F 
ATOM     80  C   UNL A   1      41.058  26.358  26.144  1.00  0.00     0.200 A 
ATOM     81  F   UNL A   1      39.684  24.680  27.079  1.00  0.00    -0.200 F 
ATOM     82  F   UNL A   1      41.165  25.658  25.007  1.00  0.00    -0.200 F 
ENDBRANCH  48  72
BRANCH  60  83
ATOM     83  C   UNL A   1      44.089  27.886  34.659  1.00  0.00     0.064 A 
ATOM     84  C   UNL A   1      43.835  26.653  35.278  1.00  0.00     0.173 A 
ATOM     85  C   UNL A   1      45.425  28.302  34.549  1.00  0.00     0.173 A 
ATOM     86  F   UNL A   1      42.574  26.216  35.420  1.00  0.00    -0.203 F 
ATOM     87  C   UNL A   1      44.874  25.886  35.797  1.00  0.00     0.198 A 
ATOM     88  C   UNL A   1      46.464  27.516  35.037  1.00  0.00     0.198 A 
ATOM     89  F   UNL A   1      45.724  29.469  33.958  1.00  0.00    -0.203 F 
ATOM     90  F   UNL A   1      44.602  24.739  36.436  1.00  0.00    -0.200 F 
ATOM     91  C   UNL A   1      46.188  26.314  35.670  1.00  0.00     0.200 A 
ATOM     92  F   UNL A   1      47.733  27.924  34.899  1.00  0.00    -0.200 F 
ATOM     93  F   UNL A   1      47.186  25.571  36.166  1.00  0.00    -0.200 F 
ENDBRANCH  60  83
ENDBRANCH  34  35
ENDBRANCH  26  29
ENDBRANCH  24  25
ENDBRANCH  23  24
ENDBRANCH   1  23
TORSDOF 13
ENDMDL
