MODEL 1
REMARK VINA RESULT:     -12.2      0.000      0.000
REMARK SMILES CN1CCN(C(=O)N2CCC[C@H]2CC(=O)NCCCNC(=O)c2ccc(-c3c4nc(c(-c5c(F)c(F)c(F)c(F)c5F)c5ccc([nH]5)c(-c5c(F)c(F)c(F)c(F)c5F)c5nc(c(-c6c(F)c(F)c(F)c(F)c6F)c6ccc3[nH]6)C=C5)C=C4)cc2)C(C)(C)C1=O
REMARK SMILES IDX 17 1 16 2 14 3 15 4 13 6 12 7 8 8 9 9 10 10 11 11 6 12 7 13
REMARK SMILES IDX 5 14 1 15 2 16 3 17 89 18 4 19 86 20 90 21 87 22 88 23 18 24
REMARK SMILES IDX 19 25 20 26 21 27 22 29 23 30 24 31 85 32 25 33 84 34 26 35
REMARK SMILES IDX 27 36 28 37 78 38 29 39 83 40 77 41 79 42 30 43 82 44 76 45
REMARK SMILES IDX 75 46 31 48 63 49 43 50 62 51 44 52 47 53 61 54 80 55 45 56
REMARK SMILES IDX 46 57 60 59 81 60 48 61 32 62 33 63 41 64 34 65 35 66 39 67
REMARK SMILES IDX 42 68 36 69 37 70 40 71 38 72 64 73 65 74 73 75 66 76 67 77
REMARK SMILES IDX 71 78 74 79 68 80 69 81 72 82 70 83 49 84 50 85 58 86 51 87
REMARK SMILES IDX 52 88 56 89 59 90 53 91 54 92 57 93 55 94
REMARK H PARENT 16 5 20 28 79 47 47 58
REMARK Flexibility Score: inf
ROOT
ATOM      1  C   UNL A   1      36.983  20.545  24.910  1.00  0.00     0.117 C 
ENDROOT
BRANCH   1   2
ATOM      2  N   UNL A   1      37.153  21.646  23.977  1.00  0.00    -0.356 N 
ATOM      3  C   UNL A   1      36.284  22.601  23.545  1.00  0.00     0.222 C 
ATOM      4  O   UNL A   1      36.687  23.410  22.707  1.00  0.00    -0.275 OA
ATOM      5  H   UNL A   1      38.057  21.715  23.591  1.00  0.00     0.163 HD
BRANCH   3   6
ATOM      6  C   UNL A   1      34.862  22.651  24.047  1.00  0.00     0.125 C 
BRANCH   6   7
ATOM      7  C   UNL A   1      34.490  23.903  24.849  1.00  0.00     0.096 C 
ATOM      8  N   UNL A   1      33.276  24.551  24.354  1.00  0.00    -0.321 N 
ATOM      9  C   UNL A   1      32.111  24.041  25.047  1.00  0.00     0.122 C 
ATOM     10  C   UNL A   1      32.621  23.654  26.425  1.00  0.00     0.024 C 
ATOM     11  C   UNL A   1      34.145  23.722  26.334  1.00  0.00     0.027 C 
BRANCH   8  12
ATOM     12  C   UNL A   1      33.267  25.412  23.287  1.00  0.00     0.321 C 
ATOM     13  O   UNL A   1      33.996  25.256  22.310  1.00  0.00    -0.248 OA
BRANCH  12  14
ATOM     14  N   UNL A   1      32.403  26.498  23.403  1.00  0.00    -0.309 N 
ATOM     15  C   UNL A   1      29.787  29.926  23.379  1.00  0.00     0.146 C 
ATOM     16  N   UNL A   1      30.742  28.836  23.300  1.00  0.00    -0.342 N 
ATOM     17  C   UNL A   1      30.330  27.604  22.639  1.00  0.00     0.140 C 
ATOM     18  C   UNL A   1      31.812  28.849  24.190  1.00  0.00     0.247 C 
ATOM     19  C   UNL A   1      31.489  26.681  22.282  1.00  0.00     0.144 C 
ATOM     20  C   UNL A   1      32.931  27.776  23.982  1.00  0.00     0.118 C 
ATOM     21  O   UNL A   1      31.961  29.786  24.981  1.00  0.00    -0.272 OA
ATOM     22  C   UNL A   1      33.945  28.419  23.006  1.00  0.00     0.045 C 
ATOM     23  C   UNL A   1      33.650  27.612  25.337  1.00  0.00     0.045 C 
ENDBRANCH  12  14
ENDBRANCH   8  12
ENDBRANCH   6   7
ENDBRANCH   3   6
ENDBRANCH   1   2
BRANCH   1  24
ATOM     24  C   UNL A   1      38.183  19.595  24.965  1.00  0.00     0.042 C 
BRANCH  24  25
ATOM     25  C   UNL A   1      39.215  19.892  26.056  1.00  0.00     0.118 C 
BRANCH  25  26
ATOM     26  N   UNL A   1      40.389  19.041  25.961  1.00  0.00    -0.352 N 
ATOM     27  C   UNL A   1      41.724  19.362  26.014  1.00  0.00     0.251 C 
ATOM     28  H   UNL A   1      40.198  18.082  25.842  1.00  0.00     0.163 HD
ATOM     29  O   UNL A   1      42.558  18.509  25.721  1.00  0.00    -0.269 OA
BRANCH  27  30
ATOM     30  C   UNL A   1      42.186  20.719  26.403  1.00  0.00     0.039 A 
ATOM     31  C   UNL A   1      42.246  21.034  27.765  1.00  0.00     0.014 A 
ATOM     32  C   UNL A   1      42.473  21.707  25.455  1.00  0.00     0.014 A 
ATOM     33  C   UNL A   1      42.628  22.317  28.176  1.00  0.00     0.010 A 
ATOM     34  C   UNL A   1      42.907  22.971  25.868  1.00  0.00     0.010 A 
ATOM     35  C   UNL A   1      42.980  23.294  27.232  1.00  0.00    -0.014 A 
BRANCH  35  36
ATOM     36  C   UNL A   1      43.407  24.654  27.665  1.00  0.00     0.031 A 
ATOM     37  C   UNL A   1      42.386  25.701  28.022  1.00  0.00     0.074 A 
ATOM     38  C   UNL A   1      44.717  24.964  27.707  1.00  0.00     0.049 A 
ATOM     39  N   UNL A   1      42.569  26.947  28.387  1.00  0.00    -0.248 NA
ATOM     40  C   UNL A   1      40.974  25.302  27.940  1.00  0.00     0.031 C 
ATOM     41  C   UNL A   1      45.810  24.060  27.352  1.00  0.00     0.029 A 
ATOM     42  N   UNL A   1      45.350  26.132  28.061  1.00  0.00    -0.354 N 
ATOM     43  C   UNL A   1      41.299  27.483  28.561  1.00  0.00     0.074 A 
ATOM     44  C   UNL A   1      40.353  26.439  28.225  1.00  0.00     0.031 C 
ATOM     45  C   UNL A   1      46.981  24.699  27.522  1.00  0.00     0.029 A 
ATOM     46  C   UNL A   1      46.719  26.065  27.970  1.00  0.00     0.049 A 
ATOM     47  H   UNL A   1      44.869  26.939  28.352  1.00  0.00     0.167 HD
ATOM     48  C   UNL A   1      40.951  28.724  28.979  1.00  0.00     0.037 A 
ATOM     49  C   UNL A   1      47.660  26.998  28.216  1.00  0.00     0.037 A 
ATOM     50  C   UNL A   1      41.884  29.756  29.348  1.00  0.00     0.049 A 
ATOM     51  C   UNL A   1      47.248  28.363  28.694  1.00  0.00     0.074 A 
ATOM     52  C   UNL A   1      41.621  31.022  29.845  1.00  0.00     0.029 A 
ATOM     53  N   UNL A   1      43.263  29.642  29.262  1.00  0.00    -0.354 N 
ATOM     54  N   UNL A   1      46.045  28.834  28.912  1.00  0.00    -0.248 NA
ATOM     55  C   UNL A   1      48.327  29.323  28.968  1.00  0.00     0.031 C 
ATOM     56  C   UNL A   1      42.839  31.686  30.025  1.00  0.00     0.029 A 
ATOM     57  C   UNL A   1      43.863  30.820  29.680  1.00  0.00     0.049 A 
ATOM     58  H   UNL A   1      43.745  28.842  28.950  1.00  0.00     0.167 HD
ATOM     59  C   UNL A   1      46.223  30.133  29.371  1.00  0.00     0.074 A 
ATOM     60  C   UNL A   1      47.650  30.372  29.413  1.00  0.00     0.031 C 
ATOM     61  C   UNL A   1      45.284  31.045  29.724  1.00  0.00     0.037 A 
BRANCH  48  62
ATOM     62  C   UNL A   1      39.486  29.040  29.067  1.00  0.00     0.064 A 
ATOM     63  C   UNL A   1      38.793  28.979  30.285  1.00  0.00     0.173 A 
ATOM     64  C   UNL A   1      38.777  29.452  27.928  1.00  0.00     0.173 A 
ATOM     65  F   UNL A   1      39.425  28.582  31.400  1.00  0.00    -0.203 F 
ATOM     66  C   UNL A   1      37.439  29.294  30.355  1.00  0.00     0.198 A 
ATOM     67  C   UNL A   1      37.429  29.790  28.007  1.00  0.00     0.198 A 
ATOM     68  F   UNL A   1      39.395  29.535  26.740  1.00  0.00    -0.203 F 
ATOM     69  F   UNL A   1      36.788  29.187  31.522  1.00  0.00    -0.200 F 
ATOM     70  C   UNL A   1      36.760  29.705  29.218  1.00  0.00     0.200 A 
ATOM     71  F   UNL A   1      36.777  30.201  26.910  1.00  0.00    -0.200 F 
ATOM     72  F   UNL A   1      35.457  30.013  29.290  1.00  0.00    -0.200 F 
ENDBRANCH  48  62
BRANCH  49  73
ATOM     73  C   UNL A   1      49.095  26.660  28.041  1.00  0.00     0.064 A 
ATOM     74  C   UNL A   1      49.689  26.681  26.772  1.00  0.00     0.173 A 
ATOM     75  C   UNL A   1      49.899  26.307  29.135  1.00  0.00     0.173 A 
ATOM     76  F   UNL A   1      48.952  26.990  25.695  1.00  0.00    -0.203 F 
ATOM     77  C   UNL A   1      51.030  26.347  26.599  1.00  0.00     0.198 A 
ATOM     78  C   UNL A   1      51.247  25.997  28.964  1.00  0.00     0.198 A 
ATOM     79  F   UNL A   1      49.377  26.275  30.369  1.00  0.00    -0.203 F 
ATOM     80  F   UNL A   1      51.562  26.336  25.370  1.00  0.00    -0.200 F 
ATOM     81  C   UNL A   1      51.809  26.011  27.697  1.00  0.00     0.200 A 
ATOM     82  F   UNL A   1      51.999  25.683  30.028  1.00  0.00    -0.200 F 
ATOM     83  F   UNL A   1      53.100  25.693  27.530  1.00  0.00    -0.200 F 
ENDBRANCH  49  73
BRANCH  61  84
ATOM     84  C   UNL A   1      45.771  32.377  30.215  1.00  0.00     0.064 A 
ATOM     85  C   UNL A   1      46.062  32.599  31.568  1.00  0.00     0.173 A 
ATOM     86  C   UNL A   1      45.978  33.434  29.315  1.00  0.00     0.173 A 
ATOM     87  F   UNL A   1      45.866  31.625  32.470  1.00  0.00    -0.203 F 
ATOM     88  C   UNL A   1      46.521  33.838  32.007  1.00  0.00     0.198 A 
ATOM     89  C   UNL A   1      46.460  34.663  29.753  1.00  0.00     0.198 A 
ATOM     90  F   UNL A   1      45.718  33.270  28.009  1.00  0.00    -0.203 F 
ATOM     91  F   UNL A   1      46.752  34.042  33.312  1.00  0.00    -0.200 F 
ATOM     92  C   UNL A   1      46.724  34.867  31.099  1.00  0.00     0.200 A 
ATOM     93  F   UNL A   1      46.665  35.654  28.874  1.00  0.00    -0.200 F 
ATOM     94  F   UNL A   1      47.169  36.058  31.524  1.00  0.00    -0.200 F 
ENDBRANCH  61  84
ENDBRANCH  35  36
ENDBRANCH  27  30
ENDBRANCH  25  26
ENDBRANCH  24  25
ENDBRANCH   1  24
TORSDOF 13
ENDMDL
MODEL 2
REMARK VINA RESULT:     -12.1      1.050      1.732
REMARK SMILES CN1CCN(C(=O)N2CCC[C@H]2CC(=O)NCCCNC(=O)c2ccc(-c3c4nc(c(-c5c(F)c(F)c(F)c(F)c5F)c5ccc([nH]5)c(-c5c(F)c(F)c(F)c(F)c5F)c5nc(c(-c6c(F)c(F)c(F)c(F)c6F)c6ccc3[nH]6)C=C5)C=C4)cc2)C(C)(C)C1=O
REMARK SMILES IDX 17 1 16 2 14 3 15 4 13 6 12 7 8 8 9 9 10 10 11 11 6 12 7 13
REMARK SMILES IDX 5 14 1 15 2 16 3 17 89 18 4 19 86 20 90 21 87 22 88 23 18 24
REMARK SMILES IDX 19 25 20 26 21 27 22 29 23 30 24 31 85 32 25 33 84 34 26 35
REMARK SMILES IDX 27 36 28 37 78 38 29 39 83 40 77 41 79 42 30 43 82 44 76 45
REMARK SMILES IDX 75 46 31 48 63 49 43 50 62 51 44 52 47 53 61 54 80 55 45 56
REMARK SMILES IDX 46 57 60 59 81 60 48 61 32 62 33 63 41 64 34 65 35 66 39 67
REMARK SMILES IDX 42 68 36 69 37 70 40 71 38 72 64 73 65 74 73 75 66 76 67 77
REMARK SMILES IDX 71 78 74 79 68 80 69 81 72 82 70 83 49 84 50 85 58 86 51 87
REMARK SMILES IDX 52 88 56 89 59 90 53 91 54 92 57 93 55 94
REMARK H PARENT 16 5 20 28 79 47 47 58
REMARK Flexibility Score: inf
ROOT
ATOM      1  C   UNL A   1      36.972  20.529  24.961  1.00  0.00     0.117 C 
ENDROOT
BRANCH   1   2
ATOM      2  N   UNL A   1      37.136  21.625  24.021  1.00  0.00    -0.356 N 
ATOM      3  C   UNL A   1      36.263  22.576  23.588  1.00  0.00     0.222 C 
ATOM      4  O   UNL A   1      36.660  23.381  22.743  1.00  0.00    -0.275 OA
ATOM      5  H   UNL A   1      38.037  21.692  23.628  1.00  0.00     0.163 HD
BRANCH   3   6
ATOM      6  C   UNL A   1      34.843  22.628  24.099  1.00  0.00     0.125 C 
BRANCH   6   7
ATOM      7  C   UNL A   1      34.483  23.874  24.916  1.00  0.00     0.096 C 
ATOM      8  N   UNL A   1      33.281  24.545  24.422  1.00  0.00    -0.321 N 
ATOM      9  C   UNL A   1      32.104  24.040  25.101  1.00  0.00     0.122 C 
ATOM     10  C   UNL A   1      32.601  23.628  26.476  1.00  0.00     0.024 C 
ATOM     11  C   UNL A   1      34.126  23.677  26.395  1.00  0.00     0.027 C 
BRANCH   8  12
ATOM     12  C   UNL A   1      33.290  25.420  23.368  1.00  0.00     0.321 C 
ATOM     13  O   UNL A   1      34.024  25.269  22.394  1.00  0.00    -0.248 OA
BRANCH  12  14
ATOM     14  N   UNL A   1      32.438  26.515  23.492  1.00  0.00    -0.309 N 
ATOM     15  C   UNL A   1      29.868  29.979  23.499  1.00  0.00     0.146 C 
ATOM     16  N   UNL A   1      30.810  28.877  23.414  1.00  0.00    -0.342 N 
ATOM     17  C   UNL A   1      30.396  27.668  22.714  1.00  0.00     0.140 C 
ATOM     18  C   UNL A   1      31.862  28.854  24.325  1.00  0.00     0.247 C 
ATOM     19  C   UNL A   1      31.550  26.738  22.358  1.00  0.00     0.144 C 
ATOM     20  C   UNL A   1      32.971  27.771  24.114  1.00  0.00     0.118 C 
ATOM     21  O   UNL A   1      32.007  29.769  25.141  1.00  0.00    -0.272 OA
ATOM     22  C   UNL A   1      34.013  28.424  23.174  1.00  0.00     0.045 C 
ATOM     23  C   UNL A   1      33.659  27.564  25.478  1.00  0.00     0.045 C 
ENDBRANCH  12  14
ENDBRANCH   8  12
ENDBRANCH   6   7
ENDBRANCH   3   6
ENDBRANCH   1   2
BRANCH   1  24
ATOM     24  C   UNL A   1      38.167  19.572  25.003  1.00  0.00     0.042 C 
BRANCH  24  25
ATOM     25  C   UNL A   1      39.121  19.753  26.186  1.00  0.00     0.118 C 
BRANCH  25  26
ATOM     26  N   UNL A   1      40.316  18.933  26.072  1.00  0.00    -0.352 N 
ATOM     27  C   UNL A   1      41.641  19.294  26.055  1.00  0.00     0.251 C 
ATOM     28  H   UNL A   1      40.148  17.966  25.994  1.00  0.00     0.163 HD
ATOM     29  O   UNL A   1      42.487  18.455  25.758  1.00  0.00    -0.269 OA
BRANCH  27  30
ATOM     30  C   UNL A   1      42.078  20.677  26.376  1.00  0.00     0.039 A 
ATOM     31  C   UNL A   1      42.221  21.588  25.323  1.00  0.00     0.014 A 
ATOM     32  C   UNL A   1      42.432  21.063  27.672  1.00  0.00     0.014 A 
ATOM     33  C   UNL A   1      42.677  22.888  25.573  1.00  0.00     0.010 A 
ATOM     34  C   UNL A   1      42.836  22.378  27.928  1.00  0.00     0.010 A 
ATOM     35  C   UNL A   1      42.973  23.303  26.881  1.00  0.00    -0.014 A 
BRANCH  35  36
ATOM     36  C   UNL A   1      43.440  24.690  27.154  1.00  0.00     0.031 A 
ATOM     37  C   UNL A   1      42.498  25.720  27.719  1.00  0.00     0.074 A 
ATOM     38  C   UNL A   1      44.707  25.041  26.863  1.00  0.00     0.049 A 
ATOM     39  N   UNL A   1      42.717  26.984  27.990  1.00  0.00    -0.248 NA
ATOM     40  C   UNL A   1      41.125  25.276  27.999  1.00  0.00     0.031 C 
ATOM     41  C   UNL A   1      45.715  24.156  26.278  1.00  0.00     0.029 A 
ATOM     42  N   UNL A   1      45.363  26.239  27.015  1.00  0.00    -0.354 N 
ATOM     43  C   UNL A   1      41.509  27.488  28.454  1.00  0.00     0.074 A 
ATOM     44  C   UNL A   1      40.550  26.405  28.392  1.00  0.00     0.031 C 
ATOM     45  C   UNL A   1      46.866  24.835  26.135  1.00  0.00     0.029 A 
ATOM     46  C   UNL A   1      46.670  26.209  26.592  1.00  0.00     0.049 A 
ATOM     47  H   UNL A   1      44.938  27.042  27.390  1.00  0.00     0.167 HD
ATOM     48  C   UNL A   1      41.226  28.734  28.907  1.00  0.00     0.037 A 
ATOM     49  C   UNL A   1      47.606  27.178  26.571  1.00  0.00     0.037 A 
ATOM     50  C   UNL A   1      42.182  29.807  29.003  1.00  0.00     0.049 A 
ATOM     51  C   UNL A   1      47.271  28.548  27.094  1.00  0.00     0.074 A 
ATOM     52  C   UNL A   1      42.000  31.083  29.510  1.00  0.00     0.029 A 
ATOM     53  N   UNL A   1      43.501  29.730  28.584  1.00  0.00    -0.354 N 
ATOM     54  N   UNL A   1      46.141  28.992  27.586  1.00  0.00    -0.248 NA
ATOM     55  C   UNL A   1      48.348  29.550  27.065  1.00  0.00     0.031 C 
ATOM     56  C   UNL A   1      43.199  31.789  29.365  1.00  0.00     0.029 A 
ATOM     57  C   UNL A   1      44.140  30.941  28.806  1.00  0.00     0.049 A 
ATOM     58  H   UNL A   1      43.922  28.933  28.188  1.00  0.00     0.167 HD
ATOM     59  C   UNL A   1      46.376  30.312  27.947  1.00  0.00     0.074 A 
ATOM     60  C   UNL A   1      47.761  30.594  27.630  1.00  0.00     0.031 C 
ATOM     61  C   UNL A   1      45.519  31.209  28.492  1.00  0.00     0.037 A 
BRANCH  48  62
ATOM     62  C   UNL A   1      39.816  29.010  29.342  1.00  0.00     0.064 A 
ATOM     63  C   UNL A   1      38.837  29.434  28.431  1.00  0.00     0.173 A 
ATOM     64  C   UNL A   1      39.429  28.807  30.674  1.00  0.00     0.173 A 
ATOM     65  F   UNL A   1      39.160  29.652  27.147  1.00  0.00    -0.203 F 
ATOM     66  C   UNL A   1      37.529  29.668  28.844  1.00  0.00     0.198 A 
ATOM     67  C   UNL A   1      38.114  29.017  31.079  1.00  0.00     0.198 A 
ATOM     68  F   UNL A   1      40.326  28.394  31.584  1.00  0.00    -0.203 F 
ATOM     69  F   UNL A   1      36.620  30.113  27.964  1.00  0.00    -0.200 F 
ATOM     70  C   UNL A   1      37.167  29.453  30.165  1.00  0.00     0.200 A 
ATOM     71  F   UNL A   1      37.762  28.797  32.353  1.00  0.00    -0.200 F 
ATOM     72  F   UNL A   1      35.904  29.674  30.559  1.00  0.00    -0.200 F 
ENDBRANCH  48  62
BRANCH  49  73
ATOM     73  C   UNL A   1      48.966  26.877  26.059  1.00  0.00     0.064 A 
ATOM     74  C   UNL A   1      49.328  27.201  24.745  1.00  0.00     0.173 A 
ATOM     75  C   UNL A   1      49.929  26.257  26.870  1.00  0.00     0.173 A 
ATOM     76  F   UNL A   1      48.431  27.772  23.927  1.00  0.00    -0.203 F 
ATOM     77  C   UNL A   1      50.596  26.902  24.253  1.00  0.00     0.198 A 
ATOM     78  C   UNL A   1      51.206  25.982  26.384  1.00  0.00     0.198 A 
ATOM     79  F   UNL A   1      49.631  25.930  28.135  1.00  0.00    -0.203 F 
ATOM     80  F   UNL A   1      50.902  27.187  22.980  1.00  0.00    -0.200 F 
ATOM     81  C   UNL A   1      51.536  26.299  25.075  1.00  0.00     0.200 A 
ATOM     82  F   UNL A   1      52.115  25.408  27.184  1.00  0.00    -0.200 F 
ATOM     83  F   UNL A   1      52.757  26.016  24.603  1.00  0.00    -0.200 F 
ENDBRANCH  49  73
BRANCH  61  84
ATOM     84  C   UNL A   1      46.059  32.573  28.807  1.00  0.00     0.064 A 
ATOM     85  C   UNL A   1      46.694  32.847  30.028  1.00  0.00     0.173 A 
ATOM     86  C   UNL A   1      45.969  33.609  27.865  1.00  0.00     0.173 A 
ATOM     87  F   UNL A   1      46.791  31.894  30.967  1.00  0.00    -0.203 F 
ATOM     88  C   UNL A   1      47.198  34.116  30.302  1.00  0.00     0.198 A 
ATOM     89  C   UNL A   1      46.496  34.869  28.133  1.00  0.00     0.198 A 
ATOM     90  F   UNL A   1      45.375  33.396  26.682  1.00  0.00    -0.203 F 
ATOM     91  F   UNL A   1      47.762  34.368  31.492  1.00  0.00    -0.200 F 
ATOM     92  C   UNL A   1      47.103  35.124  29.354  1.00  0.00     0.200 A 
ATOM     93  F   UNL A   1      46.412  35.839  27.213  1.00  0.00    -0.200 F 
ATOM     94  F   UNL A   1      47.592  36.343  29.619  1.00  0.00    -0.200 F 
ENDBRANCH  61  84
ENDBRANCH  35  36
ENDBRANCH  27  30
ENDBRANCH  25  26
ENDBRANCH  24  25
ENDBRANCH   1  24
TORSDOF 13
ENDMDL
MODEL 3
REMARK VINA RESULT:     -12.1      4.901      9.534
REMARK SMILES CN1CCN(C(=O)N2CCC[C@H]2CC(=O)NCCCNC(=O)c2ccc(-c3c4nc(c(-c5c(F)c(F)c(F)c(F)c5F)c5ccc([nH]5)c(-c5c(F)c(F)c(F)c(F)c5F)c5nc(c(-c6c(F)c(F)c(F)c(F)c6F)c6ccc3[nH]6)C=C5)C=C4)cc2)C(C)(C)C1=O
REMARK SMILES IDX 17 1 16 2 14 3 15 4 13 6 12 7 8 8 9 9 10 10 11 11 6 12 7 13
REMARK SMILES IDX 5 14 1 15 2 16 3 17 89 18 4 19 86 20 90 21 87 22 88 23 18 24
REMARK SMILES IDX 19 25 20 26 21 27 22 29 23 30 24 31 85 32 25 33 84 34 26 35
REMARK SMILES IDX 27 36 28 37 78 38 29 39 83 40 77 41 79 42 30 43 82 44 76 45
REMARK SMILES IDX 75 46 31 48 63 49 43 50 62 51 44 52 47 53 61 54 80 55 45 56
REMARK SMILES IDX 46 57 60 59 81 60 48 61 32 62 33 63 41 64 34 65 35 66 39 67
REMARK SMILES IDX 42 68 36 69 37 70 40 71 38 72 64 73 65 74 73 75 66 76 67 77
REMARK SMILES IDX 71 78 74 79 68 80 69 81 72 82 70 83 49 84 50 85 58 86 51 87
REMARK SMILES IDX 52 88 56 89 59 90 53 91 54 92 57 93 55 94
REMARK H PARENT 16 5 20 28 79 47 47 58
REMARK Flexibility Score: inf
ROOT
ATOM      1  C   UNL A   1      31.655  30.626  26.517  1.00  0.00     0.117 C 
ENDROOT
BRANCH   1   2
ATOM      2  N   UNL A   1      31.350  30.202  25.161  1.00  0.00    -0.356 N 
ATOM      3  C   UNL A   1      31.165  28.963  24.627  1.00  0.00     0.222 C 
ATOM      4  O   UNL A   1      30.950  28.884  23.416  1.00  0.00    -0.275 OA
ATOM      5  H   UNL A   1      31.261  30.940  24.515  1.00  0.00     0.163 HD
BRANCH   3   6
ATOM      6  C   UNL A   1      31.253  27.721  25.479  1.00  0.00     0.125 C 
BRANCH   6   7
ATOM      7  C   UNL A   1      32.615  27.017  25.480  1.00  0.00     0.096 C 
ATOM      8  N   UNL A   1      32.532  25.626  25.038  1.00  0.00    -0.321 N 
ATOM      9  C   UNL A   1      32.743  25.536  23.606  1.00  0.00     0.122 C 
ATOM     10  C   UNL A   1      33.661  26.701  23.279  1.00  0.00     0.024 C 
ATOM     11  C   UNL A   1      33.699  27.564  24.540  1.00  0.00     0.027 C 
BRANCH   8  12
ATOM     12  C   UNL A   1      32.167  24.597  25.865  1.00  0.00     0.321 C 
ATOM     13  O   UNL A   1      31.489  24.774  26.875  1.00  0.00    -0.248 OA
BRANCH  12  14
ATOM     14  N   UNL A   1      32.648  23.341  25.506  1.00  0.00    -0.309 N 
ATOM     15  C   UNL A   1      33.879  19.298  24.642  1.00  0.00     0.146 C 
ATOM     16  N   UNL A   1      33.446  20.621  25.056  1.00  0.00    -0.342 N 
ATOM     17  C   UNL A   1      32.152  21.101  24.587  1.00  0.00     0.140 C 
ATOM     18  C   UNL A   1      34.418  21.506  25.510  1.00  0.00     0.247 C 
ATOM     19  C   UNL A   1      31.629  22.309  25.356  1.00  0.00     0.144 C 
ATOM     20  C   UNL A   1      33.927  22.859  26.124  1.00  0.00     0.118 C 
ATOM     21  O   UNL A   1      35.598  21.153  25.601  1.00  0.00    -0.272 OA
ATOM     22  C   UNL A   1      33.711  22.576  27.630  1.00  0.00     0.045 C 
ATOM     23  C   UNL A   1      35.101  23.852  26.014  1.00  0.00     0.045 C 
ENDBRANCH  12  14
ENDBRANCH   8  12
ENDBRANCH   6   7
ENDBRANCH   3   6
ENDBRANCH   1   2
BRANCH   1  24
ATOM     24  C   UNL A   1      31.405  32.117  26.765  1.00  0.00     0.042 C 
BRANCH  24  25
ATOM     25  C   UNL A   1      32.656  32.995  26.847  1.00  0.00     0.118 C 
BRANCH  25  26
ATOM     26  N   UNL A   1      32.442  34.203  27.626  1.00  0.00    -0.352 N 
ATOM     27  C   UNL A   1      33.047  34.631  28.783  1.00  0.00     0.251 C 
ATOM     28  H   UNL A   1      31.754  34.810  27.268  1.00  0.00     0.163 HD
ATOM     29  O   UNL A   1      32.580  35.597  29.381  1.00  0.00    -0.269 OA
BRANCH  27  30
ATOM     30  C   UNL A   1      34.245  33.950  29.335  1.00  0.00     0.039 A 
ATOM     31  C   UNL A   1      34.054  32.926  30.270  1.00  0.00     0.014 A 
ATOM     32  C   UNL A   1      35.545  34.358  29.020  1.00  0.00     0.014 A 
ATOM     33  C   UNL A   1      35.155  32.289  30.854  1.00  0.00     0.010 A 
ATOM     34  C   UNL A   1      36.645  33.685  29.563  1.00  0.00     0.010 A 
ATOM     35  C   UNL A   1      36.463  32.650  30.494  1.00  0.00    -0.014 A 
BRANCH  35  36
ATOM     36  C   UNL A   1      37.638  31.962  31.098  1.00  0.00     0.031 A 
ATOM     37  C   UNL A   1      38.108  32.319  32.483  1.00  0.00     0.074 A 
ATOM     38  C   UNL A   1      38.310  31.034  30.389  1.00  0.00     0.049 A 
ATOM     39  N   UNL A   1      39.130  31.851  33.158  1.00  0.00    -0.248 NA
ATOM     40  C   UNL A   1      37.340  33.350  33.196  1.00  0.00     0.031 C 
ATOM     41  C   UNL A   1      37.988  30.618  29.024  1.00  0.00     0.029 A 
ATOM     42  N   UNL A   1      39.409  30.278  30.718  1.00  0.00    -0.354 N 
ATOM     43  C   UNL A   1      39.137  32.541  34.363  1.00  0.00     0.074 A 
ATOM     44  C   UNL A   1      38.042  33.486  34.313  1.00  0.00     0.031 C 
ATOM     45  C   UNL A   1      38.858  29.671  28.637  1.00  0.00     0.029 A 
ATOM     46  C   UNL A   1      39.816  29.432  29.714  1.00  0.00     0.049 A 
ATOM     47  H   UNL A   1      39.862  30.336  31.589  1.00  0.00     0.167 HD
ATOM     48  C   UNL A   1      39.969  32.391  35.423  1.00  0.00     0.037 A 
ATOM     49  C   UNL A   1      40.845  28.563  29.665  1.00  0.00     0.037 A 
ATOM     50  C   UNL A   1      41.039  31.430  35.495  1.00  0.00     0.049 A 
ATOM     51  C   UNL A   1      41.743  28.404  30.860  1.00  0.00     0.074 A 
ATOM     52  C   UNL A   1      41.890  31.163  36.554  1.00  0.00     0.029 A 
ATOM     53  N   UNL A   1      41.405  30.577  34.465  1.00  0.00    -0.354 N 
ATOM     54  N   UNL A   1      41.699  29.020  32.016  1.00  0.00    -0.248 NA
ATOM     55  C   UNL A   1      42.830  27.420  30.746  1.00  0.00     0.031 C 
ATOM     56  C   UNL A   1      42.794  30.173  36.153  1.00  0.00     0.029 A 
ATOM     57  C   UNL A   1      42.480  29.794  34.859  1.00  0.00     0.049 A 
ATOM     58  H   UNL A   1      40.966  30.533  33.585  1.00  0.00     0.167 HD
ATOM     59  C   UNL A   1      42.733  28.484  32.773  1.00  0.00     0.074 A 
ATOM     60  C   UNL A   1      43.378  27.481  31.950  1.00  0.00     0.031 C 
ATOM     61  C   UNL A   1      43.111  28.796  34.036  1.00  0.00     0.037 A 
BRANCH  48  62
ATOM     62  C   UNL A   1      39.752  33.289  36.607  1.00  0.00     0.064 A 
ATOM     63  C   UNL A   1      40.429  34.511  36.733  1.00  0.00     0.173 A 
ATOM     64  C   UNL A   1      38.826  32.944  37.602  1.00  0.00     0.173 A 
ATOM     65  F   UNL A   1      41.332  34.880  35.813  1.00  0.00    -0.203 F 
ATOM     66  C   UNL A   1      40.205  35.343  37.826  1.00  0.00     0.198 A 
ATOM     67  C   UNL A   1      38.586  33.791  38.681  1.00  0.00     0.198 A 
ATOM     68  F   UNL A   1      38.146  31.790  37.523  1.00  0.00    -0.203 F 
ATOM     69  F   UNL A   1      40.894  36.486  37.949  1.00  0.00    -0.200 F 
ATOM     70  C   UNL A   1      39.279  34.986  38.795  1.00  0.00     0.200 A 
ATOM     71  F   UNL A   1      37.681  33.451  39.610  1.00  0.00    -0.200 F 
ATOM     72  F   UNL A   1      39.061  35.792  39.844  1.00  0.00    -0.200 F 
ENDBRANCH  48  62
BRANCH  49  73
ATOM     73  C   UNL A   1      41.064  27.751  28.441  1.00  0.00     0.064 A 
ATOM     74  C   UNL A   1      41.943  28.184  27.440  1.00  0.00     0.173 A 
ATOM     75  C   UNL A   1      40.399  26.532  28.247  1.00  0.00     0.173 A 
ATOM     76  F   UNL A   1      42.583  29.356  27.573  1.00  0.00    -0.203 F 
ATOM     77  C   UNL A   1      42.138  27.436  26.281  1.00  0.00     0.198 A 
ATOM     78  C   UNL A   1      40.614  25.773  27.099  1.00  0.00     0.198 A 
ATOM     79  F   UNL A   1      39.549  26.075  29.178  1.00  0.00    -0.203 F 
ATOM     80  F   UNL A   1      42.954  27.893  25.321  1.00  0.00    -0.200 F 
ATOM     81  C   UNL A   1      41.478  26.228  26.115  1.00  0.00     0.200 A 
ATOM     82  F   UNL A   1      39.982  24.601  26.946  1.00  0.00    -0.200 F 
ATOM     83  F   UNL A   1      41.669  25.507  25.002  1.00  0.00    -0.200 F 
ENDBRANCH  49  73
BRANCH  61  84
ATOM     84  C   UNL A   1      44.260  28.027  34.619  1.00  0.00     0.064 A 
ATOM     85  C   UNL A   1      45.579  28.494  34.526  1.00  0.00     0.173 A 
ATOM     86  C   UNL A   1      44.034  26.824  35.305  1.00  0.00     0.173 A 
ATOM     87  F   UNL A   1      45.848  29.631  33.866  1.00  0.00    -0.203 F 
ATOM     88  C   UNL A   1      46.634  27.772  35.079  1.00  0.00     0.198 A 
ATOM     89  C   UNL A   1      45.088  26.118  35.879  1.00  0.00     0.198 A 
ATOM     90  F   UNL A   1      42.791  26.338  35.426  1.00  0.00    -0.203 F 
ATOM     91  F   UNL A   1      47.892  28.215  34.941  1.00  0.00    -0.200 F 
ATOM     92  C   UNL A   1      46.387  26.589  35.759  1.00  0.00     0.200 A 
ATOM     93  F   UNL A   1      44.848  24.979  36.543  1.00  0.00    -0.200 F 
ATOM     94  F   UNL A   1      47.404  25.898  36.293  1.00  0.00    -0.200 F 
ENDBRANCH  61  84
ENDBRANCH  35  36
ENDBRANCH  27  30
ENDBRANCH  25  26
ENDBRANCH  24  25
ENDBRANCH   1  24
TORSDOF 13
ENDMDL
