MODEL 1
REMARK VINA RESULT:     -12.0      0.000      0.000
REMARK SMILES C[C@H](CNC(=O)Cc1ccc(F)c(F)c1)C(=O)NCCCNC(=O)c1ccc(-c2c3nc(c(-c4c(F)c(F)c(F)c(F)c4F)c4ccc([nH]4)c(-c4c(F)c(F)c(F)c(F)c4F)c4nc(c(-c5c(F)c(F)c(F)c(F)c5F)c5ccc2[nH]5)C=C4)C=C3)cc1
REMARK SMILES IDX 19 1 18 2 16 3 17 4 2 6 1 7 3 8 4 9 5 10 6 12 7 13 8 14 9 15
REMARK SMILES IDX 15 16 10 17 13 18 11 19 14 20 12 21 20 22 21 23 22 24 23 25
REMARK SMILES IDX 24 27 25 28 26 29 87 30 27 31 86 32 28 33 29 34 30 35 80 36
REMARK SMILES IDX 31 37 85 38 79 39 81 40 32 41 84 42 78 43 77 44 33 46 65 47
REMARK SMILES IDX 45 48 64 49 46 50 49 51 63 52 82 53 47 54 48 55 62 57 83 58
REMARK SMILES IDX 50 59 34 60 35 61 43 62 36 63 37 64 41 65 44 66 38 67 39 68
REMARK SMILES IDX 42 69 40 70 66 71 67 72 75 73 68 74 69 75 73 76 76 77 70 78
REMARK SMILES IDX 71 79 74 80 72 81 51 82 52 83 60 84 53 85 54 86 58 87 61 88
REMARK SMILES IDX 55 89 56 90 59 91 57 92
REMARK H PARENT 18 5 4 11 22 26 81 45 49 56
REMARK Flexibility Score: inf
ROOT
ATOM      1  C   UNL A   1      31.447  30.907  26.608  1.00  0.00     0.117 C 
ENDROOT
BRANCH   1   2
ATOM      2  N   UNL A   1      32.221  30.454  25.459  1.00  0.00    -0.356 N 
ATOM      3  C   UNL A   1      32.688  29.240  25.072  1.00  0.00     0.224 C 
ATOM      4  O   UNL A   1      33.413  29.223  24.071  1.00  0.00    -0.275 OA
ATOM      5  H   UNL A   1      32.454  31.179  24.835  1.00  0.00     0.163 HD
BRANCH   3   6
ATOM      6  C   UNL A   1      32.383  27.939  25.802  1.00  0.00     0.094 C 
ATOM      7  C   UNL A   1      33.619  27.262  26.381  1.00  0.00     0.020 C 
BRANCH   6   8
ATOM      8  C   UNL A   1      31.388  27.024  25.072  1.00  0.00     0.129 C 
BRANCH   8   9
ATOM      9  N   UNL A   1      31.397  27.129  23.628  1.00  0.00    -0.355 N 
ATOM     10  C   UNL A   1      30.440  27.501  22.735  1.00  0.00     0.224 C 
ATOM     11  H   UNL A   1      32.258  26.886  23.214  1.00  0.00     0.163 HD
ATOM     12  O   UNL A   1      30.704  27.404  21.533  1.00  0.00    -0.275 OA
BRANCH  10  13
ATOM     13  C   UNL A   1      29.117  28.068  23.202  1.00  0.00     0.135 C 
BRANCH  13  14
ATOM     14  C   UNL A   1      28.865  29.506  22.820  1.00  0.00    -0.036 A 
ATOM     15  C   UNL A   1      29.221  30.537  23.707  1.00  0.00     0.007 A 
ATOM     16  C   UNL A   1      28.302  29.839  21.578  1.00  0.00     0.046 A 
ATOM     17  C   UNL A   1      28.977  31.871  23.382  1.00  0.00     0.043 A 
ATOM     18  C   UNL A   1      28.069  31.176  21.260  1.00  0.00     0.159 A 
ATOM     19  C   UNL A   1      28.396  32.183  22.158  1.00  0.00     0.158 A 
ATOM     20  F   UNL A   1      27.512  31.481  20.080  1.00  0.00    -0.204 F 
ATOM     21  F   UNL A   1      28.147  33.465  21.860  1.00  0.00    -0.204 F 
ENDBRANCH  13  14
ENDBRANCH  10  13
ENDBRANCH   8   9
ENDBRANCH   6   8
ENDBRANCH   3   6
ENDBRANCH   1   2
BRANCH   1  22
ATOM     22  C   UNL A   1      31.390  32.430  26.688  1.00  0.00     0.042 C 
BRANCH  22  23
ATOM     23  C   UNL A   1      32.684  33.078  27.154  1.00  0.00     0.118 C 
BRANCH  23  24
ATOM     24  N   UNL A   1      32.477  34.411  27.690  1.00  0.00    -0.352 N 
ATOM     25  C   UNL A   1      33.048  35.019  28.783  1.00  0.00     0.251 C 
ATOM     26  H   UNL A   1      31.830  34.965  27.196  1.00  0.00     0.163 HD
ATOM     27  O   UNL A   1      32.590  36.082  29.192  1.00  0.00    -0.269 OA
BRANCH  25  28
ATOM     28  C   UNL A   1      34.198  34.400  29.487  1.00  0.00     0.039 A 
ATOM     29  C   UNL A   1      33.960  33.687  30.666  1.00  0.00     0.014 A 
ATOM     30  C   UNL A   1      35.508  34.557  29.029  1.00  0.00     0.014 A 
ATOM     31  C   UNL A   1      35.026  33.095  31.352  1.00  0.00     0.010 A 
ATOM     32  C   UNL A   1      36.555  33.885  29.655  1.00  0.00     0.010 A 
ATOM     33  C   UNL A   1      36.329  33.166  30.838  1.00  0.00    -0.014 A 
BRANCH  33  34
ATOM     34  C   UNL A   1      37.478  32.541  31.546  1.00  0.00     0.031 A 
ATOM     35  C   UNL A   1      38.238  31.415  30.897  1.00  0.00     0.074 A 
ATOM     36  C   UNL A   1      37.811  32.947  32.787  1.00  0.00     0.049 A 
ATOM     37  N   UNL A   1      39.210  30.682  31.381  1.00  0.00    -0.248 NA
ATOM     38  C   UNL A   1      37.832  31.041  29.532  1.00  0.00     0.031 C 
ATOM     39  C   UNL A   1      37.131  33.998  33.544  1.00  0.00     0.029 A 
ATOM     40  N   UNL A   1      38.807  32.522  33.631  1.00  0.00    -0.354 N 
ATOM     41  C   UNL A   1      39.508  29.751  30.395  1.00  0.00     0.074 A 
ATOM     42  C   UNL A   1      38.584  29.975  29.305  1.00  0.00     0.031 C 
ATOM     43  C   UNL A   1      37.751  34.163  34.723  1.00  0.00     0.029 A 
ATOM     44  C   UNL A   1      38.847  33.203  34.823  1.00  0.00     0.049 A 
ATOM     45  H   UNL A   1      39.432  31.796  33.403  1.00  0.00     0.167 HD
ATOM     46  C   UNL A   1      40.482  28.811  30.385  1.00  0.00     0.037 A 
ATOM     47  C   UNL A   1      39.675  33.069  35.877  1.00  0.00     0.037 A 
ATOM     48  C   UNL A   1      41.438  28.626  31.443  1.00  0.00     0.049 A 
ATOM     49  C   UNL A   1      40.764  32.033  35.834  1.00  0.00     0.074 A 
ATOM     50  C   UNL A   1      42.501  27.742  31.498  1.00  0.00     0.029 A 
ATOM     51  N   UNL A   1      41.454  29.348  32.626  1.00  0.00    -0.354 N 
ATOM     52  N   UNL A   1      41.057  31.182  34.882  1.00  0.00    -0.248 NA
ATOM     53  C   UNL A   1      41.639  31.938  37.012  1.00  0.00     0.031 C 
ATOM     54  C   UNL A   1      43.144  27.909  32.728  1.00  0.00     0.029 A 
ATOM     55  C   UNL A   1      42.503  28.922  33.423  1.00  0.00     0.049 A 
ATOM     56  H   UNL A   1      40.814  30.058  32.865  1.00  0.00     0.167 HD
ATOM     57  C   UNL A   1      42.155  30.464  35.334  1.00  0.00     0.074 A 
ATOM     58  C   UNL A   1      42.488  30.988  36.642  1.00  0.00     0.031 C 
ATOM     59  C   UNL A   1      42.825  29.460  34.720  1.00  0.00     0.037 A 
BRANCH  46  60
ATOM     60  C   UNL A   1      40.582  27.922  29.181  1.00  0.00     0.064 A 
ATOM     61  C   UNL A   1      41.446  28.248  28.124  1.00  0.00     0.173 A 
ATOM     62  C   UNL A   1      39.781  26.778  29.046  1.00  0.00     0.173 A 
ATOM     63  F   UNL A   1      42.230  29.334  28.201  1.00  0.00    -0.203 F 
ATOM     64  C   UNL A   1      41.500  27.463  26.975  1.00  0.00     0.198 A 
ATOM     65  C   UNL A   1      39.857  25.982  27.908  1.00  0.00     0.198 A 
ATOM     66  F   UNL A   1      38.947  26.418  30.034  1.00  0.00    -0.203 F 
ATOM     67  F   UNL A   1      42.314  27.807  25.968  1.00  0.00    -0.200 F 
ATOM     68  C   UNL A   1      40.709  26.329  26.870  1.00  0.00     0.200 A 
ATOM     69  F   UNL A   1      39.111  24.872  27.818  1.00  0.00    -0.200 F 
ATOM     70  F   UNL A   1      40.771  25.567  25.768  1.00  0.00    -0.200 F 
ENDBRANCH  46  60
BRANCH  47  71
ATOM     71  C   UNL A   1      39.528  33.976  37.044  1.00  0.00     0.064 A 
ATOM     72  C   UNL A   1      40.140  35.236  37.076  1.00  0.00     0.173 A 
ATOM     73  C   UNL A   1      38.790  33.579  38.167  1.00  0.00     0.173 A 
ATOM     74  F   UNL A   1      40.858  35.662  36.026  1.00  0.00    -0.203 F 
ATOM     75  C   UNL A   1      40.035  36.057  38.197  1.00  0.00     0.198 A 
ATOM     76  C   UNL A   1      38.667  34.409  39.278  1.00  0.00     0.198 A 
ATOM     77  F   UNL A   1      38.168  32.390  38.172  1.00  0.00    -0.203 F 
ATOM     78  F   UNL A   1      40.654  37.246  38.215  1.00  0.00    -0.200 F 
ATOM     79  C   UNL A   1      39.297  35.644  39.296  1.00  0.00     0.200 A 
ATOM     80  F   UNL A   1      37.933  34.016  40.329  1.00  0.00    -0.200 F 
ATOM     81  F   UNL A   1      39.188  36.439  40.370  1.00  0.00    -0.200 F 
ENDBRANCH  47  71
BRANCH  59  82
ATOM     82  C   UNL A   1      43.997  28.863  35.439  1.00  0.00     0.064 A 
ATOM     83  C   UNL A   1      43.805  27.846  36.387  1.00  0.00     0.173 A 
ATOM     84  C   UNL A   1      45.294  29.359  35.255  1.00  0.00     0.173 A 
ATOM     85  F   UNL A   1      42.579  27.345  36.604  1.00  0.00    -0.203 F 
ATOM     86  C   UNL A   1      44.872  27.358  37.136  1.00  0.00     0.198 A 
ATOM     87  C   UNL A   1      46.362  28.853  35.991  1.00  0.00     0.198 A 
ATOM     88  F   UNL A   1      45.526  30.324  34.353  1.00  0.00    -0.203 F 
ATOM     89  F   UNL A   1      44.661  26.409  38.059  1.00  0.00    -0.200 F 
ATOM     90  C   UNL A   1      46.149  27.861  36.936  1.00  0.00     0.200 A 
ATOM     91  F   UNL A   1      47.600  29.324  35.783  1.00  0.00    -0.200 F 
ATOM     92  F   UNL A   1      47.176  27.388  37.656  1.00  0.00    -0.200 F 
ENDBRANCH  59  82
ENDBRANCH  33  34
ENDBRANCH  25  28
ENDBRANCH  23  24
ENDBRANCH  22  23
ENDBRANCH   1  22
TORSDOF 14
ENDMDL
MODEL 2
REMARK VINA RESULT:     -11.9      1.193      2.513
REMARK SMILES C[C@H](CNC(=O)Cc1ccc(F)c(F)c1)C(=O)NCCCNC(=O)c1ccc(-c2c3nc(c(-c4c(F)c(F)c(F)c(F)c4F)c4ccc([nH]4)c(-c4c(F)c(F)c(F)c(F)c4F)c4nc(c(-c5c(F)c(F)c(F)c(F)c5F)c5ccc2[nH]5)C=C4)C=C3)cc1
REMARK SMILES IDX 19 1 18 2 16 3 17 4 2 6 1 7 3 8 4 9 5 10 6 12 7 13 8 14 9 15
REMARK SMILES IDX 15 16 10 17 13 18 11 19 14 20 12 21 20 22 21 23 22 24 23 25
REMARK SMILES IDX 24 27 25 28 26 29 87 30 27 31 86 32 28 33 29 34 30 35 80 36
REMARK SMILES IDX 31 37 85 38 79 39 81 40 32 41 84 42 78 43 77 44 33 46 65 47
REMARK SMILES IDX 45 48 64 49 46 50 49 51 63 52 82 53 47 54 48 55 62 57 83 58
REMARK SMILES IDX 50 59 34 60 35 61 43 62 36 63 37 64 41 65 44 66 38 67 39 68
REMARK SMILES IDX 42 69 40 70 66 71 67 72 75 73 68 74 69 75 73 76 76 77 70 78
REMARK SMILES IDX 71 79 74 80 72 81 51 82 52 83 60 84 53 85 54 86 58 87 61 88
REMARK SMILES IDX 55 89 56 90 59 91 57 92
REMARK H PARENT 18 5 4 11 22 26 81 45 49 56
REMARK Flexibility Score: inf
ROOT
ATOM      1  C   UNL A   1      31.150  30.844  25.405  1.00  0.00     0.117 C 
ENDROOT
BRANCH   1   2
ATOM      2  N   UNL A   1      32.417  30.127  25.310  1.00  0.00    -0.356 N 
ATOM      3  C   UNL A   1      32.822  28.898  25.716  1.00  0.00     0.224 C 
ATOM      4  O   UNL A   1      34.020  28.636  25.564  1.00  0.00    -0.275 OA
ATOM      5  H   UNL A   1      33.123  30.643  24.858  1.00  0.00     0.163 HD
BRANCH   3   6
ATOM      6  C   UNL A   1      31.901  27.864  26.349  1.00  0.00     0.094 C 
ATOM      7  C   UNL A   1      31.552  28.165  27.801  1.00  0.00     0.020 C 
BRANCH   6   8
ATOM      8  C   UNL A   1      32.272  26.408  26.029  1.00  0.00     0.129 C 
BRANCH   8   9
ATOM      9  N   UNL A   1      32.710  26.166  24.670  1.00  0.00    -0.355 N 
ATOM     10  C   UNL A   1      32.048  25.737  23.562  1.00  0.00     0.224 C 
ATOM     11  H   UNL A   1      33.666  26.348  24.520  1.00  0.00     0.163 HD
ATOM     12  O   UNL A   1      32.707  25.528  22.540  1.00  0.00    -0.275 OA
BRANCH  10  13
ATOM     13  C   UNL A   1      30.543  25.574  23.567  1.00  0.00     0.135 C 
BRANCH  13  14
ATOM     14  C   UNL A   1      29.760  26.837  23.309  1.00  0.00    -0.036 A 
ATOM     15  C   UNL A   1      30.379  27.924  22.667  1.00  0.00     0.007 A 
ATOM     16  C   UNL A   1      28.409  26.942  23.677  1.00  0.00     0.046 A 
ATOM     17  C   UNL A   1      29.678  29.109  22.438  1.00  0.00     0.043 A 
ATOM     18  C   UNL A   1      27.716  28.126  23.437  1.00  0.00     0.159 A 
ATOM     19  C   UNL A   1      28.348  29.204  22.831  1.00  0.00     0.158 A 
ATOM     20  F   UNL A   1      26.433  28.223  23.811  1.00  0.00    -0.204 F 
ATOM     21  F   UNL A   1      27.687  30.351  22.625  1.00  0.00    -0.204 F 
ENDBRANCH  13  14
ENDBRANCH  10  13
ENDBRANCH   8   9
ENDBRANCH   6   8
ENDBRANCH   3   6
ENDBRANCH   1   2
BRANCH   1  22
ATOM     22  C   UNL A   1      31.132  31.807  26.589  1.00  0.00     0.042 C 
BRANCH  22  23
ATOM     23  C   UNL A   1      32.477  32.445  26.895  1.00  0.00     0.118 C 
BRANCH  23  24
ATOM     24  N   UNL A   1      32.352  33.820  27.342  1.00  0.00    -0.352 N 
ATOM     25  C   UNL A   1      33.013  34.483  28.348  1.00  0.00     0.251 C 
ATOM     26  H   UNL A   1      31.692  34.362  26.849  1.00  0.00     0.163 HD
ATOM     27  O   UNL A   1      32.620  35.590  28.704  1.00  0.00    -0.269 OA
BRANCH  25  28
ATOM     28  C   UNL A   1      34.186  33.873  29.022  1.00  0.00     0.039 A 
ATOM     29  C   UNL A   1      35.459  34.381  28.747  1.00  0.00     0.014 A 
ATOM     30  C   UNL A   1      34.051  32.779  29.880  1.00  0.00     0.014 A 
ATOM     31  C   UNL A   1      36.583  33.825  29.367  1.00  0.00     0.010 A 
ATOM     32  C   UNL A   1      35.156  32.290  30.572  1.00  0.00     0.010 A 
ATOM     33  C   UNL A   1      36.439  32.792  30.306  1.00  0.00    -0.014 A 
BRANCH  33  34
ATOM     34  C   UNL A   1      37.617  32.187  30.981  1.00  0.00     0.031 A 
ATOM     35  C   UNL A   1      38.425  31.129  30.277  1.00  0.00     0.074 A 
ATOM     36  C   UNL A   1      37.937  32.549  32.239  1.00  0.00     0.049 A 
ATOM     37  N   UNL A   1      39.431  30.419  30.723  1.00  0.00    -0.248 NA
ATOM     38  C   UNL A   1      38.030  30.802  28.897  1.00  0.00     0.031 C 
ATOM     39  C   UNL A   1      37.213  33.531  33.046  1.00  0.00     0.029 A 
ATOM     40  N   UNL A   1      38.956  32.130  33.060  1.00  0.00    -0.354 N 
ATOM     41  C   UNL A   1      39.766  29.550  29.694  1.00  0.00     0.074 A 
ATOM     42  C   UNL A   1      38.828  29.783  28.618  1.00  0.00     0.031 C 
ATOM     43  C   UNL A   1      37.831  33.668  34.231  1.00  0.00     0.029 A 
ATOM     44  C   UNL A   1      38.970  32.755  34.283  1.00  0.00     0.049 A 
ATOM     45  H   UNL A   1      39.612  31.445  32.796  1.00  0.00     0.167 HD
ATOM     46  C   UNL A   1      40.782  28.657  29.637  1.00  0.00     0.037 A 
ATOM     47  C   UNL A   1      39.808  32.610  35.327  1.00  0.00     0.037 A 
ATOM     48  C   UNL A   1      41.750  28.465  30.683  1.00  0.00     0.049 A 
ATOM     49  C   UNL A   1      40.943  31.627  35.232  1.00  0.00     0.074 A 
ATOM     50  C   UNL A   1      42.853  27.630  30.694  1.00  0.00     0.029 A 
ATOM     51  N   UNL A   1      41.739  29.131  31.899  1.00  0.00    -0.354 N 
ATOM     52  N   UNL A   1      41.269  30.836  34.240  1.00  0.00    -0.248 NA
ATOM     53  C   UNL A   1      41.827  31.516  36.402  1.00  0.00     0.031 C 
ATOM     54  C   UNL A   1      43.492  27.767  31.929  1.00  0.00     0.029 A 
ATOM     55  C   UNL A   1      42.810  28.716  32.672  1.00  0.00     0.049 A 
ATOM     56  H   UNL A   1      41.069  29.799  32.173  1.00  0.00     0.167 HD
ATOM     57  C   UNL A   1      42.401  30.149  34.655  1.00  0.00     0.074 A 
ATOM     58  C   UNL A   1      42.715  30.624  35.986  1.00  0.00     0.031 C 
ATOM     59  C   UNL A   1      43.112  29.206  33.992  1.00  0.00     0.037 A 
BRANCH  46  60
ATOM     60  C   UNL A   1      40.917  27.831  28.392  1.00  0.00     0.064 A 
ATOM     61  C   UNL A   1      40.318  26.565  28.308  1.00  0.00     0.173 A 
ATOM     62  C   UNL A   1      41.688  28.268  27.304  1.00  0.00     0.173 A 
ATOM     63  F   UNL A   1      39.576  26.099  29.323  1.00  0.00    -0.203 F 
ATOM     64  C   UNL A   1      40.490  25.765  27.181  1.00  0.00     0.198 A 
ATOM     65  C   UNL A   1      41.836  27.477  26.169  1.00  0.00     0.198 A 
ATOM     66  F   UNL A   1      42.271  29.476  27.331  1.00  0.00    -0.203 F 
ATOM     67  F   UNL A   1      39.930  24.549  27.132  1.00  0.00    -0.200 F 
ATOM     68  C   UNL A   1      41.244  26.223  26.112  1.00  0.00     0.200 A 
ATOM     69  F   UNL A   1      42.544  27.931  25.126  1.00  0.00    -0.200 F 
ATOM     70  F   UNL A   1      41.399  25.457  25.022  1.00  0.00    -0.200 F 
ENDBRANCH  46  60
BRANCH  47  71
ATOM     71  C   UNL A   1      39.625  33.453  36.535  1.00  0.00     0.064 A 
ATOM     72  C   UNL A   1      38.789  33.056  37.588  1.00  0.00     0.173 A 
ATOM     73  C   UNL A   1      40.266  34.694  36.643  1.00  0.00     0.173 A 
ATOM     74  F   UNL A   1      38.152  31.876  37.531  1.00  0.00    -0.203 F 
ATOM     75  C   UNL A   1      38.587  33.878  38.694  1.00  0.00     0.198 A 
ATOM     76  C   UNL A   1      40.081  35.506  37.759  1.00  0.00     0.198 A 
ATOM     77  F   UNL A   1      41.093  35.107  35.670  1.00  0.00    -0.203 F 
ATOM     78  F   UNL A   1      37.760  33.488  39.674  1.00  0.00    -0.200 F 
ATOM     79  C   UNL A   1      39.234  35.101  38.780  1.00  0.00     0.200 A 
ATOM     80  F   UNL A   1      40.727  36.677  37.849  1.00  0.00    -0.200 F 
ATOM     81  F   UNL A   1      39.046  35.887  39.849  1.00  0.00    -0.200 F 
ENDBRANCH  47  71
BRANCH  59  82
ATOM     82  C   UNL A   1      44.313  28.629  34.680  1.00  0.00     0.064 A 
ATOM     83  C   UNL A   1      45.579  29.210  34.504  1.00  0.00     0.173 A 
ATOM     84  C   UNL A   1      44.225  27.453  35.435  1.00  0.00     0.173 A 
ATOM     85  F   UNL A   1      45.714  30.332  33.781  1.00  0.00    -0.203 F 
ATOM     86  C   UNL A   1      46.715  28.623  35.051  1.00  0.00     0.198 A 
ATOM     87  C   UNL A   1      45.362  26.881  36.000  1.00  0.00     0.198 A 
ATOM     88  F   UNL A   1      43.035  26.869  35.638  1.00  0.00    -0.203 F 
ATOM     89  F   UNL A   1      47.919  29.177  34.845  1.00  0.00    -0.200 F 
ATOM     90  C   UNL A   1      46.606  27.460  35.799  1.00  0.00     0.200 A 
ATOM     91  F   UNL A   1      45.254  25.768  36.739  1.00  0.00    -0.200 F 
ATOM     92  F   UNL A   1      47.702  26.897  36.328  1.00  0.00    -0.200 F 
ENDBRANCH  59  82
ENDBRANCH  33  34
ENDBRANCH  25  28
ENDBRANCH  23  24
ENDBRANCH  22  23
ENDBRANCH   1  22
TORSDOF 14
ENDMDL
MODEL 3
REMARK VINA RESULT:     -11.8      6.096     11.237
REMARK SMILES C[C@H](CNC(=O)Cc1ccc(F)c(F)c1)C(=O)NCCCNC(=O)c1ccc(-c2c3nc(c(-c4c(F)c(F)c(F)c(F)c4F)c4ccc([nH]4)c(-c4c(F)c(F)c(F)c(F)c4F)c4nc(c(-c5c(F)c(F)c(F)c(F)c5F)c5ccc2[nH]5)C=C4)C=C3)cc1
REMARK SMILES IDX 19 1 18 2 16 3 17 4 2 6 1 7 3 8 4 9 5 10 6 12 7 13 8 14 9 15
REMARK SMILES IDX 15 16 10 17 13 18 11 19 14 20 12 21 20 22 21 23 22 24 23 25
REMARK SMILES IDX 24 27 25 28 26 29 87 30 27 31 86 32 28 33 29 34 30 35 80 36
REMARK SMILES IDX 31 37 85 38 79 39 81 40 32 41 84 42 78 43 77 44 33 46 65 47
REMARK SMILES IDX 45 48 64 49 46 50 49 51 63 52 82 53 47 54 48 55 62 57 83 58
REMARK SMILES IDX 50 59 34 60 35 61 43 62 36 63 37 64 41 65 44 66 38 67 39 68
REMARK SMILES IDX 42 69 40 70 66 71 67 72 75 73 68 74 69 75 73 76 76 77 70 78
REMARK SMILES IDX 71 79 74 80 72 81 51 82 52 83 60 84 53 85 54 86 58 87 61 88
REMARK SMILES IDX 55 89 56 90 59 91 57 92
REMARK H PARENT 18 5 4 11 22 26 81 45 49 56
REMARK Flexibility Score: inf
ROOT
ATOM      1  C   UNL A   1      36.487  20.347  25.010  1.00  0.00     0.117 C 
ENDROOT
BRANCH   1   2
ATOM      2  N   UNL A   1      35.286  19.532  24.868  1.00  0.00    -0.356 N 
ATOM      3  C   UNL A   1      33.974  19.756  25.133  1.00  0.00     0.224 C 
ATOM      4  O   UNL A   1      33.212  18.794  24.989  1.00  0.00    -0.275 OA
ATOM      5  H   UNL A   1      35.464  18.634  24.506  1.00  0.00     0.163 HD
BRANCH   3   6
ATOM      6  C   UNL A   1      33.416  21.092  25.604  1.00  0.00     0.094 C 
ATOM      7  C   UNL A   1      33.727  21.402  27.062  1.00  0.00     0.020 C 
BRANCH   6   8
ATOM      8  C   UNL A   1      31.978  21.374  25.143  1.00  0.00     0.129 C 
BRANCH   8   9
ATOM      9  N   UNL A   1      31.118  21.980  26.138  1.00  0.00    -0.355 N 
ATOM     10  C   UNL A   1      30.683  23.258  26.310  1.00  0.00     0.224 C 
ATOM     11  H   UNL A   1      30.785  21.349  26.817  1.00  0.00     0.163 HD
ATOM     12  O   UNL A   1      30.021  23.511  27.320  1.00  0.00    -0.275 OA
BRANCH  10  13
ATOM     13  C   UNL A   1      30.956  24.321  25.269  1.00  0.00     0.135 C 
BRANCH  13  14
ATOM     14  C   UNL A   1      31.702  25.533  25.770  1.00  0.00    -0.036 A 
ATOM     15  C   UNL A   1      33.051  25.718  25.421  1.00  0.00     0.007 A 
ATOM     16  C   UNL A   1      31.064  26.502  26.562  1.00  0.00     0.046 A 
ATOM     17  C   UNL A   1      33.764  26.821  25.891  1.00  0.00     0.043 A 
ATOM     18  C   UNL A   1      31.783  27.604  27.020  1.00  0.00     0.159 A 
ATOM     19  C   UNL A   1      33.124  27.757  26.695  1.00  0.00     0.158 A 
ATOM     20  F   UNL A   1      31.170  28.511  27.793  1.00  0.00    -0.204 F 
ATOM     21  F   UNL A   1      33.819  28.805  27.159  1.00  0.00    -0.204 F 
ENDBRANCH  13  14
ENDBRANCH  10  13
ENDBRANCH   8   9
ENDBRANCH   6   8
ENDBRANCH   3   6
ENDBRANCH   1   2
BRANCH   1  22
ATOM     22  C   UNL A   1      37.756  19.501  24.947  1.00  0.00     0.042 C 
BRANCH  22  23
ATOM     23  C   UNL A   1      38.947  20.109  25.669  1.00  0.00     0.118 C 
BRANCH  23  24
ATOM     24  N   UNL A   1      40.027  19.158  25.859  1.00  0.00    -0.352 N 
ATOM     25  C   UNL A   1      41.360  19.379  26.110  1.00  0.00     0.251 C 
ATOM     26  H   UNL A   1      39.765  18.211  25.799  1.00  0.00     0.163 HD
ATOM     27  O   UNL A   1      42.152  18.444  26.038  1.00  0.00    -0.269 OA
BRANCH  25  28
ATOM     28  C   UNL A   1      41.859  20.734  26.451  1.00  0.00     0.039 A 
ATOM     29  C   UNL A   1      42.027  21.666  25.423  1.00  0.00     0.014 A 
ATOM     30  C   UNL A   1      42.210  21.079  27.758  1.00  0.00     0.014 A 
ATOM     31  C   UNL A   1      42.497  22.951  25.714  1.00  0.00     0.010 A 
ATOM     32  C   UNL A   1      42.583  22.386  28.062  1.00  0.00     0.010 A 
ATOM     33  C   UNL A   1      42.754  23.331  27.040  1.00  0.00    -0.014 A 
BRANCH  33  34
ATOM     34  C   UNL A   1      43.251  24.692  27.375  1.00  0.00     0.031 A 
ATOM     35  C   UNL A   1      42.315  25.706  27.978  1.00  0.00     0.074 A 
ATOM     36  C   UNL A   1      44.524  25.036  27.098  1.00  0.00     0.049 A 
ATOM     37  N   UNL A   1      42.527  26.967  28.261  1.00  0.00    -0.248 NA
ATOM     38  C   UNL A   1      40.946  25.251  28.274  1.00  0.00     0.031 C 
ATOM     39  C   UNL A   1      45.520  24.162  26.478  1.00  0.00     0.029 A 
ATOM     40  N   UNL A   1      45.197  26.216  27.302  1.00  0.00    -0.354 N 
ATOM     41  C   UNL A   1      41.319  27.456  28.739  1.00  0.00     0.074 A 
ATOM     42  C   UNL A   1      40.362  26.374  28.662  1.00  0.00     0.031 C 
ATOM     43  C   UNL A   1      46.686  24.821  26.386  1.00  0.00     0.029 A 
ATOM     44  C   UNL A   1      46.511  26.176  26.903  1.00  0.00     0.049 A 
ATOM     45  H   UNL A   1      44.776  27.014  27.695  1.00  0.00     0.167 HD
ATOM     46  C   UNL A   1      41.037  28.687  29.224  1.00  0.00     0.037 A 
ATOM     47  C   UNL A   1      47.466  27.124  26.952  1.00  0.00     0.037 A 
ATOM     48  C   UNL A   1      42.002  29.746  29.355  1.00  0.00     0.049 A 
ATOM     49  C   UNL A   1      47.136  28.478  27.516  1.00  0.00     0.074 A 
ATOM     50  C   UNL A   1      41.828  31.008  29.894  1.00  0.00     0.029 A 
ATOM     51  N   UNL A   1      43.327  29.658  28.956  1.00  0.00    -0.354 N 
ATOM     52  N   UNL A   1      45.998  28.917  27.996  1.00  0.00    -0.248 NA
ATOM     53  C   UNL A   1      48.221  29.470  27.547  1.00  0.00     0.031 C 
ATOM     54  C   UNL A   1      43.040  31.696  29.793  1.00  0.00     0.029 A 
ATOM     55  C   UNL A   1      43.979  30.850  29.226  1.00  0.00     0.049 A 
ATOM     56  H   UNL A   1      43.742  28.868  28.541  1.00  0.00     0.167 HD
ATOM     57  C   UNL A   1      46.232  30.223  28.401  1.00  0.00     0.074 A 
ATOM     58  C   UNL A   1      47.625  30.505  28.123  1.00  0.00     0.031 C 
ATOM     59  C   UNL A   1      45.368  31.110  28.950  1.00  0.00     0.037 A 
BRANCH  46  60
ATOM     60  C   UNL A   1      39.632  28.955  29.676  1.00  0.00     0.064 A 
ATOM     61  C   UNL A   1      38.701  29.536  28.802  1.00  0.00     0.173 A 
ATOM     62  C   UNL A   1      39.222  28.690  30.992  1.00  0.00     0.173 A 
ATOM     63  F   UNL A   1      39.044  29.814  27.535  1.00  0.00    -0.203 F 
ATOM     64  C   UNL A   1      37.413  29.846  29.231  1.00  0.00     0.198 A 
ATOM     65  C   UNL A   1      37.927  28.977  31.409  1.00  0.00     0.198 A 
ATOM     66  F   UNL A   1      40.072  28.125  31.862  1.00  0.00    -0.203 F 
ATOM     67  F   UNL A   1      36.547  30.424  28.386  1.00  0.00    -0.200 F 
ATOM     68  C   UNL A   1      37.025  29.562  30.531  1.00  0.00     0.200 A 
ATOM     69  F   UNL A   1      37.546  28.679  32.659  1.00  0.00    -0.200 F 
ATOM     70  F   UNL A   1      35.781  29.850  30.940  1.00  0.00    -0.200 F 
ENDBRANCH  46  60
BRANCH  47  71
ATOM     71  C   UNL A   1      48.840  26.803  26.488  1.00  0.00     0.064 A 
ATOM     72  C   UNL A   1      49.825  26.344  27.373  1.00  0.00     0.173 A 
ATOM     73  C   UNL A   1      49.200  26.982  25.145  1.00  0.00     0.173 A 
ATOM     74  F   UNL A   1      49.530  26.157  28.668  1.00  0.00    -0.203 F 
ATOM     75  C   UNL A   1      51.124  26.093  26.935  1.00  0.00     0.198 A 
ATOM     76  C   UNL A   1      50.493  26.711  24.704  1.00  0.00     0.198 A 
ATOM     77  F   UNL A   1      48.285  27.400  24.258  1.00  0.00    -0.203 F 
ATOM     78  F   UNL A   1      52.055  25.682  27.806  1.00  0.00    -0.200 F 
ATOM     79  C   UNL A   1      51.456  26.275  25.601  1.00  0.00     0.200 A 
ATOM     80  F   UNL A   1      50.803  26.865  23.409  1.00  0.00    -0.200 F 
ATOM     81  F   UNL A   1      52.703  26.025  25.179  1.00  0.00    -0.200 F 
ENDBRANCH  47  71
BRANCH  59  82
ATOM     82  C   UNL A   1      45.896  32.467  29.307  1.00  0.00     0.064 A 
ATOM     83  C   UNL A   1      46.408  32.715  30.589  1.00  0.00     0.173 A 
ATOM     84  C   UNL A   1      45.810  33.540  28.411  1.00  0.00     0.173 A 
ATOM     85  F   UNL A   1      46.502  31.720  31.485  1.00  0.00    -0.203 F 
ATOM     86  C   UNL A   1      46.803  33.995  30.965  1.00  0.00     0.198 A 
ATOM     87  C   UNL A   1      46.227  34.815  28.783  1.00  0.00     0.198 A 
ATOM     88  F   UNL A   1      45.337  33.348  27.170  1.00  0.00    -0.203 F 
ATOM     89  F   UNL A   1      47.260  34.217  32.206  1.00  0.00    -0.200 F 
ATOM     90  C   UNL A   1      46.714  35.043  30.061  1.00  0.00     0.200 A 
ATOM     91  F   UNL A   1      46.159  35.824  27.903  1.00  0.00    -0.200 F 
ATOM     92  F   UNL A   1      47.097  36.276  30.423  1.00  0.00    -0.200 F 
ENDBRANCH  59  82
ENDBRANCH  33  34
ENDBRANCH  25  28
ENDBRANCH  23  24
ENDBRANCH  22  23
ENDBRANCH   1  22
TORSDOF 14
ENDMDL
