MODEL 1
REMARK VINA RESULT:     -13.8      0.000      0.000
REMARK SMILES O=C(NCCCNC(=O)c1ccc2c(c1)C(=O)O[C@H]2c1ccc(F)cc1)c1ccc(-c2c3nc(c(-c4c(F)c(F)c(F)c(F)c4F)c4ccc([nH]4)c(-c4c(F)c(F)c(F)c(F)c4F)c4nc(c(-c5c(F)c(F)c(F)c(F)c5F)c5ccc2[nH]5)C=C4)C=C3)cc1
REMARK SMILES IDX 4 1 3 2 1 3 2 4 27 6 28 7 89 8 29 9 88 10 30 11 31 12 32 13
REMARK SMILES IDX 82 14 33 15 87 16 81 17 83 18 34 19 86 20 80 21 79 22 35 24
REMARK SMILES IDX 67 25 47 26 66 27 48 28 51 29 65 30 84 31 49 32 50 33 64 35
REMARK SMILES IDX 85 36 52 37 36 38 37 39 45 40 38 41 39 42 43 43 46 44 40 45
REMARK SMILES IDX 41 46 44 47 42 48 68 49 69 50 77 51 70 52 71 53 75 54 78 55
REMARK SMILES IDX 72 56 73 57 76 58 74 59 53 60 54 61 62 62 55 63 56 64 60 65
REMARK SMILES IDX 63 66 57 67 58 68 61 69 59 70 5 71 6 72 7 73 8 74 9 76 10 77
REMARK SMILES IDX 11 78 15 79 12 80 14 81 13 82 16 83 19 84 17 85 18 86 20 87
REMARK SMILES IDX 21 88 26 89 22 90 25 91 23 92 24 93
REMARK H PARENT 3 5 83 23 51 34 7 75
REMARK Flexibility Score: inf
ROOT
ATOM      1  C   UNL A   1      32.586  33.021  27.287  1.00  0.00     0.118 C 
ENDROOT
BRANCH   1   2
ATOM      2  N   UNL A   1      32.400  34.395  27.747  1.00  0.00    -0.352 N 
ATOM      3  O   UNL A   1      32.604  36.191  29.098  1.00  0.00    -0.269 OA
ATOM      4  C   UNL A   1      33.025  35.091  28.755  1.00  0.00     0.251 C 
ATOM      5  H   UNL A   1      31.717  34.905  27.256  1.00  0.00     0.163 HD
BRANCH   4   6
ATOM      6  C   UNL A   1      34.190  34.497  29.443  1.00  0.00     0.039 A 
ATOM      7  C   UNL A   1      35.473  34.708  28.947  1.00  0.00     0.014 A 
ATOM      8  C   UNL A   1      34.004  33.713  30.587  1.00  0.00     0.014 A 
ATOM      9  C   UNL A   1      36.528  33.962  29.439  1.00  0.00     0.010 A 
ATOM     10  C   UNL A   1      35.102  33.084  31.183  1.00  0.00     0.010 A 
ATOM     11  C   UNL A   1      36.371  33.173  30.590  1.00  0.00    -0.014 A 
BRANCH  11  12
ATOM     12  C   UNL A   1      37.585  32.553  31.179  1.00  0.00     0.031 A 
ATOM     13  C   UNL A   1      38.065  32.900  32.561  1.00  0.00     0.074 A 
ATOM     14  C   UNL A   1      38.205  31.591  30.465  1.00  0.00     0.049 A 
ATOM     15  N   UNL A   1      39.053  32.370  33.239  1.00  0.00    -0.248 NA
ATOM     16  C   UNL A   1      37.361  33.975  33.276  1.00  0.00     0.031 C 
ATOM     17  C   UNL A   1      37.829  31.184  29.107  1.00  0.00     0.029 A 
ATOM     18  N   UNL A   1      39.237  30.747  30.784  1.00  0.00    -0.354 N 
ATOM     19  C   UNL A   1      39.096  33.050  34.448  1.00  0.00     0.074 A 
ATOM     20  C   UNL A   1      38.055  34.054  34.405  1.00  0.00     0.031 C 
ATOM     21  C   UNL A   1      38.549  30.113  28.750  1.00  0.00     0.029 A 
ATOM     22  C   UNL A   1      39.506  29.819  29.808  1.00  0.00     0.049 A 
ATOM     23  H   UNL A   1      39.737  30.802  31.631  1.00  0.00     0.167 HD
ATOM     24  C   UNL A   1      39.927  32.842  35.497  1.00  0.00     0.037 A 
ATOM     25  C   UNL A   1      40.431  28.844  29.756  1.00  0.00     0.037 A 
ATOM     26  C   UNL A   1      40.951  31.826  35.534  1.00  0.00     0.049 A 
ATOM     27  C   UNL A   1      41.356  28.668  30.924  1.00  0.00     0.074 A 
ATOM     28  C   UNL A   1      41.823  31.524  36.565  1.00  0.00     0.029 A 
ATOM     29  N   UNL A   1      41.240  30.949  34.498  1.00  0.00    -0.354 N 
ATOM     30  N   UNL A   1      41.366  29.301  32.071  1.00  0.00    -0.248 NA
ATOM     31  C   UNL A   1      42.404  27.649  30.787  1.00  0.00     0.031 C 
ATOM     32  C   UNL A   1      42.678  30.506  36.134  1.00  0.00     0.029 A 
ATOM     33  C   UNL A   1      42.296  30.125  34.858  1.00  0.00     0.049 A 
ATOM     34  H   UNL A   1      40.765  30.915  33.637  1.00  0.00     0.167 HD
ATOM     35  C   UNL A   1      42.410  28.751  32.798  1.00  0.00     0.074 A 
ATOM     36  C   UNL A   1      42.987  27.708  31.975  1.00  0.00     0.031 C 
ATOM     37  C   UNL A   1      42.859  29.090  34.030  1.00  0.00     0.037 A 
BRANCH  24  38
ATOM     38  C   UNL A   1      39.783  33.715  36.711  1.00  0.00     0.064 A 
ATOM     39  C   UNL A   1      38.929  33.336  37.759  1.00  0.00     0.173 A 
ATOM     40  C   UNL A   1      40.375  34.984  36.775  1.00  0.00     0.173 A 
ATOM     41  F   UNL A   1      38.332  32.134  37.743  1.00  0.00    -0.203 F 
ATOM     42  C   UNL A   1      38.647  34.208  38.808  1.00  0.00     0.198 A 
ATOM     43  C   UNL A   1      40.112  35.844  37.840  1.00  0.00     0.198 A 
ATOM     44  F   UNL A   1      41.206  35.392  35.804  1.00  0.00    -0.203 F 
ATOM     45  F   UNL A   1      37.786  33.843  39.768  1.00  0.00    -0.200 F 
ATOM     46  C   UNL A   1      39.237  35.462  38.845  1.00  0.00     0.200 A 
ATOM     47  F   UNL A   1      40.695  37.050  37.884  1.00  0.00    -0.200 F 
ATOM     48  F   UNL A   1      38.957  36.305  39.848  1.00  0.00    -0.200 F 
ENDBRANCH  24  38
BRANCH  25  49
ATOM     49  C   UNL A   1      40.528  27.975  28.552  1.00  0.00     0.064 A 
ATOM     50  C   UNL A   1      39.863  26.740  28.490  1.00  0.00     0.173 A 
ATOM     51  C   UNL A   1      41.296  28.356  27.444  1.00  0.00     0.173 A 
ATOM     52  F   UNL A   1      39.120  26.323  29.525  1.00  0.00    -0.203 F 
ATOM     53  C   UNL A   1      39.983  25.912  27.377  1.00  0.00     0.198 A 
ATOM     54  C   UNL A   1      41.381  27.546  26.314  1.00  0.00     0.198 A 
ATOM     55  F   UNL A   1      41.936  29.535  27.447  1.00  0.00    -0.203 F 
ATOM     56  F   UNL A   1      39.374  24.718  27.366  1.00  0.00    -0.200 F 
ATOM     57  C   UNL A   1      40.733  26.320  26.286  1.00  0.00     0.200 A 
ATOM     58  F   UNL A   1      42.082  27.957  25.249  1.00  0.00    -0.200 F 
ATOM     59  F   UNL A   1      40.825  25.535  25.204  1.00  0.00    -0.200 F 
ENDBRANCH  25  49
BRANCH  37  60
ATOM     60  C   UNL A   1      44.021  28.312  34.576  1.00  0.00     0.064 A 
ATOM     61  C   UNL A   1      43.809  27.134  35.310  1.00  0.00     0.173 A 
ATOM     62  C   UNL A   1      45.343  28.753  34.411  1.00  0.00     0.173 A 
ATOM     63  F   UNL A   1      42.564  26.673  35.504  1.00  0.00    -0.203 F 
ATOM     64  C   UNL A   1      44.875  26.435  35.867  1.00  0.00     0.198 A 
ATOM     65  C   UNL A   1      46.409  28.030  34.938  1.00  0.00     0.198 A 
ATOM     66  F   UNL A   1      45.600  29.864  33.706  1.00  0.00    -0.203 F 
ATOM     67  F   UNL A   1      44.645  25.332  36.593  1.00  0.00    -0.200 F 
ATOM     68  C   UNL A   1      46.175  26.878  35.673  1.00  0.00     0.200 A 
ATOM     69  F   UNL A   1      47.666  28.443  34.722  1.00  0.00    -0.200 F 
ATOM     70  F   UNL A   1      47.202  26.191  36.190  1.00  0.00    -0.200 F 
ENDBRANCH  37  60
ENDBRANCH  11  12
ENDBRANCH   4   6
ENDBRANCH   1   2
BRANCH   1  71
ATOM     71  C   UNL A   1      31.380  32.480  26.546  1.00  0.00     0.042 C 
BRANCH  71  72
ATOM     72  C   UNL A   1      31.521  31.013  26.192  1.00  0.00     0.118 C 
BRANCH  72  73
ATOM     73  N   UNL A   1      30.763  30.662  24.995  1.00  0.00    -0.352 N 
ATOM     74  C   UNL A   1      30.866  29.560  24.184  1.00  0.00     0.251 C 
ATOM     75  H   UNL A   1      30.074  31.314  24.730  1.00  0.00     0.163 HD
ATOM     76  O   UNL A   1      30.302  29.530  23.096  1.00  0.00    -0.269 OA
BRANCH  74  77
ATOM     77  C   UNL A   1      31.692  28.419  24.620  1.00  0.00     0.040 A 
ATOM     78  C   UNL A   1      33.092  28.562  24.654  1.00  0.00     0.014 A 
ATOM     79  C   UNL A   1      31.079  27.231  25.021  1.00  0.00     0.030 A 
ATOM     80  C   UNL A   1      33.890  27.533  25.166  1.00  0.00     0.009 A 
ATOM     81  C   UNL A   1      31.888  26.270  25.583  1.00  0.00     0.068 A 
ATOM     82  C   UNL A   1      33.259  26.397  25.649  1.00  0.00     0.012 A 
ATOM     83  C   UNL A   1      31.490  25.020  26.207  1.00  0.00     0.339 C 
ATOM     84  C   UNL A   1      33.816  25.150  26.233  1.00  0.00     0.238 C 
ATOM     85  O   UNL A   1      30.348  24.638  26.377  1.00  0.00    -0.246 OA
ATOM     86  O   UNL A   1      32.636  24.395  26.596  1.00  0.00    -0.449 OA
BRANCH  84  87
ATOM     87  C   UNL A   1      34.642  24.350  25.251  1.00  0.00    -0.003 A 
ATOM     88  C   UNL A   1      34.095  23.915  24.028  1.00  0.00     0.011 A 
ATOM     89  C   UNL A   1      35.987  24.066  25.533  1.00  0.00     0.011 A 
ATOM     90  C   UNL A   1      34.880  23.235  23.100  1.00  0.00     0.039 A 
ATOM     91  C   UNL A   1      36.768  23.377  24.603  1.00  0.00     0.039 A 
ATOM     92  C   UNL A   1      36.210  22.974  23.395  1.00  0.00     0.123 A 
ATOM     93  F   UNL A   1      36.968  22.329  22.501  1.00  0.00    -0.207 F 
ENDBRANCH  84  87
ENDBRANCH  74  77
ENDBRANCH  72  73
ENDBRANCH  71  72
ENDBRANCH   1  71
TORSDOF 11
ENDMDL
MODEL 2
REMARK VINA RESULT:     -13.7      5.579     10.807
REMARK SMILES O=C(NCCCNC(=O)c1ccc2c(c1)C(=O)O[C@H]2c1ccc(F)cc1)c1ccc(-c2c3nc(c(-c4c(F)c(F)c(F)c(F)c4F)c4ccc([nH]4)c(-c4c(F)c(F)c(F)c(F)c4F)c4nc(c(-c5c(F)c(F)c(F)c(F)c5F)c5ccc2[nH]5)C=C4)C=C3)cc1
REMARK SMILES IDX 4 1 3 2 1 3 2 4 27 6 28 7 89 8 29 9 88 10 30 11 31 12 32 13
REMARK SMILES IDX 82 14 33 15 87 16 81 17 83 18 34 19 86 20 80 21 79 22 35 24
REMARK SMILES IDX 67 25 47 26 66 27 48 28 51 29 65 30 84 31 49 32 50 33 64 35
REMARK SMILES IDX 85 36 52 37 36 38 37 39 45 40 38 41 39 42 43 43 46 44 40 45
REMARK SMILES IDX 41 46 44 47 42 48 68 49 69 50 77 51 70 52 71 53 75 54 78 55
REMARK SMILES IDX 72 56 73 57 76 58 74 59 53 60 54 61 62 62 55 63 56 64 60 65
REMARK SMILES IDX 63 66 57 67 58 68 61 69 59 70 5 71 6 72 7 73 8 74 9 76 10 77
REMARK SMILES IDX 11 78 15 79 12 80 14 81 13 82 16 83 19 84 17 85 18 86 20 87
REMARK SMILES IDX 21 88 26 89 22 90 25 91 23 92 24 93
REMARK H PARENT 3 5 83 23 51 34 7 75
REMARK Flexibility Score: inf
ROOT
ATOM      1  C   UNL A   1      39.449  19.835  25.916  1.00  0.00     0.118 C 
ENDROOT
BRANCH   1   2
ATOM      2  N   UNL A   1      40.553  18.880  25.911  1.00  0.00    -0.352 N 
ATOM      3  O   UNL A   1      42.691  18.160  25.858  1.00  0.00    -0.269 OA
ATOM      4  C   UNL A   1      41.906  19.080  26.065  1.00  0.00     0.251 C 
ATOM      5  H   UNL A   1      40.288  17.943  25.776  1.00  0.00     0.163 HD
BRANCH   4   6
ATOM      6  C   UNL A   1      42.411  20.412  26.453  1.00  0.00     0.039 A 
ATOM      7  C   UNL A   1      42.396  20.799  27.790  1.00  0.00     0.014 A 
ATOM      8  C   UNL A   1      42.895  21.290  25.478  1.00  0.00     0.014 A 
ATOM      9  C   UNL A   1      42.636  22.120  28.122  1.00  0.00     0.010 A 
ATOM     10  C   UNL A   1      43.292  22.581  25.842  1.00  0.00     0.010 A 
ATOM     11  C   UNL A   1      43.130  23.020  27.164  1.00  0.00    -0.014 A 
BRANCH  11  12
ATOM     12  C   UNL A   1      43.551  24.367  27.628  1.00  0.00     0.031 A 
ATOM     13  C   UNL A   1      44.992  24.794  27.626  1.00  0.00     0.074 A 
ATOM     14  C   UNL A   1      42.583  25.240  27.973  1.00  0.00     0.049 A 
ATOM     15  N   UNL A   1      45.495  25.969  27.913  1.00  0.00    -0.248 NA
ATOM     16  C   UNL A   1      46.000  23.786  27.263  1.00  0.00     0.031 C 
ATOM     17  C   UNL A   1      41.151  24.926  28.022  1.00  0.00     0.029 A 
ATOM     18  N   UNL A   1      42.635  26.572  28.296  1.00  0.00    -0.354 N 
ATOM     19  C   UNL A   1      46.871  25.840  27.779  1.00  0.00     0.074 A 
ATOM     20  C   UNL A   1      47.132  24.465  27.412  1.00  0.00     0.031 C 
ATOM     21  C   UNL A   1      40.459  26.047  28.258  1.00  0.00     0.029 A 
ATOM     22  C   UNL A   1      41.397  27.139  28.478  1.00  0.00     0.049 A 
ATOM     23  H   UNL A   1      43.478  27.072  28.389  1.00  0.00     0.167 HD
ATOM     24  C   UNL A   1      47.822  26.792  27.939  1.00  0.00     0.037 A 
ATOM     25  C   UNL A   1      41.048  28.397  28.802  1.00  0.00     0.037 A 
ATOM     26  C   UNL A   1      47.547  28.163  28.289  1.00  0.00     0.049 A 
ATOM     27  C   UNL A   1      42.133  29.414  29.005  1.00  0.00     0.074 A 
ATOM     28  C   UNL A   1      48.445  29.205  28.447  1.00  0.00     0.029 A 
ATOM     29  N   UNL A   1      46.285  28.686  28.533  1.00  0.00    -0.354 N 
ATOM     30  N   UNL A   1      43.427  29.283  28.847  1.00  0.00    -0.248 NA
ATOM     31  C   UNL A   1      41.710  30.750  29.442  1.00  0.00     0.031 C 
ATOM     32  C   UNL A   1      47.735  30.341  28.845  1.00  0.00     0.029 A 
ATOM     33  C   UNL A   1      46.386  30.028  28.869  1.00  0.00     0.049 A 
ATOM     34  H   UNL A   1      45.442  28.179  28.476  1.00  0.00     0.167 HD
ATOM     35  C   UNL A   1      43.972  30.520  29.152  1.00  0.00     0.074 A 
ATOM     36  C   UNL A   1      42.865  31.398  29.469  1.00  0.00     0.031 C 
ATOM     37  C   UNL A   1      45.275  30.890  29.180  1.00  0.00     0.037 A 
BRANCH  24  38
ATOM     38  C   UNL A   1      49.260  26.409  27.739  1.00  0.00     0.064 A 
ATOM     39  C   UNL A   1      50.110  26.246  28.846  1.00  0.00     0.173 A 
ATOM     40  C   UNL A   1      49.830  26.343  26.460  1.00  0.00     0.173 A 
ATOM     41  F   UNL A   1      49.616  26.306  30.092  1.00  0.00    -0.203 F 
ATOM     42  C   UNL A   1      51.481  26.064  28.678  1.00  0.00     0.198 A 
ATOM     43  C   UNL A   1      51.198  26.135  26.296  1.00  0.00     0.198 A 
ATOM     44  F   UNL A   1      49.062  26.484  25.370  1.00  0.00    -0.203 F 
ATOM     45  F   UNL A   1      52.278  25.965  29.751  1.00  0.00    -0.200 F 
ATOM     46  C   UNL A   1      52.024  26.012  27.404  1.00  0.00     0.200 A 
ATOM     47  F   UNL A   1      51.720  26.067  25.063  1.00  0.00    -0.200 F 
ATOM     48  F   UNL A   1      53.344  25.849  27.243  1.00  0.00    -0.200 F 
ENDBRANCH  24  38
BRANCH  25  49
ATOM     49  C   UNL A   1      39.613  28.752  28.962  1.00  0.00     0.064 A 
ATOM     50  C   UNL A   1      38.856  29.232  27.881  1.00  0.00     0.173 A 
ATOM     51  C   UNL A   1      38.970  28.629  30.201  1.00  0.00     0.173 A 
ATOM     52  F   UNL A   1      39.422  29.376  26.675  1.00  0.00    -0.203 F 
ATOM     53  C   UNL A   1      37.522  29.597  28.040  1.00  0.00     0.198 A 
ATOM     54  C   UNL A   1      37.624  28.955  30.349  1.00  0.00     0.198 A 
ATOM     55  F   UNL A   1      39.644  28.159  31.261  1.00  0.00    -0.203 F 
ATOM     56  F   UNL A   1      36.838  30.096  27.001  1.00  0.00    -0.200 F 
ATOM     57  C   UNL A   1      36.904  29.448  29.271  1.00  0.00     0.200 A 
ATOM     58  F   UNL A   1      37.021  28.781  31.533  1.00  0.00    -0.200 F 
ATOM     59  F   UNL A   1      35.612  29.774  29.417  1.00  0.00    -0.200 F 
ENDBRANCH  25  49
BRANCH  37  60
ATOM     60  C   UNL A   1      45.577  32.314  29.547  1.00  0.00     0.064 A 
ATOM     61  C   UNL A   1      45.797  32.674  30.886  1.00  0.00     0.173 A 
ATOM     62  C   UNL A   1      45.606  33.332  28.581  1.00  0.00     0.173 A 
ATOM     63  F   UNL A   1      45.773  31.741  31.850  1.00  0.00    -0.203 F 
ATOM     64  C   UNL A   1      46.024  33.999  31.244  1.00  0.00     0.198 A 
ATOM     65  C   UNL A   1      45.870  34.650  28.939  1.00  0.00     0.198 A 
ATOM     66  F   UNL A   1      45.416  33.038  27.287  1.00  0.00    -0.203 F 
ATOM     67  F   UNL A   1      46.198  34.323  32.533  1.00  0.00    -0.200 F 
ATOM     68  C   UNL A   1      46.070  34.985  30.270  1.00  0.00     0.200 A 
ATOM     69  F   UNL A   1      45.946  35.596  27.992  1.00  0.00    -0.200 F 
ATOM     70  F   UNL A   1      46.312  36.257  30.613  1.00  0.00    -0.200 F 
ENDBRANCH  37  60
ENDBRANCH  11  12
ENDBRANCH   4   6
ENDBRANCH   1   2
BRANCH   1  71
ATOM     71  C   UNL A   1      38.303  19.414  25.017  1.00  0.00     0.042 C 
BRANCH  71  72
ATOM     72  C   UNL A   1      37.193  20.445  24.964  1.00  0.00     0.118 C 
BRANCH  72  73
ATOM     73  N   UNL A   1      35.873  19.827  24.903  1.00  0.00    -0.352 N 
ATOM     74  C   UNL A   1      34.631  20.397  25.027  1.00  0.00     0.251 C 
ATOM     75  H   UNL A   1      35.873  18.854  24.751  1.00  0.00     0.163 HD
ATOM     76  O   UNL A   1      33.634  19.699  25.170  1.00  0.00    -0.269 OA
BRANCH  74  77
ATOM     77  C   UNL A   1      34.509  21.867  25.019  1.00  0.00     0.040 A 
ATOM     78  C   UNL A   1      35.033  22.603  26.099  1.00  0.00     0.014 A 
ATOM     79  C   UNL A   1      33.907  22.508  23.935  1.00  0.00     0.030 A 
ATOM     80  C   UNL A   1      35.027  24.001  26.064  1.00  0.00     0.009 A 
ATOM     81  C   UNL A   1      33.982  23.882  23.902  1.00  0.00     0.068 A 
ATOM     82  C   UNL A   1      34.513  24.623  24.936  1.00  0.00     0.012 A 
ATOM     83  C   UNL A   1      33.573  24.773  22.831  1.00  0.00     0.339 C 
ATOM     84  C   UNL A   1      34.357  26.062  24.606  1.00  0.00     0.238 C 
ATOM     85  O   UNL A   1      33.131  24.436  21.749  1.00  0.00    -0.246 OA
ATOM     86  O   UNL A   1      33.821  26.042  23.261  1.00  0.00    -0.449 OA
BRANCH  84  87
ATOM     87  C   UNL A   1      33.391  26.781  25.521  1.00  0.00    -0.003 A 
ATOM     88  C   UNL A   1      32.051  26.360  25.637  1.00  0.00     0.011 A 
ATOM     89  C   UNL A   1      33.833  27.861  26.301  1.00  0.00     0.011 A 
ATOM     90  C   UNL A   1      31.184  26.986  26.529  1.00  0.00     0.039 A 
ATOM     91  C   UNL A   1      32.958  28.490  27.188  1.00  0.00     0.039 A 
ATOM     92  C   UNL A   1      31.646  28.043  27.298  1.00  0.00     0.123 A 
ATOM     93  F   UNL A   1      30.817  28.640  28.162  1.00  0.00    -0.207 F 
ENDBRANCH  84  87
ENDBRANCH  74  77
ENDBRANCH  72  73
ENDBRANCH  71  72
ENDBRANCH   1  71
TORSDOF 11
ENDMDL
MODEL 3
REMARK VINA RESULT:     -13.7      5.609     10.805
REMARK SMILES O=C(NCCCNC(=O)c1ccc2c(c1)C(=O)O[C@H]2c1ccc(F)cc1)c1ccc(-c2c3nc(c(-c4c(F)c(F)c(F)c(F)c4F)c4ccc([nH]4)c(-c4c(F)c(F)c(F)c(F)c4F)c4nc(c(-c5c(F)c(F)c(F)c(F)c5F)c5ccc2[nH]5)C=C4)C=C3)cc1
REMARK SMILES IDX 4 1 3 2 1 3 2 4 27 6 28 7 89 8 29 9 88 10 30 11 31 12 32 13
REMARK SMILES IDX 82 14 33 15 87 16 81 17 83 18 34 19 86 20 80 21 79 22 35 24
REMARK SMILES IDX 67 25 47 26 66 27 48 28 51 29 65 30 84 31 49 32 50 33 64 35
REMARK SMILES IDX 85 36 52 37 36 38 37 39 45 40 38 41 39 42 43 43 46 44 40 45
REMARK SMILES IDX 41 46 44 47 42 48 68 49 69 50 77 51 70 52 71 53 75 54 78 55
REMARK SMILES IDX 72 56 73 57 76 58 74 59 53 60 54 61 62 62 55 63 56 64 60 65
REMARK SMILES IDX 63 66 57 67 58 68 61 69 59 70 5 71 6 72 7 73 8 74 9 76 10 77
REMARK SMILES IDX 11 78 15 79 12 80 14 81 13 82 16 83 19 84 17 85 18 86 20 87
REMARK SMILES IDX 21 88 26 89 22 90 25 91 23 92 24 93
REMARK H PARENT 3 5 83 23 51 34 7 75
REMARK Flexibility Score: inf
ROOT
ATOM      1  C   UNL A   1      39.424  19.874  25.754  1.00  0.00     0.118 C 
ENDROOT
BRANCH   1   2
ATOM      2  N   UNL A   1      40.508  18.898  25.837  1.00  0.00    -0.352 N 
ATOM      3  O   UNL A   1      42.630  18.136  25.928  1.00  0.00    -0.269 OA
ATOM      4  C   UNL A   1      41.852  19.075  26.065  1.00  0.00     0.251 C 
ATOM      5  H   UNL A   1      40.231  17.963  25.710  1.00  0.00     0.163 HD
BRANCH   4   6
ATOM      6  C   UNL A   1      42.362  20.407  26.449  1.00  0.00     0.039 A 
ATOM      7  C   UNL A   1      42.360  20.794  27.786  1.00  0.00     0.014 A 
ATOM      8  C   UNL A   1      42.837  21.286  25.470  1.00  0.00     0.014 A 
ATOM      9  C   UNL A   1      42.604  22.115  28.117  1.00  0.00     0.010 A 
ATOM     10  C   UNL A   1      43.238  22.577  25.830  1.00  0.00     0.010 A 
ATOM     11  C   UNL A   1      43.088  23.015  27.155  1.00  0.00    -0.014 A 
BRANCH  11  12
ATOM     12  C   UNL A   1      43.515  24.361  27.615  1.00  0.00     0.031 A 
ATOM     13  C   UNL A   1      44.957  24.784  27.610  1.00  0.00     0.074 A 
ATOM     14  C   UNL A   1      42.549  25.239  27.960  1.00  0.00     0.049 A 
ATOM     15  N   UNL A   1      45.464  25.958  27.894  1.00  0.00    -0.248 NA
ATOM     16  C   UNL A   1      45.961  23.772  27.248  1.00  0.00     0.031 C 
ATOM     17  C   UNL A   1      41.117  24.929  28.011  1.00  0.00     0.029 A 
ATOM     18  N   UNL A   1      42.606  26.571  28.279  1.00  0.00    -0.354 N 
ATOM     19  C   UNL A   1      46.839  25.824  27.759  1.00  0.00     0.074 A 
ATOM     20  C   UNL A   1      47.095  24.448  27.394  1.00  0.00     0.031 C 
ATOM     21  C   UNL A   1      40.428  26.052  28.246  1.00  0.00     0.029 A 
ATOM     22  C   UNL A   1      41.370  27.142  28.462  1.00  0.00     0.049 A 
ATOM     23  H   UNL A   1      43.451  27.068  28.370  1.00  0.00     0.167 HD
ATOM     24  C   UNL A   1      47.793  26.773  27.916  1.00  0.00     0.037 A 
ATOM     25  C   UNL A   1      41.026  28.402  28.784  1.00  0.00     0.037 A 
ATOM     26  C   UNL A   1      47.523  28.147  28.263  1.00  0.00     0.049 A 
ATOM     27  C   UNL A   1      42.114  29.416  28.984  1.00  0.00     0.074 A 
ATOM     28  C   UNL A   1      48.424  29.186  28.418  1.00  0.00     0.029 A 
ATOM     29  N   UNL A   1      46.263  28.673  28.508  1.00  0.00    -0.354 N 
ATOM     30  N   UNL A   1      43.407  29.280  28.824  1.00  0.00    -0.248 NA
ATOM     31  C   UNL A   1      41.696  30.754  29.418  1.00  0.00     0.031 C 
ATOM     32  C   UNL A   1      47.719  30.324  28.814  1.00  0.00     0.029 A 
ATOM     33  C   UNL A   1      46.369  30.016  28.840  1.00  0.00     0.049 A 
ATOM     34  H   UNL A   1      45.419  28.170  28.453  1.00  0.00     0.167 HD
ATOM     35  C   UNL A   1      43.957  30.516  29.125  1.00  0.00     0.074 A 
ATOM     36  C   UNL A   1      42.853  31.398  29.442  1.00  0.00     0.031 C 
ATOM     37  C   UNL A   1      45.261  30.883  29.151  1.00  0.00     0.037 A 
BRANCH  24  38
ATOM     38  C   UNL A   1      49.230  26.386  27.715  1.00  0.00     0.064 A 
ATOM     39  C   UNL A   1      50.080  26.216  28.821  1.00  0.00     0.173 A 
ATOM     40  C   UNL A   1      49.800  26.321  26.436  1.00  0.00     0.173 A 
ATOM     41  F   UNL A   1      49.586  26.276  30.067  1.00  0.00    -0.203 F 
ATOM     42  C   UNL A   1      51.449  26.030  28.653  1.00  0.00     0.198 A 
ATOM     43  C   UNL A   1      51.167  26.108  26.271  1.00  0.00     0.198 A 
ATOM     44  F   UNL A   1      49.032  26.467  25.346  1.00  0.00    -0.203 F 
ATOM     45  F   UNL A   1      52.246  25.925  29.725  1.00  0.00    -0.200 F 
ATOM     46  C   UNL A   1      51.992  25.979  27.378  1.00  0.00     0.200 A 
ATOM     47  F   UNL A   1      51.689  26.041  25.038  1.00  0.00    -0.200 F 
ATOM     48  F   UNL A   1      53.312  25.811  27.217  1.00  0.00    -0.200 F 
ENDBRANCH  24  38
BRANCH  25  49
ATOM     49  C   UNL A   1      39.592  28.761  28.945  1.00  0.00     0.064 A 
ATOM     50  C   UNL A   1      38.946  28.642  30.186  1.00  0.00     0.173 A 
ATOM     51  C   UNL A   1      38.834  29.220  27.860  1.00  0.00     0.173 A 
ATOM     52  F   UNL A   1      39.622  28.201  31.257  1.00  0.00    -0.203 F 
ATOM     53  C   UNL A   1      37.595  28.945  30.328  1.00  0.00     0.198 A 
ATOM     54  C   UNL A   1      37.492  29.564  28.013  1.00  0.00     0.198 A 
ATOM     55  F   UNL A   1      39.408  29.368  26.657  1.00  0.00    -0.203 F 
ATOM     56  F   UNL A   1      36.995  28.778  31.515  1.00  0.00    -0.200 F 
ATOM     57  C   UNL A   1      36.871  29.416  29.245  1.00  0.00     0.200 A 
ATOM     58  F   UNL A   1      36.803  30.047  26.970  1.00  0.00    -0.200 F 
ATOM     59  F   UNL A   1      35.577  29.734  29.388  1.00  0.00    -0.200 F 
ENDBRANCH  25  49
BRANCH  37  60
ATOM     60  C   UNL A   1      45.568  32.306  29.515  1.00  0.00     0.064 A 
ATOM     61  C   UNL A   1      45.625  33.299  28.524  1.00  0.00     0.173 A 
ATOM     62  C   UNL A   1      45.848  32.682  30.838  1.00  0.00     0.173 A 
ATOM     63  F   UNL A   1      45.374  32.992  27.243  1.00  0.00    -0.203 F 
ATOM     64  C   UNL A   1      45.962  34.611  28.844  1.00  0.00     0.198 A 
ATOM     65  C   UNL A   1      46.147  34.003  31.157  1.00  0.00     0.198 A 
ATOM     66  F   UNL A   1      45.792  31.774  31.823  1.00  0.00    -0.203 F 
ATOM     67  F   UNL A   1      46.044  35.534  27.875  1.00  0.00    -0.200 F 
ATOM     68  C   UNL A   1      46.214  34.964  30.161  1.00  0.00     0.200 A 
ATOM     69  F   UNL A   1      46.358  34.348  32.436  1.00  0.00    -0.200 F 
ATOM     70  F   UNL A   1      46.514  36.232  30.469  1.00  0.00    -0.200 F 
ENDBRANCH  37  60
ENDBRANCH  11  12
ENDBRANCH   4   6
ENDBRANCH   1   2
BRANCH   1  71
ATOM     71  C   UNL A   1      38.175  19.313  25.104  1.00  0.00     0.042 C 
BRANCH  71  72
ATOM     72  C   UNL A   1      37.089  20.355  24.928  1.00  0.00     0.118 C 
BRANCH  72  73
ATOM     73  N   UNL A   1      35.756  19.762  24.919  1.00  0.00    -0.352 N 
ATOM     74  C   UNL A   1      34.530  20.358  25.079  1.00  0.00     0.251 C 
ATOM     75  H   UNL A   1      35.732  18.788  24.777  1.00  0.00     0.163 HD
ATOM     76  O   UNL A   1      33.525  19.680  25.263  1.00  0.00    -0.269 OA
BRANCH  74  77
ATOM     77  C   UNL A   1      34.436  21.829  25.059  1.00  0.00     0.040 A 
ATOM     78  C   UNL A   1      34.969  22.563  26.136  1.00  0.00     0.014 A 
ATOM     79  C   UNL A   1      33.852  22.474  23.967  1.00  0.00     0.030 A 
ATOM     80  C   UNL A   1      34.989  23.961  26.090  1.00  0.00     0.009 A 
ATOM     81  C   UNL A   1      33.953  23.845  23.925  1.00  0.00     0.068 A 
ATOM     82  C   UNL A   1      34.492  24.584  24.955  1.00  0.00     0.012 A 
ATOM     83  C   UNL A   1      33.565  24.736  22.845  1.00  0.00     0.339 C 
ATOM     84  C   UNL A   1      34.365  26.023  24.614  1.00  0.00     0.238 C 
ATOM     85  O   UNL A   1      33.122  24.399  21.764  1.00  0.00    -0.246 OA
ATOM     86  O   UNL A   1      33.836  26.003  23.267  1.00  0.00    -0.449 OA
BRANCH  84  87
ATOM     87  C   UNL A   1      33.408  26.767  25.518  1.00  0.00    -0.003 A 
ATOM     88  C   UNL A   1      32.066  26.361  25.646  1.00  0.00     0.011 A 
ATOM     89  C   UNL A   1      33.863  27.856  26.278  1.00  0.00     0.011 A 
ATOM     90  C   UNL A   1      31.206  27.010  26.529  1.00  0.00     0.039 A 
ATOM     91  C   UNL A   1      32.997  28.509  27.157  1.00  0.00     0.039 A 
ATOM     92  C   UNL A   1      31.681  28.077  27.278  1.00  0.00     0.123 A 
ATOM     93  F   UNL A   1      30.859  28.697  28.134  1.00  0.00    -0.207 F 
ENDBRANCH  84  87
ENDBRANCH  74  77
ENDBRANCH  72  73
ENDBRANCH  71  72
ENDBRANCH   1  71
TORSDOF 11
ENDMDL
