MODEL 1
REMARK VINA RESULT:     -13.4      0.000      0.000
REMARK SMILES COc1cc2c(cc1OC)[C@H](C(=O)NCCCNC(=O)c1ccc(-c3c4nc(c(-c5c(F)c(F)c(F)c(F)c5F)c5ccc([nH]5)c(-c5c(F)c(F)c(F)c(F)c5F)c5nc(c(-c6c(F)c(F)c(F)c(F)c6F)c6ccc3[nH]6)C=C5)C=C4)cc1)[C@@H](c1ccc(SC)cc1)N(C)C2=O
REMARK SMILES IDX 16 1 15 2 14 3 12 4 13 5 11 7 3 8 4 9 8 10 5 11 7 12 6 13
REMARK SMILES IDX 95 14 93 15 96 16 84 17 94 18 2 19 1 20 9 21 10 22 85 23
REMARK SMILES IDX 86 24 92 25 87 26 91 27 88 28 89 29 90 30 17 31 18 32 19 33
REMARK SMILES IDX 20 35 21 36 22 37 83 38 23 39 82 40 24 41 25 42 26 43 76 44
REMARK SMILES IDX 27 45 81 46 75 47 77 48 28 49 80 50 74 51 73 52 29 54 61 55
REMARK SMILES IDX 41 56 60 57 42 58 45 59 59 60 78 61 43 62 44 63 58 65 79 66
REMARK SMILES IDX 46 67 30 68 31 69 39 70 32 71 33 72 37 73 40 74 34 75 35 76
REMARK SMILES IDX 38 77 36 78 62 79 63 80 71 81 64 82 65 83 69 84 72 85 66 86
REMARK SMILES IDX 67 87 70 88 68 89 47 90 48 91 56 92 49 93 50 94 54 95 57 96
REMARK SMILES IDX 51 97 52 98 55 99 53 100
REMARK H PARENT 14 6 18 34 77 53 45 64
REMARK Flexibility Score: inf
ROOT
ATOM      1  C   UNL A   1      31.840  29.210  27.041  1.00  0.00     0.042 C 
ENDROOT
BRANCH   1   2
ATOM      2  C   UNL A   1      32.191  27.748  26.859  1.00  0.00     0.117 C 
BRANCH   2   3
ATOM      3  N   UNL A   1      31.043  26.847  26.882  1.00  0.00    -0.355 N 
ATOM      4  C   UNL A   1      30.842  25.712  26.127  1.00  0.00     0.230 C 
ATOM      5  O   UNL A   1      29.990  24.908  26.499  1.00  0.00    -0.274 OA
ATOM      6  H   UNL A   1      30.325  27.079  27.513  1.00  0.00     0.163 HD
BRANCH   4   7
ATOM      7  C   UNL A   1      31.699  25.507  24.882  1.00  0.00     0.136 C 
ATOM      8  C   UNL A   1      33.994  21.821  24.721  1.00  0.00     0.161 A 
ATOM      9  C   UNL A   1      33.842  22.639  23.595  1.00  0.00     0.064 A 
ATOM     10  C   UNL A   1      33.268  22.123  25.877  1.00  0.00     0.161 A 
ATOM     11  C   UNL A   1      33.037  23.790  23.642  1.00  0.00     0.048 A 
ATOM     12  C   UNL A   1      32.420  23.238  25.892  1.00  0.00     0.056 A 
ATOM     13  C   UNL A   1      32.361  24.134  24.815  1.00  0.00    -0.016 A 
ATOM     14  C   UNL A   1      32.904  24.630  22.421  1.00  0.00     0.254 C 
ATOM     15  N   UNL A   1      31.921  25.625  22.417  1.00  0.00    -0.334 N 
ATOM     16  O   UNL A   1      33.652  24.407  21.473  1.00  0.00    -0.269 OA
ATOM     17  C   UNL A   1      30.945  25.762  23.548  1.00  0.00     0.132 C 
ATOM     18  C   UNL A   1      31.700  26.328  21.157  1.00  0.00     0.147 C 
BRANCH   8  19
ATOM     19  O   UNL A   1      34.757  20.685  24.711  1.00  0.00    -0.493 OA
ATOM     20  C   UNL A   1      36.139  20.871  25.001  1.00  0.00     0.278 C 
ENDBRANCH   8  19
BRANCH  10  21
ATOM     21  O   UNL A   1      33.279  21.433  27.061  1.00  0.00    -0.493 OA
ATOM     22  C   UNL A   1      33.032  22.203  28.234  1.00  0.00     0.278 C 
ENDBRANCH  10  21
BRANCH  17  23
ATOM     23  C   UNL A   1      30.152  27.074  23.475  1.00  0.00    -0.024 A 
ATOM     24  C   UNL A   1      30.754  28.340  23.440  1.00  0.00     0.007 A 
ATOM     25  C   UNL A   1      28.747  27.019  23.407  1.00  0.00     0.007 A 
ATOM     26  C   UNL A   1      29.974  29.503  23.361  1.00  0.00     0.015 A 
ATOM     27  C   UNL A   1      27.972  28.182  23.297  1.00  0.00     0.015 A 
ATOM     28  C   UNL A   1      28.578  29.437  23.272  1.00  0.00     0.007 A 
BRANCH  28  29
ATOM     29  S   UNL A   1      27.682  30.981  23.177  1.00  0.00    -0.130 SA
ATOM     30  C   UNL A   1      28.716  31.977  22.069  1.00  0.00     0.091 C 
ENDBRANCH  28  29
ENDBRANCH  17  23
ENDBRANCH   4   7
ENDBRANCH   2   3
ENDBRANCH   1   2
BRANCH   1  31
ATOM     31  C   UNL A   1      32.695  30.173  26.232  1.00  0.00     0.118 C 
BRANCH  31  32
ATOM     32  N   UNL A   1      32.628  31.557  26.685  1.00  0.00    -0.352 N 
ATOM     33  C   UNL A   1      33.479  32.279  27.495  1.00  0.00     0.251 C 
ATOM     34  H   UNL A   1      31.846  32.058  26.359  1.00  0.00     0.163 HD
ATOM     35  O   UNL A   1      33.186  33.418  27.827  1.00  0.00    -0.269 OA
BRANCH  33  36
ATOM     36  C   UNL A   1      34.723  31.660  28.004  1.00  0.00     0.039 A 
ATOM     37  C   UNL A   1      35.861  32.459  28.148  1.00  0.00     0.014 A 
ATOM     38  C   UNL A   1      34.766  30.315  28.368  1.00  0.00     0.014 A 
ATOM     39  C   UNL A   1      37.004  31.934  28.757  1.00  0.00     0.010 A 
ATOM     40  C   UNL A   1      35.862  29.826  29.071  1.00  0.00     0.010 A 
ATOM     41  C   UNL A   1      36.991  30.631  29.279  1.00  0.00    -0.014 A 
BRANCH  41  42
ATOM     42  C   UNL A   1      38.141  30.084  30.045  1.00  0.00     0.031 A 
ATOM     43  C   UNL A   1      38.389  30.543  31.457  1.00  0.00     0.074 A 
ATOM     44  C   UNL A   1      39.010  29.244  29.447  1.00  0.00     0.049 A 
ATOM     45  N   UNL A   1      39.403  30.289  32.246  1.00  0.00    -0.248 NA
ATOM     46  C   UNL A   1      37.378  31.435  32.047  1.00  0.00     0.031 C 
ATOM     47  C   UNL A   1      38.912  28.763  28.066  1.00  0.00     0.029 A 
ATOM     48  N   UNL A   1      40.158  28.656  29.920  1.00  0.00    -0.354 N 
ATOM     49  C   UNL A   1      39.157  31.002  33.413  1.00  0.00     0.074 A 
ATOM     50  C   UNL A   1      37.936  31.749  33.206  1.00  0.00     0.031 C 
ATOM     51  C   UNL A   1      39.941  27.936  27.813  1.00  0.00     0.029 A 
ATOM     52  C   UNL A   1      40.793  27.863  28.995  1.00  0.00     0.049 A 
ATOM     53  H   UNL A   1      40.493  28.791  30.835  1.00  0.00     0.167 HD
ATOM     54  C   UNL A   1      39.868  31.008  34.565  1.00  0.00     0.037 A 
ATOM     55  C   UNL A   1      41.941  27.164  29.088  1.00  0.00     0.037 A 
ATOM     56  C   UNL A   1      41.066  30.240  34.782  1.00  0.00     0.049 A 
ATOM     57  C   UNL A   1      42.714  27.193  30.380  1.00  0.00     0.074 A 
ATOM     58  C   UNL A   1      41.840  30.151  35.925  1.00  0.00     0.029 A 
ATOM     59  N   UNL A   1      41.656  29.420  33.832  1.00  0.00    -0.354 N 
ATOM     60  N   UNL A   1      42.445  27.832  31.492  1.00  0.00    -0.248 NA
ATOM     61  C   UNL A   1      43.949  26.398  30.430  1.00  0.00     0.031 C 
ATOM     62  C   UNL A   1      42.916  29.299  35.659  1.00  0.00     0.029 A 
ATOM     63  C   UNL A   1      42.790  28.825  34.363  1.00  0.00     0.049 A 
ATOM     64  H   UNL A   1      41.321  29.280  32.918  1.00  0.00     0.167 HD
ATOM     65  C   UNL A   1      43.454  27.490  32.382  1.00  0.00     0.074 A 
ATOM     66  C   UNL A   1      44.335  26.576  31.685  1.00  0.00     0.031 C 
ATOM     67  C   UNL A   1      43.638  27.899  33.661  1.00  0.00     0.037 A 
BRANCH  54  68
ATOM     68  C   UNL A   1      39.353  31.857  35.691  1.00  0.00     0.064 A 
ATOM     69  C   UNL A   1      38.427  31.355  36.618  1.00  0.00     0.173 A 
ATOM     70  C   UNL A   1      39.811  33.171  35.867  1.00  0.00     0.173 A 
ATOM     71  F   UNL A   1      37.947  30.109  36.485  1.00  0.00    -0.203 F 
ATOM     72  C   UNL A   1      37.958  32.145  37.663  1.00  0.00     0.198 A 
ATOM     73  C   UNL A   1      39.363  33.948  36.932  1.00  0.00     0.198 A 
ATOM     74  F   UNL A   1      40.699  33.699  35.012  1.00  0.00    -0.203 F 
ATOM     75  F   UNL A   1      37.036  31.660  38.507  1.00  0.00    -0.200 F 
ATOM     76  C   UNL A   1      38.432  33.438  37.824  1.00  0.00     0.200 A 
ATOM     77  F   UNL A   1      39.831  35.194  37.093  1.00  0.00    -0.200 F 
ATOM     78  F   UNL A   1      37.985  34.196  38.836  1.00  0.00    -0.200 F 
ENDBRANCH  54  68
BRANCH  55  79
ATOM     79  C   UNL A   1      42.426  26.359  27.935  1.00  0.00     0.064 A 
ATOM     80  C   UNL A   1      43.333  26.900  27.012  1.00  0.00     0.173 A 
ATOM     81  C   UNL A   1      41.975  25.050  27.714  1.00  0.00     0.173 A 
ATOM     82  F   UNL A   1      43.778  28.156  27.170  1.00  0.00    -0.203 F 
ATOM     83  C   UNL A   1      43.745  26.175  25.897  1.00  0.00     0.198 A 
ATOM     84  C   UNL A   1      42.411  24.314  26.614  1.00  0.00     0.198 A 
ATOM     85  F   UNL A   1      41.112  24.483  28.569  1.00  0.00    -0.203 F 
ATOM     86  F   UNL A   1      44.567  26.739  25.001  1.00  0.00    -0.200 F 
ATOM     87  C   UNL A   1      43.286  24.882  25.700  1.00  0.00     0.200 A 
ATOM     88  F   UNL A   1      41.976  23.061  26.434  1.00  0.00    -0.200 F 
ATOM     89  F   UNL A   1      43.679  24.187  24.624  1.00  0.00    -0.200 F 
ENDBRANCH  55  79
BRANCH  67  90
ATOM     90  C   UNL A   1      44.807  27.323  34.405  1.00  0.00     0.064 A 
ATOM     91  C   UNL A   1      46.055  27.962  34.424  1.00  0.00     0.173 A 
ATOM     92  C   UNL A   1      44.663  26.137  35.140  1.00  0.00     0.173 A 
ATOM     93  F   UNL A   1      46.247  29.090  33.723  1.00  0.00    -0.203 F 
ATOM     94  C   UNL A   1      47.124  27.419  35.132  1.00  0.00     0.198 A 
ATOM     95  C   UNL A   1      45.724  25.613  35.870  1.00  0.00     0.198 A 
ATOM     96  F   UNL A   1      43.486  25.492  35.158  1.00  0.00    -0.203 F 
ATOM     97  F   UNL A   1      48.321  28.021  35.099  1.00  0.00    -0.200 F 
ATOM     98  C   UNL A   1      46.956  26.251  35.861  1.00  0.00     0.200 A 
ATOM     99  F   UNL A   1      45.557  24.491  36.583  1.00  0.00    -0.200 F 
ATOM    100  F   UNL A   1      47.984  25.735  36.547  1.00  0.00    -0.200 F 
ENDBRANCH  67  90
ENDBRANCH  41  42
ENDBRANCH  33  36
ENDBRANCH  31  32
ENDBRANCH   1  31
TORSDOF 14
ENDMDL
MODEL 2
REMARK VINA RESULT:     -13.2      0.391      7.229
REMARK SMILES COc1cc2c(cc1OC)[C@H](C(=O)NCCCNC(=O)c1ccc(-c3c4nc(c(-c5c(F)c(F)c(F)c(F)c5F)c5ccc([nH]5)c(-c5c(F)c(F)c(F)c(F)c5F)c5nc(c(-c6c(F)c(F)c(F)c(F)c6F)c6ccc3[nH]6)C=C5)C=C4)cc1)[C@@H](c1ccc(SC)cc1)N(C)C2=O
REMARK SMILES IDX 16 1 15 2 14 3 12 4 13 5 11 7 3 8 4 9 8 10 5 11 7 12 6 13
REMARK SMILES IDX 95 14 93 15 96 16 84 17 94 18 2 19 1 20 9 21 10 22 85 23
REMARK SMILES IDX 86 24 92 25 87 26 91 27 88 28 89 29 90 30 17 31 18 32 19 33
REMARK SMILES IDX 20 35 21 36 22 37 83 38 23 39 82 40 24 41 25 42 26 43 76 44
REMARK SMILES IDX 27 45 81 46 75 47 77 48 28 49 80 50 74 51 73 52 29 54 61 55
REMARK SMILES IDX 41 56 60 57 42 58 45 59 59 60 78 61 43 62 44 63 58 65 79 66
REMARK SMILES IDX 46 67 30 68 31 69 39 70 32 71 33 72 37 73 40 74 34 75 35 76
REMARK SMILES IDX 38 77 36 78 62 79 63 80 71 81 64 82 65 83 69 84 72 85 66 86
REMARK SMILES IDX 67 87 70 88 68 89 47 90 48 91 56 92 49 93 50 94 54 95 57 96
REMARK SMILES IDX 51 97 52 98 55 99 53 100
REMARK H PARENT 14 6 18 34 77 53 45 64
REMARK Flexibility Score: inf
ROOT
ATOM      1  C   UNL A   1      31.782  29.140  26.781  1.00  0.00     0.042 C 
ENDROOT
BRANCH   1   2
ATOM      2  C   UNL A   1      32.207  27.686  26.763  1.00  0.00     0.117 C 
BRANCH   2   3
ATOM      3  N   UNL A   1      31.103  26.736  26.846  1.00  0.00    -0.355 N 
ATOM      4  C   UNL A   1      30.942  25.561  26.145  1.00  0.00     0.230 C 
ATOM      5  O   UNL A   1      30.135  24.736  26.568  1.00  0.00    -0.274 OA
ATOM      6  H   UNL A   1      30.386  26.962  27.482  1.00  0.00     0.163 HD
BRANCH   4   7
ATOM      7  C   UNL A   1      31.786  25.342  24.893  1.00  0.00     0.136 C 
ATOM      8  C   UNL A   1      34.216  21.741  24.827  1.00  0.00     0.161 A 
ATOM      9  C   UNL A   1      34.015  22.510  23.675  1.00  0.00     0.064 A 
ATOM     10  C   UNL A   1      33.499  22.059  25.985  1.00  0.00     0.161 A 
ATOM     11  C   UNL A   1      33.166  23.631  23.694  1.00  0.00     0.048 A 
ATOM     12  C   UNL A   1      32.610  23.141  25.973  1.00  0.00     0.056 A 
ATOM     13  C   UNL A   1      32.498  23.993  24.865  1.00  0.00    -0.016 A 
ATOM     14  C   UNL A   1      32.981  24.418  22.445  1.00  0.00     0.254 C 
ATOM     15  N   UNL A   1      31.961  25.375  22.422  1.00  0.00    -0.334 N 
ATOM     16  O   UNL A   1      33.721  24.188  21.492  1.00  0.00    -0.269 OA
ATOM     17  C   UNL A   1      31.000  25.517  23.564  1.00  0.00     0.132 C 
ATOM     18  C   UNL A   1      31.692  26.020  21.140  1.00  0.00     0.147 C 
BRANCH   8  19
ATOM     19  O   UNL A   1      35.022  20.634  24.846  1.00  0.00    -0.493 OA
ATOM     20  C   UNL A   1      36.420  20.895  24.932  1.00  0.00     0.278 C 
ENDBRANCH   8  19
BRANCH  10  21
ATOM     21  O   UNL A   1      33.556  21.415  27.193  1.00  0.00    -0.493 OA
ATOM     22  C   UNL A   1      33.077  22.150  28.315  1.00  0.00     0.278 C 
ENDBRANCH  10  21
BRANCH  17  23
ATOM     23  C   UNL A   1      30.156  26.795  23.457  1.00  0.00    -0.024 A 
ATOM     24  C   UNL A   1      28.756  26.803  23.512  1.00  0.00     0.007 A 
ATOM     25  C   UNL A   1      30.810  28.036  23.328  1.00  0.00     0.007 A 
ATOM     26  C   UNL A   1      28.041  28.007  23.420  1.00  0.00     0.015 A 
ATOM     27  C   UNL A   1      30.094  29.239  23.267  1.00  0.00     0.015 A 
ATOM     28  C   UNL A   1      28.701  29.237  23.314  1.00  0.00     0.007 A 
BRANCH  28  29
ATOM     29  S   UNL A   1      27.692  30.709  23.201  1.00  0.00    -0.130 SA
ATOM     30  C   UNL A   1      28.873  32.033  23.575  1.00  0.00     0.091 C 
ENDBRANCH  28  29
ENDBRANCH  17  23
ENDBRANCH   4   7
ENDBRANCH   2   3
ENDBRANCH   1   2
BRANCH   1  31
ATOM     31  C   UNL A   1      32.788  30.102  26.169  1.00  0.00     0.118 C 
BRANCH  31  32
ATOM     32  N   UNL A   1      32.618  31.489  26.586  1.00  0.00    -0.352 N 
ATOM     33  C   UNL A   1      33.409  32.291  27.381  1.00  0.00     0.251 C 
ATOM     34  H   UNL A   1      31.805  31.924  26.243  1.00  0.00     0.163 HD
ATOM     35  O   UNL A   1      33.033  33.413  27.683  1.00  0.00    -0.269 OA
BRANCH  33  36
ATOM     36  C   UNL A   1      34.691  31.776  27.913  1.00  0.00     0.039 A 
ATOM     37  C   UNL A   1      35.788  32.641  27.977  1.00  0.00     0.014 A 
ATOM     38  C   UNL A   1      34.810  30.466  28.373  1.00  0.00     0.014 A 
ATOM     39  C   UNL A   1      36.965  32.222  28.603  1.00  0.00     0.010 A 
ATOM     40  C   UNL A   1      35.940  30.087  29.092  1.00  0.00     0.010 A 
ATOM     41  C   UNL A   1      37.028  30.962  29.219  1.00  0.00    -0.014 A 
BRANCH  41  42
ATOM     42  C   UNL A   1      38.216  30.533  30.003  1.00  0.00     0.031 A 
ATOM     43  C   UNL A   1      39.179  29.535  29.420  1.00  0.00     0.074 A 
ATOM     44  C   UNL A   1      38.383  30.972  31.267  1.00  0.00     0.049 A 
ATOM     45  N   UNL A   1      40.198  28.936  29.985  1.00  0.00    -0.248 NA
ATOM     46  C   UNL A   1      38.944  29.128  28.025  1.00  0.00     0.031 C 
ATOM     47  C   UNL A   1      37.492  31.901  31.967  1.00  0.00     0.029 A 
ATOM     48  N   UNL A   1      39.354  30.683  32.194  1.00  0.00    -0.354 N 
ATOM     49  C   UNL A   1      40.709  28.076  29.022  1.00  0.00     0.074 A 
ATOM     50  C   UNL A   1      39.853  28.180  27.861  1.00  0.00     0.031 C 
ATOM     51  C   UNL A   1      37.971  32.123  33.203  1.00  0.00     0.029 A 
ATOM     52  C   UNL A   1      39.174  31.322  33.398  1.00  0.00     0.049 A 
ATOM     53  H   UNL A   1      40.106  30.076  32.014  1.00  0.00     0.167 HD
ATOM     54  C   UNL A   1      41.812  27.294  29.087  1.00  0.00     0.037 A 
ATOM     55  C   UNL A   1      39.894  31.259  34.534  1.00  0.00     0.037 A 
ATOM     56  C   UNL A   1      42.682  27.214  30.230  1.00  0.00     0.049 A 
ATOM     57  C   UNL A   1      41.114  30.377  34.581  1.00  0.00     0.074 A 
ATOM     58  C   UNL A   1      43.844  26.479  30.383  1.00  0.00     0.029 A 
ATOM     59  N   UNL A   1      42.487  27.907  31.416  1.00  0.00    -0.354 N 
ATOM     60  N   UNL A   1      41.615  29.606  33.646  1.00  0.00    -0.248 NA
ATOM     61  C   UNL A   1      41.872  30.361  35.840  1.00  0.00     0.031 C 
ATOM     62  C   UNL A   1      44.337  26.702  31.673  1.00  0.00     0.029 A 
ATOM     63  C   UNL A   1      43.505  27.609  32.308  1.00  0.00     0.049 A 
ATOM     64  H   UNL A   1      41.738  28.517  31.598  1.00  0.00     0.167 HD
ATOM     65  C   UNL A   1      42.761  29.043  34.190  1.00  0.00     0.074 A 
ATOM     66  C   UNL A   1      42.890  29.570  35.532  1.00  0.00     0.031 C 
ATOM     67  C   UNL A   1      43.628  28.164  33.630  1.00  0.00     0.037 A 
BRANCH  54  68
ATOM     68  C   UNL A   1      42.154  26.478  27.874  1.00  0.00     0.064 A 
ATOM     69  C   UNL A   1      43.096  26.925  26.935  1.00  0.00     0.173 A 
ATOM     70  C   UNL A   1      41.563  25.224  27.663  1.00  0.00     0.173 A 
ATOM     71  F   UNL A   1      43.680  28.125  27.084  1.00  0.00    -0.203 F 
ATOM     72  C   UNL A   1      43.413  26.161  25.816  1.00  0.00     0.198 A 
ATOM     73  C   UNL A   1      41.905  24.448  26.558  1.00  0.00     0.198 A 
ATOM     74  F   UNL A   1      40.659  24.746  28.531  1.00  0.00    -0.203 F 
ATOM     75  F   UNL A   1      44.279  26.632  24.908  1.00  0.00    -0.200 F 
ATOM     76  C   UNL A   1      42.824  24.920  25.633  1.00  0.00     0.200 A 
ATOM     77  F   UNL A   1      41.344  23.243  26.388  1.00  0.00    -0.200 F 
ATOM     78  F   UNL A   1      43.136  24.181  24.559  1.00  0.00    -0.200 F 
ENDBRANCH  54  68
BRANCH  55  79
ATOM     79  C   UNL A   1      39.501  32.065  35.720  1.00  0.00     0.064 A 
ATOM     80  C   UNL A   1      38.545  31.588  36.628  1.00  0.00     0.173 A 
ATOM     81  C   UNL A   1      40.044  33.337  35.954  1.00  0.00     0.173 A 
ATOM     82  F   UNL A   1      37.982  30.386  36.435  1.00  0.00    -0.203 F 
ATOM     83  C   UNL A   1      38.126  32.362  37.707  1.00  0.00     0.198 A 
ATOM     84  C   UNL A   1      39.646  34.099  37.051  1.00  0.00     0.198 A 
ATOM     85  F   UNL A   1      40.965  33.838  35.120  1.00  0.00    -0.203 F 
ATOM     86  F   UNL A   1      37.169  31.903  38.526  1.00  0.00    -0.200 F 
ATOM     87  C   UNL A   1      38.679  33.616  37.919  1.00  0.00     0.200 A 
ATOM     88  F   UNL A   1      40.191  35.304  37.260  1.00  0.00    -0.200 F 
ATOM     89  F   UNL A   1      38.271  34.363  38.954  1.00  0.00    -0.200 F 
ENDBRANCH  55  79
BRANCH  67  90
ATOM     90  C   UNL A   1      44.818  27.757  34.449  1.00  0.00     0.064 A 
ATOM     91  C   UNL A   1      44.793  26.619  35.269  1.00  0.00     0.173 A 
ATOM     92  C   UNL A   1      46.009  28.493  34.380  1.00  0.00     0.173 A 
ATOM     93  F   UNL A   1      43.671  25.891  35.380  1.00  0.00    -0.203 F 
ATOM     94  C   UNL A   1      45.912  26.249  36.010  1.00  0.00     0.198 A 
ATOM     95  C   UNL A   1      47.135  28.104  35.098  1.00  0.00     0.198 A 
ATOM     96  F   UNL A   1      46.084  29.586  33.605  1.00  0.00    -0.203 F 
ATOM     97  F   UNL A   1      45.853  25.185  36.823  1.00  0.00    -0.200 F 
ATOM     98  C   UNL A   1      47.084  26.986  35.918  1.00  0.00     0.200 A 
ATOM     99  F   UNL A   1      48.270  28.810  35.000  1.00  0.00    -0.200 F 
ATOM    100  F   UNL A   1      48.161  26.623  36.626  1.00  0.00    -0.200 F 
ENDBRANCH  67  90
ENDBRANCH  41  42
ENDBRANCH  33  36
ENDBRANCH  31  32
ENDBRANCH   1  31
TORSDOF 14
ENDMDL
MODEL 3
REMARK VINA RESULT:     -12.8      1.655      2.779
REMARK SMILES COc1cc2c(cc1OC)[C@H](C(=O)NCCCNC(=O)c1ccc(-c3c4nc(c(-c5c(F)c(F)c(F)c(F)c5F)c5ccc([nH]5)c(-c5c(F)c(F)c(F)c(F)c5F)c5nc(c(-c6c(F)c(F)c(F)c(F)c6F)c6ccc3[nH]6)C=C5)C=C4)cc1)[C@@H](c1ccc(SC)cc1)N(C)C2=O
REMARK SMILES IDX 16 1 15 2 14 3 12 4 13 5 11 7 3 8 4 9 8 10 5 11 7 12 6 13
REMARK SMILES IDX 95 14 93 15 96 16 84 17 94 18 2 19 1 20 9 21 10 22 85 23
REMARK SMILES IDX 86 24 92 25 87 26 91 27 88 28 89 29 90 30 17 31 18 32 19 33
REMARK SMILES IDX 20 35 21 36 22 37 83 38 23 39 82 40 24 41 25 42 26 43 76 44
REMARK SMILES IDX 27 45 81 46 75 47 77 48 28 49 80 50 74 51 73 52 29 54 61 55
REMARK SMILES IDX 41 56 60 57 42 58 45 59 59 60 78 61 43 62 44 63 58 65 79 66
REMARK SMILES IDX 46 67 30 68 31 69 39 70 32 71 33 72 37 73 40 74 34 75 35 76
REMARK SMILES IDX 38 77 36 78 62 79 63 80 71 81 64 82 65 83 69 84 72 85 66 86
REMARK SMILES IDX 67 87 70 88 68 89 47 90 48 91 56 92 49 93 50 94 54 95 57 96
REMARK SMILES IDX 51 97 52 98 55 99 53 100
REMARK H PARENT 14 6 18 34 77 53 45 64
REMARK Flexibility Score: inf
ROOT
ATOM      1  C   UNL A   1      32.383  29.100  26.907  1.00  0.00     0.042 C 
ENDROOT
BRANCH   1   2
ATOM      2  C   UNL A   1      32.509  27.591  26.934  1.00  0.00     0.117 C 
BRANCH   2   3
ATOM      3  N   UNL A   1      31.235  26.881  26.919  1.00  0.00    -0.355 N 
ATOM      4  C   UNL A   1      30.853  25.842  26.097  1.00  0.00     0.230 C 
ATOM      5  O   UNL A   1      29.889  25.158  26.432  1.00  0.00    -0.274 OA
ATOM      6  H   UNL A   1      30.566  27.180  27.576  1.00  0.00     0.163 HD
BRANCH   4   7
ATOM      7  C   UNL A   1      31.660  25.588  24.827  1.00  0.00     0.136 C 
ATOM      8  C   UNL A   1      33.835  21.830  24.660  1.00  0.00     0.161 A 
ATOM      9  C   UNL A   1      33.669  22.631  23.525  1.00  0.00     0.064 A 
ATOM     10  C   UNL A   1      33.160  22.176  25.835  1.00  0.00     0.161 A 
ATOM     11  C   UNL A   1      32.900  23.807  23.577  1.00  0.00     0.048 A 
ATOM     12  C   UNL A   1      32.347  23.317  25.857  1.00  0.00     0.056 A 
ATOM     13  C   UNL A   1      32.277  24.194  24.765  1.00  0.00    -0.016 A 
ATOM     14  C   UNL A   1      32.750  24.628  22.344  1.00  0.00     0.254 C 
ATOM     15  N   UNL A   1      31.798  25.653  22.354  1.00  0.00    -0.334 N 
ATOM     16  O   UNL A   1      33.457  24.364  21.376  1.00  0.00    -0.269 OA
ATOM     17  C   UNL A   1      30.868  25.840  23.516  1.00  0.00     0.132 C 
ATOM     18  C   UNL A   1      31.554  26.337  21.089  1.00  0.00     0.147 C 
BRANCH   8  19
ATOM     19  O   UNL A   1      34.562  20.671  24.647  1.00  0.00    -0.493 OA
ATOM     20  C   UNL A   1      35.922  20.794  25.054  1.00  0.00     0.278 C 
ENDBRANCH   8  19
BRANCH  10  21
ATOM     21  O   UNL A   1      33.192  21.508  27.031  1.00  0.00    -0.493 OA
ATOM     22  C   UNL A   1      33.480  22.300  28.180  1.00  0.00     0.278 C 
ENDBRANCH  10  21
BRANCH  17  23
ATOM     23  C   UNL A   1      30.112  27.175  23.444  1.00  0.00    -0.024 A 
ATOM     24  C   UNL A   1      30.750  28.423  23.428  1.00  0.00     0.007 A 
ATOM     25  C   UNL A   1      28.707  27.160  23.358  1.00  0.00     0.007 A 
ATOM     26  C   UNL A   1      30.003  29.609  23.349  1.00  0.00     0.015 A 
ATOM     27  C   UNL A   1      27.967  28.345  23.249  1.00  0.00     0.015 A 
ATOM     28  C   UNL A   1      28.608  29.582  23.242  1.00  0.00     0.007 A 
BRANCH  28  29
ATOM     29  S   UNL A   1      27.757  31.152  23.150  1.00  0.00    -0.130 SA
ATOM     30  C   UNL A   1      28.855  32.143  22.101  1.00  0.00     0.091 C 
ENDBRANCH  28  29
ENDBRANCH  17  23
ENDBRANCH   4   7
ENDBRANCH   2   3
ENDBRANCH   1   2
BRANCH   1  31
ATOM     31  C   UNL A   1      33.707  29.846  26.840  1.00  0.00     0.118 C 
BRANCH  31  32
ATOM     32  N   UNL A   1      33.706  31.128  27.533  1.00  0.00    -0.352 N 
ATOM     33  C   UNL A   1      34.613  31.670  28.419  1.00  0.00     0.251 C 
ATOM     34  H   UNL A   1      32.931  31.702  27.337  1.00  0.00     0.163 HD
ATOM     35  O   UNL A   1      34.374  32.738  28.962  1.00  0.00    -0.269 OA
BRANCH  33  36
ATOM     36  C   UNL A   1      35.853  30.935  28.755  1.00  0.00     0.039 A 
ATOM     37  C   UNL A   1      37.060  31.359  28.188  1.00  0.00     0.014 A 
ATOM     38  C   UNL A   1      35.841  29.859  29.640  1.00  0.00     0.014 A 
ATOM     39  C   UNL A   1      38.261  30.772  28.596  1.00  0.00     0.010 A 
ATOM     40  C   UNL A   1      37.041  29.352  30.127  1.00  0.00     0.010 A 
ATOM     41  C   UNL A   1      38.265  29.806  29.615  1.00  0.00    -0.014 A 
BRANCH  41  42
ATOM     42  C   UNL A   1      39.531  29.254  30.164  1.00  0.00     0.031 A 
ATOM     43  C   UNL A   1      40.187  29.914  31.347  1.00  0.00     0.074 A 
ATOM     44  C   UNL A   1      40.135  28.216  29.550  1.00  0.00     0.049 A 
ATOM     45  N   UNL A   1      41.352  29.670  31.893  1.00  0.00    -0.248 NA
ATOM     46  C   UNL A   1      39.449  31.019  31.978  1.00  0.00     0.031 C 
ATOM     47  C   UNL A   1      39.629  27.520  28.364  1.00  0.00     0.029 A 
ATOM     48  N   UNL A   1      41.316  27.574  29.830  1.00  0.00    -0.354 N 
ATOM     49  C   UNL A   1      41.489  30.600  32.915  1.00  0.00     0.074 A 
ATOM     50  C   UNL A   1      40.322  31.453  32.873  1.00  0.00     0.031 C 
ATOM     51  C   UNL A   1      40.481  26.535  28.034  1.00  0.00     0.029 A 
ATOM     52  C   UNL A   1      41.612  26.556  28.955  1.00  0.00     0.049 A 
ATOM     53  H   UNL A   1      41.896  27.820  30.586  1.00  0.00     0.167 HD
ATOM     54  C   UNL A   1      42.482  30.712  33.828  1.00  0.00     0.037 A 
ATOM     55  C   UNL A   1      42.681  25.740  28.898  1.00  0.00     0.037 A 
ATOM     56  C   UNL A   1      43.628  29.843  33.889  1.00  0.00     0.049 A 
ATOM     57  C   UNL A   1      43.774  25.890  29.923  1.00  0.00     0.074 A 
ATOM     58  C   UNL A   1      44.672  29.853  34.797  1.00  0.00     0.029 A 
ATOM     59  N   UNL A   1      43.871  28.800  33.008  1.00  0.00    -0.354 N 
ATOM     60  N   UNL A   1      43.868  26.742  30.914  1.00  0.00    -0.248 NA
ATOM     61  C   UNL A   1      44.909  24.961  29.822  1.00  0.00     0.031 C 
ATOM     62  C   UNL A   1      45.564  28.834  34.448  1.00  0.00     0.029 A 
ATOM     63  C   UNL A   1      45.054  28.163  33.348  1.00  0.00     0.049 A 
ATOM     64  H   UNL A   1      43.292  28.550  32.254  1.00  0.00     0.167 HD
ATOM     65  C   UNL A   1      45.049  26.430  31.575  1.00  0.00     0.074 A 
ATOM     66  C   UNL A   1      45.631  25.301  30.879  1.00  0.00     0.031 C 
ATOM     67  C   UNL A   1      45.604  27.026  32.657  1.00  0.00     0.037 A 
BRANCH  54  68
ATOM     68  C   UNL A   1      42.361  31.803  34.852  1.00  0.00     0.064 A 
ATOM     69  C   UNL A   1      43.003  33.039  34.681  1.00  0.00     0.173 A 
ATOM     70  C   UNL A   1      41.571  31.628  35.997  1.00  0.00     0.173 A 
ATOM     71  F   UNL A   1      43.783  33.252  33.609  1.00  0.00    -0.203 F 
ATOM     72  C   UNL A   1      42.882  34.048  35.632  1.00  0.00     0.198 A 
ATOM     73  C   UNL A   1      41.426  32.651  36.931  1.00  0.00     0.198 A 
ATOM     74  F   UNL A   1      40.932  30.467  36.207  1.00  0.00    -0.203 F 
ATOM     75  F   UNL A   1      43.545  35.202  35.470  1.00  0.00    -0.200 F 
ATOM     76  C   UNL A   1      42.087  33.856  36.751  1.00  0.00     0.200 A 
ATOM     77  F   UNL A   1      40.648  32.469  38.007  1.00  0.00    -0.200 F 
ATOM     78  F   UNL A   1      41.964  34.832  37.662  1.00  0.00    -0.200 F 
ENDBRANCH  54  68
BRANCH  55  79
ATOM     79  C   UNL A   1      42.771  24.691  27.847  1.00  0.00     0.064 A 
ATOM     80  C   UNL A   1      42.376  23.372  28.113  1.00  0.00     0.173 A 
ATOM     81  C   UNL A   1      43.279  24.974  26.571  1.00  0.00     0.173 A 
ATOM     82  F   UNL A   1      41.904  23.048  29.327  1.00  0.00    -0.203 F 
ATOM     83  C   UNL A   1      42.515  22.371  27.155  1.00  0.00     0.198 A 
ATOM     84  C   UNL A   1      43.389  23.978  25.603  1.00  0.00     0.198 A 
ATOM     85  F   UNL A   1      43.664  26.220  26.262  1.00  0.00    -0.203 F 
ATOM     86  F   UNL A   1      42.184  21.107  27.458  1.00  0.00    -0.200 F 
ATOM     87  C   UNL A   1      43.018  22.675  25.900  1.00  0.00     0.200 A 
ATOM     88  F   UNL A   1      43.862  24.277  24.387  1.00  0.00    -0.200 F 
ATOM     89  F   UNL A   1      43.156  21.710  24.980  1.00  0.00    -0.200 F 
ENDBRANCH  55  79
BRANCH  67  90
ATOM     90  C   UNL A   1      46.879  26.440  33.187  1.00  0.00     0.064 A 
ATOM     91  C   UNL A   1      46.877  25.386  34.113  1.00  0.00     0.173 A 
ATOM     92  C   UNL A   1      48.118  26.914  32.731  1.00  0.00     0.173 A 
ATOM     93  F   UNL A   1      45.718  24.910  34.591  1.00  0.00    -0.203 F 
ATOM     94  C   UNL A   1      48.072  24.846  34.581  1.00  0.00     0.198 A 
ATOM     95  C   UNL A   1      49.309  26.352  33.179  1.00  0.00     0.198 A 
ATOM     96  F   UNL A   1      48.172  27.916  31.840  1.00  0.00    -0.203 F 
ATOM     97  F   UNL A   1      48.048  23.871  35.501  1.00  0.00    -0.200 F 
ATOM     98  C   UNL A   1      49.285  25.323  34.108  1.00  0.00     0.200 A 
ATOM     99  F   UNL A   1      50.481  26.805  32.712  1.00  0.00    -0.200 F 
ATOM    100  F   UNL A   1      50.433  24.796  34.556  1.00  0.00    -0.200 F 
ENDBRANCH  67  90
ENDBRANCH  41  42
ENDBRANCH  33  36
ENDBRANCH  31  32
ENDBRANCH   1  31
TORSDOF 14
ENDMDL
