MODEL 1
REMARK VINA RESULT:     -12.3      0.000      0.000
REMARK SMILES C[C@H](NC(=O)c1ccncc1/C=C/C(=O)NCCCNC(=O)c1ccc(-c2c3nc(c(-c4c(F)c(F)c(F)c(F)c4F)c4ccc([nH]4)c(-c4c(F)c(F)c(F)c(F)c4F)c4nc(c(-c5c(F)c(F)c(F)c(F)c5F)c5ccc2[nH]5)C=C4)C=C3)cc1)c1ccco1
REMARK SMILES IDX 17 1 16 2 14 3 15 4 13 6 12 7 11 8 6 9 7 10 8 11 10 12 9 13
REMARK SMILES IDX 4 14 3 15 5 17 2 18 1 19 86 20 87 21 90 22 88 23 89 24 18 25
REMARK SMILES IDX 19 26 20 27 21 28 22 30 23 31 24 32 85 33 25 34 84 35 26 36
REMARK SMILES IDX 27 37 28 38 78 39 29 40 83 41 77 42 79 43 30 44 82 45 76 46
REMARK SMILES IDX 75 47 31 49 63 50 43 51 62 52 44 53 47 54 61 55 80 56 45 57
REMARK SMILES IDX 46 58 60 60 81 61 48 62 32 63 33 64 41 65 34 66 35 67 39 68
REMARK SMILES IDX 42 69 36 70 37 71 40 72 38 73 64 74 65 75 73 76 66 77 67 78
REMARK SMILES IDX 71 79 74 80 68 81 69 82 72 83 70 84 49 85 50 86 58 87 51 88
REMARK SMILES IDX 52 89 56 90 59 91 53 92 54 93 57 94 55 95
REMARK H PARENT 16 5 3 16 20 29 79 48 47 59
REMARK Flexibility Score: inf
ROOT
ATOM      1  C   UNL A   1      31.798  30.544  26.838  1.00  0.00     0.118 C 
ENDROOT
BRANCH   1   2
ATOM      2  N   UNL A   1      33.064  30.252  27.489  1.00  0.00    -0.352 N 
ATOM      3  C   UNL A   1      33.879  29.171  27.359  1.00  0.00     0.244 C 
ATOM      4  O   UNL A   1      34.963  29.141  27.936  1.00  0.00    -0.270 OA
ATOM      5  H   UNL A   1      33.380  30.940  28.119  1.00  0.00     0.163 HD
BRANCH   3   6
ATOM      6  C   UNL A   1      33.514  28.080  26.433  1.00  0.00     0.072 C 
ATOM      7  C   UNL A   1      34.205  27.751  25.330  1.00  0.00     0.016 C 
BRANCH   7   8
ATOM      8  C   UNL A   1      33.805  26.606  24.496  1.00  0.00     0.006 A 
ATOM      9  C   UNL A   1      33.357  26.732  23.173  1.00  0.00     0.050 A 
ATOM     10  C   UNL A   1      33.194  25.597  22.374  1.00  0.00     0.034 A 
ATOM     11  C   UNL A   1      33.341  24.357  22.962  1.00  0.00     0.112 A 
ATOM     12  C   UNL A   1      33.894  25.305  24.986  1.00  0.00     0.119 A 
ATOM     13  N   UNL A   1      33.654  24.187  24.260  1.00  0.00    -0.264 NA
BRANCH   9  14
ATOM     14  C   UNL A   1      33.212  28.045  22.524  1.00  0.00     0.252 C 
ATOM     15  N   UNL A   1      31.990  28.628  22.337  1.00  0.00    -0.342 N 
ATOM     16  H   UNL A   1      32.030  29.392  21.718  1.00  0.00     0.164 HD
ATOM     17  O   UNL A   1      34.220  28.614  22.109  1.00  0.00    -0.269 OA
BRANCH  15  18
ATOM     18  C   UNL A   1      30.639  28.386  22.841  1.00  0.00     0.145 C 
ATOM     19  C   UNL A   1      30.500  27.842  24.256  1.00  0.00     0.039 C 
BRANCH  18  20
ATOM     20  C   UNL A   1      29.783  29.583  22.603  1.00  0.00     0.125 A 
ATOM     21  C   UNL A   1      29.244  30.566  23.410  1.00  0.00     0.048 A 
ATOM     22  O   UNL A   1      29.362  29.766  21.315  1.00  0.00    -0.467 OA
ATOM     23  C   UNL A   1      28.432  31.371  22.575  1.00  0.00     0.042 A 
ATOM     24  C   UNL A   1      28.538  30.844  21.310  1.00  0.00     0.195 A 
ENDBRANCH  18  20
ENDBRANCH  15  18
ENDBRANCH   9  14
ENDBRANCH   7   8
ENDBRANCH   3   6
ENDBRANCH   1   2
BRANCH   1  25
ATOM     25  C   UNL A   1      31.498  32.040  26.860  1.00  0.00     0.042 C 
BRANCH  25  26
ATOM     26  C   UNL A   1      32.755  32.906  26.892  1.00  0.00     0.118 C 
BRANCH  26  27
ATOM     27  N   UNL A   1      32.535  34.174  27.572  1.00  0.00    -0.352 N 
ATOM     28  C   UNL A   1      33.094  34.672  28.720  1.00  0.00     0.251 C 
ATOM     29  H   UNL A   1      31.881  34.769  27.138  1.00  0.00     0.163 HD
ATOM     30  O   UNL A   1      32.627  35.686  29.229  1.00  0.00    -0.269 OA
BRANCH  28  31
ATOM     31  C   UNL A   1      34.248  34.001  29.360  1.00  0.00     0.039 A 
ATOM     32  C   UNL A   1      35.536  34.400  28.991  1.00  0.00     0.014 A 
ATOM     33  C   UNL A   1      34.078  32.944  30.257  1.00  0.00     0.014 A 
ATOM     34  C   UNL A   1      36.649  33.763  29.541  1.00  0.00     0.010 A 
ATOM     35  C   UNL A   1      35.188  32.353  30.859  1.00  0.00     0.010 A 
ATOM     36  C   UNL A   1      36.484  32.744  30.492  1.00  0.00    -0.014 A 
BRANCH  36  37
ATOM     37  C   UNL A   1      37.660  32.054  31.083  1.00  0.00     0.031 A 
ATOM     38  C   UNL A   1      38.131  32.417  32.465  1.00  0.00     0.074 A 
ATOM     39  C   UNL A   1      38.327  31.134  30.361  1.00  0.00     0.049 A 
ATOM     40  N   UNL A   1      39.160  31.964  33.135  1.00  0.00    -0.248 NA
ATOM     41  C   UNL A   1      37.358  33.446  33.178  1.00  0.00     0.031 C 
ATOM     42  C   UNL A   1      37.993  30.728  28.996  1.00  0.00     0.029 A 
ATOM     43  N   UNL A   1      39.429  30.379  30.674  1.00  0.00    -0.354 N 
ATOM     44  C   UNL A   1      39.169  32.665  34.335  1.00  0.00     0.074 A 
ATOM     45  C   UNL A   1      38.073  33.607  34.282  1.00  0.00     0.031 C 
ATOM     46  C   UNL A   1      38.856  29.780  28.596  1.00  0.00     0.029 A 
ATOM     47  C   UNL A   1      39.822  29.536  29.664  1.00  0.00     0.049 A 
ATOM     48  H   UNL A   1      39.894  30.436  31.539  1.00  0.00     0.167 HD
ATOM     49  C   UNL A   1      40.003  32.520  35.393  1.00  0.00     0.037 A 
ATOM     50  C   UNL A   1      40.847  28.664  29.607  1.00  0.00     0.037 A 
ATOM     51  C   UNL A   1      41.069  31.556  35.457  1.00  0.00     0.049 A 
ATOM     52  C   UNL A   1      41.746  28.510  30.803  1.00  0.00     0.074 A 
ATOM     53  C   UNL A   1      41.929  31.286  36.507  1.00  0.00     0.029 A 
ATOM     54  N   UNL A   1      41.420  30.700  34.423  1.00  0.00    -0.354 N 
ATOM     55  N   UNL A   1      41.704  29.132  31.956  1.00  0.00    -0.248 NA
ATOM     56  C   UNL A   1      42.829  27.523  30.692  1.00  0.00     0.031 C 
ATOM     57  C   UNL A   1      42.827  30.296  36.095  1.00  0.00     0.029 A 
ATOM     58  C   UNL A   1      42.495  29.913  34.805  1.00  0.00     0.049 A 
ATOM     59  H   UNL A   1      40.972  30.658  33.548  1.00  0.00     0.167 HD
ATOM     60  C   UNL A   1      42.731  28.592  32.718  1.00  0.00     0.074 A 
ATOM     61  C   UNL A   1      43.371  27.582  31.901  1.00  0.00     0.031 C 
ATOM     62  C   UNL A   1      43.111  28.904  33.982  1.00  0.00     0.037 A 
BRANCH  49  63
ATOM     63  C   UNL A   1      39.791  33.426  36.573  1.00  0.00     0.064 A 
ATOM     64  C   UNL A   1      40.454  34.657  36.686  1.00  0.00     0.173 A 
ATOM     65  C   UNL A   1      38.890  33.071  37.589  1.00  0.00     0.173 A 
ATOM     66  F   UNL A   1      41.335  35.039  35.748  1.00  0.00    -0.203 F 
ATOM     67  C   UNL A   1      40.246  35.486  37.786  1.00  0.00     0.198 A 
ATOM     68  C   UNL A   1      38.661  33.916  38.672  1.00  0.00     0.198 A 
ATOM     69  F   UNL A   1      38.225  31.909  37.527  1.00  0.00    -0.203 F 
ATOM     70  F   UNL A   1      40.929  36.633  37.897  1.00  0.00    -0.200 F 
ATOM     71  C   UNL A   1      39.345  35.118  38.775  1.00  0.00     0.200 A 
ATOM     72  F   UNL A   1      37.780  33.565  39.620  1.00  0.00    -0.200 F 
ATOM     73  F   UNL A   1      39.142  35.919  39.829  1.00  0.00    -0.200 F 
ENDBRANCH  49  63
BRANCH  50  74
ATOM     74  C   UNL A   1      41.054  27.842  28.387  1.00  0.00     0.064 A 
ATOM     75  C   UNL A   1      40.422  26.599  28.243  1.00  0.00     0.173 A 
ATOM     76  C   UNL A   1      41.885  28.276  27.344  1.00  0.00     0.173 A 
ATOM     77  F   UNL A   1      39.634  26.132  29.223  1.00  0.00    -0.203 F 
ATOM     78  C   UNL A   1      40.630  25.812  27.112  1.00  0.00     0.198 A 
ATOM     79  C   UNL A   1      42.069  27.501  26.201  1.00  0.00     0.198 A 
ATOM     80  F   UNL A   1      42.507  29.462  27.429  1.00  0.00    -0.203 F 
ATOM     81  F   UNL A   1      40.049  24.608  27.021  1.00  0.00    -0.200 F 
ATOM     82  C   UNL A   1      41.449  26.266  26.089  1.00  0.00     0.200 A 
ATOM     83  F   UNL A   1      42.851  27.949  25.209  1.00  0.00    -0.200 F 
ATOM     84  F   UNL A   1      41.646  25.511  25.001  1.00  0.00    -0.200 F 
ENDBRANCH  50  74
BRANCH  62  85
ATOM     85  C   UNL A   1      44.243  28.116  34.573  1.00  0.00     0.064 A 
ATOM     86  C   UNL A   1      45.572  28.553  34.483  1.00  0.00     0.173 A 
ATOM     87  C   UNL A   1      43.989  26.922  35.265  1.00  0.00     0.173 A 
ATOM     88  F   UNL A   1      45.868  29.680  33.817  1.00  0.00    -0.203 F 
ATOM     89  C   UNL A   1      46.609  27.810  35.040  1.00  0.00     0.198 A 
ATOM     90  C   UNL A   1      45.024  26.196  35.847  1.00  0.00     0.198 A 
ATOM     91  F   UNL A   1      42.733  26.463  35.385  1.00  0.00    -0.203 F 
ATOM     92  F   UNL A   1      47.877  28.221  34.899  1.00  0.00    -0.200 F 
ATOM     93  C   UNL A   1      46.333  26.637  35.727  1.00  0.00     0.200 A 
ATOM     94  F   UNL A   1      44.755  25.070  36.522  1.00  0.00    -0.200 F 
ATOM     95  F   UNL A   1      47.332  25.925  36.267  1.00  0.00    -0.200 F 
ENDBRANCH  62  85
ENDBRANCH  36  37
ENDBRANCH  28  31
ENDBRANCH  26  27
ENDBRANCH  25  26
ENDBRANCH   1  25
TORSDOF 14
ENDMDL
MODEL 2
REMARK VINA RESULT:     -12.3      5.566      9.874
REMARK SMILES C[C@H](NC(=O)c1ccncc1/C=C/C(=O)NCCCNC(=O)c1ccc(-c2c3nc(c(-c4c(F)c(F)c(F)c(F)c4F)c4ccc([nH]4)c(-c4c(F)c(F)c(F)c(F)c4F)c4nc(c(-c5c(F)c(F)c(F)c(F)c5F)c5ccc2[nH]5)C=C4)C=C3)cc1)c1ccco1
REMARK SMILES IDX 17 1 16 2 14 3 15 4 13 6 12 7 11 8 6 9 7 10 8 11 10 12 9 13
REMARK SMILES IDX 4 14 3 15 5 17 2 18 1 19 86 20 87 21 90 22 88 23 89 24 18 25
REMARK SMILES IDX 19 26 20 27 21 28 22 30 23 31 24 32 85 33 25 34 84 35 26 36
REMARK SMILES IDX 27 37 28 38 78 39 29 40 83 41 77 42 79 43 30 44 82 45 76 46
REMARK SMILES IDX 75 47 31 49 63 50 43 51 62 52 44 53 47 54 61 55 80 56 45 57
REMARK SMILES IDX 46 58 60 60 81 61 48 62 32 63 33 64 41 65 34 66 35 67 39 68
REMARK SMILES IDX 42 69 36 70 37 71 40 72 38 73 64 74 65 75 73 76 66 77 67 78
REMARK SMILES IDX 71 79 74 80 68 81 69 82 72 83 70 84 49 85 50 86 58 87 51 88
REMARK SMILES IDX 52 89 56 90 59 91 53 92 54 93 57 94 55 95
REMARK H PARENT 16 5 3 16 20 29 79 48 47 59
REMARK Flexibility Score: inf
ROOT
ATOM      1  C   UNL A   1      37.404  21.146  24.605  1.00  0.00     0.118 C 
ENDROOT
BRANCH   1   2
ATOM      2  N   UNL A   1      38.019  22.302  25.236  1.00  0.00    -0.352 N 
ATOM      3  C   UNL A   1      37.472  23.499  25.576  1.00  0.00     0.244 C 
ATOM      4  O   UNL A   1      38.138  24.332  26.185  1.00  0.00    -0.270 OA
ATOM      5  H   UNL A   1      38.975  22.202  25.450  1.00  0.00     0.163 HD
BRANCH   3   6
ATOM      6  C   UNL A   1      36.042  23.758  25.314  1.00  0.00     0.072 C 
ATOM      7  C   UNL A   1      35.122  23.994  26.263  1.00  0.00     0.016 C 
BRANCH   7   8
ATOM      8  C   UNL A   1      33.728  24.305  25.909  1.00  0.00     0.006 A 
ATOM      9  C   UNL A   1      32.639  23.503  26.277  1.00  0.00     0.050 A 
ATOM     10  C   UNL A   1      31.332  23.961  26.091  1.00  0.00     0.034 A 
ATOM     11  C   UNL A   1      31.145  25.146  25.407  1.00  0.00     0.112 A 
ATOM     12  C   UNL A   1      33.417  25.467  25.205  1.00  0.00     0.119 A 
ATOM     13  N   UNL A   1      32.159  25.891  24.931  1.00  0.00    -0.264 NA
BRANCH   9  14
ATOM     14  C   UNL A   1      32.818  22.246  27.022  1.00  0.00     0.252 C 
ATOM     15  N   UNL A   1      32.766  21.027  26.406  1.00  0.00    -0.342 N 
ATOM     16  H   UNL A   1      32.697  20.284  27.048  1.00  0.00     0.164 HD
ATOM     17  O   UNL A   1      32.983  22.298  28.239  1.00  0.00    -0.269 OA
BRANCH  15  18
ATOM     18  C   UNL A   1      32.792  20.566  25.018  1.00  0.00     0.145 C 
ATOM     19  C   UNL A   1      33.657  21.338  24.034  1.00  0.00     0.039 C 
BRANCH  18  20
ATOM     20  C   UNL A   1      33.047  19.098  24.973  1.00  0.00     0.125 A 
ATOM     21  C   UNL A   1      33.758  18.262  24.132  1.00  0.00     0.048 A 
ATOM     22  O   UNL A   1      32.411  18.354  25.928  1.00  0.00    -0.467 OA
ATOM     23  C   UNL A   1      33.519  16.941  24.583  1.00  0.00     0.042 A 
ATOM     24  C   UNL A   1      32.696  17.051  25.678  1.00  0.00     0.195 A 
ENDBRANCH  18  20
ENDBRANCH  15  18
ENDBRANCH   9  14
ENDBRANCH   7   8
ENDBRANCH   3   6
ENDBRANCH   1   2
BRANCH   1  25
ATOM     25  C   UNL A   1      38.195  19.873  24.893  1.00  0.00     0.042 C 
BRANCH  25  26
ATOM     26  C   UNL A   1      39.147  20.011  26.078  1.00  0.00     0.118 C 
BRANCH  26  27
ATOM     27  N   UNL A   1      40.296  19.124  25.969  1.00  0.00    -0.352 N 
ATOM     28  C   UNL A   1      41.638  19.405  26.003  1.00  0.00     0.251 C 
ATOM     29  H   UNL A   1      40.076  18.171  25.853  1.00  0.00     0.163 HD
ATOM     30  O   UNL A   1      42.446  18.533  25.700  1.00  0.00    -0.269 OA
BRANCH  28  31
ATOM     31  C   UNL A   1      42.126  20.747  26.392  1.00  0.00     0.039 A 
ATOM     32  C   UNL A   1      42.223  21.048  27.755  1.00  0.00     0.014 A 
ATOM     33  C   UNL A   1      42.420  21.727  25.441  1.00  0.00     0.014 A 
ATOM     34  C   UNL A   1      42.641  22.317  28.161  1.00  0.00     0.010 A 
ATOM     35  C   UNL A   1      42.901  22.971  25.845  1.00  0.00     0.010 A 
ATOM     36  C   UNL A   1      42.998  23.284  27.209  1.00  0.00    -0.014 A 
BRANCH  36  37
ATOM     37  C   UNL A   1      43.440  24.639  27.628  1.00  0.00     0.031 A 
ATOM     38  C   UNL A   1      42.422  25.685  27.992  1.00  0.00     0.074 A 
ATOM     39  C   UNL A   1      44.753  24.940  27.638  1.00  0.00     0.049 A 
ATOM     40  N   UNL A   1      42.606  26.935  28.338  1.00  0.00    -0.248 NA
ATOM     41  C   UNL A   1      41.009  25.281  27.936  1.00  0.00     0.031 C 
ATOM     42  C   UNL A   1      45.831  24.025  27.265  1.00  0.00     0.029 A 
ATOM     43  N   UNL A   1      45.401  26.103  27.970  1.00  0.00    -0.354 N 
ATOM     44  C   UNL A   1      41.335  27.468  28.518  1.00  0.00     0.074 A 
ATOM     45  C   UNL A   1      40.389  26.422  28.198  1.00  0.00     0.031 C 
ATOM     46  C   UNL A   1      47.009  24.652  27.411  1.00  0.00     0.029 A 
ATOM     47  C   UNL A   1      46.767  26.021  27.858  1.00  0.00     0.049 A 
ATOM     48  H   UNL A   1      44.932  26.918  28.261  1.00  0.00     0.167 HD
ATOM     49  C   UNL A   1      40.990  28.710  28.934  1.00  0.00     0.037 A 
ATOM     50  C   UNL A   1      47.716  26.948  28.088  1.00  0.00     0.037 A 
ATOM     51  C   UNL A   1      41.935  29.736  29.286  1.00  0.00     0.049 A 
ATOM     52  C   UNL A   1      47.307  28.314  28.567  1.00  0.00     0.074 A 
ATOM     53  C   UNL A   1      41.688  31.006  29.779  1.00  0.00     0.029 A 
ATOM     54  N   UNL A   1      43.312  29.608  29.185  1.00  0.00    -0.354 N 
ATOM     55  N   UNL A   1      46.105  28.786  28.797  1.00  0.00    -0.248 NA
ATOM     56  C   UNL A   1      48.388  29.274  28.829  1.00  0.00     0.031 C 
ATOM     57  C   UNL A   1      42.915  31.660  29.937  1.00  0.00     0.029 A 
ATOM     58  C   UNL A   1      43.928  30.782  29.590  1.00  0.00     0.049 A 
ATOM     59  H   UNL A   1      43.783  28.802  28.871  1.00  0.00     0.167 HD
ATOM     60  C   UNL A   1      46.286  30.082  29.259  1.00  0.00     0.074 A 
ATOM     61  C   UNL A   1      47.714  30.319  29.290  1.00  0.00     0.031 C 
ATOM     62  C   UNL A   1      45.353  30.995  29.626  1.00  0.00     0.037 A 
BRANCH  49  63
ATOM     63  C   UNL A   1      39.525  29.027  29.033  1.00  0.00     0.064 A 
ATOM     64  C   UNL A   1      38.774  29.407  27.911  1.00  0.00     0.173 A 
ATOM     65  C   UNL A   1      38.856  28.920  30.262  1.00  0.00     0.173 A 
ATOM     66  F   UNL A   1      39.367  29.537  26.714  1.00  0.00    -0.203 F 
ATOM     67  C   UNL A   1      37.416  29.698  28.020  1.00  0.00     0.198 A 
ATOM     68  C   UNL A   1      37.492  29.180  30.363  1.00  0.00     0.198 A 
ATOM     69  F   UNL A   1      39.524  28.554  31.366  1.00  0.00    -0.203 F 
ATOM     70  F   UNL A   1      36.732  30.108  26.943  1.00  0.00    -0.200 F 
ATOM     71  C   UNL A   1      36.775  29.577  29.244  1.00  0.00     0.200 A 
ATOM     72  F   UNL A   1      36.870  29.051  31.543  1.00  0.00    -0.200 F 
ATOM     73  F   UNL A   1      35.467  29.850  29.346  1.00  0.00    -0.200 F 
ENDBRANCH  49  63
BRANCH  50  74
ATOM     74  C   UNL A   1      49.150  26.603  27.905  1.00  0.00     0.064 A 
ATOM     75  C   UNL A   1      49.967  26.324  29.010  1.00  0.00     0.173 A 
ATOM     76  C   UNL A   1      49.733  26.547  26.631  1.00  0.00     0.173 A 
ATOM     77  F   UNL A   1      49.459  26.384  30.250  1.00  0.00    -0.203 F 
ATOM     78  C   UNL A   1      51.318  26.022  28.848  1.00  0.00     0.198 A 
ATOM     79  C   UNL A   1      51.077  26.218  26.469  1.00  0.00     0.198 A 
ATOM     80  F   UNL A   1      48.992  26.799  25.542  1.00  0.00    -0.203 F 
ATOM     81  F   UNL A   1      52.086  25.803  29.924  1.00  0.00    -0.200 F 
ATOM     82  C   UNL A   1      51.870  25.964  27.578  1.00  0.00     0.200 A 
ATOM     83  F   UNL A   1      51.604  26.149  25.239  1.00  0.00    -0.200 F 
ATOM     84  F   UNL A   1      53.168  25.670  27.423  1.00  0.00    -0.200 F 
ENDBRANCH  50  74
BRANCH  62  85
ATOM     85  C   UNL A   1      45.848  32.318  30.131  1.00  0.00     0.064 A 
ATOM     86  C   UNL A   1      46.151  32.524  31.485  1.00  0.00     0.173 A 
ATOM     87  C   UNL A   1      46.053  33.384  29.241  1.00  0.00     0.173 A 
ATOM     88  F   UNL A   1      45.956  31.541  32.377  1.00  0.00    -0.203 F 
ATOM     89  C   UNL A   1      46.613  33.758  31.934  1.00  0.00     0.198 A 
ATOM     90  C   UNL A   1      46.544  34.607  29.688  1.00  0.00     0.198 A 
ATOM     91  F   UNL A   1      45.785  33.235  27.934  1.00  0.00    -0.203 F 
ATOM     92  F   UNL A   1      46.848  33.949  33.240  1.00  0.00    -0.200 F 
ATOM     93  C   UNL A   1      46.816  34.795  31.035  1.00  0.00     0.200 A 
ATOM     94  F   UNL A   1      46.752  35.604  28.816  1.00  0.00    -0.200 F 
ATOM     95  F   UNL A   1      47.265  35.981  31.468  1.00  0.00    -0.200 F 
ENDBRANCH  62  85
ENDBRANCH  36  37
ENDBRANCH  28  31
ENDBRANCH  26  27
ENDBRANCH  25  26
ENDBRANCH   1  25
TORSDOF 14
ENDMDL
MODEL 3
REMARK VINA RESULT:     -12.3      0.155      1.591
REMARK SMILES C[C@H](NC(=O)c1ccncc1/C=C/C(=O)NCCCNC(=O)c1ccc(-c2c3nc(c(-c4c(F)c(F)c(F)c(F)c4F)c4ccc([nH]4)c(-c4c(F)c(F)c(F)c(F)c4F)c4nc(c(-c5c(F)c(F)c(F)c(F)c5F)c5ccc2[nH]5)C=C4)C=C3)cc1)c1ccco1
REMARK SMILES IDX 17 1 16 2 14 3 15 4 13 6 12 7 11 8 6 9 7 10 8 11 10 12 9 13
REMARK SMILES IDX 4 14 3 15 5 17 2 18 1 19 86 20 87 21 90 22 88 23 89 24 18 25
REMARK SMILES IDX 19 26 20 27 21 28 22 30 23 31 24 32 85 33 25 34 84 35 26 36
REMARK SMILES IDX 27 37 28 38 78 39 29 40 83 41 77 42 79 43 30 44 82 45 76 46
REMARK SMILES IDX 75 47 31 49 63 50 43 51 62 52 44 53 47 54 61 55 80 56 45 57
REMARK SMILES IDX 46 58 60 60 81 61 48 62 32 63 33 64 41 65 34 66 35 67 39 68
REMARK SMILES IDX 42 69 36 70 37 71 40 72 38 73 64 74 65 75 73 76 66 77 67 78
REMARK SMILES IDX 71 79 74 80 68 81 69 82 72 83 70 84 49 85 50 86 58 87 51 88
REMARK SMILES IDX 52 89 56 90 59 91 53 92 54 93 57 94 55 95
REMARK H PARENT 16 5 3 16 20 29 79 48 47 59
REMARK Flexibility Score: inf
ROOT
ATOM      1  C   UNL A   1      31.760  30.675  26.784  1.00  0.00     0.118 C 
ENDROOT
BRANCH   1   2
ATOM      2  N   UNL A   1      33.038  30.345  27.393  1.00  0.00    -0.352 N 
ATOM      3  C   UNL A   1      33.816  29.241  27.235  1.00  0.00     0.244 C 
ATOM      4  O   UNL A   1      34.916  29.178  27.776  1.00  0.00    -0.270 OA
ATOM      5  H   UNL A   1      33.393  31.022  28.013  1.00  0.00     0.163 HD
BRANCH   3   6
ATOM      6  C   UNL A   1      33.389  28.163  26.321  1.00  0.00     0.072 C 
ATOM      7  C   UNL A   1      34.131  27.680  25.311  1.00  0.00     0.016 C 
BRANCH   7   8
ATOM      8  C   UNL A   1      33.653  26.559  24.486  1.00  0.00     0.006 A 
ATOM      9  C   UNL A   1      33.171  26.711  23.178  1.00  0.00     0.050 A 
ATOM     10  C   UNL A   1      32.931  25.588  22.380  1.00  0.00     0.034 A 
ATOM     11  C   UNL A   1      33.038  24.340  22.959  1.00  0.00     0.112 A 
ATOM     12  C   UNL A   1      33.696  25.253  24.969  1.00  0.00     0.119 A 
ATOM     13  N   UNL A   1      33.383  24.150  24.246  1.00  0.00    -0.264 NA
BRANCH   9  14
ATOM     14  C   UNL A   1      33.068  28.032  22.538  1.00  0.00     0.252 C 
ATOM     15  N   UNL A   1      31.863  28.649  22.344  1.00  0.00    -0.342 N 
ATOM     16  H   UNL A   1      31.929  29.416  21.731  1.00  0.00     0.164 HD
ATOM     17  O   UNL A   1      34.093  28.578  22.137  1.00  0.00    -0.269 OA
BRANCH  15  18
ATOM     18  C   UNL A   1      30.501  28.439  22.833  1.00  0.00     0.145 C 
ATOM     19  C   UNL A   1      30.334  27.911  24.251  1.00  0.00     0.039 C 
BRANCH  18  20
ATOM     20  C   UNL A   1      29.672  29.650  22.573  1.00  0.00     0.125 A 
ATOM     21  C   UNL A   1      29.134  30.646  23.367  1.00  0.00     0.048 A 
ATOM     22  O   UNL A   1      29.284  29.839  21.276  1.00  0.00    -0.467 OA
ATOM     23  C   UNL A   1      28.355  31.463  22.512  1.00  0.00     0.042 A 
ATOM     24  C   UNL A   1      28.481  30.931  21.251  1.00  0.00     0.195 A 
ENDBRANCH  18  20
ENDBRANCH  15  18
ENDBRANCH   9  14
ENDBRANCH   7   8
ENDBRANCH   3   6
ENDBRANCH   1   2
BRANCH   1  25
ATOM     25  C   UNL A   1      31.475  32.171  26.876  1.00  0.00     0.042 C 
BRANCH  25  26
ATOM     26  C   UNL A   1      32.740  33.024  26.931  1.00  0.00     0.118 C 
BRANCH  26  27
ATOM     27  N   UNL A   1      32.526  34.284  27.626  1.00  0.00    -0.352 N 
ATOM     28  C   UNL A   1      33.079  34.761  28.787  1.00  0.00     0.251 C 
ATOM     29  H   UNL A   1      31.882  34.892  27.194  1.00  0.00     0.163 HD
ATOM     30  O   UNL A   1      32.618  35.773  29.305  1.00  0.00    -0.269 OA
BRANCH  28  31
ATOM     31  C   UNL A   1      34.219  34.069  29.428  1.00  0.00     0.039 A 
ATOM     32  C   UNL A   1      35.515  34.432  29.047  1.00  0.00     0.014 A 
ATOM     33  C   UNL A   1      34.028  33.028  30.339  1.00  0.00     0.014 A 
ATOM     34  C   UNL A   1      36.615  33.774  29.600  1.00  0.00     0.010 A 
ATOM     35  C   UNL A   1      35.127  32.417  30.942  1.00  0.00     0.010 A 
ATOM     36  C   UNL A   1      36.431  32.770  30.564  1.00  0.00    -0.014 A 
BRANCH  36  37
ATOM     37  C   UNL A   1      37.592  32.059  31.157  1.00  0.00     0.031 A 
ATOM     38  C   UNL A   1      38.060  32.405  32.544  1.00  0.00     0.074 A 
ATOM     39  C   UNL A   1      38.249  31.134  30.432  1.00  0.00     0.049 A 
ATOM     40  N   UNL A   1      39.079  31.931  33.217  1.00  0.00    -0.248 NA
ATOM     41  C   UNL A   1      37.299  33.440  33.260  1.00  0.00     0.031 C 
ATOM     42  C   UNL A   1      37.918  30.743  29.062  1.00  0.00     0.029 A 
ATOM     43  N   UNL A   1      39.338  30.360  30.746  1.00  0.00    -0.354 N 
ATOM     44  C   UNL A   1      39.091  32.624  34.422  1.00  0.00     0.074 A 
ATOM     45  C   UNL A   1      38.009  33.583  34.368  1.00  0.00     0.031 C 
ATOM     46  C   UNL A   1      38.768  29.785  28.660  1.00  0.00     0.029 A 
ATOM     47  C   UNL A   1      39.724  29.518  29.731  1.00  0.00     0.049 A 
ATOM     48  H   UNL A   1      39.799  30.404  31.614  1.00  0.00     0.167 HD
ATOM     49  C   UNL A   1      39.916  32.459  35.483  1.00  0.00     0.037 A 
ATOM     50  C   UNL A   1      40.736  28.632  29.674  1.00  0.00     0.037 A 
ATOM     51  C   UNL A   1      40.967  31.478  35.546  1.00  0.00     0.049 A 
ATOM     52  C   UNL A   1      41.626  28.455  30.874  1.00  0.00     0.074 A 
ATOM     53  C   UNL A   1      41.817  31.188  36.600  1.00  0.00     0.029 A 
ATOM     54  N   UNL A   1      41.311  30.624  34.509  1.00  0.00    -0.354 N 
ATOM     55  N   UNL A   1      41.587  29.070  32.032  1.00  0.00    -0.248 NA
ATOM     56  C   UNL A   1      42.695  27.453  30.763  1.00  0.00     0.031 C 
ATOM     57  C   UNL A   1      42.702  30.187  36.185  1.00  0.00     0.029 A 
ATOM     58  C   UNL A   1      42.372  29.818  34.891  1.00  0.00     0.049 A 
ATOM     59  H   UNL A   1      40.868  30.595  33.630  1.00  0.00     0.167 HD
ATOM     60  C   UNL A   1      42.601  28.509  32.796  1.00  0.00     0.074 A 
ATOM     61  C   UNL A   1      43.230  27.495  31.976  1.00  0.00     0.031 C 
ATOM     62  C   UNL A   1      42.977  28.806  34.064  1.00  0.00     0.037 A 
BRANCH  49  63
ATOM     63  C   UNL A   1      39.711  33.359  36.669  1.00  0.00     0.064 A 
ATOM     64  C   UNL A   1      40.382  34.585  36.789  1.00  0.00     0.173 A 
ATOM     65  C   UNL A   1      38.807  33.005  37.682  1.00  0.00     0.173 A 
ATOM     66  F   UNL A   1      41.265  34.966  35.853  1.00  0.00    -0.203 F 
ATOM     67  C   UNL A   1      40.181  35.409  37.894  1.00  0.00     0.198 A 
ATOM     68  C   UNL A   1      38.584  33.845  38.770  1.00  0.00     0.198 A 
ATOM     69  F   UNL A   1      38.134  31.847  37.614  1.00  0.00    -0.203 F 
ATOM     70  F   UNL A   1      40.872  36.550  38.010  1.00  0.00    -0.200 F 
ATOM     71  C   UNL A   1      39.277  35.041  38.880  1.00  0.00     0.200 A 
ATOM     72  F   UNL A   1      37.701  33.495  39.716  1.00  0.00    -0.200 F 
ATOM     73  F   UNL A   1      39.079  35.838  39.939  1.00  0.00    -0.200 F 
ENDBRANCH  49  63
BRANCH  50  74
ATOM     74  C   UNL A   1      40.938  27.816  28.449  1.00  0.00     0.064 A 
ATOM     75  C   UNL A   1      41.762  28.272  27.410  1.00  0.00     0.173 A 
ATOM     76  C   UNL A   1      40.315  26.570  28.289  1.00  0.00     0.173 A 
ATOM     77  F   UNL A   1      42.364  29.467  27.510  1.00  0.00    -0.203 F 
ATOM     78  C   UNL A   1      41.938  27.522  26.249  1.00  0.00     0.198 A 
ATOM     79  C   UNL A   1      40.515  25.809  27.139  1.00  0.00     0.198 A 
ATOM     80  F   UNL A   1      39.523  26.085  29.256  1.00  0.00    -0.203 F 
ATOM     81  F   UNL A   1      42.695  28.003  25.254  1.00  0.00    -0.200 F 
ATOM     82  C   UNL A   1      41.319  26.289  26.117  1.00  0.00     0.200 A 
ATOM     83  F   UNL A   1      39.926  24.611  27.020  1.00  0.00    -0.200 F 
ATOM     84  F   UNL A   1      41.492  25.568  25.001  1.00  0.00    -0.200 F 
ENDBRANCH  50  74
BRANCH  62  85
ATOM     85  C   UNL A   1      44.094  27.997  34.656  1.00  0.00     0.064 A 
ATOM     86  C   UNL A   1      43.857  26.782  35.314  1.00  0.00     0.173 A 
ATOM     87  C   UNL A   1      45.424  28.430  34.532  1.00  0.00     0.173 A 
ATOM     88  F   UNL A   1      42.602  26.334  35.472  1.00  0.00    -0.203 F 
ATOM     89  C   UNL A   1      44.907  26.044  35.854  1.00  0.00     0.198 A 
ATOM     90  C   UNL A   1      46.474  27.675  35.046  1.00  0.00     0.198 A 
ATOM     91  F   UNL A   1      45.705  29.583  33.905  1.00  0.00    -0.203 F 
ATOM     92  F   UNL A   1      44.653  24.911  36.523  1.00  0.00    -0.200 F 
ATOM     93  C   UNL A   1      46.214  26.487  35.713  1.00  0.00     0.200 A 
ATOM     94  F   UNL A   1      47.737  28.098  34.898  1.00  0.00    -0.200 F 
ATOM     95  F   UNL A   1      47.224  25.773  36.229  1.00  0.00    -0.200 F 
ENDBRANCH  62  85
ENDBRANCH  36  37
ENDBRANCH  28  31
ENDBRANCH  26  27
ENDBRANCH  25  26
ENDBRANCH   1  25
TORSDOF 14
ENDMDL
