MODEL 1
REMARK VINA RESULT:     -13.8      0.000      0.000
REMARK SMILES O=C(NCCCNC(=O)[C@H]1[C@H]2CC[C@H](C2)[C@@H]1C(=O)N[C@H]1CCCc2ccccc21)c1ccc(-c2c3nc(c(-c4c(F)c(F)c(F)c(F)c4F)c4ccc([nH]4)c(-c4c(F)c(F)c(F)c(F)c4F)c4nc(c(-c5c(F)c(F)c(F)c(F)c5F)c5ccc2[nH]5)C=C4)C=C3)cc1
REMARK SMILES IDX 5 1 4 2 3 3 1 4 2 5 30 7 31 8 92 9 32 10 91 11 33 12 34 13
REMARK SMILES IDX 35 14 85 15 36 16 90 17 84 18 86 19 37 20 89 21 83 22 82 23
REMARK SMILES IDX 38 25 70 26 50 27 69 28 51 29 54 30 68 31 87 32 52 33 53 34
REMARK SMILES IDX 67 36 88 37 55 38 39 39 40 40 48 41 41 42 42 43 46 44 49 45
REMARK SMILES IDX 43 46 44 47 47 48 45 49 71 50 72 51 80 52 73 53 74 54 78 55
REMARK SMILES IDX 81 56 75 57 76 58 79 59 77 60 56 61 57 62 65 63 58 64 59 65
REMARK SMILES IDX 63 66 66 67 60 68 61 69 64 70 62 71 6 72 7 73 8 74 9 76
REMARK SMILES IDX 10 77 11 78 16 79 12 80 15 81 14 82 13 83 17 84 18 85 19 86
REMARK SMILES IDX 20 88 21 89 29 90 22 91 24 92 28 93 23 94 25 95 27 96 26 97
REMARK H PARENT 3 6 86 24 54 35 7 75 19 87
REMARK Flexibility Score: inf
ROOT
ATOM      1  C   UNL A   1      31.329  32.374  26.502  1.00  0.00     0.042 C 
ENDROOT
BRANCH   1   2
ATOM      2  C   UNL A   1      32.601  32.875  27.171  1.00  0.00     0.118 C 
BRANCH   2   3
ATOM      3  N   UNL A   1      32.460  34.222  27.728  1.00  0.00    -0.352 N 
ATOM      4  O   UNL A   1      32.679  35.919  29.197  1.00  0.00    -0.269 OA
ATOM      5  C   UNL A   1      33.107  34.837  28.764  1.00  0.00     0.251 C 
ATOM      6  H   UNL A   1      31.784  34.781  27.280  1.00  0.00     0.163 HD
BRANCH   5   7
ATOM      7  C   UNL A   1      34.301  34.234  29.379  1.00  0.00     0.039 A 
ATOM      8  C   UNL A   1      35.576  34.598  28.942  1.00  0.00     0.014 A 
ATOM      9  C   UNL A   1      34.153  33.323  30.429  1.00  0.00     0.014 A 
ATOM     10  C   UNL A   1      36.690  33.930  29.425  1.00  0.00     0.010 A 
ATOM     11  C   UNL A   1      35.284  32.739  30.999  1.00  0.00     0.010 A 
ATOM     12  C   UNL A   1      36.559  33.019  30.481  1.00  0.00    -0.014 A 
BRANCH  12  13
ATOM     13  C   UNL A   1      37.769  32.424  31.089  1.00  0.00     0.031 A 
ATOM     14  C   UNL A   1      38.510  31.324  30.394  1.00  0.00     0.074 A 
ATOM     15  C   UNL A   1      38.171  32.869  32.294  1.00  0.00     0.049 A 
ATOM     16  N   UNL A   1      39.512  30.602  30.825  1.00  0.00    -0.248 NA
ATOM     17  C   UNL A   1      38.055  30.977  29.040  1.00  0.00     0.031 C 
ATOM     18  C   UNL A   1      37.525  33.944  33.050  1.00  0.00     0.029 A 
ATOM     19  N   UNL A   1      39.202  32.468  33.101  1.00  0.00    -0.354 N 
ATOM     20  C   UNL A   1      39.788  29.696  29.811  1.00  0.00     0.074 A 
ATOM     21  C   UNL A   1      38.826  29.940  28.756  1.00  0.00     0.031 C 
ATOM     22  C   UNL A   1      38.180  34.127  34.202  1.00  0.00     0.029 A 
ATOM     23  C   UNL A   1      39.232  33.125  34.307  1.00  0.00     0.049 A 
ATOM     24  H   UNL A   1      39.856  31.779  32.843  1.00  0.00     0.167 HD
ATOM     25  C   UNL A   1      40.756  28.749  29.774  1.00  0.00     0.037 A 
ATOM     26  C   UNL A   1      39.984  32.907  35.400  1.00  0.00     0.037 A 
ATOM     27  C   UNL A   1      41.691  28.522  30.847  1.00  0.00     0.049 A 
ATOM     28  C   UNL A   1      41.005  31.808  35.365  1.00  0.00     0.074 A 
ATOM     29  C   UNL A   1      42.731  27.613  30.907  1.00  0.00     0.029 A 
ATOM     30  N   UNL A   1      41.682  29.199  32.061  1.00  0.00    -0.354 N 
ATOM     31  N   UNL A   1      41.278  30.970  34.396  1.00  0.00    -0.248 NA
ATOM     32  C   UNL A   1      41.821  31.625  36.570  1.00  0.00     0.031 C 
ATOM     33  C   UNL A   1      43.294  27.679  32.185  1.00  0.00     0.029 A 
ATOM     34  C   UNL A   1      42.674  28.699  32.890  1.00  0.00     0.049 A 
ATOM     35  H   UNL A   1      41.062  29.927  32.297  1.00  0.00     0.167 HD
ATOM     36  C   UNL A   1      42.321  30.180  34.857  1.00  0.00     0.074 A 
ATOM     37  C   UNL A   1      42.627  30.640  36.197  1.00  0.00     0.031 C 
ATOM     38  C   UNL A   1      42.973  29.176  34.219  1.00  0.00     0.037 A 
BRANCH  25  39
ATOM     39  C   UNL A   1      40.807  27.854  28.566  1.00  0.00     0.064 A 
ATOM     40  C   UNL A   1      41.588  28.159  27.439  1.00  0.00     0.173 A 
ATOM     41  C   UNL A   1      40.047  26.674  28.529  1.00  0.00     0.173 A 
ATOM     42  F   UNL A   1      42.331  29.277  27.414  1.00  0.00    -0.203 F 
ATOM     43  C   UNL A   1      41.559  27.353  26.304  1.00  0.00     0.198 A 
ATOM     44  C   UNL A   1      40.054  25.846  27.409  1.00  0.00     0.198 A 
ATOM     45  F   UNL A   1      39.289  26.322  29.578  1.00  0.00    -0.203 F 
ATOM     46  F   UNL A   1      42.246  27.713  25.211  1.00  0.00    -0.200 F 
ATOM     47  C   UNL A   1      40.795  26.196  26.291  1.00  0.00     0.200 A 
ATOM     48  F   UNL A   1      39.332  24.718  27.407  1.00  0.00    -0.200 F 
ATOM     49  F   UNL A   1      40.762  25.425  25.196  1.00  0.00    -0.200 F 
ENDBRANCH  25  39
BRANCH  26  50
ATOM     50  C   UNL A   1      39.765  33.745  36.605  1.00  0.00     0.064 A 
ATOM     51  C   UNL A   1      40.362  35.005  36.728  1.00  0.00     0.173 A 
ATOM     52  C   UNL A   1      38.898  33.328  37.629  1.00  0.00     0.173 A 
ATOM     53  F   UNL A   1      41.203  35.443  35.780  1.00  0.00    -0.203 F 
ATOM     54  C   UNL A   1      40.107  35.815  37.833  1.00  0.00     0.198 A 
ATOM     55  C   UNL A   1      38.619  34.152  38.716  1.00  0.00     0.198 A 
ATOM     56  F   UNL A   1      38.288  32.136  37.548  1.00  0.00    -0.203 F 
ATOM     57  F   UNL A   1      40.713  37.004  37.941  1.00  0.00    -0.200 F 
ATOM     58  C   UNL A   1      39.228  35.392  38.820  1.00  0.00     0.200 A 
ATOM     59  F   UNL A   1      37.747  33.751  39.651  1.00  0.00    -0.200 F 
ATOM     60  F   UNL A   1      38.968  36.182  39.871  1.00  0.00    -0.200 F 
ENDBRANCH  26  50
BRANCH  38  61
ATOM     61  C   UNL A   1      44.135  28.543  34.927  1.00  0.00     0.064 A 
ATOM     62  C   UNL A   1      43.994  27.391  35.713  1.00  0.00     0.173 A 
ATOM     63  C   UNL A   1      45.428  29.054  34.735  1.00  0.00     0.173 A 
ATOM     64  F   UNL A   1      42.778  26.873  35.942  1.00  0.00    -0.203 F 
ATOM     65  C   UNL A   1      45.105  26.778  36.287  1.00  0.00     0.198 A 
ATOM     66  C   UNL A   1      46.540  28.417  35.280  1.00  0.00     0.198 A 
ATOM     67  F   UNL A   1      45.618  30.153  33.989  1.00  0.00    -0.203 F 
ATOM     68  F   UNL A   1      44.946  25.697  37.062  1.00  0.00    -0.200 F 
ATOM     69  C   UNL A   1      46.377  27.282  36.057  1.00  0.00     0.200 A 
ATOM     70  F   UNL A   1      47.768  28.896  35.038  1.00  0.00    -0.200 F 
ATOM     71  F   UNL A   1      47.447  26.673  36.586  1.00  0.00    -0.200 F 
ENDBRANCH  38  61
ENDBRANCH  12  13
ENDBRANCH   5   7
ENDBRANCH   2   3
ENDBRANCH   1   2
BRANCH   1  72
ATOM     72  C   UNL A   1      31.273  30.867  26.328  1.00  0.00     0.117 C 
BRANCH  72  73
ATOM     73  N   UNL A   1      32.340  30.299  25.528  1.00  0.00    -0.356 N 
ATOM     74  C   UNL A   1      32.305  29.237  24.663  1.00  0.00     0.224 C 
ATOM     75  H   UNL A   1      33.216  30.740  25.619  1.00  0.00     0.163 HD
ATOM     76  O   UNL A   1      33.209  29.174  23.827  1.00  0.00    -0.275 OA
BRANCH  74  77
ATOM     77  C   UNL A   1      31.274  28.113  24.837  1.00  0.00     0.094 C 
ATOM     78  C   UNL A   1      30.107  27.977  23.857  1.00  0.00     0.002 C 
ATOM     79  C   UNL A   1      31.868  26.708  24.713  1.00  0.00     0.094 C 
ATOM     80  C   UNL A   1      30.606  28.199  22.435  1.00  0.00     0.005 C 
ATOM     81  C   UNL A   1      29.742  26.475  23.804  1.00  0.00     0.009 C 
ATOM     82  C   UNL A   1      31.132  26.058  23.458  1.00  0.00     0.002 C 
ATOM     83  C   UNL A   1      31.179  26.819  22.107  1.00  0.00     0.005 C 
BRANCH  79  84
ATOM     84  C   UNL A   1      31.771  25.956  26.094  1.00  0.00     0.224 C 
ATOM     85  O   UNL A   1      31.624  26.650  27.113  1.00  0.00    -0.275 OA
ATOM     86  N   UNL A   1      31.576  24.599  26.283  1.00  0.00    -0.349 N 
ATOM     87  H   UNL A   1      30.653  24.425  26.577  1.00  0.00     0.164 HD
BRANCH  86  88
ATOM     88  C   UNL A   1      32.358  23.278  26.175  1.00  0.00     0.112 C 
ATOM     89  C   UNL A   1      31.432  22.187  25.555  1.00  0.00     0.030 C 
ATOM     90  C   UNL A   1      33.733  23.216  25.517  1.00  0.00    -0.022 A 
ATOM     91  C   UNL A   1      32.218  20.977  25.032  1.00  0.00     0.007 C 
ATOM     92  C   UNL A   1      34.051  22.492  24.355  1.00  0.00    -0.043 A 
ATOM     93  C   UNL A   1      34.835  23.649  26.234  1.00  0.00     0.006 A 
ATOM     94  C   UNL A   1      33.125  21.404  23.877  1.00  0.00     0.036 C 
ATOM     95  C   UNL A   1      35.325  22.611  23.754  1.00  0.00     0.004 A 
ATOM     96  C   UNL A   1      36.091  23.825  25.647  1.00  0.00     0.000 A 
ATOM     97  C   UNL A   1      36.316  23.370  24.361  1.00  0.00     0.000 A 
ENDBRANCH  86  88
ENDBRANCH  79  84
ENDBRANCH  74  77
ENDBRANCH  72  73
ENDBRANCH   1  72
TORSDOF 12
ENDMDL
MODEL 2
REMARK VINA RESULT:     -13.8      0.658      1.415
REMARK SMILES O=C(NCCCNC(=O)[C@H]1[C@H]2CC[C@H](C2)[C@@H]1C(=O)N[C@H]1CCCc2ccccc21)c1ccc(-c2c3nc(c(-c4c(F)c(F)c(F)c(F)c4F)c4ccc([nH]4)c(-c4c(F)c(F)c(F)c(F)c4F)c4nc(c(-c5c(F)c(F)c(F)c(F)c5F)c5ccc2[nH]5)C=C4)C=C3)cc1
REMARK SMILES IDX 5 1 4 2 3 3 1 4 2 5 30 7 31 8 92 9 32 10 91 11 33 12 34 13
REMARK SMILES IDX 35 14 85 15 36 16 90 17 84 18 86 19 37 20 89 21 83 22 82 23
REMARK SMILES IDX 38 25 70 26 50 27 69 28 51 29 54 30 68 31 87 32 52 33 53 34
REMARK SMILES IDX 67 36 88 37 55 38 39 39 40 40 48 41 41 42 42 43 46 44 49 45
REMARK SMILES IDX 43 46 44 47 47 48 45 49 71 50 72 51 80 52 73 53 74 54 78 55
REMARK SMILES IDX 81 56 75 57 76 58 79 59 77 60 56 61 57 62 65 63 58 64 59 65
REMARK SMILES IDX 63 66 66 67 60 68 61 69 64 70 62 71 6 72 7 73 8 74 9 76
REMARK SMILES IDX 10 77 11 78 16 79 12 80 15 81 14 82 13 83 17 84 18 85 19 86
REMARK SMILES IDX 20 88 21 89 29 90 22 91 24 92 28 93 23 94 25 95 27 96 26 97
REMARK H PARENT 3 6 86 24 54 35 7 75 19 87
REMARK Flexibility Score: inf
ROOT
ATOM      1  C   UNL A   1      31.369  32.609  26.519  1.00  0.00     0.042 C 
ENDROOT
BRANCH   1   2
ATOM      2  C   UNL A   1      32.621  33.080  27.245  1.00  0.00     0.118 C 
BRANCH   2   3
ATOM      3  N   UNL A   1      32.460  34.399  27.861  1.00  0.00    -0.352 N 
ATOM      4  O   UNL A   1      32.648  36.030  29.408  1.00  0.00    -0.269 OA
ATOM      5  C   UNL A   1      33.092  34.973  28.929  1.00  0.00     0.251 C 
ATOM      6  H   UNL A   1      31.781  34.970  27.434  1.00  0.00     0.163 HD
BRANCH   5   7
ATOM      7  C   UNL A   1      34.288  34.356  29.526  1.00  0.00     0.039 A 
ATOM      8  C   UNL A   1      34.161  33.480  30.606  1.00  0.00     0.014 A 
ATOM      9  C   UNL A   1      35.548  34.621  28.983  1.00  0.00     0.014 A 
ATOM     10  C   UNL A   1      35.294  33.009  31.252  1.00  0.00     0.010 A 
ATOM     11  C   UNL A   1      36.682  34.050  29.560  1.00  0.00     0.010 A 
ATOM     12  C   UNL A   1      36.563  33.262  30.716  1.00  0.00    -0.014 A 
BRANCH  12  13
ATOM     13  C   UNL A   1      37.754  32.633  31.328  1.00  0.00     0.031 A 
ATOM     14  C   UNL A   1      38.460  31.505  30.641  1.00  0.00     0.074 A 
ATOM     15  C   UNL A   1      38.171  33.075  32.529  1.00  0.00     0.049 A 
ATOM     16  N   UNL A   1      39.439  30.755  31.077  1.00  0.00    -0.248 NA
ATOM     17  C   UNL A   1      37.993  31.163  29.290  1.00  0.00     0.031 C 
ATOM     18  C   UNL A   1      37.560  34.176  33.277  1.00  0.00     0.029 A 
ATOM     19  N   UNL A   1      39.189  32.647  33.339  1.00  0.00    -0.354 N 
ATOM     20  C   UNL A   1      39.685  29.833  30.070  1.00  0.00     0.074 A 
ATOM     21  C   UNL A   1      38.731  30.099  29.013  1.00  0.00     0.031 C 
ATOM     22  C   UNL A   1      38.221  34.347  34.428  1.00  0.00     0.029 A 
ATOM     23  C   UNL A   1      39.241  33.312  34.539  1.00  0.00     0.049 A 
ATOM     24  H   UNL A   1      39.821  31.936  33.086  1.00  0.00     0.167 HD
ATOM     25  C   UNL A   1      40.623  28.856  30.040  1.00  0.00     0.037 A 
ATOM     26  C   UNL A   1      39.987  33.080  35.634  1.00  0.00     0.037 A 
ATOM     27  C   UNL A   1      41.551  28.608  31.114  1.00  0.00     0.049 A 
ATOM     28  C   UNL A   1      40.972  31.948  35.607  1.00  0.00     0.074 A 
ATOM     29  C   UNL A   1      42.562  27.667  31.180  1.00  0.00     0.029 A 
ATOM     30  N   UNL A   1      41.564  29.294  32.323  1.00  0.00    -0.354 N 
ATOM     31  N   UNL A   1      41.218  31.094  34.645  1.00  0.00    -0.248 NA
ATOM     32  C   UNL A   1      41.783  31.749  36.813  1.00  0.00     0.031 C 
ATOM     33  C   UNL A   1      43.128  27.725  32.457  1.00  0.00     0.029 A 
ATOM     34  C   UNL A   1      42.540  28.769  33.155  1.00  0.00     0.049 A 
ATOM     35  H   UNL A   1      40.967  30.043  32.553  1.00  0.00     0.167 HD
ATOM     36  C   UNL A   1      42.236  30.276  35.111  1.00  0.00     0.074 A 
ATOM     37  C   UNL A   1      42.557  30.736  36.448  1.00  0.00     0.031 C 
ATOM     38  C   UNL A   1      42.855  29.247  34.480  1.00  0.00     0.037 A 
BRANCH  25  39
ATOM     39  C   UNL A   1      40.644  27.951  28.838  1.00  0.00     0.064 A 
ATOM     40  C   UNL A   1      41.447  28.213  27.716  1.00  0.00     0.173 A 
ATOM     41  C   UNL A   1      39.833  26.805  28.803  1.00  0.00     0.173 A 
ATOM     42  F   UNL A   1      42.239  29.297  27.690  1.00  0.00    -0.203 F 
ATOM     43  C   UNL A   1      41.392  27.401  26.586  1.00  0.00     0.198 A 
ATOM     44  C   UNL A   1      39.814  25.969  27.689  1.00  0.00     0.198 A 
ATOM     45  F   UNL A   1      39.052  26.494  29.848  1.00  0.00    -0.203 F 
ATOM     46  F   UNL A   1      42.104  27.721  25.497  1.00  0.00    -0.200 F 
ATOM     47  C   UNL A   1      40.579  26.278  26.575  1.00  0.00     0.200 A 
ATOM     48  F   UNL A   1      39.043  24.873  27.689  1.00  0.00    -0.200 F 
ATOM     49  F   UNL A   1      40.521  25.501  25.485  1.00  0.00    -0.200 F 
ENDBRANCH  25  39
BRANCH  26  50
ATOM     50  C   UNL A   1      39.795  33.932  36.833  1.00  0.00     0.064 A 
ATOM     51  C   UNL A   1      40.403  35.189  36.930  1.00  0.00     0.173 A 
ATOM     52  C   UNL A   1      38.943  33.534  37.876  1.00  0.00     0.173 A 
ATOM     53  F   UNL A   1      41.232  35.609  35.963  1.00  0.00    -0.203 F 
ATOM     54  C   UNL A   1      40.174  36.014  38.030  1.00  0.00     0.198 A 
ATOM     55  C   UNL A   1      38.689  34.373  38.958  1.00  0.00     0.198 A 
ATOM     56  F   UNL A   1      38.322  32.347  37.820  1.00  0.00    -0.203 F 
ATOM     57  F   UNL A   1      40.792  37.200  38.114  1.00  0.00    -0.200 F 
ATOM     58  C   UNL A   1      39.309  35.610  39.037  1.00  0.00     0.200 A 
ATOM     59  F   UNL A   1      37.830  33.990  39.913  1.00  0.00    -0.200 F 
ATOM     60  F   UNL A   1      39.074  36.413  40.083  1.00  0.00    -0.200 F 
ENDBRANCH  26  50
BRANCH  38  61
ATOM     61  C   UNL A   1      43.997  28.582  35.193  1.00  0.00     0.064 A 
ATOM     62  C   UNL A   1      45.317  29.038  35.077  1.00  0.00     0.173 A 
ATOM     63  C   UNL A   1      43.741  27.524  36.079  1.00  0.00     0.173 A 
ATOM     64  F   UNL A   1      45.617  30.035  34.231  1.00  0.00    -0.203 F 
ATOM     65  C   UNL A   1      46.342  28.453  35.818  1.00  0.00     0.198 A 
ATOM     66  C   UNL A   1      44.761  26.967  36.845  1.00  0.00     0.198 A 
ATOM     67  F   UNL A   1      42.494  27.052  36.229  1.00  0.00    -0.203 F 
ATOM     68  F   UNL A   1      47.602  28.881  35.669  1.00  0.00    -0.200 F 
ATOM     69  C   UNL A   1      46.060  27.430  36.713  1.00  0.00     0.200 A 
ATOM     70  F   UNL A   1      44.482  25.993  37.722  1.00  0.00    -0.200 F 
ATOM     71  F   UNL A   1      47.043  26.889  37.445  1.00  0.00    -0.200 F 
ENDBRANCH  38  61
ENDBRANCH  12  13
ENDBRANCH   5   7
ENDBRANCH   2   3
ENDBRANCH   1   2
BRANCH   1  72
ATOM     72  C   UNL A   1      31.371  31.129  26.180  1.00  0.00     0.117 C 
BRANCH  72  73
ATOM     73  N   UNL A   1      32.584  30.417  26.530  1.00  0.00    -0.356 N 
ATOM     74  C   UNL A   1      33.100  29.267  25.994  1.00  0.00     0.224 C 
ATOM     75  H   UNL A   1      33.113  30.819  27.256  1.00  0.00     0.163 HD
ATOM     76  O   UNL A   1      34.302  29.061  26.179  1.00  0.00    -0.275 OA
BRANCH  74  77
ATOM     77  C   UNL A   1      32.186  28.226  25.333  1.00  0.00     0.094 C 
ATOM     78  C   UNL A   1      31.747  28.399  23.877  1.00  0.00     0.002 C 
ATOM     79  C   UNL A   1      32.805  26.830  25.241  1.00  0.00     0.094 C 
ATOM     80  C   UNL A   1      32.930  28.864  23.039  1.00  0.00     0.005 C 
ATOM     81  C   UNL A   1      31.529  26.978  23.306  1.00  0.00     0.009 C 
ATOM     82  C   UNL A   1      32.897  26.520  23.681  1.00  0.00     0.002 C 
ATOM     83  C   UNL A   1      33.643  27.536  22.776  1.00  0.00     0.005 C 
BRANCH  79  84
ATOM     84  C   UNL A   1      32.002  25.822  26.146  1.00  0.00     0.224 C 
ATOM     85  O   UNL A   1      31.229  26.303  26.991  1.00  0.00    -0.275 OA
ATOM     86  N   UNL A   1      31.863  24.460  25.942  1.00  0.00    -0.349 N 
ATOM     87  H   UNL A   1      30.961  24.255  25.606  1.00  0.00     0.164 HD
BRANCH  86  88
ATOM     88  C   UNL A   1      32.685  23.166  26.081  1.00  0.00     0.112 C 
ATOM     89  C   UNL A   1      31.824  21.961  25.590  1.00  0.00     0.030 C 
ATOM     90  C   UNL A   1      34.096  23.052  25.510  1.00  0.00    -0.022 A 
ATOM     91  C   UNL A   1      32.671  20.714  25.302  1.00  0.00     0.007 C 
ATOM     92  C   UNL A   1      34.498  22.170  24.492  1.00  0.00    -0.043 A 
ATOM     93  C   UNL A   1      35.145  23.629  26.207  1.00  0.00     0.006 A 
ATOM     94  C   UNL A   1      33.629  20.990  24.142  1.00  0.00     0.036 C 
ATOM     95  C   UNL A   1      35.799  22.241  23.946  1.00  0.00     0.004 A 
ATOM     96  C   UNL A   1      36.425  23.756  25.664  1.00  0.00     0.000 A 
ATOM     97  C   UNL A   1      36.734  23.118  24.478  1.00  0.00     0.000 A 
ENDBRANCH  86  88
ENDBRANCH  79  84
ENDBRANCH  74  77
ENDBRANCH  72  73
ENDBRANCH   1  72
TORSDOF 12
ENDMDL
MODEL 3
REMARK VINA RESULT:     -13.8      5.282     10.567
REMARK SMILES O=C(NCCCNC(=O)[C@H]1[C@H]2CC[C@H](C2)[C@@H]1C(=O)N[C@H]1CCCc2ccccc21)c1ccc(-c2c3nc(c(-c4c(F)c(F)c(F)c(F)c4F)c4ccc([nH]4)c(-c4c(F)c(F)c(F)c(F)c4F)c4nc(c(-c5c(F)c(F)c(F)c(F)c5F)c5ccc2[nH]5)C=C4)C=C3)cc1
REMARK SMILES IDX 5 1 4 2 3 3 1 4 2 5 30 7 31 8 92 9 32 10 91 11 33 12 34 13
REMARK SMILES IDX 35 14 85 15 36 16 90 17 84 18 86 19 37 20 89 21 83 22 82 23
REMARK SMILES IDX 38 25 70 26 50 27 69 28 51 29 54 30 68 31 87 32 52 33 53 34
REMARK SMILES IDX 67 36 88 37 55 38 39 39 40 40 48 41 41 42 42 43 46 44 49 45
REMARK SMILES IDX 43 46 44 47 47 48 45 49 71 50 72 51 80 52 73 53 74 54 78 55
REMARK SMILES IDX 81 56 75 57 76 58 79 59 77 60 56 61 57 62 65 63 58 64 59 65
REMARK SMILES IDX 63 66 66 67 60 68 61 69 64 70 62 71 6 72 7 73 8 74 9 76
REMARK SMILES IDX 10 77 11 78 16 79 12 80 15 81 14 82 13 83 17 84 18 85 19 86
REMARK SMILES IDX 20 88 21 89 29 90 22 91 24 92 28 93 23 94 25 95 27 96 26 97
REMARK H PARENT 3 6 86 24 54 35 7 75 19 87
REMARK Flexibility Score: inf
ROOT
ATOM      1  C   UNL A   1      38.096  19.340  25.027  1.00  0.00     0.042 C 
ENDROOT
BRANCH   1   2
ATOM      2  C   UNL A   1      39.252  19.962  25.797  1.00  0.00     0.118 C 
BRANCH   2   3
ATOM      3  N   UNL A   1      40.427  19.091  25.864  1.00  0.00    -0.352 N 
ATOM      4  O   UNL A   1      42.604  18.500  25.883  1.00  0.00    -0.269 OA
ATOM      5  C   UNL A   1      41.746  19.379  26.075  1.00  0.00     0.251 C 
ATOM      6  H   UNL A   1      40.234  18.133  25.734  1.00  0.00     0.163 HD
BRANCH   5   7
ATOM      7  C   UNL A   1      42.170  20.717  26.520  1.00  0.00     0.039 A 
ATOM      8  C   UNL A   1      42.476  21.705  25.582  1.00  0.00     0.014 A 
ATOM      9  C   UNL A   1      42.228  21.005  27.887  1.00  0.00     0.014 A 
ATOM     10  C   UNL A   1      43.006  22.916  26.000  1.00  0.00     0.010 A 
ATOM     11  C   UNL A   1      42.646  22.267  28.307  1.00  0.00     0.010 A 
ATOM     12  C   UNL A   1      43.064  23.221  27.366  1.00  0.00    -0.014 A 
BRANCH  12  13
ATOM     13  C   UNL A   1      43.491  24.571  27.796  1.00  0.00     0.031 A 
ATOM     14  C   UNL A   1      42.479  25.616  28.150  1.00  0.00     0.074 A 
ATOM     15  C   UNL A   1      44.808  24.849  27.832  1.00  0.00     0.049 A 
ATOM     16  N   UNL A   1      42.660  26.880  28.429  1.00  0.00    -0.248 NA
ATOM     17  C   UNL A   1      41.074  25.186  28.178  1.00  0.00     0.031 C 
ATOM     18  C   UNL A   1      45.876  23.898  27.518  1.00  0.00     0.029 A 
ATOM     19  N   UNL A   1      45.472  26.009  28.131  1.00  0.00    -0.354 N 
ATOM     20  C   UNL A   1      41.393  27.407  28.636  1.00  0.00     0.074 A 
ATOM     21  C   UNL A   1      40.450  26.329  28.418  1.00  0.00     0.031 C 
ATOM     22  C   UNL A   1      47.061  24.506  27.652  1.00  0.00     0.029 A 
ATOM     23  C   UNL A   1      46.833  25.909  27.972  1.00  0.00     0.049 A 
ATOM     24  H   UNL A   1      45.021  26.831  28.430  1.00  0.00     0.167 HD
ATOM     25  C   UNL A   1      41.057  28.675  28.973  1.00  0.00     0.037 A 
ATOM     26  C   UNL A   1      47.788  26.854  28.022  1.00  0.00     0.037 A 
ATOM     27  C   UNL A   1      42.020  29.730  29.170  1.00  0.00     0.049 A 
ATOM     28  C   UNL A   1      47.389  28.267  28.329  1.00  0.00     0.074 A 
ATOM     29  C   UNL A   1      41.797  31.042  29.542  1.00  0.00     0.029 A 
ATOM     30  N   UNL A   1      43.390  29.594  28.986  1.00  0.00    -0.354 N 
ATOM     31  N   UNL A   1      46.193  28.755  28.546  1.00  0.00    -0.248 NA
ATOM     32  C   UNL A   1      48.468  29.258  28.399  1.00  0.00     0.031 C 
ATOM     33  C   UNL A   1      43.018  31.720  29.499  1.00  0.00     0.029 A 
ATOM     34  C   UNL A   1      44.020  30.810  29.199  1.00  0.00     0.049 A 
ATOM     35  H   UNL A   1      43.847  28.757  28.740  1.00  0.00     0.167 HD
ATOM     36  C   UNL A   1      46.374  30.104  28.814  1.00  0.00     0.074 A 
ATOM     37  C   UNL A   1      47.799  30.356  28.726  1.00  0.00     0.031 C 
ATOM     38  C   UNL A   1      45.442  31.041  29.118  1.00  0.00     0.037 A 
BRANCH  25  39
ATOM     39  C   UNL A   1      39.592  28.998  29.086  1.00  0.00     0.064 A 
ATOM     40  C   UNL A   1      38.902  28.934  30.307  1.00  0.00     0.173 A 
ATOM     41  C   UNL A   1      38.861  29.368  27.945  1.00  0.00     0.173 A 
ATOM     42  F   UNL A   1      39.547  28.581  31.430  1.00  0.00    -0.203 F 
ATOM     43  C   UNL A   1      37.530  29.165  30.372  1.00  0.00     0.198 A 
ATOM     44  C   UNL A   1      37.497  29.642  28.021  1.00  0.00     0.198 A 
ATOM     45  F   UNL A   1      39.465  29.458  26.751  1.00  0.00    -0.203 F 
ATOM     46  F   UNL A   1      36.880  29.013  31.533  1.00  0.00    -0.200 F 
ATOM     47  C   UNL A   1      36.830  29.523  29.229  1.00  0.00     0.200 A 
ATOM     48  F   UNL A   1      36.827  30.007  26.919  1.00  0.00    -0.200 F 
ATOM     49  F   UNL A   1      35.509  29.738  29.291  1.00  0.00    -0.200 F 
ENDBRANCH  25  39
BRANCH  26  50
ATOM     50  C   UNL A   1      49.196  26.471  27.750  1.00  0.00     0.064 A 
ATOM     51  C   UNL A   1      49.671  26.346  26.440  1.00  0.00     0.173 A 
ATOM     52  C   UNL A   1      50.113  26.290  28.800  1.00  0.00     0.173 A 
ATOM     53  F   UNL A   1      48.832  26.502  25.405  1.00  0.00    -0.203 F 
ATOM     54  C   UNL A   1      51.009  26.045  26.187  1.00  0.00     0.198 A 
ATOM     55  C   UNL A   1      51.455  26.022  28.545  1.00  0.00     0.198 A 
ATOM     56  F   UNL A   1      49.710  26.418  30.073  1.00  0.00    -0.203 F 
ATOM     57  F   UNL A   1      51.432  25.901  24.924  1.00  0.00    -0.200 F 
ATOM     58  C   UNL A   1      51.900  25.894  27.239  1.00  0.00     0.200 A 
ATOM     59  F   UNL A   1      52.318  25.906  29.563  1.00  0.00    -0.200 F 
ATOM     60  F   UNL A   1      53.190  25.627  26.993  1.00  0.00    -0.200 F 
ENDBRANCH  26  50
BRANCH  38  61
ATOM     61  C   UNL A   1      45.930  32.421  29.453  1.00  0.00     0.064 A 
ATOM     62  C   UNL A   1      46.023  33.435  28.489  1.00  0.00     0.173 A 
ATOM     63  C   UNL A   1      46.222  32.751  30.786  1.00  0.00     0.173 A 
ATOM     64  F   UNL A   1      45.773  33.168  27.199  1.00  0.00    -0.203 F 
ATOM     65  C   UNL A   1      46.397  34.728  28.848  1.00  0.00     0.198 A 
ATOM     66  C   UNL A   1      46.559  34.053  31.145  1.00  0.00     0.198 A 
ATOM     67  F   UNL A   1      46.145  31.818  31.747  1.00  0.00    -0.203 F 
ATOM     68  F   UNL A   1      46.512  35.675  27.907  1.00  0.00    -0.200 F 
ATOM     69  C   UNL A   1      46.649  35.039  30.177  1.00  0.00     0.200 A 
ATOM     70  F   UNL A   1      46.782  34.353  32.432  1.00  0.00    -0.200 F 
ATOM     71  F   UNL A   1      46.980  36.290  30.522  1.00  0.00    -0.200 F 
ENDBRANCH  38  61
ENDBRANCH  12  13
ENDBRANCH   5   7
ENDBRANCH   2   3
ENDBRANCH   1   2
BRANCH   1  72
ATOM     72  C   UNL A   1      36.857  20.216  24.956  1.00  0.00     0.117 C 
BRANCH  72  73
ATOM     73  N   UNL A   1      37.064  21.606  25.309  1.00  0.00    -0.356 N 
ATOM     74  C   UNL A   1      36.139  22.593  25.526  1.00  0.00     0.224 C 
ATOM     75  H   UNL A   1      38.004  21.881  25.408  1.00  0.00     0.163 HD
ATOM     76  O   UNL A   1      36.516  23.573  26.171  1.00  0.00    -0.275 OA
BRANCH  74  77
ATOM     77  C   UNL A   1      34.755  22.535  24.863  1.00  0.00     0.094 C 
ATOM     78  C   UNL A   1      33.684  21.582  25.396  1.00  0.00     0.002 C 
ATOM     79  C   UNL A   1      33.979  23.851  24.941  1.00  0.00     0.094 C 
ATOM     80  C   UNL A   1      33.684  21.614  26.919  1.00  0.00     0.005 C 
ATOM     81  C   UNL A   1      32.315  22.237  25.095  1.00  0.00     0.009 C 
ATOM     82  C   UNL A   1      32.671  23.510  25.784  1.00  0.00     0.002 C 
ATOM     83  C   UNL A   1      32.850  22.869  27.186  1.00  0.00     0.005 C 
BRANCH  79  84
ATOM     84  C   UNL A   1      33.788  24.452  23.498  1.00  0.00     0.224 C 
ATOM     85  O   UNL A   1      34.286  23.827  22.548  1.00  0.00    -0.275 OA
ATOM     86  N   UNL A   1      32.914  25.462  23.133  1.00  0.00    -0.349 N 
ATOM     87  H   UNL A   1      32.145  25.088  22.645  1.00  0.00     0.164 HD
BRANCH  86  88
ATOM     88  C   UNL A   1      32.774  26.989  23.256  1.00  0.00     0.112 C 
ATOM     89  C   UNL A   1      31.561  27.460  22.395  1.00  0.00     0.030 C 
ATOM     90  C   UNL A   1      32.735  27.681  24.615  1.00  0.00    -0.022 A 
ATOM     91  C   UNL A   1      31.090  28.873  22.766  1.00  0.00     0.007 C 
ATOM     92  C   UNL A   1      31.650  28.412  25.130  1.00  0.00    -0.043 A 
ATOM     93  C   UNL A   1      33.924  27.875  25.298  1.00  0.00     0.006 A 
ATOM     94  C   UNL A   1      30.562  28.886  24.202  1.00  0.00     0.036 C 
ATOM     95  C   UNL A   1      31.670  28.898  26.457  1.00  0.00     0.004 A 
ATOM     96  C   UNL A   1      33.964  28.304  26.627  1.00  0.00     0.000 A 
ATOM     97  C   UNL A   1      32.807  28.748  27.240  1.00  0.00     0.000 A 
ENDBRANCH  86  88
ENDBRANCH  79  84
ENDBRANCH  74  77
ENDBRANCH  72  73
ENDBRANCH   1  72
TORSDOF 12
ENDMDL
