MODEL 1
REMARK VINA RESULT:     -13.8      0.000      0.000
REMARK SMILES Cc1ccccc1-n1nc(Cl)c(C(=O)NCCCNC(=O)c2ccc(-c3c4nc(c(-c5c(F)c(F)c(F)c(F)c5F)c5ccc([nH]5)c(-c5c(F)c(F)c(F)c(F)c5F)c5nc(c(-c6c(F)c(F)c(F)c(F)c6F)c6ccc3[nH]6)C=C5)C=C4)cc2)n1
REMARK SMILES IDX 17 1 16 2 15 3 13 4 14 5 12 7 8 8 9 9 85 10 10 11 11 12 7 13
REMARK SMILES IDX 1 14 2 15 3 16 4 17 6 18 5 19 18 20 19 21 20 22 21 24 22 25
REMARK SMILES IDX 23 26 84 27 24 28 83 29 25 30 26 31 27 32 77 33 28 34 82 35
REMARK SMILES IDX 76 36 78 37 29 38 81 39 75 40 74 41 30 43 62 44 42 45 61 46
REMARK SMILES IDX 43 47 46 48 60 49 79 50 44 51 45 52 59 54 80 55 47 56 31 57
REMARK SMILES IDX 32 58 40 59 33 60 34 61 38 62 41 63 35 64 36 65 39 66 37 67
REMARK SMILES IDX 63 68 64 69 72 70 65 71 66 72 70 73 73 74 67 75 68 76 71 77
REMARK SMILES IDX 69 78 48 79 49 80 57 81 50 82 51 83 55 84 58 85 52 86 53 87
REMARK SMILES IDX 56 88 54 89
REMARK H PARENT 15 6 19 23 78 42 46 53
REMARK Flexibility Score: inf
ROOT
ATOM      1  C   UNL A   1      32.967  30.787  26.876  1.00  0.00     0.042 C 
ENDROOT
BRANCH   1   2
ATOM      2  C   UNL A   1      32.386  29.769  25.891  1.00  0.00     0.118 C 
BRANCH   2   3
ATOM      3  N   UNL A   1      33.124  29.704  24.632  1.00  0.00    -0.350 N 
ATOM      4  C   UNL A   1      33.414  28.619  23.822  1.00  0.00     0.275 C 
ATOM      5  O   UNL A   1      34.030  28.849  22.781  1.00  0.00    -0.267 OA
ATOM      6  H   UNL A   1      33.469  30.567  24.309  1.00  0.00     0.163 HD
BRANCH   4   7
ATOM      7  C   UNL A   1      33.040  27.259  24.219  1.00  0.00     0.189 A 
ATOM      8  N   UNL A   1      33.158  25.231  24.820  1.00  0.00    -0.149 N 
ATOM      9  N   UNL A   1      31.850  25.355  24.493  1.00  0.00    -0.135 NA
ATOM     10  N   UNL A   1      33.911  26.347  24.683  1.00  0.00    -0.141 NA
ATOM     11  C   UNL A   1      31.765  26.653  24.186  1.00  0.00     0.184 A 
ATOM     12  Cl  UNL A   1      30.272  27.330  23.775  1.00  0.00    -0.058 Cl
BRANCH   8  13
ATOM     13  C   UNL A   1      33.755  23.983  25.143  1.00  0.00     0.089 A 
ATOM     14  C   UNL A   1      34.020  23.283  22.670  1.00  0.00     0.047 C 
ATOM     15  C   UNL A   1      34.067  23.024  24.152  1.00  0.00    -0.023 A 
ATOM     16  C   UNL A   1      34.489  21.748  24.566  1.00  0.00     0.006 A 
ATOM     17  C   UNL A   1      34.644  21.443  25.918  1.00  0.00     0.000 A 
ATOM     18  C   UNL A   1      33.970  23.686  26.501  1.00  0.00     0.030 A 
ATOM     19  C   UNL A   1      34.402  22.416  26.883  1.00  0.00     0.002 A 
ENDBRANCH   8  13
ENDBRANCH   4   7
ENDBRANCH   2   3
ENDBRANCH   1   2
BRANCH   1  20
ATOM     20  C   UNL A   1      34.116  30.230  27.709  1.00  0.00     0.118 C 
BRANCH  20  21
ATOM     21  N   UNL A   1      34.842  31.239  28.482  1.00  0.00    -0.352 N 
ATOM     22  C   UNL A   1      36.080  31.132  29.099  1.00  0.00     0.251 C 
ATOM     23  H   UNL A   1      34.391  32.110  28.577  1.00  0.00     0.163 HD
ATOM     24  O   UNL A   1      36.560  32.062  29.723  1.00  0.00    -0.269 OA
BRANCH  22  25
ATOM     25  C   UNL A   1      36.863  29.897  28.875  1.00  0.00     0.039 A 
ATOM     26  C   UNL A   1      37.036  29.029  29.958  1.00  0.00     0.014 A 
ATOM     27  C   UNL A   1      37.627  29.760  27.718  1.00  0.00     0.014 A 
ATOM     28  C   UNL A   1      38.157  28.207  29.988  1.00  0.00     0.010 A 
ATOM     29  C   UNL A   1      38.784  29.010  27.784  1.00  0.00     0.010 A 
ATOM     30  C   UNL A   1      39.092  28.312  28.959  1.00  0.00    -0.014 A 
BRANCH  30  31
ATOM     31  C   UNL A   1      40.481  27.887  29.099  1.00  0.00     0.031 A 
ATOM     32  C   UNL A   1      40.920  26.562  28.619  1.00  0.00     0.074 A 
ATOM     33  C   UNL A   1      41.388  28.772  29.577  1.00  0.00     0.049 A 
ATOM     34  N   UNL A   1      42.089  26.068  28.850  1.00  0.00    -0.248 NA
ATOM     35  C   UNL A   1      40.042  25.641  27.903  1.00  0.00     0.031 C 
ATOM     36  C   UNL A   1      42.847  28.690  29.501  1.00  0.00     0.029 A 
ATOM     37  N   UNL A   1      41.152  29.837  30.466  1.00  0.00    -0.354 N 
ATOM     38  C   UNL A   1      42.215  24.919  28.114  1.00  0.00     0.074 A 
ATOM     39  C   UNL A   1      40.883  24.633  27.646  1.00  0.00     0.031 C 
ATOM     40  C   UNL A   1      43.371  29.399  30.511  1.00  0.00     0.029 A 
ATOM     41  C   UNL A   1      42.266  29.834  31.344  1.00  0.00     0.049 A 
ATOM     42  H   UNL A   1      40.382  30.450  30.476  1.00  0.00     0.167 HD
ATOM     43  C   UNL A   1      43.464  24.417  27.910  1.00  0.00     0.037 A 
ATOM     44  C   UNL A   1      42.111  29.526  32.665  1.00  0.00     0.037 A 
ATOM     45  C   UNL A   1      44.411  24.968  28.883  1.00  0.00     0.049 A 
ATOM     46  C   UNL A   1      42.864  28.294  33.126  1.00  0.00     0.074 A 
ATOM     47  C   UNL A   1      45.459  25.872  28.855  1.00  0.00     0.029 A 
ATOM     48  N   UNL A   1      44.155  24.725  30.223  1.00  0.00    -0.354 N 
ATOM     49  N   UNL A   1      43.556  27.517  32.340  1.00  0.00    -0.248 NA
ATOM     50  C   UNL A   1      42.811  27.789  34.499  1.00  0.00     0.031 C 
ATOM     51  C   UNL A   1      45.781  26.212  30.209  1.00  0.00     0.029 A 
ATOM     52  C   UNL A   1      44.949  25.493  31.048  1.00  0.00     0.049 A 
ATOM     53  H   UNL A   1      43.486  24.079  30.547  1.00  0.00     0.167 HD
ATOM     54  C   UNL A   1      44.004  26.436  33.049  1.00  0.00     0.074 A 
ATOM     55  C   UNL A   1      43.509  26.645  34.396  1.00  0.00     0.031 C 
ATOM     56  C   UNL A   1      44.721  25.424  32.481  1.00  0.00     0.037 A 
BRANCH  43  57
ATOM     57  C   UNL A   1      43.869  23.496  26.776  1.00  0.00     0.064 A 
ATOM     58  C   UNL A   1      43.378  22.172  26.728  1.00  0.00     0.173 A 
ATOM     59  C   UNL A   1      44.827  23.798  25.783  1.00  0.00     0.173 A 
ATOM     60  F   UNL A   1      42.478  21.730  27.617  1.00  0.00    -0.203 F 
ATOM     61  C   UNL A   1      43.815  21.240  25.777  1.00  0.00     0.198 A 
ATOM     62  C   UNL A   1      45.223  22.882  24.803  1.00  0.00     0.198 A 
ATOM     63  F   UNL A   1      45.477  24.964  25.743  1.00  0.00    -0.203 F 
ATOM     64  F   UNL A   1      43.356  19.981  25.820  1.00  0.00    -0.200 F 
ATOM     65  C   UNL A   1      44.729  21.598  24.808  1.00  0.00     0.200 A 
ATOM     66  F   UNL A   1      46.118  23.254  23.875  1.00  0.00    -0.200 F 
ATOM     67  F   UNL A   1      45.148  20.710  23.899  1.00  0.00    -0.200 F 
ENDBRANCH  43  57
BRANCH  44  68
ATOM     68  C   UNL A   1      40.814  30.004  33.216  1.00  0.00     0.064 A 
ATOM     69  C   UNL A   1      40.638  31.393  33.392  1.00  0.00     0.173 A 
ATOM     70  C   UNL A   1      39.668  29.203  33.211  1.00  0.00     0.173 A 
ATOM     71  F   UNL A   1      41.704  32.209  33.404  1.00  0.00    -0.203 F 
ATOM     72  C   UNL A   1      39.369  31.963  33.427  1.00  0.00     0.198 A 
ATOM     73  C   UNL A   1      38.397  29.777  33.269  1.00  0.00     0.198 A 
ATOM     74  F   UNL A   1      39.766  27.879  33.024  1.00  0.00    -0.203 F 
ATOM     75  F   UNL A   1      39.236  33.297  33.460  1.00  0.00    -0.200 F 
ATOM     76  C   UNL A   1      38.248  31.156  33.338  1.00  0.00     0.200 A 
ATOM     77  F   UNL A   1      37.311  29.000  33.153  1.00  0.00    -0.200 F 
ATOM     78  F   UNL A   1      37.028  31.705  33.269  1.00  0.00    -0.200 F 
ENDBRANCH  44  68
BRANCH  56  79
ATOM     79  C   UNL A   1      45.247  24.262  33.269  1.00  0.00     0.064 A 
ATOM     80  C   UNL A   1      44.452  23.144  33.565  1.00  0.00     0.173 A 
ATOM     81  C   UNL A   1      46.531  24.290  33.849  1.00  0.00     0.173 A 
ATOM     82  F   UNL A   1      43.199  23.051  33.093  1.00  0.00    -0.203 F 
ATOM     83  C   UNL A   1      44.924  22.102  34.365  1.00  0.00     0.198 A 
ATOM     84  C   UNL A   1      46.983  23.272  34.686  1.00  0.00     0.198 A 
ATOM     85  F   UNL A   1      47.387  25.291  33.595  1.00  0.00    -0.203 F 
ATOM     86  F   UNL A   1      44.152  21.029  34.585  1.00  0.00    -0.200 F 
ATOM     87  C   UNL A   1      46.184  22.173  34.936  1.00  0.00     0.200 A 
ATOM     88  F   UNL A   1      48.199  23.359  35.243  1.00  0.00    -0.200 F 
ATOM     89  F   UNL A   1      46.628  21.182  35.721  1.00  0.00    -0.200 F 
ENDBRANCH  56  79
ENDBRANCH  30  31
ENDBRANCH  22  25
ENDBRANCH  20  21
ENDBRANCH   1  20
TORSDOF 11
ENDMDL
MODEL 2
REMARK VINA RESULT:     -13.6      4.195     10.349
REMARK SMILES Cc1ccccc1-n1nc(Cl)c(C(=O)NCCCNC(=O)c2ccc(-c3c4nc(c(-c5c(F)c(F)c(F)c(F)c5F)c5ccc([nH]5)c(-c5c(F)c(F)c(F)c(F)c5F)c5nc(c(-c6c(F)c(F)c(F)c(F)c6F)c6ccc3[nH]6)C=C5)C=C4)cc2)n1
REMARK SMILES IDX 17 1 16 2 15 3 13 4 14 5 12 7 8 8 9 9 85 10 10 11 11 12 7 13
REMARK SMILES IDX 1 14 2 15 3 16 4 17 6 18 5 19 18 20 19 21 20 22 21 24 22 25
REMARK SMILES IDX 23 26 84 27 24 28 83 29 25 30 26 31 27 32 77 33 28 34 82 35
REMARK SMILES IDX 76 36 78 37 29 38 81 39 75 40 74 41 30 43 62 44 42 45 61 46
REMARK SMILES IDX 43 47 46 48 60 49 79 50 44 51 45 52 59 54 80 55 47 56 31 57
REMARK SMILES IDX 32 58 40 59 33 60 34 61 38 62 41 63 35 64 36 65 39 66 37 67
REMARK SMILES IDX 63 68 64 69 72 70 65 71 66 72 70 73 73 74 67 75 68 76 71 77
REMARK SMILES IDX 69 78 48 79 49 80 57 81 50 82 51 83 55 84 58 85 52 86 53 87
REMARK SMILES IDX 56 88 54 89
REMARK H PARENT 15 6 19 23 78 42 46 53
REMARK Flexibility Score: inf
ROOT
ATOM      1  C   UNL A   1      38.080  21.697  25.459  1.00  0.00     0.042 C 
ENDROOT
BRANCH   1   2
ATOM      2  C   UNL A   1      36.736  21.824  24.733  1.00  0.00     0.118 C 
BRANCH   2   3
ATOM      3  N   UNL A   1      35.619  21.276  25.497  1.00  0.00    -0.350 N 
ATOM      4  C   UNL A   1      34.387  21.832  25.799  1.00  0.00     0.275 C 
ATOM      5  O   UNL A   1      33.601  21.132  26.438  1.00  0.00    -0.267 OA
ATOM      6  H   UNL A   1      35.764  20.370  25.852  1.00  0.00     0.163 HD
BRANCH   4   7
ATOM      7  C   UNL A   1      34.064  23.207  25.411  1.00  0.00     0.189 A 
ATOM      8  N   UNL A   1      33.526  25.254  25.507  1.00  0.00    -0.149 N 
ATOM      9  N   UNL A   1      33.430  24.996  24.182  1.00  0.00    -0.135 NA
ATOM     10  N   UNL A   1      33.912  24.217  26.285  1.00  0.00    -0.141 NA
ATOM     11  C   UNL A   1      33.841  23.726  24.118  1.00  0.00     0.184 A 
ATOM     12  Cl  UNL A   1      33.974  22.953  22.620  1.00  0.00    -0.058 Cl
BRANCH   8  13
ATOM     13  C   UNL A   1      33.108  26.483  26.083  1.00  0.00     0.089 A 
ATOM     14  C   UNL A   1      30.615  25.804  26.126  1.00  0.00     0.047 C 
ATOM     15  C   UNL A   1      31.742  26.790  26.282  1.00  0.00    -0.023 A 
ATOM     16  C   UNL A   1      31.402  28.092  26.690  1.00  0.00     0.006 A 
ATOM     17  C   UNL A   1      32.385  29.048  26.942  1.00  0.00     0.000 A 
ATOM     18  C   UNL A   1      34.095  27.436  26.395  1.00  0.00     0.030 A 
ATOM     19  C   UNL A   1      33.730  28.716  26.811  1.00  0.00     0.002 A 
ENDBRANCH   8  13
ENDBRANCH   4   7
ENDBRANCH   2   3
ENDBRANCH   1   2
BRANCH   1  20
ATOM     20  C   UNL A   1      38.554  23.008  26.077  1.00  0.00     0.118 C 
BRANCH  20  21
ATOM     21  N   UNL A   1      39.967  23.014  26.458  1.00  0.00    -0.352 N 
ATOM     22  C   UNL A   1      40.733  24.071  26.925  1.00  0.00     0.251 C 
ATOM     23  H   UNL A   1      40.437  22.152  26.372  1.00  0.00     0.163 HD
ATOM     24  O   UNL A   1      41.913  23.929  27.197  1.00  0.00    -0.269 OA
BRANCH  22  25
ATOM     25  C   UNL A   1      40.050  25.354  27.206  1.00  0.00     0.039 A 
ATOM     26  C   UNL A   1      40.403  26.464  26.433  1.00  0.00     0.014 A 
ATOM     27  C   UNL A   1      39.305  25.501  28.374  1.00  0.00     0.014 A 
ATOM     28  C   UNL A   1      40.249  27.736  26.975  1.00  0.00     0.010 A 
ATOM     29  C   UNL A   1      39.231  26.754  28.948  1.00  0.00     0.010 A 
ATOM     30  C   UNL A   1      39.792  27.855  28.286  1.00  0.00    -0.014 A 
BRANCH  30  31
ATOM     31  C   UNL A   1      40.031  29.036  29.109  1.00  0.00     0.031 A 
ATOM     32  C   UNL A   1      39.034  30.121  29.184  1.00  0.00     0.074 A 
ATOM     33  C   UNL A   1      41.135  29.072  29.892  1.00  0.00     0.049 A 
ATOM     34  N   UNL A   1      39.250  31.253  29.764  1.00  0.00    -0.248 NA
ATOM     35  C   UNL A   1      37.729  30.053  28.533  1.00  0.00     0.031 C 
ATOM     36  C   UNL A   1      41.412  29.972  31.011  1.00  0.00     0.029 A 
ATOM     37  N   UNL A   1      42.366  28.429  29.659  1.00  0.00    -0.354 N 
ATOM     38  C   UNL A   1      38.065  31.941  29.802  1.00  0.00     0.074 A 
ATOM     39  C   UNL A   1      37.189  31.214  28.920  1.00  0.00     0.031 C 
ATOM     40  C   UNL A   1      42.740  30.082  31.158  1.00  0.00     0.029 A 
ATOM     41  C   UNL A   1      43.351  29.373  30.049  1.00  0.00     0.049 A 
ATOM     42  H   UNL A   1      42.512  27.523  29.302  1.00  0.00     0.167 HD
ATOM     43  C   UNL A   1      37.953  32.987  30.667  1.00  0.00     0.037 A 
ATOM     44  C   UNL A   1      44.186  29.932  29.125  1.00  0.00     0.037 A 
ATOM     45  C   UNL A   1      39.275  33.451  31.095  1.00  0.00     0.049 A 
ATOM     46  C   UNL A   1      44.066  31.437  28.985  1.00  0.00     0.074 A 
ATOM     47  C   UNL A   1      40.027  33.394  32.256  1.00  0.00     0.029 A 
ATOM     48  N   UNL A   1      40.134  33.910  30.108  1.00  0.00    -0.354 N 
ATOM     49  N   UNL A   1      43.196  32.169  29.624  1.00  0.00    -0.248 NA
ATOM     50  C   UNL A   1      44.860  32.220  28.036  1.00  0.00     0.031 C 
ATOM     51  C   UNL A   1      41.370  33.768  31.927  1.00  0.00     0.029 A 
ATOM     52  C   UNL A   1      41.419  34.076  30.579  1.00  0.00     0.049 A 
ATOM     53  H   UNL A   1      39.859  34.095  29.181  1.00  0.00     0.167 HD
ATOM     54  C   UNL A   1      43.277  33.461  29.181  1.00  0.00     0.074 A 
ATOM     55  C   UNL A   1      44.328  33.446  28.182  1.00  0.00     0.031 C 
ATOM     56  C   UNL A   1      42.456  34.452  29.633  1.00  0.00     0.037 A 
BRANCH  43  57
ATOM     57  C   UNL A   1      36.653  33.543  31.212  1.00  0.00     0.064 A 
ATOM     58  C   UNL A   1      36.310  33.343  32.568  1.00  0.00     0.173 A 
ATOM     59  C   UNL A   1      35.644  34.163  30.442  1.00  0.00     0.173 A 
ATOM     60  F   UNL A   1      37.155  32.749  33.421  1.00  0.00    -0.203 F 
ATOM     61  C   UNL A   1      35.068  33.723  33.096  1.00  0.00     0.198 A 
ATOM     62  C   UNL A   1      34.427  34.589  30.982  1.00  0.00     0.198 A 
ATOM     63  F   UNL A   1      35.752  34.333  29.122  1.00  0.00    -0.203 F 
ATOM     64  F   UNL A   1      34.778  33.453  34.377  1.00  0.00    -0.200 F 
ATOM     65  C   UNL A   1      34.131  34.357  32.306  1.00  0.00     0.200 A 
ATOM     66  F   UNL A   1      33.531  35.197  30.190  1.00  0.00    -0.200 F 
ATOM     67  F   UNL A   1      32.945  34.720  32.807  1.00  0.00    -0.200 F 
ENDBRANCH  43  57
BRANCH  44  68
ATOM     68  C   UNL A   1      44.546  28.988  28.034  1.00  0.00     0.064 A 
ATOM     69  C   UNL A   1      45.402  27.910  28.343  1.00  0.00     0.173 A 
ATOM     70  C   UNL A   1      43.803  28.904  26.852  1.00  0.00     0.173 A 
ATOM     71  F   UNL A   1      46.137  27.937  29.466  1.00  0.00    -0.203 F 
ATOM     72  C   UNL A   1      45.410  26.749  27.575  1.00  0.00     0.198 A 
ATOM     73  C   UNL A   1      43.833  27.747  26.073  1.00  0.00     0.198 A 
ATOM     74  F   UNL A   1      42.954  29.885  26.513  1.00  0.00    -0.203 F 
ATOM     75  F   UNL A   1      46.134  25.691  27.971  1.00  0.00    -0.200 F 
ATOM     76  C   UNL A   1      44.604  26.659  26.454  1.00  0.00     0.200 A 
ATOM     77  F   UNL A   1      43.030  27.647  25.003  1.00  0.00    -0.200 F 
ATOM     78  F   UNL A   1      44.533  25.509  25.769  1.00  0.00    -0.200 F 
ENDBRANCH  44  68
BRANCH  56  79
ATOM     79  C   UNL A   1      42.574  35.875  29.177  1.00  0.00     0.064 A 
ATOM     80  C   UNL A   1      41.963  36.332  27.999  1.00  0.00     0.173 A 
ATOM     81  C   UNL A   1      43.403  36.794  29.850  1.00  0.00     0.173 A 
ATOM     82  F   UNL A   1      41.191  35.513  27.268  1.00  0.00    -0.203 F 
ATOM     83  C   UNL A   1      42.143  37.637  27.541  1.00  0.00     0.198 A 
ATOM     84  C   UNL A   1      43.621  38.082  29.366  1.00  0.00     0.198 A 
ATOM     85  F   UNL A   1      44.000  36.474  31.009  1.00  0.00    -0.203 F 
ATOM     86  F   UNL A   1      41.504  38.050  26.438  1.00  0.00    -0.200 F 
ATOM     87  C   UNL A   1      42.982  38.508  28.217  1.00  0.00     0.200 A 
ATOM     88  F   UNL A   1      44.444  38.911  30.023  1.00  0.00    -0.200 F 
ATOM     89  F   UNL A   1      43.170  39.755  27.764  1.00  0.00    -0.200 F 
ENDBRANCH  56  79
ENDBRANCH  30  31
ENDBRANCH  22  25
ENDBRANCH  20  21
ENDBRANCH   1  20
TORSDOF 11
ENDMDL
MODEL 3
REMARK VINA RESULT:     -13.6      1.194      1.757
REMARK SMILES Cc1ccccc1-n1nc(Cl)c(C(=O)NCCCNC(=O)c2ccc(-c3c4nc(c(-c5c(F)c(F)c(F)c(F)c5F)c5ccc([nH]5)c(-c5c(F)c(F)c(F)c(F)c5F)c5nc(c(-c6c(F)c(F)c(F)c(F)c6F)c6ccc3[nH]6)C=C5)C=C4)cc2)n1
REMARK SMILES IDX 17 1 16 2 15 3 13 4 14 5 12 7 8 8 9 9 85 10 10 11 11 12 7 13
REMARK SMILES IDX 1 14 2 15 3 16 4 17 6 18 5 19 18 20 19 21 20 22 21 24 22 25
REMARK SMILES IDX 23 26 84 27 24 28 83 29 25 30 26 31 27 32 77 33 28 34 82 35
REMARK SMILES IDX 76 36 78 37 29 38 81 39 75 40 74 41 30 43 62 44 42 45 61 46
REMARK SMILES IDX 43 47 46 48 60 49 79 50 44 51 45 52 59 54 80 55 47 56 31 57
REMARK SMILES IDX 32 58 40 59 33 60 34 61 38 62 41 63 35 64 36 65 39 66 37 67
REMARK SMILES IDX 63 68 64 69 72 70 65 71 66 72 70 73 73 74 67 75 68 76 71 77
REMARK SMILES IDX 69 78 48 79 49 80 57 81 50 82 51 83 55 84 58 85 52 86 53 87
REMARK SMILES IDX 56 88 54 89
REMARK H PARENT 15 6 19 23 78 42 46 53
REMARK Flexibility Score: inf
ROOT
ATOM      1  C   UNL A   1      33.218  29.756  27.677  1.00  0.00     0.042 C 
ENDROOT
BRANCH   1   2
ATOM      2  C   UNL A   1      33.358  28.411  26.959  1.00  0.00     0.118 C 
BRANCH   2   3
ATOM      3  N   UNL A   1      32.135  27.613  26.993  1.00  0.00    -0.350 N 
ATOM      4  C   UNL A   1      31.862  26.374  26.439  1.00  0.00     0.275 C 
ATOM      5  O   UNL A   1      30.744  25.902  26.652  1.00  0.00    -0.267 OA
ATOM      6  H   UNL A   1      31.388  28.021  27.488  1.00  0.00     0.163 HD
BRANCH   4   7
ATOM      7  C   UNL A   1      32.848  25.687  25.603  1.00  0.00     0.189 A 
ATOM      8  N   UNL A   1      34.403  24.394  24.971  1.00  0.00    -0.149 N 
ATOM      9  N   UNL A   1      34.271  25.220  23.907  1.00  0.00    -0.135 NA
ATOM     10  N   UNL A   1      33.567  24.626  26.009  1.00  0.00    -0.141 NA
ATOM     11  C   UNL A   1      33.241  25.986  24.280  1.00  0.00     0.184 A 
ATOM     12  Cl  UNL A   1      32.629  27.157  23.224  1.00  0.00    -0.058 Cl
BRANCH   8  13
ATOM     13  C   UNL A   1      35.447  23.436  25.075  1.00  0.00     0.089 A 
ATOM     14  C   UNL A   1      33.943  21.472  24.330  1.00  0.00     0.047 C 
ATOM     15  C   UNL A   1      35.219  22.055  24.876  1.00  0.00    -0.023 A 
ATOM     16  C   UNL A   1      36.259  21.156  25.170  1.00  0.00     0.006 A 
ATOM     17  C   UNL A   1      37.505  21.612  25.601  1.00  0.00     0.000 A 
ATOM     18  C   UNL A   1      36.724  23.890  25.453  1.00  0.00     0.030 A 
ATOM     19  C   UNL A   1      37.742  22.977  25.725  1.00  0.00     0.002 A 
ENDBRANCH   8  13
ENDBRANCH   4   7
ENDBRANCH   2   3
ENDBRANCH   1   2
BRANCH   1  20
ATOM     20  C   UNL A   1      34.260  30.781  27.241  1.00  0.00     0.118 C 
BRANCH  20  21
ATOM     21  N   UNL A   1      34.790  31.599  28.334  1.00  0.00    -0.352 N 
ATOM     22  C   UNL A   1      35.823  31.307  29.212  1.00  0.00     0.251 C 
ATOM     23  H   UNL A   1      34.355  32.474  28.461  1.00  0.00     0.163 HD
ATOM     24  O   UNL A   1      36.152  32.088  30.086  1.00  0.00    -0.269 OA
BRANCH  22  25
ATOM     25  C   UNL A   1      36.602  30.070  28.981  1.00  0.00     0.039 A 
ATOM     26  C   UNL A   1      36.817  29.221  30.072  1.00  0.00     0.014 A 
ATOM     27  C   UNL A   1      37.322  29.915  27.799  1.00  0.00     0.014 A 
ATOM     28  C   UNL A   1      37.941  28.403  30.074  1.00  0.00     0.010 A 
ATOM     29  C   UNL A   1      38.483  29.169  27.835  1.00  0.00     0.010 A 
ATOM     30  C   UNL A   1      38.837  28.492  29.010  1.00  0.00    -0.014 A 
BRANCH  30  31
ATOM     31  C   UNL A   1      40.232  28.073  29.106  1.00  0.00     0.031 A 
ATOM     32  C   UNL A   1      40.648  26.722  28.682  1.00  0.00     0.074 A 
ATOM     33  C   UNL A   1      41.160  28.982  29.487  1.00  0.00     0.049 A 
ATOM     34  N   UNL A   1      41.827  26.240  28.884  1.00  0.00    -0.248 NA
ATOM     35  C   UNL A   1      39.737  25.763  28.064  1.00  0.00     0.031 C 
ATOM     36  C   UNL A   1      42.613  28.893  29.345  1.00  0.00     0.029 A 
ATOM     37  N   UNL A   1      40.967  30.098  30.324  1.00  0.00    -0.354 N 
ATOM     38  C   UNL A   1      41.918  25.050  28.209  1.00  0.00     0.074 A 
ATOM     39  C   UNL A   1      40.565  24.740  27.825  1.00  0.00     0.031 C 
ATOM     40  C   UNL A   1      43.186  29.658  30.286  1.00  0.00     0.029 A 
ATOM     41  C   UNL A   1      42.122  30.142  31.145  1.00  0.00     0.049 A 
ATOM     42  H   UNL A   1      40.197  30.712  30.336  1.00  0.00     0.167 HD
ATOM     43  C   UNL A   1      43.156  24.535  27.974  1.00  0.00     0.037 A 
ATOM     44  C   UNL A   1      42.033  29.912  32.488  1.00  0.00     0.037 A 
ATOM     45  C   UNL A   1      44.149  25.140  28.865  1.00  0.00     0.049 A 
ATOM     46  C   UNL A   1      42.808  28.707  32.982  1.00  0.00     0.074 A 
ATOM     47  C   UNL A   1      45.193  26.038  28.735  1.00  0.00     0.029 A 
ATOM     48  N   UNL A   1      43.960  24.974  30.229  1.00  0.00    -0.354 N 
ATOM     49  N   UNL A   1      43.463  27.885  32.208  1.00  0.00    -0.248 NA
ATOM     50  C   UNL A   1      42.824  28.281  34.382  1.00  0.00     0.031 C 
ATOM     51  C   UNL A   1      45.581  26.455  30.049  1.00  0.00     0.029 A 
ATOM     52  C   UNL A   1      44.792  25.787  30.968  1.00  0.00     0.049 A 
ATOM     53  H   UNL A   1      43.308  24.350  30.622  1.00  0.00     0.167 HD
ATOM     54  C   UNL A   1      43.946  26.846  32.955  1.00  0.00     0.074 A 
ATOM     55  C   UNL A   1      43.517  27.132  34.310  1.00  0.00     0.031 C 
ATOM     56  C   UNL A   1      44.635  25.801  32.412  1.00  0.00     0.037 A 
BRANCH  43  57
ATOM     57  C   UNL A   1      43.506  23.550  26.876  1.00  0.00     0.064 A 
ATOM     58  C   UNL A   1      43.096  22.202  26.976  1.00  0.00     0.173 A 
ATOM     59  C   UNL A   1      44.343  23.823  25.771  1.00  0.00     0.173 A 
ATOM     60  F   UNL A   1      42.316  21.784  27.983  1.00  0.00    -0.203 F 
ATOM     61  C   UNL A   1      43.496  21.222  26.059  1.00  0.00     0.198 A 
ATOM     62  C   UNL A   1      44.697  22.855  24.827  1.00  0.00     0.198 A 
ATOM     63  F   UNL A   1      44.911  25.016  25.579  1.00  0.00    -0.203 F 
ATOM     64  F   UNL A   1      43.123  19.947  26.241  1.00  0.00    -0.200 F 
ATOM     65  C   UNL A   1      44.287  21.550  24.977  1.00  0.00     0.200 A 
ATOM     66  F   UNL A   1      45.473  23.200  23.788  1.00  0.00    -0.200 F 
ATOM     67  F   UNL A   1      44.671  20.616  24.100  1.00  0.00    -0.200 F 
ENDBRANCH  43  57
BRANCH  44  68
ATOM     68  C   UNL A   1      40.764  30.423  33.073  1.00  0.00     0.064 A 
ATOM     69  C   UNL A   1      40.596  31.819  33.180  1.00  0.00     0.173 A 
ATOM     70  C   UNL A   1      39.620  29.626  33.167  1.00  0.00     0.173 A 
ATOM     71  F   UNL A   1      41.663  32.632  33.096  1.00  0.00    -0.203 F 
ATOM     72  C   UNL A   1      39.331  32.394  33.244  1.00  0.00     0.198 A 
ATOM     73  C   UNL A   1      38.353  30.206  33.255  1.00  0.00     0.198 A 
ATOM     74  F   UNL A   1      39.708  28.293  33.050  1.00  0.00    -0.203 F 
ATOM     75  F   UNL A   1      39.200  33.728  33.210  1.00  0.00    -0.200 F 
ATOM     76  C   UNL A   1      38.208  31.586  33.255  1.00  0.00     0.200 A 
ATOM     77  F   UNL A   1      37.262  29.426  33.235  1.00  0.00    -0.200 F 
ATOM     78  F   UNL A   1      36.985  32.135  33.215  1.00  0.00    -0.200 F 
ENDBRANCH  44  68
BRANCH  56  79
ATOM     79  C   UNL A   1      45.199  24.685  33.239  1.00  0.00     0.064 A 
ATOM     80  C   UNL A   1      46.537  24.677  33.663  1.00  0.00     0.173 A 
ATOM     81  C   UNL A   1      44.442  23.533  33.532  1.00  0.00     0.173 A 
ATOM     82  F   UNL A   1      47.346  25.712  33.391  1.00  0.00    -0.203 F 
ATOM     83  C   UNL A   1      47.075  23.598  34.365  1.00  0.00     0.198 A 
ATOM     84  C   UNL A   1      44.994  22.436  34.190  1.00  0.00     0.198 A 
ATOM     85  F   UNL A   1      43.142  23.455  33.210  1.00  0.00    -0.203 F 
ATOM     86  F   UNL A   1      48.344  23.649  34.794  1.00  0.00    -0.200 F 
ATOM     87  C   UNL A   1      46.308  22.473  34.617  1.00  0.00     0.200 A 
ATOM     88  F   UNL A   1      44.244  21.349  34.416  1.00  0.00    -0.200 F 
ATOM     89  F   UNL A   1      46.832  21.429  35.272  1.00  0.00    -0.200 F 
ENDBRANCH  56  79
ENDBRANCH  30  31
ENDBRANCH  22  25
ENDBRANCH  20  21
ENDBRANCH   1  20
TORSDOF 11
ENDMDL
