MODEL 1
REMARK VINA RESULT:     -12.6      0.000      0.000
REMARK SMILES CC(C)(CCc1ccc(Cl)c2ccccc12)C(=O)NCCCNC(=O)c1ccc(-c2c3nc(c(-c4c(F)c(F)c(F)c(F)c4F)c4ccc([nH]4)c(-c4c(F)c(F)c(F)c(F)c4F)c4nc(c(-c5c(F)c(F)c(F)c(F)c5F)c5ccc2[nH]5)C=C4)C=C3)cc1
REMARK SMILES IDX 20 1 19 2 17 3 18 4 2 6 1 7 3 8 4 9 5 10 6 11 7 12 16 13
REMARK SMILES IDX 8 14 11 15 15 16 9 17 12 18 14 19 10 20 13 21 21 22 22 23
REMARK SMILES IDX 23 24 24 25 25 27 26 28 27 29 88 30 28 31 87 32 29 33 30 34
REMARK SMILES IDX 31 35 81 36 32 37 86 38 80 39 82 40 33 41 85 42 79 43 78 44
REMARK SMILES IDX 34 46 66 47 46 48 65 49 47 50 50 51 64 52 83 53 48 54 49 55
REMARK SMILES IDX 63 57 84 58 51 59 35 60 36 61 44 62 37 63 38 64 42 65 45 66
REMARK SMILES IDX 39 67 40 68 43 69 41 70 67 71 68 72 76 73 69 74 70 75 74 76
REMARK SMILES IDX 77 77 71 78 72 79 75 80 73 81 52 82 53 83 61 84 54 85 55 86
REMARK SMILES IDX 59 87 62 88 56 89 57 90 60 91 58 92
REMARK H PARENT 19 5 23 26 82 45 50 56
REMARK Flexibility Score: inf
ROOT
ATOM      1  C   UNL A   1      31.397  30.574  26.048  1.00  0.00     0.117 C 
ENDROOT
BRANCH   1   2
ATOM      2  N   UNL A   1      32.314  30.107  25.005  1.00  0.00    -0.356 N 
ATOM      3  C   UNL A   1      33.070  28.996  24.736  1.00  0.00     0.225 C 
ATOM      4  O   UNL A   1      33.556  28.967  23.598  1.00  0.00    -0.275 OA
ATOM      5  H   UNL A   1      32.416  30.784  24.297  1.00  0.00     0.163 HD
BRANCH   3   6
ATOM      6  C   UNL A   1      33.345  27.839  25.722  1.00  0.00     0.044 C 
ATOM      7  C   UNL A   1      32.032  27.397  26.414  1.00  0.00     0.021 C 
ATOM      8  C   UNL A   1      34.219  28.444  26.847  1.00  0.00     0.021 C 
BRANCH   6   9
ATOM      9  C   UNL A   1      34.035  26.595  25.091  1.00  0.00     0.021 C 
BRANCH   9  10
ATOM     10  C   UNL A   1      33.938  25.155  25.687  1.00  0.00     0.037 C 
BRANCH  10  11
ATOM     11  C   UNL A   1      34.696  23.845  25.407  1.00  0.00    -0.040 A 
ATOM     12  C   UNL A   1      36.099  23.993  25.466  1.00  0.00     0.006 A 
ATOM     13  C   UNL A   1      34.213  22.534  25.137  1.00  0.00    -0.014 A 
ATOM     14  C   UNL A   1      36.970  22.919  25.290  1.00  0.00     0.021 A 
ATOM     15  C   UNL A   1      35.081  21.411  25.012  1.00  0.00     0.001 A 
ATOM     16  C   UNL A   1      32.869  22.271  24.944  1.00  0.00     0.009 A 
ATOM     17  C   UNL A   1      36.468  21.639  25.079  1.00  0.00     0.048 A 
ATOM     18  C   UNL A   1      34.526  20.115  24.810  1.00  0.00     0.010 A 
ATOM     19  C   UNL A   1      32.321  20.996  24.766  1.00  0.00     0.001 A 
ATOM     20  Cl  UNL A   1      37.628  20.368  24.870  1.00  0.00    -0.084 Cl
ATOM     21  C   UNL A   1      33.155  19.906  24.711  1.00  0.00     0.001 A 
ENDBRANCH  10  11
ENDBRANCH   9  10
ENDBRANCH   6   9
ENDBRANCH   3   6
ENDBRANCH   1   2
BRANCH   1  22
ATOM     22  C   UNL A   1      31.333  32.050  26.506  1.00  0.00     0.042 C 
BRANCH  22  23
ATOM     23  C   UNL A   1      32.498  32.813  27.153  1.00  0.00     0.118 C 
BRANCH  23  24
ATOM     24  N   UNL A   1      32.227  34.147  27.633  1.00  0.00    -0.352 N 
ATOM     25  C   UNL A   1      32.966  34.889  28.526  1.00  0.00     0.251 C 
ATOM     26  H   UNL A   1      31.415  34.578  27.278  1.00  0.00     0.163 HD
ATOM     27  O   UNL A   1      32.599  36.033  28.816  1.00  0.00    -0.269 OA
BRANCH  25  28
ATOM     28  C   UNL A   1      34.165  34.331  29.202  1.00  0.00     0.039 A 
ATOM     29  C   UNL A   1      33.969  33.545  30.343  1.00  0.00     0.014 A 
ATOM     30  C   UNL A   1      35.470  34.613  28.780  1.00  0.00     0.014 A 
ATOM     31  C   UNL A   1      35.063  32.998  31.026  1.00  0.00     0.010 A 
ATOM     32  C   UNL A   1      36.566  34.043  29.453  1.00  0.00     0.010 A 
ATOM     33  C   UNL A   1      36.376  33.218  30.576  1.00  0.00    -0.014 A 
BRANCH  33  34
ATOM     34  C   UNL A   1      37.523  32.524  31.239  1.00  0.00     0.031 A 
ATOM     35  C   UNL A   1      38.218  31.351  30.601  1.00  0.00     0.074 A 
ATOM     36  C   UNL A   1      37.938  32.948  32.451  1.00  0.00     0.049 A 
ATOM     37  N   UNL A   1      39.231  30.646  31.046  1.00  0.00    -0.248 NA
ATOM     38  C   UNL A   1      37.705  30.903  29.300  1.00  0.00     0.031 C 
ATOM     39  C   UNL A   1      37.341  34.053  33.204  1.00  0.00     0.029 A 
ATOM     40  N   UNL A   1      38.950  32.500  33.269  1.00  0.00    -0.354 N 
ATOM     41  C   UNL A   1      39.473  29.669  30.088  1.00  0.00     0.074 A 
ATOM     42  C   UNL A   1      38.479  29.854  29.049  1.00  0.00     0.031 C 
ATOM     43  C   UNL A   1      37.999  34.201  34.364  1.00  0.00     0.029 A 
ATOM     44  C   UNL A   1      39.043  33.183  34.459  1.00  0.00     0.049 A 
ATOM     45  H   UNL A   1      39.551  31.760  33.025  1.00  0.00     0.167 HD
ATOM     46  C   UNL A   1      40.438  28.715  30.069  1.00  0.00     0.037 A 
ATOM     47  C   UNL A   1      39.862  33.008  35.514  1.00  0.00     0.037 A 
ATOM     48  C   UNL A   1      41.439  28.535  31.092  1.00  0.00     0.049 A 
ATOM     49  C   UNL A   1      40.914  31.931  35.473  1.00  0.00     0.074 A 
ATOM     50  C   UNL A   1      42.497  27.640  31.115  1.00  0.00     0.029 A 
ATOM     51  N   UNL A   1      41.500  29.248  32.280  1.00  0.00    -0.354 N 
ATOM     52  N   UNL A   1      41.184  31.074  34.519  1.00  0.00    -0.248 NA
ATOM     53  C   UNL A   1      41.782  31.802  36.653  1.00  0.00     0.031 C 
ATOM     54  C   UNL A   1      43.159  27.769  32.340  1.00  0.00     0.029 A 
ATOM     55  C   UNL A   1      42.555  28.788  33.056  1.00  0.00     0.049 A 
ATOM     56  H   UNL A   1      40.885  29.973  32.534  1.00  0.00     0.167 HD
ATOM     57  C   UNL A   1      42.264  30.327  34.970  1.00  0.00     0.074 A 
ATOM     58  C   UNL A   1      42.615  30.843  36.275  1.00  0.00     0.031 C 
ATOM     59  C   UNL A   1      42.906  29.305  34.354  1.00  0.00     0.037 A 
BRANCH  46  60
ATOM     60  C   UNL A   1      40.467  27.766  28.903  1.00  0.00     0.064 A 
ATOM     61  C   UNL A   1      39.706  26.587  28.891  1.00  0.00     0.173 A 
ATOM     62  C   UNL A   1      41.202  28.081  27.748  1.00  0.00     0.173 A 
ATOM     63  F   UNL A   1      38.984  26.239  29.967  1.00  0.00    -0.203 F 
ATOM     64  C   UNL A   1      39.699  25.749  27.778  1.00  0.00     0.198 A 
ATOM     65  C   UNL A   1      41.168  27.256  26.627  1.00  0.00     0.198 A 
ATOM     66  F   UNL A   1      41.933  29.204  27.699  1.00  0.00    -0.203 F 
ATOM     67  F   UNL A   1      38.991  24.611  27.804  1.00  0.00    -0.200 F 
ATOM     68  C   UNL A   1      40.423  26.087  26.645  1.00  0.00     0.200 A 
ATOM     69  F   UNL A   1      41.853  27.596  25.526  1.00  0.00    -0.200 F 
ATOM     70  F   UNL A   1      40.402  25.288  25.570  1.00  0.00    -0.200 F 
ENDBRANCH  46  60
BRANCH  47  71
ATOM     71  C   UNL A   1      39.722  33.876  36.715  1.00  0.00     0.064 A 
ATOM     72  C   UNL A   1      38.928  33.487  37.803  1.00  0.00     0.173 A 
ATOM     73  C   UNL A   1      40.359  35.123  36.787  1.00  0.00     0.173 A 
ATOM     74  F   UNL A   1      38.277  32.314  37.773  1.00  0.00    -0.203 F 
ATOM     75  C   UNL A   1      38.757  34.323  38.905  1.00  0.00     0.198 A 
ATOM     76  C   UNL A   1      40.215  35.943  37.904  1.00  0.00     0.198 A 
ATOM     77  F   UNL A   1      41.132  35.542  35.774  1.00  0.00    -0.203 F 
ATOM     78  F   UNL A   1      37.948  33.950  39.907  1.00  0.00    -0.200 F 
ATOM     79  C   UNL A   1      39.405  35.548  38.958  1.00  0.00     0.200 A 
ATOM     80  F   UNL A   1      40.856  37.119  37.956  1.00  0.00    -0.200 F 
ATOM     81  F   UNL A   1      39.243  36.349  40.018  1.00  0.00    -0.200 F 
ENDBRANCH  47  71
BRANCH  59  82
ATOM     82  C   UNL A   1      44.079  28.691  35.067  1.00  0.00     0.064 A 
ATOM     83  C   UNL A   1      43.928  27.601  35.938  1.00  0.00     0.173 A 
ATOM     84  C   UNL A   1      45.378  29.179  34.851  1.00  0.00     0.173 A 
ATOM     85  F   UNL A   1      42.708  27.106  36.194  1.00  0.00    -0.203 F 
ATOM     86  C   UNL A   1      45.028  27.042  36.585  1.00  0.00     0.198 A 
ATOM     87  C   UNL A   1      46.478  28.596  35.474  1.00  0.00     0.198 A 
ATOM     88  F   UNL A   1      45.582  30.216  34.024  1.00  0.00    -0.203 F 
ATOM     89  F   UNL A   1      44.852  26.035  37.452  1.00  0.00    -0.200 F 
ATOM     90  C   UNL A   1      46.302  27.534  36.346  1.00  0.00     0.200 A 
ATOM     91  F   UNL A   1      47.710  29.066  35.230  1.00  0.00    -0.200 F 
ATOM     92  F   UNL A   1      47.359  26.990  36.964  1.00  0.00    -0.200 F 
ENDBRANCH  59  82
ENDBRANCH  33  34
ENDBRANCH  25  28
ENDBRANCH  23  24
ENDBRANCH  22  23
ENDBRANCH   1  22
TORSDOF 13
ENDMDL
MODEL 2
REMARK VINA RESULT:     -12.5      0.998      2.299
REMARK SMILES CC(C)(CCc1ccc(Cl)c2ccccc12)C(=O)NCCCNC(=O)c1ccc(-c2c3nc(c(-c4c(F)c(F)c(F)c(F)c4F)c4ccc([nH]4)c(-c4c(F)c(F)c(F)c(F)c4F)c4nc(c(-c5c(F)c(F)c(F)c(F)c5F)c5ccc2[nH]5)C=C4)C=C3)cc1
REMARK SMILES IDX 20 1 19 2 17 3 18 4 2 6 1 7 3 8 4 9 5 10 6 11 7 12 16 13
REMARK SMILES IDX 8 14 11 15 15 16 9 17 12 18 14 19 10 20 13 21 21 22 22 23
REMARK SMILES IDX 23 24 24 25 25 27 26 28 27 29 88 30 28 31 87 32 29 33 30 34
REMARK SMILES IDX 31 35 81 36 32 37 86 38 80 39 82 40 33 41 85 42 79 43 78 44
REMARK SMILES IDX 34 46 66 47 46 48 65 49 47 50 50 51 64 52 83 53 48 54 49 55
REMARK SMILES IDX 63 57 84 58 51 59 35 60 36 61 44 62 37 63 38 64 42 65 45 66
REMARK SMILES IDX 39 67 40 68 43 69 41 70 67 71 68 72 76 73 69 74 70 75 74 76
REMARK SMILES IDX 77 77 71 78 72 79 75 80 73 81 52 82 53 83 61 84 54 85 55 86
REMARK SMILES IDX 59 87 62 88 56 89 57 90 60 91 58 92
REMARK H PARENT 19 5 23 26 82 45 50 56
REMARK Flexibility Score: inf
ROOT
ATOM      1  C   UNL A   1      31.450  30.652  26.017  1.00  0.00     0.117 C 
ENDROOT
BRANCH   1   2
ATOM      2  N   UNL A   1      31.058  30.249  24.665  1.00  0.00    -0.356 N 
ATOM      3  C   UNL A   1      31.024  29.103  23.912  1.00  0.00     0.225 C 
ATOM      4  O   UNL A   1      30.411  29.208  22.842  1.00  0.00    -0.275 OA
ATOM      5  H   UNL A   1      30.724  31.019  24.150  1.00  0.00     0.163 HD
BRANCH   3   6
ATOM      6  C   UNL A   1      31.680  27.758  24.298  1.00  0.00     0.044 C 
ATOM      7  C   UNL A   1      33.216  27.919  24.406  1.00  0.00     0.021 C 
ATOM      8  C   UNL A   1      31.449  26.816  23.092  1.00  0.00     0.021 C 
BRANCH   6   9
ATOM      9  C   UNL A   1      31.138  27.122  25.611  1.00  0.00     0.021 C 
BRANCH   9  10
ATOM     10  C   UNL A   1      31.852  25.957  26.368  1.00  0.00     0.037 C 
BRANCH  10  11
ATOM     11  C   UNL A   1      32.175  24.499  25.996  1.00  0.00    -0.040 A 
ATOM     12  C   UNL A   1      31.064  23.638  26.116  1.00  0.00     0.006 A 
ATOM     13  C   UNL A   1      33.382  23.908  25.532  1.00  0.00    -0.014 A 
ATOM     14  C   UNL A   1      31.129  22.286  25.782  1.00  0.00     0.021 A 
ATOM     15  C   UNL A   1      33.459  22.543  25.129  1.00  0.00     0.001 A 
ATOM     16  C   UNL A   1      34.572  24.612  25.475  1.00  0.00     0.009 A 
ATOM     17  C   UNL A   1      32.309  21.746  25.281  1.00  0.00     0.048 A 
ATOM     18  C   UNL A   1      34.683  22.032  24.609  1.00  0.00     0.010 A 
ATOM     19  C   UNL A   1      35.769  24.117  24.945  1.00  0.00     0.001 A 
ATOM     20  Cl  UNL A   1      32.295  20.056  24.895  1.00  0.00    -0.084 Cl
ATOM     21  C   UNL A   1      35.823  22.820  24.497  1.00  0.00     0.001 A 
ENDBRANCH  10  11
ENDBRANCH   9  10
ENDBRANCH   6   9
ENDBRANCH   3   6
ENDBRANCH   1   2
BRANCH   1  22
ATOM     22  C   UNL A   1      31.361  32.115  26.512  1.00  0.00     0.042 C 
BRANCH  22  23
ATOM     23  C   UNL A   1      32.529  32.899  27.128  1.00  0.00     0.118 C 
BRANCH  23  24
ATOM     24  N   UNL A   1      32.246  34.228  27.616  1.00  0.00    -0.352 N 
ATOM     25  C   UNL A   1      32.971  34.966  28.524  1.00  0.00     0.251 C 
ATOM     26  H   UNL A   1      31.437  34.659  27.255  1.00  0.00     0.163 HD
ATOM     27  O   UNL A   1      32.596  36.106  28.819  1.00  0.00    -0.269 OA
BRANCH  25  28
ATOM     28  C   UNL A   1      34.164  34.407  29.210  1.00  0.00     0.039 A 
ATOM     29  C   UNL A   1      33.967  33.718  30.412  1.00  0.00     0.014 A 
ATOM     30  C   UNL A   1      35.467  34.599  28.736  1.00  0.00     0.014 A 
ATOM     31  C   UNL A   1      35.056  33.175  31.107  1.00  0.00     0.010 A 
ATOM     32  C   UNL A   1      36.557  34.032  29.423  1.00  0.00     0.010 A 
ATOM     33  C   UNL A   1      36.363  33.302  30.609  1.00  0.00    -0.014 A 
BRANCH  33  34
ATOM     34  C   UNL A   1      37.498  32.610  31.295  1.00  0.00     0.031 A 
ATOM     35  C   UNL A   1      38.216  31.446  30.664  1.00  0.00     0.074 A 
ATOM     36  C   UNL A   1      37.881  33.026  32.520  1.00  0.00     0.049 A 
ATOM     37  N   UNL A   1      39.222  30.743  31.128  1.00  0.00    -0.248 NA
ATOM     38  C   UNL A   1      37.736  31.006  29.347  1.00  0.00     0.031 C 
ATOM     39  C   UNL A   1      37.260  34.121  33.266  1.00  0.00     0.029 A 
ATOM     40  N   UNL A   1      38.876  32.577  33.358  1.00  0.00    -0.354 N 
ATOM     41  C   UNL A   1      39.492  29.776  30.167  1.00  0.00     0.074 A 
ATOM     42  C   UNL A   1      38.522  29.964  29.107  1.00  0.00     0.031 C 
ATOM     43  C   UNL A   1      37.889  34.263  34.444  1.00  0.00     0.029 A 
ATOM     44  C   UNL A   1      38.936  33.251  34.555  1.00  0.00     0.049 A 
ATOM     45  H   UNL A   1      39.487  31.842  33.122  1.00  0.00     0.167 HD
ATOM     46  C   UNL A   1      40.463  28.828  30.164  1.00  0.00     0.037 A 
ATOM     47  C   UNL A   1      39.730  33.072  35.629  1.00  0.00     0.037 A 
ATOM     48  C   UNL A   1      41.440  28.645  31.210  1.00  0.00     0.049 A 
ATOM     49  C   UNL A   1      40.789  32.001  35.604  1.00  0.00     0.074 A 
ATOM     50  C   UNL A   1      42.503  27.756  31.251  1.00  0.00     0.029 A 
ATOM     51  N   UNL A   1      41.468  29.348  32.404  1.00  0.00    -0.354 N 
ATOM     52  N   UNL A   1      41.087  31.153  34.650  1.00  0.00    -0.248 NA
ATOM     53  C   UNL A   1      41.630  31.867  36.804  1.00  0.00     0.031 C 
ATOM     54  C   UNL A   1      43.134  27.878  32.492  1.00  0.00     0.029 A 
ATOM     55  C   UNL A   1      42.507  28.887  33.202  1.00  0.00     0.049 A 
ATOM     56  H   UNL A   1      40.843  30.067  32.650  1.00  0.00     0.167 HD
ATOM     57  C   UNL A   1      42.161  30.409  35.120  1.00  0.00     0.074 A 
ATOM     58  C   UNL A   1      42.477  30.916  36.439  1.00  0.00     0.031 C 
ATOM     59  C   UNL A   1      42.824  29.395  34.513  1.00  0.00     0.037 A 
BRANCH  46  60
ATOM     60  C   UNL A   1      40.526  27.888  28.991  1.00  0.00     0.064 A 
ATOM     61  C   UNL A   1      39.763  26.711  28.946  1.00  0.00     0.173 A 
ATOM     62  C   UNL A   1      41.296  28.212  27.863  1.00  0.00     0.173 A 
ATOM     63  F   UNL A   1      39.008  26.356  29.996  1.00  0.00    -0.203 F 
ATOM     64  C   UNL A   1      39.788  25.882  27.826  1.00  0.00     0.198 A 
ATOM     65  C   UNL A   1      41.296  27.396  26.734  1.00  0.00     0.198 A 
ATOM     66  F   UNL A   1      42.031  29.333  27.845  1.00  0.00    -0.203 F 
ATOM     67  F   UNL A   1      39.078  24.746  27.820  1.00  0.00    -0.200 F 
ATOM     68  C   UNL A   1      40.548  26.229  26.719  1.00  0.00     0.200 A 
ATOM     69  F   UNL A   1      42.015  27.744  25.657  1.00  0.00    -0.200 F 
ATOM     70  F   UNL A   1      40.558  25.439  25.637  1.00  0.00    -0.200 F 
ENDBRANCH  46  60
BRANCH  47  71
ATOM     71  C   UNL A   1      39.556  33.928  36.833  1.00  0.00     0.064 A 
ATOM     72  C   UNL A   1      40.171  35.184  36.926  1.00  0.00     0.173 A 
ATOM     73  C   UNL A   1      38.789  33.495  37.925  1.00  0.00     0.173 A 
ATOM     74  F   UNL A   1      40.935  35.633  35.920  1.00  0.00    -0.203 F 
ATOM     75  C   UNL A   1      40.047  35.963  38.076  1.00  0.00     0.198 A 
ATOM     76  C   UNL A   1      38.638  34.289  39.060  1.00  0.00     0.198 A 
ATOM     77  F   UNL A   1      38.177  32.302  37.886  1.00  0.00    -0.203 F 
ATOM     78  F   UNL A   1      40.691  37.135  38.161  1.00  0.00    -0.200 F 
ATOM     79  C   UNL A   1      39.276  35.518  39.139  1.00  0.00     0.200 A 
ATOM     80  F   UNL A   1      37.879  33.861  40.078  1.00  0.00    -0.200 F 
ATOM     81  F   UNL A   1      39.155  36.268  40.242  1.00  0.00    -0.200 F 
ENDBRANCH  47  71
BRANCH  59  82
ATOM     82  C   UNL A   1      43.982  28.783  35.248  1.00  0.00     0.064 A 
ATOM     83  C   UNL A   1      45.293  29.260  35.093  1.00  0.00     0.173 A 
ATOM     84  C   UNL A   1      43.775  27.723  36.146  1.00  0.00     0.173 A 
ATOM     85  F   UNL A   1      45.550  30.259  34.236  1.00  0.00    -0.203 F 
ATOM     86  C   UNL A   1      46.354  28.684  35.788  1.00  0.00     0.198 A 
ATOM     87  C   UNL A   1      44.834  27.171  36.863  1.00  0.00     0.198 A 
ATOM     88  F   UNL A   1      42.542  27.229  36.337  1.00  0.00    -0.203 F 
ATOM     89  F   UNL A   1      47.604  29.123  35.585  1.00  0.00    -0.200 F 
ATOM     90  C   UNL A   1      46.122  27.646  36.678  1.00  0.00     0.200 A 
ATOM     91  F   UNL A   1      44.605  26.176  37.733  1.00  0.00    -0.200 F 
ATOM     92  F   UNL A   1      47.143  27.097  37.351  1.00  0.00    -0.200 F 
ENDBRANCH  59  82
ENDBRANCH  33  34
ENDBRANCH  25  28
ENDBRANCH  23  24
ENDBRANCH  22  23
ENDBRANCH   1  22
TORSDOF 13
ENDMDL
MODEL 3
REMARK VINA RESULT:     -12.5      6.018     11.322
REMARK SMILES CC(C)(CCc1ccc(Cl)c2ccccc12)C(=O)NCCCNC(=O)c1ccc(-c2c3nc(c(-c4c(F)c(F)c(F)c(F)c4F)c4ccc([nH]4)c(-c4c(F)c(F)c(F)c(F)c4F)c4nc(c(-c5c(F)c(F)c(F)c(F)c5F)c5ccc2[nH]5)C=C4)C=C3)cc1
REMARK SMILES IDX 20 1 19 2 17 3 18 4 2 6 1 7 3 8 4 9 5 10 6 11 7 12 16 13
REMARK SMILES IDX 8 14 11 15 15 16 9 17 12 18 14 19 10 20 13 21 21 22 22 23
REMARK SMILES IDX 23 24 24 25 25 27 26 28 27 29 88 30 28 31 87 32 29 33 30 34
REMARK SMILES IDX 31 35 81 36 32 37 86 38 80 39 82 40 33 41 85 42 79 43 78 44
REMARK SMILES IDX 34 46 66 47 46 48 65 49 47 50 50 51 64 52 83 53 48 54 49 55
REMARK SMILES IDX 63 57 84 58 51 59 35 60 36 61 44 62 37 63 38 64 42 65 45 66
REMARK SMILES IDX 39 67 40 68 43 69 41 70 67 71 68 72 76 73 69 74 70 75 74 76
REMARK SMILES IDX 77 77 71 78 72 79 75 80 73 81 52 82 53 83 61 84 54 85 55 86
REMARK SMILES IDX 59 87 62 88 56 89 57 90 60 91 58 92
REMARK H PARENT 19 5 23 26 82 45 50 56
REMARK Flexibility Score: inf
ROOT
ATOM      1  C   UNL A   1      36.910  20.445  24.790  1.00  0.00     0.117 C 
ENDROOT
BRANCH   1   2
ATOM      2  N   UNL A   1      35.528  20.090  25.122  1.00  0.00    -0.356 N 
ATOM      3  C   UNL A   1      34.298  20.696  25.147  1.00  0.00     0.225 C 
ATOM      4  O   UNL A   1      33.347  19.922  25.317  1.00  0.00    -0.275 OA
ATOM      5  H   UNL A   1      35.465  19.151  25.408  1.00  0.00     0.163 HD
BRANCH   3   6
ATOM      6  C   UNL A   1      34.043  22.211  24.991  1.00  0.00     0.044 C 
ATOM      7  C   UNL A   1      34.836  23.005  26.058  1.00  0.00     0.021 C 
ATOM      8  C   UNL A   1      32.551  22.425  25.344  1.00  0.00     0.021 C 
BRANCH   6   9
ATOM      9  C   UNL A   1      34.366  22.785  23.580  1.00  0.00     0.021 C 
BRANCH   9  10
ATOM     10  C   UNL A   1      34.413  24.312  23.256  1.00  0.00     0.037 C 
BRANCH  10  11
ATOM     11  C   UNL A   1      33.340  25.414  23.214  1.00  0.00    -0.040 A 
ATOM     12  C   UNL A   1      32.661  25.479  21.978  1.00  0.00     0.006 A 
ATOM     13  C   UNL A   1      32.917  26.334  24.213  1.00  0.00    -0.014 A 
ATOM     14  C   UNL A   1      31.620  26.377  21.746  1.00  0.00     0.021 A 
ATOM     15  C   UNL A   1      31.817  27.219  24.020  1.00  0.00     0.001 A 
ATOM     16  C   UNL A   1      33.569  26.452  25.428  1.00  0.00     0.009 A 
ATOM     17  C   UNL A   1      31.192  27.228  22.759  1.00  0.00     0.048 A 
ATOM     18  C   UNL A   1      31.402  28.065  25.088  1.00  0.00     0.010 A 
ATOM     19  C   UNL A   1      33.150  27.267  26.484  1.00  0.00     0.001 A 
ATOM     20  Cl  UNL A   1      29.892  28.309  22.377  1.00  0.00    -0.084 Cl
ATOM     21  C   UNL A   1      32.049  28.073  26.318  1.00  0.00     0.001 A 
ENDBRANCH  10  11
ENDBRANCH   9  10
ENDBRANCH   6   9
ENDBRANCH   3   6
ENDBRANCH   1   2
BRANCH   1  22
ATOM     22  C   UNL A   1      38.097  19.475  25.001  1.00  0.00     0.042 C 
BRANCH  22  23
ATOM     23  C   UNL A   1      39.326  19.778  25.871  1.00  0.00     0.118 C 
BRANCH  23  24
ATOM     24  N   UNL A   1      40.422  18.840  25.811  1.00  0.00    -0.352 N 
ATOM     25  C   UNL A   1      41.750  19.076  26.083  1.00  0.00     0.251 C 
ATOM     26  H   UNL A   1      40.191  17.920  25.545  1.00  0.00     0.163 HD
ATOM     27  O   UNL A   1      42.562  18.148  26.002  1.00  0.00    -0.269 OA
BRANCH  25  28
ATOM     28  C   UNL A   1      42.251  20.435  26.413  1.00  0.00     0.039 A 
ATOM     29  C   UNL A   1      42.770  21.214  25.372  1.00  0.00     0.014 A 
ATOM     30  C   UNL A   1      42.280  20.933  27.721  1.00  0.00     0.014 A 
ATOM     31  C   UNL A   1      43.263  22.501  25.625  1.00  0.00     0.010 A 
ATOM     32  C   UNL A   1      42.753  22.234  27.969  1.00  0.00     0.010 A 
ATOM     33  C   UNL A   1      43.237  23.040  26.923  1.00  0.00    -0.014 A 
BRANCH  33  34
ATOM     34  C   UNL A   1      43.649  24.459  27.155  1.00  0.00     0.031 A 
ATOM     35  C   UNL A   1      42.676  25.497  27.648  1.00  0.00     0.074 A 
ATOM     36  C   UNL A   1      44.922  24.826  26.900  1.00  0.00     0.049 A 
ATOM     37  N   UNL A   1      42.879  26.768  27.904  1.00  0.00    -0.248 NA
ATOM     38  C   UNL A   1      41.293  25.056  27.874  1.00  0.00     0.031 C 
ATOM     39  C   UNL A   1      45.966  23.937  26.391  1.00  0.00     0.029 A 
ATOM     40  N   UNL A   1      45.555  26.042  27.024  1.00  0.00    -0.354 N 
ATOM     41  C   UNL A   1      41.654  27.280  28.313  1.00  0.00     0.074 A 
ATOM     42  C   UNL A   1      40.705  26.187  28.241  1.00  0.00     0.031 C 
ATOM     43  C   UNL A   1      47.107  24.631  26.253  1.00  0.00     0.029 A 
ATOM     44  C   UNL A   1      46.872  26.022  26.631  1.00  0.00     0.049 A 
ATOM     45  H   UNL A   1      45.106  26.850  27.364  1.00  0.00     0.167 HD
ATOM     46  C   UNL A   1      41.351  28.539  28.719  1.00  0.00     0.037 A 
ATOM     47  C   UNL A   1      47.788  27.009  26.566  1.00  0.00     0.037 A 
ATOM     48  C   UNL A   1      42.294  29.627  28.806  1.00  0.00     0.049 A 
ATOM     49  C   UNL A   1      47.419  28.400  27.008  1.00  0.00     0.074 A 
ATOM     50  C   UNL A   1      42.086  30.914  29.277  1.00  0.00     0.029 A 
ATOM     51  N   UNL A   1      43.619  29.566  28.399  1.00  0.00    -0.354 N 
ATOM     52  N   UNL A   1      46.278  28.845  27.475  1.00  0.00    -0.248 NA
ATOM     53  C   UNL A   1      48.469  29.426  26.922  1.00  0.00     0.031 C 
ATOM     54  C   UNL A   1      43.263  31.646  29.099  1.00  0.00     0.029 A 
ATOM     55  C   UNL A   1      44.227  30.801  28.576  1.00  0.00     0.049 A 
ATOM     56  H   UNL A   1      44.061  28.764  28.039  1.00  0.00     0.167 HD
ATOM     57  C   UNL A   1      46.481  30.188  27.764  1.00  0.00     0.074 A 
ATOM     58  C   UNL A   1      47.859  30.484  27.437  1.00  0.00     0.031 C 
ATOM     59  C   UNL A   1      45.600  31.094  28.255  1.00  0.00     0.037 A 
BRANCH  46  60
ATOM     60  C   UNL A   1      39.926  28.832  29.100  1.00  0.00     0.064 A 
ATOM     61  C   UNL A   1      38.976  29.239  28.151  1.00  0.00     0.173 A 
ATOM     62  C   UNL A   1      39.485  28.622  30.417  1.00  0.00     0.173 A 
ATOM     63  F   UNL A   1      39.343  29.452  26.879  1.00  0.00    -0.203 F 
ATOM     64  C   UNL A   1      37.646  29.449  28.510  1.00  0.00     0.198 A 
ATOM     65  C   UNL A   1      38.150  28.804  30.766  1.00  0.00     0.198 A 
ATOM     66  F   UNL A   1      40.347  28.215  31.361  1.00  0.00    -0.203 F 
ATOM     67  F   UNL A   1      36.765  29.871  27.594  1.00  0.00    -0.200 F 
ATOM     68  C   UNL A   1      37.233  29.224  29.815  1.00  0.00     0.200 A 
ATOM     69  F   UNL A   1      37.748  28.566  32.023  1.00  0.00    -0.200 F 
ATOM     70  F   UNL A   1      35.950  29.410  30.155  1.00  0.00    -0.200 F 
ENDBRANCH  46  60
BRANCH  47  71
ATOM     71  C   UNL A   1      49.155  26.720  26.054  1.00  0.00     0.064 A 
ATOM     72  C   UNL A   1      50.157  26.226  26.899  1.00  0.00     0.173 A 
ATOM     73  C   UNL A   1      49.492  26.958  24.713  1.00  0.00     0.173 A 
ATOM     74  F   UNL A   1      49.893  26.005  28.196  1.00  0.00    -0.203 F 
ATOM     75  C   UNL A   1      51.451  26.003  26.429  1.00  0.00     0.198 A 
ATOM     76  C   UNL A   1      50.776  26.703  24.236  1.00  0.00     0.198 A 
ATOM     77  F   UNL A   1      48.569  27.429  23.861  1.00  0.00    -0.203 F 
ATOM     78  F   UNL A   1      52.405  25.583  27.272  1.00  0.00    -0.200 F 
ATOM     79  C   UNL A   1      51.758  26.237  25.097  1.00  0.00     0.200 A 
ATOM     80  F   UNL A   1      51.063  26.916  22.945  1.00  0.00    -0.200 F 
ATOM     81  F   UNL A   1      53.000  26.021  24.646  1.00  0.00    -0.200 F 
ENDBRANCH  47  71
BRANCH  59  82
ATOM     82  C   UNL A   1      46.104  32.488  28.504  1.00  0.00     0.064 A 
ATOM     83  C   UNL A   1      46.036  33.487  27.520  1.00  0.00     0.173 A 
ATOM     84  C   UNL A   1      46.634  32.840  29.756  1.00  0.00     0.173 A 
ATOM     85  F   UNL A   1      45.555  33.201  26.301  1.00  0.00    -0.203 F 
ATOM     86  C   UNL A   1      46.502  34.775  27.772  1.00  0.00     0.198 A 
ATOM     87  C   UNL A   1      47.068  34.138  30.014  1.00  0.00     0.198 A 
ATOM     88  F   UNL A   1      46.719  31.927  30.736  1.00  0.00    -0.203 F 
ATOM     89  F   UNL A   1      46.473  35.698  26.800  1.00  0.00    -0.200 F 
ATOM     90  C   UNL A   1      47.010  35.101  29.020  1.00  0.00     0.200 A 
ATOM     91  F   UNL A   1      47.546  34.454  31.226  1.00  0.00    -0.200 F 
ATOM     92  F   UNL A   1      47.451  36.344  29.262  1.00  0.00    -0.200 F 
ENDBRANCH  59  82
ENDBRANCH  33  34
ENDBRANCH  25  28
ENDBRANCH  23  24
ENDBRANCH  22  23
ENDBRANCH   1  22
TORSDOF 13
ENDMDL
