MODEL 1
REMARK VINA RESULT:     -12.5      0.000      0.000
REMARK SMILES CCN(CC)c1ccc(NS(=O)(=O)c2ccc(Cl)s2)cc1C(=O)NCCCNC(=O)c1ccc(-c2c3nc(c(-c4c(F)c(F)c(F)c(F)c4F)c4ccc([nH]4)c(-c4c(F)c(F)c(F)c(F)c4F)c4nc(c(-c5c(F)c(F)c(F)c(F)c5F)c5ccc2[nH]5)C=C4)C=C3)cc1
REMARK SMILES IDX 25 1 24 2 22 3 23 4 21 6 6 7 7 8 8 9 20 10 9 11 3 12 2 13
REMARK SMILES IDX 1 14 4 15 5 16 10 17 11 19 12 20 13 21 14 22 15 23 19 24
REMARK SMILES IDX 16 25 17 26 18 27 26 28 27 29 28 30 29 31 30 33 31 34 32 35
REMARK SMILES IDX 93 36 33 37 92 38 34 39 35 40 36 41 86 42 37 43 91 44 85 45
REMARK SMILES IDX 87 46 38 47 90 48 84 49 83 50 39 52 71 53 51 54 70 55 52 56
REMARK SMILES IDX 55 57 69 58 88 59 53 60 54 61 68 63 89 64 56 65 40 66 41 67
REMARK SMILES IDX 49 68 42 69 43 70 47 71 50 72 44 73 45 74 48 75 46 76 72 77
REMARK SMILES IDX 73 78 81 79 74 80 75 81 79 82 82 83 76 84 77 85 80 86 78 87
REMARK SMILES IDX 57 88 58 89 66 90 59 91 60 92 64 93 67 94 61 95 62 96 65 97
REMARK SMILES IDX 63 98
REMARK H PARENT 24 5 10 18 28 32 87 51 55 62
REMARK Flexibility Score: inf
ROOT
ATOM      1  C   UNL A   1      36.949  21.864  25.185  1.00  0.00     0.118 C 
ENDROOT
BRANCH   1   2
ATOM      2  N   UNL A   1      35.960  21.642  26.209  1.00  0.00    -0.352 N 
ATOM      3  C   UNL A   1      34.662  21.231  26.126  1.00  0.00     0.253 C 
ATOM      4  O   UNL A   1      34.063  21.096  27.198  1.00  0.00    -0.269 OA
ATOM      5  H   UNL A   1      36.275  21.818  27.126  1.00  0.00     0.163 HD
BRANCH   3   6
ATOM      6  C   UNL A   1      33.889  21.020  24.873  1.00  0.00     0.065 A 
ATOM      7  C   UNL A   1      33.250  19.839  24.442  1.00  0.00     0.050 A 
ATOM      8  C   UNL A   1      32.239  19.976  23.472  1.00  0.00     0.029 A 
ATOM      9  C   UNL A   1      31.974  21.187  22.835  1.00  0.00     0.029 A 
ATOM     10  C   UNL A   1      33.641  22.232  24.186  1.00  0.00     0.042 A 
ATOM     11  C   UNL A   1      32.739  22.306  23.128  1.00  0.00     0.050 A 
BRANCH   7  12
ATOM     12  N   UNL A   1      33.563  18.552  24.874  1.00  0.00    -0.371 N 
BRANCH  12  13
ATOM     13  C   UNL A   1      32.480  17.690  25.359  1.00  0.00     0.113 C 
ATOM     14  C   UNL A   1      32.990  16.312  25.753  1.00  0.00     0.027 C 
ENDBRANCH  12  13
BRANCH  12  15
ATOM     15  C   UNL A   1      34.718  17.903  24.215  1.00  0.00     0.113 C 
ATOM     16  C   UNL A   1      34.363  16.955  23.081  1.00  0.00     0.027 C 
ENDBRANCH  12  15
ENDBRANCH   7  12
BRANCH  11  17
ATOM     17  N   UNL A   1      32.731  23.511  22.364  1.00  0.00    -0.279 N 
ATOM     18  H   UNL A   1      33.357  23.593  21.609  1.00  0.00     0.180 HD
BRANCH  17  19
ATOM     19  S   UNL A   1      31.699  24.794  22.699  1.00  0.00     0.271 S 
ATOM     20  O   UNL A   1      31.777  25.728  21.597  1.00  0.00    -0.200 OA
ATOM     21  O   UNL A   1      30.441  24.220  23.126  1.00  0.00    -0.200 OA
BRANCH  19  22
ATOM     22  C   UNL A   1      32.340  25.636  24.137  1.00  0.00     0.141 A 
ATOM     23  C   UNL A   1      33.630  25.972  24.518  1.00  0.00     0.036 A 
ATOM     24  S   UNL A   1      31.184  26.228  25.255  1.00  0.00    -0.110 S 
ATOM     25  C   UNL A   1      33.652  26.799  25.680  1.00  0.00     0.034 A 
ATOM     26  C   UNL A   1      32.384  27.011  26.153  1.00  0.00     0.094 A 
ATOM     27  Cl  UNL A   1      31.946  27.969  27.508  1.00  0.00    -0.072 Cl
ENDBRANCH  19  22
ENDBRANCH  17  19
ENDBRANCH  11  17
ENDBRANCH   3   6
ENDBRANCH   1   2
BRANCH   1  28
ATOM     28  C   UNL A   1      37.911  20.696  25.022  1.00  0.00     0.042 C 
BRANCH  28  29
ATOM     29  C   UNL A   1      38.990  20.672  26.105  1.00  0.00     0.118 C 
BRANCH  29  30
ATOM     30  N   UNL A   1      39.959  19.590  25.965  1.00  0.00    -0.352 N 
ATOM     31  C   UNL A   1      41.330  19.528  26.052  1.00  0.00     0.251 C 
ATOM     32  H   UNL A   1      39.544  18.720  25.765  1.00  0.00     0.163 HD
ATOM     33  O   UNL A   1      41.895  18.474  25.773  1.00  0.00    -0.269 OA
BRANCH  31  34
ATOM     34  C   UNL A   1      42.144  20.715  26.403  1.00  0.00     0.039 A 
ATOM     35  C   UNL A   1      42.582  21.560  25.376  1.00  0.00     0.014 A 
ATOM     36  C   UNL A   1      42.482  21.019  27.716  1.00  0.00     0.014 A 
ATOM     37  C   UNL A   1      43.229  22.762  25.682  1.00  0.00     0.010 A 
ATOM     38  C   UNL A   1      42.995  22.273  28.029  1.00  0.00     0.010 A 
ATOM     39  C   UNL A   1      43.359  23.172  27.017  1.00  0.00    -0.014 A 
BRANCH  39  40
ATOM     40  C   UNL A   1      43.834  24.531  27.399  1.00  0.00     0.031 A 
ATOM     41  C   UNL A   1      42.861  25.554  27.924  1.00  0.00     0.074 A 
ATOM     42  C   UNL A   1      45.102  24.899  27.126  1.00  0.00     0.049 A 
ATOM     43  N   UNL A   1      43.003  26.849  28.048  1.00  0.00    -0.248 NA
ATOM     44  C   UNL A   1      41.526  25.061  28.298  1.00  0.00     0.031 C 
ATOM     45  C   UNL A   1      46.134  24.039  26.543  1.00  0.00     0.029 A 
ATOM     46  N   UNL A   1      45.734  26.110  27.276  1.00  0.00    -0.354 N 
ATOM     47  C   UNL A   1      41.759  27.331  28.433  1.00  0.00     0.074 A 
ATOM     48  C   UNL A   1      40.869  26.193  28.499  1.00  0.00     0.031 C 
ATOM     49  C   UNL A   1      47.272  24.736  26.411  1.00  0.00     0.029 A 
ATOM     50  C   UNL A   1      47.038  26.108  26.847  1.00  0.00     0.049 A 
ATOM     51  H   UNL A   1      45.292  26.904  27.656  1.00  0.00     0.167 HD
ATOM     52  C   UNL A   1      41.396  28.605  28.716  1.00  0.00     0.037 A 
ATOM     53  C   UNL A   1      47.943  27.102  26.790  1.00  0.00     0.037 A 
ATOM     54  C   UNL A   1      42.307  29.717  28.751  1.00  0.00     0.049 A 
ATOM     55  C   UNL A   1      47.552  28.481  27.237  1.00  0.00     0.074 A 
ATOM     56  C   UNL A   1      42.061  31.026  29.133  1.00  0.00     0.029 A 
ATOM     57  N   UNL A   1      43.651  29.645  28.418  1.00  0.00    -0.354 N 
ATOM     58  N   UNL A   1      46.380  28.917  27.628  1.00  0.00    -0.248 NA
ATOM     59  C   UNL A   1      48.607  29.504  27.235  1.00  0.00     0.031 C 
ATOM     60  C   UNL A   1      43.255  31.746  29.020  1.00  0.00     0.029 A 
ATOM     61  C   UNL A   1      44.249  30.882  28.591  1.00  0.00     0.049 A 
ATOM     62  H   UNL A   1      44.112  28.833  28.104  1.00  0.00     0.167 HD
ATOM     63  C   UNL A   1      46.557  30.259  27.931  1.00  0.00     0.074 A 
ATOM     64  C   UNL A   1      47.954  30.563  27.694  1.00  0.00     0.031 C 
ATOM     65  C   UNL A   1      45.642  31.160  28.361  1.00  0.00     0.037 A 
BRANCH  52  66
ATOM     66  C   UNL A   1      39.949  28.861  29.020  1.00  0.00     0.064 A 
ATOM     67  C   UNL A   1      39.439  28.769  30.324  1.00  0.00     0.173 A 
ATOM     68  C   UNL A   1      39.061  29.217  27.993  1.00  0.00     0.173 A 
ATOM     69  F   UNL A   1      40.244  28.420  31.339  1.00  0.00    -0.203 F 
ATOM     70  C   UNL A   1      38.088  28.985  30.582  1.00  0.00     0.198 A 
ATOM     71  C   UNL A   1      37.716  29.462  28.259  1.00  0.00     0.198 A 
ATOM     72  F   UNL A   1      39.497  29.327  26.729  1.00  0.00    -0.203 F 
ATOM     73  F   UNL A   1      37.614  28.832  31.826  1.00  0.00    -0.200 F 
ATOM     74  C   UNL A   1      37.229  29.335  29.552  1.00  0.00     0.200 A 
ATOM     75  F   UNL A   1      36.890  29.811  27.265  1.00  0.00    -0.200 F 
ATOM     76  F   UNL A   1      35.928  29.540  29.803  1.00  0.00    -0.200 F 
ENDBRANCH  52  66
BRANCH  53  77
ATOM     77  C   UNL A   1      49.319  26.815  26.316  1.00  0.00     0.064 A 
ATOM     78  C   UNL A   1      49.648  26.952  24.961  1.00  0.00     0.173 A 
ATOM     79  C   UNL A   1      50.336  26.434  27.203  1.00  0.00     0.173 A 
ATOM     80  F   UNL A   1      48.704  27.300  24.076  1.00  0.00    -0.203 F 
ATOM     81  C   UNL A   1      50.942  26.704  24.507  1.00  0.00     0.198 A 
ATOM     82  C   UNL A   1      51.634  26.207  26.751  1.00  0.00     0.198 A 
ATOM     83  F   UNL A   1      50.072  26.303  28.511  1.00  0.00    -0.203 F 
ATOM     84  F   UNL A   1      51.223  26.814  23.201  1.00  0.00    -0.200 F 
ATOM     85  C   UNL A   1      51.935  26.338  25.403  1.00  0.00     0.200 A 
ATOM     86  F   UNL A   1      52.595  25.869  27.621  1.00  0.00    -0.200 F 
ATOM     87  F   UNL A   1      53.181  26.110  24.968  1.00  0.00    -0.200 F 
ENDBRANCH  53  77
BRANCH  65  88
ATOM     88  C   UNL A   1      46.128  32.552  28.629  1.00  0.00     0.064 A 
ATOM     89  C   UNL A   1      46.634  32.917  29.884  1.00  0.00     0.173 A 
ATOM     90  C   UNL A   1      46.124  33.513  27.610  1.00  0.00     0.173 A 
ATOM     91  F   UNL A   1      46.641  32.033  30.893  1.00  0.00    -0.203 F 
ATOM     92  C   UNL A   1      47.110  34.206  30.112  1.00  0.00     0.198 A 
ATOM     93  C   UNL A   1      46.618  34.794  27.835  1.00  0.00     0.198 A 
ATOM     94  F   UNL A   1      45.650  33.206  26.392  1.00  0.00    -0.203 F 
ATOM     95  F   UNL A   1      47.562  34.546  31.327  1.00  0.00    -0.200 F 
ATOM     96  C   UNL A   1      47.108  35.140  29.086  1.00  0.00     0.200 A 
ATOM     97  F   UNL A   1      46.621  35.695  26.843  1.00  0.00    -0.200 F 
ATOM     98  F   UNL A   1      47.571  36.379  29.307  1.00  0.00    -0.200 F 
ENDBRANCH  65  88
ENDBRANCH  39  40
ENDBRANCH  31  34
ENDBRANCH  29  30
ENDBRANCH  28  29
ENDBRANCH   1  28
TORSDOF 16
ENDMDL
MODEL 2
REMARK VINA RESULT:     -12.4      5.082     10.387
REMARK SMILES CCN(CC)c1ccc(NS(=O)(=O)c2ccc(Cl)s2)cc1C(=O)NCCCNC(=O)c1ccc(-c2c3nc(c(-c4c(F)c(F)c(F)c(F)c4F)c4ccc([nH]4)c(-c4c(F)c(F)c(F)c(F)c4F)c4nc(c(-c5c(F)c(F)c(F)c(F)c5F)c5ccc2[nH]5)C=C4)C=C3)cc1
REMARK SMILES IDX 25 1 24 2 22 3 23 4 21 6 6 7 7 8 8 9 20 10 9 11 3 12 2 13
REMARK SMILES IDX 1 14 4 15 5 16 10 17 11 19 12 20 13 21 14 22 15 23 19 24
REMARK SMILES IDX 16 25 17 26 18 27 26 28 27 29 28 30 29 31 30 33 31 34 32 35
REMARK SMILES IDX 93 36 33 37 92 38 34 39 35 40 36 41 86 42 37 43 91 44 85 45
REMARK SMILES IDX 87 46 38 47 90 48 84 49 83 50 39 52 71 53 51 54 70 55 52 56
REMARK SMILES IDX 55 57 69 58 88 59 53 60 54 61 68 63 89 64 56 65 40 66 41 67
REMARK SMILES IDX 49 68 42 69 43 70 47 71 50 72 44 73 45 74 48 75 46 76 72 77
REMARK SMILES IDX 73 78 81 79 74 80 75 81 79 82 82 83 76 84 77 85 80 86 78 87
REMARK SMILES IDX 57 88 58 89 66 90 59 91 60 92 64 93 67 94 61 95 62 96 65 97
REMARK SMILES IDX 63 98
REMARK H PARENT 24 5 10 18 28 32 87 51 55 62
REMARK Flexibility Score: inf
ROOT
ATOM      1  C   UNL A   1      32.265  27.773  27.083  1.00  0.00     0.118 C 
ENDROOT
BRANCH   1   2
ATOM      2  N   UNL A   1      31.185  26.834  26.915  1.00  0.00    -0.352 N 
ATOM      3  C   UNL A   1      31.109  25.676  26.197  1.00  0.00     0.253 C 
ATOM      4  O   UNL A   1      30.045  25.055  26.275  1.00  0.00    -0.269 OA
ATOM      5  H   UNL A   1      30.360  27.068  27.401  1.00  0.00     0.163 HD
BRANCH   3   6
ATOM      6  C   UNL A   1      32.149  25.149  25.273  1.00  0.00     0.065 A 
ATOM      7  C   UNL A   1      32.917  25.871  24.337  1.00  0.00     0.050 A 
ATOM      8  C   UNL A   1      34.111  25.273  23.891  1.00  0.00     0.029 A 
ATOM      9  C   UNL A   1      34.458  23.963  24.219  1.00  0.00     0.029 A 
ATOM     10  C   UNL A   1      32.491  23.806  25.560  1.00  0.00     0.042 A 
ATOM     11  C   UNL A   1      33.600  23.191  24.988  1.00  0.00     0.050 A 
BRANCH   7  12
ATOM     12  N   UNL A   1      32.572  27.108  23.797  1.00  0.00    -0.371 N 
BRANCH  12  13
ATOM     13  C   UNL A   1      33.613  28.134  23.666  1.00  0.00     0.113 C 
ATOM     14  C   UNL A   1      33.963  28.399  22.209  1.00  0.00     0.027 C 
ENDBRANCH  12  13
BRANCH  12  15
ATOM     15  C   UNL A   1      31.479  27.105  22.801  1.00  0.00     0.113 C 
ATOM     16  C   UNL A   1      30.153  27.657  23.297  1.00  0.00     0.027 C 
ENDBRANCH  12  15
ENDBRANCH   7  12
BRANCH  11  17
ATOM     17  N   UNL A   1      33.724  21.781  25.165  1.00  0.00    -0.279 N 
ATOM     18  H   UNL A   1      34.499  21.435  25.665  1.00  0.00     0.180 HD
BRANCH  17  19
ATOM     19  S   UNL A   1      32.603  20.686  24.557  1.00  0.00     0.271 S 
ATOM     20  O   UNL A   1      31.488  20.634  25.477  1.00  0.00    -0.200 OA
ATOM     21  O   UNL A   1      32.424  21.002  23.157  1.00  0.00    -0.200 OA
BRANCH  19  22
ATOM     22  C   UNL A   1      33.366  19.072  24.578  1.00  0.00     0.141 A 
ATOM     23  C   UNL A   1      34.682  18.665  24.424  1.00  0.00     0.036 A 
ATOM     24  S   UNL A   1      32.337  17.745  24.920  1.00  0.00    -0.110 S 
ATOM     25  C   UNL A   1      34.851  17.273  24.685  1.00  0.00     0.034 A 
ATOM     26  C   UNL A   1      33.650  16.680  24.976  1.00  0.00     0.094 A 
ATOM     27  Cl  UNL A   1      33.396  15.033  25.382  1.00  0.00    -0.072 Cl
ENDBRANCH  19  22
ENDBRANCH  17  19
ENDBRANCH  11  17
ENDBRANCH   3   6
ENDBRANCH   1   2
BRANCH   1  28
ATOM     28  C   UNL A   1      31.787  29.208  27.245  1.00  0.00     0.042 C 
BRANCH  28  29
ATOM     29  C   UNL A   1      32.562  30.186  26.362  1.00  0.00     0.118 C 
BRANCH  29  30
ATOM     30  N   UNL A   1      32.507  31.575  26.808  1.00  0.00    -0.352 N 
ATOM     31  C   UNL A   1      33.371  32.379  27.513  1.00  0.00     0.251 C 
ATOM     32  H   UNL A   1      31.674  32.032  26.551  1.00  0.00     0.163 HD
ATOM     33  O   UNL A   1      33.000  33.502  27.844  1.00  0.00    -0.269 OA
BRANCH  31  34
ATOM     34  C   UNL A   1      34.705  31.901  27.944  1.00  0.00     0.039 A 
ATOM     35  C   UNL A   1      35.768  32.811  27.982  1.00  0.00     0.014 A 
ATOM     36  C   UNL A   1      34.935  30.582  28.315  1.00  0.00     0.014 A 
ATOM     37  C   UNL A   1      37.003  32.430  28.518  1.00  0.00     0.010 A 
ATOM     38  C   UNL A   1      36.110  30.239  28.976  1.00  0.00     0.010 A 
ATOM     39  C   UNL A   1      37.156  31.164  29.104  1.00  0.00    -0.014 A 
BRANCH  39  40
ATOM     40  C   UNL A   1      38.365  30.778  29.884  1.00  0.00     0.031 A 
ATOM     41  C   UNL A   1      39.355  29.799  29.312  1.00  0.00     0.074 A 
ATOM     42  C   UNL A   1      38.492  31.181  31.164  1.00  0.00     0.049 A 
ATOM     43  N   UNL A   1      40.303  29.127  29.915  1.00  0.00    -0.248 NA
ATOM     44  C   UNL A   1      39.218  29.484  27.881  1.00  0.00     0.031 C 
ATOM     45  C   UNL A   1      37.568  32.065  31.877  1.00  0.00     0.029 A 
ATOM     46  N   UNL A   1      39.441  30.871  32.109  1.00  0.00    -0.354 N 
ATOM     47  C   UNL A   1      40.815  28.257  28.961  1.00  0.00     0.074 A 
ATOM     48  C   UNL A   1      40.058  28.469  27.747  1.00  0.00     0.031 C 
ATOM     49  C   UNL A   1      38.007  32.249  33.131  1.00  0.00     0.029 A 
ATOM     50  C   UNL A   1      39.213  31.453  33.331  1.00  0.00     0.049 A 
ATOM     51  H   UNL A   1      40.213  30.287  31.925  1.00  0.00     0.167 HD
ATOM     52  C   UNL A   1      41.832  27.370  29.085  1.00  0.00     0.037 A 
ATOM     53  C   UNL A   1      39.884  31.345  34.492  1.00  0.00     0.037 A 
ATOM     54  C   UNL A   1      42.651  27.236  30.260  1.00  0.00     0.049 A 
ATOM     55  C   UNL A   1      41.091  30.455  34.565  1.00  0.00     0.074 A 
ATOM     56  C   UNL A   1      43.773  26.447  30.447  1.00  0.00     0.029 A 
ATOM     57  N   UNL A   1      42.451  27.934  31.442  1.00  0.00    -0.354 N 
ATOM     58  N   UNL A   1      41.584  29.661  33.647  1.00  0.00    -0.248 NA
ATOM     59  C   UNL A   1      41.834  30.448  35.833  1.00  0.00     0.031 C 
ATOM     60  C   UNL A   1      44.245  26.659  31.747  1.00  0.00     0.029 A 
ATOM     61  C   UNL A   1      43.433  27.598  32.360  1.00  0.00     0.049 A 
ATOM     62  H   UNL A   1      41.719  28.573  31.604  1.00  0.00     0.167 HD
ATOM     63  C   UNL A   1      42.700  29.067  34.219  1.00  0.00     0.074 A 
ATOM     64  C   UNL A   1      42.822  29.606  35.558  1.00  0.00     0.031 C 
ATOM     65  C   UNL A   1      43.543  28.154  33.683  1.00  0.00     0.037 A 
BRANCH  52  66
ATOM     66  C   UNL A   1      42.121  26.480  27.911  1.00  0.00     0.064 A 
ATOM     67  C   UNL A   1      41.441  25.268  27.717  1.00  0.00     0.173 A 
ATOM     68  C   UNL A   1      43.083  26.853  26.960  1.00  0.00     0.173 A 
ATOM     69  F   UNL A   1      40.523  24.861  28.605  1.00  0.00    -0.203 F 
ATOM     70  C   UNL A   1      41.742  24.444  26.636  1.00  0.00     0.198 A 
ATOM     71  C   UNL A   1      43.359  26.040  25.863  1.00  0.00     0.198 A 
ATOM     72  F   UNL A   1      43.756  28.006  27.093  1.00  0.00    -0.203 F 
ATOM     73  F   UNL A   1      41.122  23.263  26.505  1.00  0.00    -0.200 F 
ATOM     74  C   UNL A   1      42.696  24.832  25.708  1.00  0.00     0.200 A 
ATOM     75  F   UNL A   1      44.273  26.421  24.961  1.00  0.00    -0.200 F 
ATOM     76  F   UNL A   1      42.985  24.036  24.669  1.00  0.00    -0.200 F 
ENDBRANCH  52  66
BRANCH  53  77
ATOM     77  C   UNL A   1      39.442  32.130  35.671  1.00  0.00     0.064 A 
ATOM     78  C   UNL A   1      38.505  31.598  36.568  1.00  0.00     0.173 A 
ATOM     79  C   UNL A   1      39.965  33.401  35.944  1.00  0.00     0.173 A 
ATOM     80  F   UNL A   1      37.969  30.392  36.337  1.00  0.00    -0.203 F 
ATOM     81  C   UNL A   1      38.096  32.317  37.690  1.00  0.00     0.198 A 
ATOM     82  C   UNL A   1      39.570  34.110  37.078  1.00  0.00     0.198 A 
ATOM     83  F   UNL A   1      40.872  33.945  35.122  1.00  0.00    -0.203 F 
ATOM     84  F   UNL A   1      37.178  31.798  38.516  1.00  0.00    -0.200 F 
ATOM     85  C   UNL A   1      38.634  33.569  37.947  1.00  0.00     0.200 A 
ATOM     86  F   UNL A   1      40.103  35.312  37.332  1.00  0.00    -0.200 F 
ATOM     87  F   UNL A   1      38.248  34.256  39.031  1.00  0.00    -0.200 F 
ENDBRANCH  53  77
BRANCH  65  88
ATOM     88  C   UNL A   1      44.688  27.700  34.535  1.00  0.00     0.064 A 
ATOM     89  C   UNL A   1      44.581  26.571  35.359  1.00  0.00     0.173 A 
ATOM     90  C   UNL A   1      45.915  28.375  34.492  1.00  0.00     0.173 A 
ATOM     91  F   UNL A   1      43.420  25.904  35.443  1.00  0.00    -0.203 F 
ATOM     92  C   UNL A   1      45.663  26.142  36.123  1.00  0.00     0.198 A 
ATOM     93  C   UNL A   1      47.001  27.933  35.243  1.00  0.00     0.198 A 
ATOM     94  F   UNL A   1      46.064  29.460  33.716  1.00  0.00    -0.203 F 
ATOM     95  F   UNL A   1      45.532  25.079  36.929  1.00  0.00    -0.200 F 
ATOM     96  C   UNL A   1      46.872  26.819  36.059  1.00  0.00     0.200 A 
ATOM     97  F   UNL A   1      48.170  28.583  35.177  1.00  0.00    -0.200 F 
ATOM     98  F   UNL A   1      47.914  26.400  36.793  1.00  0.00    -0.200 F 
ENDBRANCH  65  88
ENDBRANCH  39  40
ENDBRANCH  31  34
ENDBRANCH  29  30
ENDBRANCH  28  29
ENDBRANCH   1  28
TORSDOF 16
ENDMDL
MODEL 3
REMARK VINA RESULT:     -12.3      4.812     10.025
REMARK SMILES CCN(CC)c1ccc(NS(=O)(=O)c2ccc(Cl)s2)cc1C(=O)NCCCNC(=O)c1ccc(-c2c3nc(c(-c4c(F)c(F)c(F)c(F)c4F)c4ccc([nH]4)c(-c4c(F)c(F)c(F)c(F)c4F)c4nc(c(-c5c(F)c(F)c(F)c(F)c5F)c5ccc2[nH]5)C=C4)C=C3)cc1
REMARK SMILES IDX 25 1 24 2 22 3 23 4 21 6 6 7 7 8 8 9 20 10 9 11 3 12 2 13
REMARK SMILES IDX 1 14 4 15 5 16 10 17 11 19 12 20 13 21 14 22 15 23 19 24
REMARK SMILES IDX 16 25 17 26 18 27 26 28 27 29 28 30 29 31 30 33 31 34 32 35
REMARK SMILES IDX 93 36 33 37 92 38 34 39 35 40 36 41 86 42 37 43 91 44 85 45
REMARK SMILES IDX 87 46 38 47 90 48 84 49 83 50 39 52 71 53 51 54 70 55 52 56
REMARK SMILES IDX 55 57 69 58 88 59 53 60 54 61 68 63 89 64 56 65 40 66 41 67
REMARK SMILES IDX 49 68 42 69 43 70 47 71 50 72 44 73 45 74 48 75 46 76 72 77
REMARK SMILES IDX 73 78 81 79 74 80 75 81 79 82 82 83 76 84 77 85 80 86 78 87
REMARK SMILES IDX 57 88 58 89 66 90 59 91 60 92 64 93 67 94 61 95 62 96 65 97
REMARK SMILES IDX 63 98
REMARK H PARENT 24 5 10 18 28 32 87 51 55 62
REMARK Flexibility Score: inf
ROOT
ATOM      1  C   UNL A   1      32.274  26.986  26.433  1.00  0.00     0.118 C 
ENDROOT
BRANCH   1   2
ATOM      2  N   UNL A   1      31.278  25.971  26.666  1.00  0.00    -0.352 N 
ATOM      3  C   UNL A   1      31.026  24.799  26.017  1.00  0.00     0.253 C 
ATOM      4  O   UNL A   1      30.113  24.106  26.476  1.00  0.00    -0.269 OA
ATOM      5  H   UNL A   1      30.676  26.156  27.424  1.00  0.00     0.163 HD
BRANCH   3   6
ATOM      6  C   UNL A   1      31.687  24.329  24.769  1.00  0.00     0.065 A 
ATOM      7  C   UNL A   1      32.090  25.104  23.662  1.00  0.00     0.050 A 
ATOM      8  C   UNL A   1      33.059  24.543  22.808  1.00  0.00     0.029 A 
ATOM      9  C   UNL A   1      33.495  23.225  22.936  1.00  0.00     0.029 A 
ATOM     10  C   UNL A   1      32.104  22.980  24.859  1.00  0.00     0.042 A 
ATOM     11  C   UNL A   1      32.950  22.407  23.914  1.00  0.00     0.050 A 
BRANCH   7  12
ATOM     12  N   UNL A   1      31.583  26.358  23.332  1.00  0.00    -0.371 N 
BRANCH  12  13
ATOM     13  C   UNL A   1      32.339  27.198  22.397  1.00  0.00     0.113 C 
ATOM     14  C   UNL A   1      33.568  27.810  23.054  1.00  0.00     0.027 C 
ENDBRANCH  12  13
BRANCH  12  15
ATOM     15  C   UNL A   1      30.110  26.492  23.341  1.00  0.00     0.113 C 
ATOM     16  C   UNL A   1      29.593  27.915  23.484  1.00  0.00     0.027 C 
ENDBRANCH  12  15
ENDBRANCH   7  12
BRANCH  11  17
ATOM     17  N   UNL A   1      33.125  20.993  23.971  1.00  0.00    -0.279 N 
ATOM     18  H   UNL A   1      32.730  20.440  23.258  1.00  0.00     0.180 HD
BRANCH  17  19
ATOM     19  S   UNL A   1      33.977  20.231  25.204  1.00  0.00     0.271 S 
ATOM     20  O   UNL A   1      33.297  20.506  26.451  1.00  0.00    -0.200 OA
ATOM     21  O   UNL A   1      34.239  18.879  24.760  1.00  0.00    -0.200 OA
BRANCH  19  22
ATOM     22  C   UNL A   1      35.581  21.008  25.306  1.00  0.00     0.141 A 
ATOM     23  C   UNL A   1      36.812  20.671  24.766  1.00  0.00     0.036 A 
ATOM     24  S   UNL A   1      35.658  22.492  26.159  1.00  0.00    -0.110 S 
ATOM     25  C   UNL A   1      37.790  21.687  24.975  1.00  0.00     0.034 A 
ATOM     26  C   UNL A   1      37.271  22.724  25.706  1.00  0.00     0.094 A 
ATOM     27  Cl  UNL A   1      38.086  24.163  26.161  1.00  0.00    -0.072 Cl
ENDBRANCH  19  22
ENDBRANCH  17  19
ENDBRANCH  11  17
ENDBRANCH   3   6
ENDBRANCH   1   2
BRANCH   1  28
ATOM     28  C   UNL A   1      31.720  28.400  26.529  1.00  0.00     0.042 C 
BRANCH  28  29
ATOM     29  C   UNL A   1      32.683  29.446  25.967  1.00  0.00     0.118 C 
BRANCH  29  30
ATOM     30  N   UNL A   1      32.479  30.794  26.487  1.00  0.00    -0.352 N 
ATOM     31  C   UNL A   1      33.246  31.641  27.251  1.00  0.00     0.251 C 
ATOM     32  H   UNL A   1      31.607  31.178  26.240  1.00  0.00     0.163 HD
ATOM     33  O   UNL A   1      32.757  32.700  27.637  1.00  0.00    -0.269 OA
BRANCH  31  34
ATOM     34  C   UNL A   1      34.617  31.279  27.680  1.00  0.00     0.039 A 
ATOM     35  C   UNL A   1      35.572  32.294  27.816  1.00  0.00     0.014 A 
ATOM     36  C   UNL A   1      34.984  29.968  27.956  1.00  0.00     0.014 A 
ATOM     37  C   UNL A   1      36.831  32.008  28.354  1.00  0.00     0.010 A 
ATOM     38  C   UNL A   1      36.177  29.704  28.621  1.00  0.00     0.010 A 
ATOM     39  C   UNL A   1      37.112  30.724  28.847  1.00  0.00    -0.014 A 
BRANCH  39  40
ATOM     40  C   UNL A   1      38.342  30.412  29.628  1.00  0.00     0.031 A 
ATOM     41  C   UNL A   1      39.366  29.455  29.078  1.00  0.00     0.074 A 
ATOM     42  C   UNL A   1      38.463  30.861  30.893  1.00  0.00     0.049 A 
ATOM     43  N   UNL A   1      40.345  28.841  29.694  1.00  0.00    -0.248 NA
ATOM     44  C   UNL A   1      39.229  29.088  27.660  1.00  0.00     0.031 C 
ATOM     45  C   UNL A   1      37.510  31.731  31.586  1.00  0.00     0.029 A 
ATOM     46  N   UNL A   1      39.431  30.620  31.838  1.00  0.00    -0.354 N 
ATOM     47  C   UNL A   1      40.883  27.961  28.764  1.00  0.00     0.074 A 
ATOM     48  C   UNL A   1      40.108  28.104  27.551  1.00  0.00     0.031 C 
ATOM     49  C   UNL A   1      37.951  31.973  32.829  1.00  0.00     0.029 A 
ATOM     50  C   UNL A   1      39.189  31.232  33.043  1.00  0.00     0.049 A 
ATOM     51  H   UNL A   1      40.224  30.062  31.666  1.00  0.00     0.167 HD
ATOM     52  C   UNL A   1      41.936  27.120  28.906  1.00  0.00     0.037 A 
ATOM     53  C   UNL A   1      39.874  31.189  34.200  1.00  0.00     0.037 A 
ATOM     54  C   UNL A   1      42.768  27.057  30.077  1.00  0.00     0.049 A 
ATOM     55  C   UNL A   1      41.116  30.350  34.291  1.00  0.00     0.074 A 
ATOM     56  C   UNL A   1      43.923  26.319  30.279  1.00  0.00     0.029 A 
ATOM     57  N   UNL A   1      42.551  27.784  31.238  1.00  0.00    -0.354 N 
ATOM     58  N   UNL A   1      41.633  29.547  33.395  1.00  0.00    -0.248 NA
ATOM     59  C   UNL A   1      41.869  30.413  35.552  1.00  0.00     0.031 C 
ATOM     60  C   UNL A   1      44.397  26.592  31.567  1.00  0.00     0.029 A 
ATOM     61  C   UNL A   1      43.552  27.518  32.158  1.00  0.00     0.049 A 
ATOM     62  H   UNL A   1      41.795  28.399  31.387  1.00  0.00     0.167 HD
ATOM     63  C   UNL A   1      42.776  29.017  33.974  1.00  0.00     0.074 A 
ATOM     64  C   UNL A   1      42.887  29.603  35.295  1.00  0.00     0.031 C 
ATOM     65  C   UNL A   1      43.651  28.120  33.461  1.00  0.00     0.037 A 
BRANCH  52  66
ATOM     66  C   UNL A   1      42.251  26.205  27.759  1.00  0.00     0.064 A 
ATOM     67  C   UNL A   1      41.559  25.000  27.564  1.00  0.00     0.173 A 
ATOM     68  C   UNL A   1      43.250  26.546  26.835  1.00  0.00     0.173 A 
ATOM     69  F   UNL A   1      40.605  24.623  28.427  1.00  0.00    -0.203 F 
ATOM     70  C   UNL A   1      41.884  24.151  26.508  1.00  0.00     0.198 A 
ATOM     71  C   UNL A   1      43.551  25.709  25.763  1.00  0.00     0.198 A 
ATOM     72  F   UNL A   1      43.936  27.691  26.971  1.00  0.00    -0.203 F 
ATOM     73  F   UNL A   1      41.251  22.977  26.377  1.00  0.00    -0.200 F 
ATOM     74  C   UNL A   1      42.875  24.508  25.606  1.00  0.00     0.200 A 
ATOM     75  F   UNL A   1      44.501  26.060  24.886  1.00  0.00    -0.200 F 
ATOM     76  F   UNL A   1      43.187  23.689  24.593  1.00  0.00    -0.200 F 
ENDBRANCH  52  66
BRANCH  53  77
ATOM     77  C   UNL A   1      39.410  31.993  35.358  1.00  0.00     0.064 A 
ATOM     78  C   UNL A   1      39.779  33.339  35.483  1.00  0.00     0.173 A 
ATOM     79  C   UNL A   1      38.568  31.448  36.338  1.00  0.00     0.173 A 
ATOM     80  F   UNL A   1      40.594  33.895  34.577  1.00  0.00    -0.203 F 
ATOM     81  C   UNL A   1      39.333  34.109  36.556  1.00  0.00     0.198 A 
ATOM     82  C   UNL A   1      38.106  32.226  37.399  1.00  0.00     0.198 A 
ATOM     83  F   UNL A   1      38.179  30.168  36.254  1.00  0.00    -0.203 F 
ATOM     84  F   UNL A   1      39.724  35.386  36.667  1.00  0.00    -0.200 F 
ATOM     85  C   UNL A   1      38.493  33.554  37.509  1.00  0.00     0.200 A 
ATOM     86  F   UNL A   1      37.282  31.691  38.310  1.00  0.00    -0.200 F 
ATOM     87  F   UNL A   1      38.057  34.297  38.534  1.00  0.00    -0.200 F 
ENDBRANCH  53  77
BRANCH  65  88
ATOM     88  C   UNL A   1      44.820  27.740  34.316  1.00  0.00     0.064 A 
ATOM     89  C   UNL A   1      44.768  26.629  35.169  1.00  0.00     0.173 A 
ATOM     90  C   UNL A   1      46.015  28.468  34.248  1.00  0.00     0.173 A 
ATOM     91  F   UNL A   1      43.638  25.914  35.278  1.00  0.00    -0.203 F 
ATOM     92  C   UNL A   1      45.872  26.269  35.937  1.00  0.00     0.198 A 
ATOM     93  C   UNL A   1      47.123  28.094  35.003  1.00  0.00     0.198 A 
ATOM     94  F   UNL A   1      46.111  29.538  33.444  1.00  0.00    -0.203 F 
ATOM     95  F   UNL A   1      45.794  25.222  36.771  1.00  0.00    -0.200 F 
ATOM     96  C   UNL A   1      47.050  26.997  35.848  1.00  0.00     0.200 A 
ATOM     97  F   UNL A   1      48.262  28.794  34.912  1.00  0.00    -0.200 F 
ATOM     98  F   UNL A   1      48.113  26.645  36.584  1.00  0.00    -0.200 F 
ENDBRANCH  65  88
ENDBRANCH  39  40
ENDBRANCH  31  34
ENDBRANCH  29  30
ENDBRANCH  28  29
ENDBRANCH   1  28
TORSDOF 16
ENDMDL
