MODEL 1
REMARK VINA RESULT:     -11.8      0.000      0.000
REMARK SMILES C[C@@H](NC(=O)[C@@H]([NH3+])CC(=O)NCCCNC(=O)c1ccc(-c2c3nc(c(-c4c(F)c(F)c(F)c(F)c4F)c4ccc([nH]4)c(-c4c(F)c(F)c(F)c(F)c4F)c4nc(c(-c5c(F)c(F)c(F)c(F)c5F)c5ccc2[nH]5)C=C4)C=C3)cc1)C(=O)NC1C(C)(C)SC1(C)C
REMARK SMILES IDX 9 1 10 2 11 3 8 5 6 6 4 7 3 8 5 10 2 11 1 12 81 13 82 14
REMARK SMILES IDX 83 15 84 17 85 18 89 19 86 20 87 21 88 22 90 23 91 24 7 25
REMARK SMILES IDX 12 29 13 30 14 31 15 32 16 33 17 35 18 36 19 37 80 38 20 39
REMARK SMILES IDX 79 40 21 41 22 42 23 43 73 44 24 45 78 46 72 47 74 48 25 49
REMARK SMILES IDX 77 50 71 51 70 52 26 54 58 55 38 56 57 57 39 58 42 59 56 60
REMARK SMILES IDX 75 61 40 62 41 63 55 65 76 66 43 67 27 68 28 69 36 70 29 71
REMARK SMILES IDX 30 72 34 73 37 74 31 75 32 76 35 77 33 78 59 79 60 80 68 81
REMARK SMILES IDX 61 82 62 83 66 84 69 85 63 86 64 87 67 88 65 89 44 90 45 91
REMARK SMILES IDX 53 92 46 93 47 94 51 95 54 96 48 97 49 98 52 99 50 100
REMARK H PARENT 11 4 3 9 83 16 7 26 7 27 7 28 15 34 74 53 42 64
REMARK Flexibility Score: inf
ROOT
ATOM      1  C   UNL A   1      34.628  23.745  24.323  1.00  0.00     0.226 C 
ATOM      2  O   UNL A   1      34.757  24.945  24.568  1.00  0.00    -0.275 OA
ATOM      3  N   UNL A   1      34.722  22.860  25.353  1.00  0.00    -0.356 N 
ATOM      4  H   UNL A   1      34.809  23.267  26.245  1.00  0.00     0.163 HD
ENDROOT
BRANCH   1   5
ATOM      5  C   UNL A   1      34.400  23.265  22.907  1.00  0.00     0.175 C 
BRANCH   5   6
ATOM      6  C   UNL A   1      32.908  23.286  22.601  1.00  0.00     0.280 C 
BRANCH   6   7
ATOM      7  C   UNL A   1      32.432  24.653  22.071  1.00  0.00     0.279 C 
ATOM      8  N   UNL A   1      31.293  25.288  22.449  1.00  0.00    -0.339 N 
ATOM      9  H   UNL A   1      31.055  26.070  21.899  1.00  0.00     0.164 HD
ATOM     10  O   UNL A   1      33.130  25.257  21.250  1.00  0.00    -0.268 OA
BRANCH   8  11
ATOM     11  C   UNL A   1      30.368  25.004  23.532  1.00  0.00     0.168 C 
ATOM     12  C   UNL A   1      29.195  25.982  23.506  1.00  0.00     0.041 C 
BRANCH  11  13
ATOM     13  C   UNL A   1      31.044  25.056  24.904  1.00  0.00     0.242 C 
ATOM     14  O   UNL A   1      30.831  24.176  25.744  1.00  0.00    -0.273 OA
ATOM     15  N   UNL A   1      31.857  26.099  25.270  1.00  0.00    -0.349 N 
ATOM     16  H   UNL A   1      32.732  25.841  25.639  1.00  0.00     0.163 HD
BRANCH  15  17
ATOM     17  C   UNL A   1      31.608  27.572  25.191  1.00  0.00     0.113 C 
ATOM     18  C   UNL A   1      32.487  28.300  26.303  1.00  0.00     0.032 C 
ATOM     19  C   UNL A   1      32.177  28.519  24.022  1.00  0.00     0.032 C 
ATOM     20  C   UNL A   1      31.774  28.426  27.643  1.00  0.00     0.025 C 
ATOM     21  C   UNL A   1      33.927  27.807  26.500  1.00  0.00     0.025 C 
ATOM     22  S   UNL A   1      32.405  29.853  25.347  1.00  0.00    -0.145 SA
ATOM     23  C   UNL A   1      33.527  28.315  23.327  1.00  0.00     0.025 C 
ATOM     24  C   UNL A   1      31.118  29.061  23.044  1.00  0.00     0.025 C 
ENDBRANCH  15  17
ENDBRANCH  11  13
ENDBRANCH   8  11
ENDBRANCH   6   7
BRANCH   6  25
ATOM     25  N   UNL A   1      32.528  22.207  21.673  1.00  0.00    -0.347 N 
ATOM     26  H   UNL A   1      32.775  21.305  22.081  1.00  0.00     0.345 HD
ATOM     27  H   UNL A   1      33.024  22.327  20.790  1.00  0.00     0.345 HD
ATOM     28  H   UNL A   1      31.522  22.239  21.506  1.00  0.00     0.345 HD
ENDBRANCH   6  25
ENDBRANCH   5   6
ENDBRANCH   1   5
BRANCH   3  29
ATOM     29  C   UNL A   1      34.714  21.408  25.335  1.00  0.00     0.117 C 
BRANCH  29  30
ATOM     30  C   UNL A   1      36.069  20.858  24.917  1.00  0.00     0.042 C 
BRANCH  30  31
ATOM     31  C   UNL A   1      37.275  21.538  25.526  1.00  0.00     0.118 C 
BRANCH  31  32
ATOM     32  N   UNL A   1      38.384  20.632  25.742  1.00  0.00    -0.352 N 
ATOM     33  C   UNL A   1      39.658  20.865  26.183  1.00  0.00     0.251 C 
ATOM     34  H   UNL A   1      38.189  19.689  25.538  1.00  0.00     0.163 HD
ATOM     35  O   UNL A   1      40.464  19.927  26.137  1.00  0.00    -0.269 OA
BRANCH  33  36
ATOM     36  C   UNL A   1      40.111  22.182  26.700  1.00  0.00     0.039 A 
ATOM     37  C   UNL A   1      39.554  23.334  26.131  1.00  0.00     0.014 A 
ATOM     38  C   UNL A   1      41.121  22.328  27.655  1.00  0.00     0.014 A 
ATOM     39  C   UNL A   1      40.011  24.602  26.502  1.00  0.00     0.010 A 
ATOM     40  C   UNL A   1      41.490  23.592  28.115  1.00  0.00     0.010 A 
ATOM     41  C   UNL A   1      40.986  24.742  27.499  1.00  0.00    -0.014 A 
BRANCH  41  42
ATOM     42  C   UNL A   1      41.567  26.073  27.816  1.00  0.00     0.031 A 
ATOM     43  C   UNL A   1      42.949  26.424  27.325  1.00  0.00     0.074 A 
ATOM     44  C   UNL A   1      40.868  26.960  28.546  1.00  0.00     0.049 A 
ATOM     45  N   UNL A   1      43.631  27.533  27.482  1.00  0.00    -0.248 NA
ATOM     46  C   UNL A   1      43.679  25.380  26.588  1.00  0.00     0.031 C 
ATOM     47  C   UNL A   1      39.551  26.719  29.134  1.00  0.00     0.029 A 
ATOM     48  N   UNL A   1      41.168  28.247  28.915  1.00  0.00    -0.354 N 
ATOM     49  C   UNL A   1      44.865  27.306  26.885  1.00  0.00     0.074 A 
ATOM     50  C   UNL A   1      44.870  25.934  26.431  1.00  0.00     0.031 C 
ATOM     51  C   UNL A   1      39.141  27.833  29.763  1.00  0.00     0.029 A 
ATOM     52  C   UNL A   1      40.174  28.857  29.638  1.00  0.00     0.049 A 
ATOM     53  H   UNL A   1      42.016  28.691  28.682  1.00  0.00     0.167 HD
ATOM     54  C   UNL A   1      45.892  28.169  26.695  1.00  0.00     0.037 A 
ATOM     55  C   UNL A   1      40.100  30.108  30.132  1.00  0.00     0.037 A 
ATOM     56  C   UNL A   1      45.872  29.545  27.114  1.00  0.00     0.049 A 
ATOM     57  C   UNL A   1      41.224  31.070  29.861  1.00  0.00     0.074 A 
ATOM     58  C   UNL A   1      46.837  30.520  26.935  1.00  0.00     0.029 A 
ATOM     59  N   UNL A   1      44.821  30.141  27.797  1.00  0.00    -0.354 N 
ATOM     60  N   UNL A   1      42.359  30.865  29.235  1.00  0.00    -0.248 NA
ATOM     61  C   UNL A   1      41.045  32.447  30.342  1.00  0.00     0.031 C 
ATOM     62  C   UNL A   1      46.382  31.699  27.537  1.00  0.00     0.029 A 
ATOM     63  C   UNL A   1      45.115  31.471  28.049  1.00  0.00     0.049 A 
ATOM     64  H   UNL A   1      43.990  29.687  28.062  1.00  0.00     0.167 HD
ATOM     65  C   UNL A   1      43.017  32.088  29.225  1.00  0.00     0.074 A 
ATOM     66  C   UNL A   1      42.145  33.034  29.891  1.00  0.00     0.031 C 
ATOM     67  C   UNL A   1      44.232  32.399  28.709  1.00  0.00     0.037 A 
BRANCH  54  68
ATOM     68  C   UNL A   1      47.113  27.642  25.994  1.00  0.00     0.064 A 
ATOM     69  C   UNL A   1      48.192  27.094  26.706  1.00  0.00     0.173 A 
ATOM     70  C   UNL A   1      47.214  27.695  24.596  1.00  0.00     0.173 A 
ATOM     71  F   UNL A   1      48.156  27.033  28.047  1.00  0.00    -0.203 F 
ATOM     72  C   UNL A   1      49.344  26.665  26.051  1.00  0.00     0.198 A 
ATOM     73  C   UNL A   1      48.353  27.232  23.940  1.00  0.00     0.198 A 
ATOM     74  F   UNL A   1      46.211  28.201  23.864  1.00  0.00    -0.203 F 
ATOM     75  F   UNL A   1      50.389  26.215  26.759  1.00  0.00    -0.200 F 
ATOM     76  C   UNL A   1      49.421  26.731  24.669  1.00  0.00     0.200 A 
ATOM     77  F   UNL A   1      48.422  27.284  22.603  1.00  0.00    -0.200 F 
ATOM     78  F   UNL A   1      50.531  26.323  24.039  1.00  0.00    -0.200 F 
ENDBRANCH  54  68
BRANCH  55  79
ATOM     79  C   UNL A   1      38.887  30.529  30.876  1.00  0.00     0.064 A 
ATOM     80  C   UNL A   1      38.848  30.485  32.277  1.00  0.00     0.173 A 
ATOM     81  C   UNL A   1      37.755  31.013  30.206  1.00  0.00     0.173 A 
ATOM     82  F   UNL A   1      39.901  30.014  32.961  1.00  0.00    -0.203 F 
ATOM     83  C   UNL A   1      37.718  30.897  32.979  1.00  0.00     0.198 A 
ATOM     84  C   UNL A   1      36.634  31.449  30.910  1.00  0.00     0.198 A 
ATOM     85  F   UNL A   1      37.745  31.082  28.867  1.00  0.00    -0.203 F 
ATOM     86  F   UNL A   1      37.695  30.814  34.316  1.00  0.00    -0.200 F 
ATOM     87  C   UNL A   1      36.615  31.386  32.295  1.00  0.00     0.200 A 
ATOM     88  F   UNL A   1      35.575  31.935  30.247  1.00  0.00    -0.200 F 
ATOM     89  F   UNL A   1      35.531  31.794  32.971  1.00  0.00    -0.200 F 
ENDBRANCH  55  79
BRANCH  67  90
ATOM     90  C   UNL A   1      44.672  33.829  28.812  1.00  0.00     0.064 A 
ATOM     91  C   UNL A   1      45.428  34.293  29.899  1.00  0.00     0.173 A 
ATOM     92  C   UNL A   1      44.355  34.742  27.794  1.00  0.00     0.173 A 
ATOM     93  F   UNL A   1      45.745  33.461  30.903  1.00  0.00    -0.203 F 
ATOM     94  C   UNL A   1      45.821  35.626  29.979  1.00  0.00     0.198 A 
ATOM     95  C   UNL A   1      44.776  36.068  27.863  1.00  0.00     0.198 A 
ATOM     96  F   UNL A   1      43.642  34.347  26.729  1.00  0.00    -0.203 F 
ATOM     97  F   UNL A   1      46.497  36.059  31.053  1.00  0.00    -0.200 F 
ATOM     98  C   UNL A   1      45.500  36.510  28.960  1.00  0.00     0.200 A 
ATOM     99  F   UNL A   1      44.477  36.916  26.871  1.00  0.00    -0.200 F 
ATOM    100  F   UNL A   1      45.880  37.792  29.039  1.00  0.00    -0.200 F 
ENDBRANCH  67  90
ENDBRANCH  41  42
ENDBRANCH  33  36
ENDBRANCH  31  32
ENDBRANCH  30  31
ENDBRANCH  29  30
ENDBRANCH   3  29
TORSDOF 16
ENDMDL
MODEL 2
REMARK VINA RESULT:     -11.8      2.067      3.171
REMARK SMILES C[C@@H](NC(=O)[C@@H]([NH3+])CC(=O)NCCCNC(=O)c1ccc(-c2c3nc(c(-c4c(F)c(F)c(F)c(F)c4F)c4ccc([nH]4)c(-c4c(F)c(F)c(F)c(F)c4F)c4nc(c(-c5c(F)c(F)c(F)c(F)c5F)c5ccc2[nH]5)C=C4)C=C3)cc1)C(=O)NC1C(C)(C)SC1(C)C
REMARK SMILES IDX 9 1 10 2 11 3 8 5 6 6 4 7 3 8 5 10 2 11 1 12 81 13 82 14
REMARK SMILES IDX 83 15 84 17 85 18 89 19 86 20 87 21 88 22 90 23 91 24 7 25
REMARK SMILES IDX 12 29 13 30 14 31 15 32 16 33 17 35 18 36 19 37 80 38 20 39
REMARK SMILES IDX 79 40 21 41 22 42 23 43 73 44 24 45 78 46 72 47 74 48 25 49
REMARK SMILES IDX 77 50 71 51 70 52 26 54 58 55 38 56 57 57 39 58 42 59 56 60
REMARK SMILES IDX 75 61 40 62 41 63 55 65 76 66 43 67 27 68 28 69 36 70 29 71
REMARK SMILES IDX 30 72 34 73 37 74 31 75 32 76 35 77 33 78 59 79 60 80 68 81
REMARK SMILES IDX 61 82 62 83 66 84 69 85 63 86 64 87 67 88 65 89 44 90 45 91
REMARK SMILES IDX 53 92 46 93 47 94 51 95 54 96 48 97 49 98 52 99 50 100
REMARK H PARENT 11 4 3 9 83 16 7 26 7 27 7 28 15 34 74 53 42 64
REMARK Flexibility Score: inf
ROOT
ATOM      1  C   UNL A   1      35.912  21.900  25.715  1.00  0.00     0.226 C 
ATOM      2  O   UNL A   1      35.865  22.896  26.438  1.00  0.00    -0.275 OA
ATOM      3  N   UNL A   1      37.128  21.350  25.447  1.00  0.00    -0.356 N 
ATOM      4  H   UNL A   1      37.884  21.756  25.929  1.00  0.00     0.163 HD
ENDROOT
BRANCH   1   5
ATOM      5  C   UNL A   1      34.650  21.320  25.116  1.00  0.00     0.175 C 
BRANCH   5   6
ATOM      6  C   UNL A   1      33.504  21.471  26.109  1.00  0.00     0.280 C 
BRANCH   6   7
ATOM      7  C   UNL A   1      32.133  21.151  25.482  1.00  0.00     0.279 C 
ATOM      8  N   UNL A   1      31.033  21.943  25.556  1.00  0.00    -0.339 N 
ATOM      9  H   UNL A   1      30.199  21.520  25.245  1.00  0.00     0.164 HD
ATOM     10  O   UNL A   1      31.994  20.108  24.835  1.00  0.00    -0.268 OA
BRANCH   8  11
ATOM     11  C   UNL A   1      30.882  23.311  26.020  1.00  0.00     0.168 C 
ATOM     12  C   UNL A   1      29.665  23.437  26.934  1.00  0.00     0.041 C 
BRANCH  11  13
ATOM     13  C   UNL A   1      30.756  24.306  24.864  1.00  0.00     0.242 C 
ATOM     14  O   UNL A   1      30.598  23.908  23.706  1.00  0.00    -0.273 OA
ATOM     15  N   UNL A   1      30.868  25.660  25.060  1.00  0.00    -0.349 N 
ATOM     16  H   UNL A   1      30.146  26.203  24.669  1.00  0.00     0.163 HD
BRANCH  15  17
ATOM     17  C   UNL A   1      31.928  26.431  25.781  1.00  0.00     0.113 C 
ATOM     18  C   UNL A   1      33.207  26.549  24.837  1.00  0.00     0.032 C 
ATOM     19  C   UNL A   1      31.876  28.020  26.023  1.00  0.00     0.032 C 
ATOM     20  C   UNL A   1      34.181  25.389  25.002  1.00  0.00     0.025 C 
ATOM     21  C   UNL A   1      32.963  26.845  23.351  1.00  0.00     0.025 C 
ATOM     22  S   UNL A   1      33.751  28.024  25.763  1.00  0.00    -0.145 SA
ATOM     23  C   UNL A   1      31.265  29.024  25.040  1.00  0.00     0.025 C 
ATOM     24  C   UNL A   1      31.644  28.453  27.483  1.00  0.00     0.025 C 
ENDBRANCH  15  17
ENDBRANCH  11  13
ENDBRANCH   8  11
ENDBRANCH   6   7
BRANCH   6  25
ATOM     25  N   UNL A   1      33.725  20.661  27.320  1.00  0.00    -0.347 N 
ATOM     26  H   UNL A   1      33.514  19.684  27.119  1.00  0.00     0.345 HD
ATOM     27  H   UNL A   1      33.117  20.995  28.068  1.00  0.00     0.345 HD
ATOM     28  H   UNL A   1      34.700  20.745  27.611  1.00  0.00     0.345 HD
ENDBRANCH   6  25
ENDBRANCH   5   6
ENDBRANCH   1   5
BRANCH   3  29
ATOM     29  C   UNL A   1      37.479  20.257  24.558  1.00  0.00     0.117 C 
BRANCH  29  30
ATOM     30  C   UNL A   1      38.374  19.247  25.260  1.00  0.00     0.042 C 
BRANCH  30  31
ATOM     31  C   UNL A   1      39.592  19.813  25.955  1.00  0.00     0.118 C 
BRANCH  31  32
ATOM     32  N   UNL A   1      40.752  18.952  25.853  1.00  0.00    -0.352 N 
ATOM     33  C   UNL A   1      42.088  19.235  25.937  1.00  0.00     0.251 C 
ATOM     34  H   UNL A   1      40.544  18.002  25.698  1.00  0.00     0.163 HD
ATOM     35  O   UNL A   1      42.886  18.329  25.664  1.00  0.00    -0.269 OA
BRANCH  33  36
ATOM     36  C   UNL A   1      42.614  20.568  26.328  1.00  0.00     0.039 A 
ATOM     37  C   UNL A   1      42.590  20.905  27.688  1.00  0.00     0.014 A 
ATOM     38  C   UNL A   1      43.043  21.527  25.407  1.00  0.00     0.014 A 
ATOM     39  C   UNL A   1      42.977  22.181  28.110  1.00  0.00     0.010 A 
ATOM     40  C   UNL A   1      43.545  22.755  25.838  1.00  0.00     0.010 A 
ATOM     41  C   UNL A   1      43.457  23.119  27.186  1.00  0.00    -0.014 A 
BRANCH  41  42
ATOM     42  C   UNL A   1      43.755  24.515  27.602  1.00  0.00     0.031 A 
ATOM     43  C   UNL A   1      45.179  25.013  27.593  1.00  0.00     0.074 A 
ATOM     44  C   UNL A   1      42.760  25.331  27.993  1.00  0.00     0.049 A 
ATOM     45  N   UNL A   1      45.648  26.196  27.906  1.00  0.00    -0.248 NA
ATOM     46  C   UNL A   1      46.220  24.044  27.215  1.00  0.00     0.031 C 
ATOM     47  C   UNL A   1      41.352  24.953  28.109  1.00  0.00     0.029 A 
ATOM     48  N   UNL A   1      42.783  26.652  28.364  1.00  0.00    -0.354 N 
ATOM     49  C   UNL A   1      47.029  26.099  27.783  1.00  0.00     0.074 A 
ATOM     50  C   UNL A   1      47.329  24.728  27.442  1.00  0.00     0.031 C 
ATOM     51  C   UNL A   1      40.641  26.025  28.490  1.00  0.00     0.029 A 
ATOM     52  C   UNL A   1      41.544  27.159  28.664  1.00  0.00     0.049 A 
ATOM     53  H   UNL A   1      43.610  27.185  28.409  1.00  0.00     0.167 HD
ATOM     54  C   UNL A   1      47.966  27.072  27.904  1.00  0.00     0.037 A 
ATOM     55  C   UNL A   1      41.177  28.403  29.027  1.00  0.00     0.037 A 
ATOM     56  C   UNL A   1      47.663  28.445  28.207  1.00  0.00     0.049 A 
ATOM     57  C   UNL A   1      42.222  29.483  29.099  1.00  0.00     0.074 A 
ATOM     58  C   UNL A   1      48.527  29.521  28.310  1.00  0.00     0.029 A 
ATOM     59  N   UNL A   1      46.386  28.930  28.452  1.00  0.00    -0.354 N 
ATOM     60  N   UNL A   1      43.518  29.397  28.914  1.00  0.00    -0.248 NA
ATOM     61  C   UNL A   1      41.749  30.839  29.406  1.00  0.00     0.031 C 
ATOM     62  C   UNL A   1      47.775  30.652  28.647  1.00  0.00     0.029 A 
ATOM     63  C   UNL A   1      46.438  30.290  28.708  1.00  0.00     0.049 A 
ATOM     64  H   UNL A   1      45.565  28.389  28.443  1.00  0.00     0.167 HD
ATOM     65  C   UNL A   1      44.012  30.686  29.055  1.00  0.00     0.074 A 
ATOM     66  C   UNL A   1      42.872  31.540  29.324  1.00  0.00     0.031 C 
ATOM     67  C   UNL A   1      45.292  31.124  28.968  1.00  0.00     0.037 A 
BRANCH  54  68
ATOM     68  C   UNL A   1      49.400  26.673  27.696  1.00  0.00     0.064 A 
ATOM     69  C   UNL A   1      49.936  26.492  26.410  1.00  0.00     0.173 A 
ATOM     70  C   UNL A   1      50.248  26.456  28.792  1.00  0.00     0.173 A 
ATOM     71  F   UNL A   1      49.164  26.671  25.326  1.00  0.00    -0.203 F 
ATOM     72  C   UNL A   1      51.248  26.062  26.231  1.00  0.00     0.198 A 
ATOM     73  C   UNL A   1      51.572  26.061  28.608  1.00  0.00     0.198 A 
ATOM     74  F   UNL A   1      49.794  26.620  30.043  1.00  0.00    -0.203 F 
ATOM     75  F   UNL A   1      51.712  25.826  24.996  1.00  0.00    -0.200 F 
ATOM     76  C   UNL A   1      52.066  25.852  27.330  1.00  0.00     0.200 A 
ATOM     77  F   UNL A   1      52.365  25.869  29.671  1.00  0.00    -0.200 F 
ATOM     78  F   UNL A   1      53.327  25.433  27.157  1.00  0.00    -0.200 F 
ENDBRANCH  54  68
BRANCH  55  79
ATOM     79  C   UNL A   1      39.745  28.697  29.284  1.00  0.00     0.064 A 
ATOM     80  C   UNL A   1      39.193  28.535  30.563  1.00  0.00     0.173 A 
ATOM     81  C   UNL A   1      38.908  29.176  28.267  1.00  0.00     0.173 A 
ATOM     82  F   UNL A   1      39.951  28.064  31.563  1.00  0.00    -0.203 F 
ATOM     83  C   UNL A   1      37.855  28.829  30.812  1.00  0.00     0.198 A 
ATOM     84  C   UNL A   1      37.575  29.494  28.523  1.00  0.00     0.198 A 
ATOM     85  F   UNL A   1      39.390  29.356  27.029  1.00  0.00    -0.203 F 
ATOM     86  F   UNL A   1      37.344  28.633  32.035  1.00  0.00    -0.200 F 
ATOM     87  C   UNL A   1      37.049  29.315  29.793  1.00  0.00     0.200 A 
ATOM     88  F   UNL A   1      36.803  29.978  27.540  1.00  0.00    -0.200 F 
ATOM     89  F   UNL A   1      35.764  29.608  30.035  1.00  0.00    -0.200 F 
ENDBRANCH  55  79
BRANCH  67  90
ATOM     90  C   UNL A   1      45.523  32.598  29.129  1.00  0.00     0.064 A 
ATOM     91  C   UNL A   1      45.808  33.168  30.378  1.00  0.00     0.173 A 
ATOM     92  C   UNL A   1      45.485  33.446  28.011  1.00  0.00     0.173 A 
ATOM     93  F   UNL A   1      45.843  32.401  31.479  1.00  0.00    -0.203 F 
ATOM     94  C   UNL A   1      46.012  34.539  30.507  1.00  0.00     0.198 A 
ATOM     95  C   UNL A   1      45.720  34.812  28.140  1.00  0.00     0.198 A 
ATOM     96  F   UNL A   1      45.226  32.948  26.793  1.00  0.00    -0.203 F 
ATOM     97  F   UNL A   1      46.230  35.071  31.719  1.00  0.00    -0.200 F 
ATOM     98  C   UNL A   1      45.973  35.359  29.389  1.00  0.00     0.200 A 
ATOM     99  F   UNL A   1      45.695  35.600  27.057  1.00  0.00    -0.200 F 
ATOM    100  F   UNL A   1      46.171  36.678  29.516  1.00  0.00    -0.200 F 
ENDBRANCH  67  90
ENDBRANCH  41  42
ENDBRANCH  33  36
ENDBRANCH  31  32
ENDBRANCH  30  31
ENDBRANCH  29  30
ENDBRANCH   3  29
TORSDOF 16
ENDMDL
MODEL 3
REMARK VINA RESULT:     -11.8      4.257      9.660
REMARK SMILES C[C@@H](NC(=O)[C@@H]([NH3+])CC(=O)NCCCNC(=O)c1ccc(-c2c3nc(c(-c4c(F)c(F)c(F)c(F)c4F)c4ccc([nH]4)c(-c4c(F)c(F)c(F)c(F)c4F)c4nc(c(-c5c(F)c(F)c(F)c(F)c5F)c5ccc2[nH]5)C=C4)C=C3)cc1)C(=O)NC1C(C)(C)SC1(C)C
REMARK SMILES IDX 9 1 10 2 11 3 8 5 6 6 4 7 3 8 5 10 2 11 1 12 81 13 82 14
REMARK SMILES IDX 83 15 84 17 85 18 89 19 86 20 87 21 88 22 90 23 91 24 7 25
REMARK SMILES IDX 12 29 13 30 14 31 15 32 16 33 17 35 18 36 19 37 80 38 20 39
REMARK SMILES IDX 79 40 21 41 22 42 23 43 73 44 24 45 78 46 72 47 74 48 25 49
REMARK SMILES IDX 77 50 71 51 70 52 26 54 58 55 38 56 57 57 39 58 42 59 56 60
REMARK SMILES IDX 75 61 40 62 41 63 55 65 76 66 43 67 27 68 28 69 36 70 29 71
REMARK SMILES IDX 30 72 34 73 37 74 31 75 32 76 35 77 33 78 59 79 60 80 68 81
REMARK SMILES IDX 61 82 62 83 66 84 69 85 63 86 64 87 67 88 65 89 44 90 45 91
REMARK SMILES IDX 53 92 46 93 47 94 51 95 54 96 48 97 49 98 52 99 50 100
REMARK H PARENT 11 4 3 9 83 16 7 26 7 27 7 28 15 34 74 53 42 64
REMARK Flexibility Score: inf
ROOT
ATOM      1  C   UNL A   1      31.344  27.093  26.569  1.00  0.00     0.226 C 
ATOM      2  O   UNL A   1      30.913  27.535  27.635  1.00  0.00    -0.275 OA
ATOM      3  N   UNL A   1      31.404  27.930  25.497  1.00  0.00    -0.356 N 
ATOM      4  H   UNL A   1      31.165  28.867  25.686  1.00  0.00     0.163 HD
ENDROOT
BRANCH   1   5
ATOM      5  C   UNL A   1      31.769  25.647  26.447  1.00  0.00     0.175 C 
BRANCH   5   6
ATOM      6  C   UNL A   1      30.580  24.808  25.993  1.00  0.00     0.280 C 
BRANCH   6   7
ATOM      7  C   UNL A   1      30.732  23.319  26.361  1.00  0.00     0.279 C 
ATOM      8  N   UNL A   1      31.321  22.375  25.584  1.00  0.00    -0.339 N 
ATOM      9  H   UNL A   1      31.191  21.448  25.891  1.00  0.00     0.164 HD
ATOM     10  O   UNL A   1      30.313  22.923  27.453  1.00  0.00    -0.268 OA
BRANCH   8  11
ATOM     11  C   UNL A   1      32.112  22.506  24.373  1.00  0.00     0.168 C 
ATOM     12  C   UNL A   1      31.219  22.860  23.185  1.00  0.00     0.041 C 
BRANCH  11  13
ATOM     13  C   UNL A   1      32.904  21.236  24.054  1.00  0.00     0.242 C 
ATOM     14  O   UNL A   1      32.320  20.190  23.755  1.00  0.00    -0.273 OA
ATOM     15  N   UNL A   1      34.273  21.196  24.142  1.00  0.00    -0.349 N 
ATOM     16  H   UNL A   1      34.734  20.828  23.354  1.00  0.00     0.163 HD
BRANCH  15  17
ATOM     17  C   UNL A   1      35.166  21.629  25.261  1.00  0.00     0.113 C 
ATOM     18  C   UNL A   1      36.622  21.906  24.676  1.00  0.00     0.032 C 
ATOM     19  C   UNL A   1      35.096  23.077  25.959  1.00  0.00     0.032 C 
ATOM     20  C   UNL A   1      37.511  20.669  24.674  1.00  0.00     0.025 C 
ATOM     21  C   UNL A   1      36.716  22.642  23.333  1.00  0.00     0.025 C 
ATOM     22  S   UNL A   1      36.983  22.994  26.096  1.00  0.00    -0.145 SA
ATOM     23  C   UNL A   1      34.737  24.373  25.224  1.00  0.00     0.025 C 
ATOM     24  C   UNL A   1      34.560  23.083  27.402  1.00  0.00     0.025 C 
ENDBRANCH  15  17
ENDBRANCH  11  13
ENDBRANCH   8  11
ENDBRANCH   6   7
BRANCH   6  25
ATOM     25  N   UNL A   1      29.309  25.345  26.507  1.00  0.00    -0.347 N 
ATOM     26  H   UNL A   1      29.484  25.874  27.362  1.00  0.00     0.345 HD
ATOM     27  H   UNL A   1      28.670  24.576  26.707  1.00  0.00     0.345 HD
ATOM     28  H   UNL A   1      28.891  25.960  25.807  1.00  0.00     0.345 HD
ENDBRANCH   6  25
ENDBRANCH   5   6
ENDBRANCH   1   5
BRANCH   3  29
ATOM     29  C   UNL A   1      31.764  27.652  24.118  1.00  0.00     0.117 C 
BRANCH  29  30
ATOM     30  C   UNL A   1      32.956  28.492  23.684  1.00  0.00     0.042 C 
BRANCH  30  31
ATOM     31  C   UNL A   1      33.741  29.151  24.796  1.00  0.00     0.118 C 
BRANCH  31  32
ATOM     32  N   UNL A   1      33.040  30.266  25.398  1.00  0.00    -0.352 N 
ATOM     33  C   UNL A   1      33.231  30.904  26.592  1.00  0.00     0.251 C 
ATOM     34  H   UNL A   1      32.301  30.625  24.857  1.00  0.00     0.163 HD
ATOM     35  O   UNL A   1      32.390  31.743  26.938  1.00  0.00    -0.269 OA
BRANCH  33  36
ATOM     36  C   UNL A   1      34.388  30.632  27.484  1.00  0.00     0.039 A 
ATOM     37  C   UNL A   1      35.334  31.651  27.655  1.00  0.00     0.014 A 
ATOM     38  C   UNL A   1      34.624  29.392  28.082  1.00  0.00     0.014 A 
ATOM     39  C   UNL A   1      36.496  31.424  28.399  1.00  0.00     0.010 A 
ATOM     40  C   UNL A   1      35.719  29.203  28.926  1.00  0.00     0.010 A 
ATOM     41  C   UNL A   1      36.699  30.195  29.041  1.00  0.00    -0.014 A 
BRANCH  41  42
ATOM     42  C   UNL A   1      37.981  29.898  29.732  1.00  0.00     0.031 A 
ATOM     43  C   UNL A   1      38.227  30.433  31.120  1.00  0.00     0.074 A 
ATOM     44  C   UNL A   1      38.925  29.160  29.120  1.00  0.00     0.049 A 
ATOM     45  N   UNL A   1      39.271  30.279  31.899  1.00  0.00    -0.248 NA
ATOM     46  C   UNL A   1      37.177  31.285  31.700  1.00  0.00     0.031 C 
ATOM     47  C   UNL A   1      38.837  28.639  27.756  1.00  0.00     0.029 A 
ATOM     48  N   UNL A   1      40.144  28.719  29.569  1.00  0.00    -0.354 N 
ATOM     49  C   UNL A   1      39.005  31.029  33.039  1.00  0.00     0.074 A 
ATOM     50  C   UNL A   1      37.744  31.697  32.823  1.00  0.00     0.031 C 
ATOM     51  C   UNL A   1      39.940  27.921  27.490  1.00  0.00     0.029 A 
ATOM     52  C   UNL A   1      40.819  27.948  28.656  1.00  0.00     0.049 A 
ATOM     53  H   UNL A   1      40.500  28.935  30.461  1.00  0.00     0.167 HD
ATOM     54  C   UNL A   1      39.727  31.125  34.182  1.00  0.00     0.037 A 
ATOM     55  C   UNL A   1      42.007  27.322  28.755  1.00  0.00     0.037 A 
ATOM     56  C   UNL A   1      40.965  30.430  34.412  1.00  0.00     0.049 A 
ATOM     57  C   UNL A   1      42.766  27.392  30.052  1.00  0.00     0.074 A 
ATOM     58  C   UNL A   1      41.756  30.419  35.546  1.00  0.00     0.029 A 
ATOM     59  N   UNL A   1      41.590  29.613  33.479  1.00  0.00    -0.354 N 
ATOM     60  N   UNL A   1      42.474  28.048  31.149  1.00  0.00    -0.248 NA
ATOM     61  C   UNL A   1      44.008  26.612  30.133  1.00  0.00     0.031 C 
ATOM     62  C   UNL A   1      42.876  29.619  35.290  1.00  0.00     0.029 A 
ATOM     63  C   UNL A   1      42.758  29.094  34.012  1.00  0.00     0.049 A 
ATOM     64  H   UNL A   1      41.252  29.428  32.574  1.00  0.00     0.167 HD
ATOM     65  C   UNL A   1      43.478  27.742  32.058  1.00  0.00     0.074 A 
ATOM     66  C   UNL A   1      44.379  26.826  31.388  1.00  0.00     0.031 C 
ATOM     67  C   UNL A   1      43.638  28.179  33.332  1.00  0.00     0.037 A 
BRANCH  54  68
ATOM     68  C   UNL A   1      39.179  32.009  35.268  1.00  0.00     0.064 A 
ATOM     69  C   UNL A   1      39.420  33.392  35.283  1.00  0.00     0.173 A 
ATOM     70  C   UNL A   1      38.415  31.469  36.313  1.00  0.00     0.173 A 
ATOM     71  F   UNL A   1      40.158  33.960  34.317  1.00  0.00    -0.203 F 
ATOM     72  C   UNL A   1      38.961  34.192  36.327  1.00  0.00     0.198 A 
ATOM     73  C   UNL A   1      37.926  32.277  37.337  1.00  0.00     0.198 A 
ATOM     74  F   UNL A   1      38.148  30.155  36.347  1.00  0.00    -0.203 F 
ATOM     75  F   UNL A   1      39.267  35.496  36.356  1.00  0.00    -0.200 F 
ATOM     76  C   UNL A   1      38.210  33.634  37.350  1.00  0.00     0.200 A 
ATOM     77  F   UNL A   1      37.191  31.739  38.319  1.00  0.00    -0.200 F 
ATOM     78  F   UNL A   1      37.772  34.402  38.356  1.00  0.00    -0.200 F 
ENDBRANCH  54  68
BRANCH  55  79
ATOM     79  C   UNL A   1      42.511  26.526  27.608  1.00  0.00     0.064 A 
ATOM     80  C   UNL A   1      43.439  27.067  26.706  1.00  0.00     0.173 A 
ATOM     81  C   UNL A   1      42.103  25.200  27.408  1.00  0.00     0.173 A 
ATOM     82  F   UNL A   1      43.847  28.337  26.847  1.00  0.00    -0.203 F 
ATOM     83  C   UNL A   1      43.929  26.316  25.640  1.00  0.00     0.198 A 
ATOM     84  C   UNL A   1      42.613  24.441  26.357  1.00  0.00     0.198 A 
ATOM     85  F   UNL A   1      41.224  24.635  28.248  1.00  0.00    -0.203 F 
ATOM     86  F   UNL A   1      44.789  26.868  24.774  1.00  0.00    -0.200 F 
ATOM     87  C   UNL A   1      43.521  25.002  25.471  1.00  0.00     0.200 A 
ATOM     88  F   UNL A   1      42.228  23.166  26.205  1.00  0.00    -0.200 F 
ATOM     89  F   UNL A   1      44.001  24.275  24.452  1.00  0.00    -0.200 F 
ENDBRANCH  55  79
BRANCH  67  90
ATOM     90  C   UNL A   1      44.812  27.641  34.096  1.00  0.00     0.064 A 
ATOM     91  C   UNL A   1      46.057  28.287  34.089  1.00  0.00     0.173 A 
ATOM     92  C   UNL A   1      44.680  26.476  34.867  1.00  0.00     0.173 A 
ATOM     93  F   UNL A   1      46.237  29.398  33.358  1.00  0.00    -0.203 F 
ATOM     94  C   UNL A   1      47.135  27.768  34.800  1.00  0.00     0.198 A 
ATOM     95  C   UNL A   1      45.753  25.976  35.600  1.00  0.00     0.198 A 
ATOM     96  F   UNL A   1      43.508  25.825  34.914  1.00  0.00    -0.203 F 
ATOM     97  F   UNL A   1      48.330  28.373  34.736  1.00  0.00    -0.200 F 
ATOM     98  C   UNL A   1      46.982  26.617  35.558  1.00  0.00     0.200 A 
ATOM     99  F   UNL A   1      45.598  24.871  36.343  1.00  0.00    -0.200 F 
ATOM    100  F   UNL A   1      48.021  26.119  36.241  1.00  0.00    -0.200 F 
ENDBRANCH  67  90
ENDBRANCH  41  42
ENDBRANCH  33  36
ENDBRANCH  31  32
ENDBRANCH  30  31
ENDBRANCH  29  30
ENDBRANCH   3  29
TORSDOF 16
ENDMDL
