MODEL 1
REMARK VINA RESULT:     -13.0      0.000      0.000
REMARK SMILES Cc1sc(NC(=O)c2ccc(Br)nc2)c(C(=O)NCCCNC(=O)c2ccc(-c3c4nc(c(-c5c(F)c(F)c(F)c(F)c5F)c5ccc([nH]5)c(-c5c(F)c(F)c(F)c(F)c5F)c5nc(c(-c6c(F)c(F)c(F)c(F)c6F)c6ccc3[nH]6)C=C5)C=C4)cc2)c1C
REMARK SMILES IDX 20 1 19 2 18 3 16 4 17 5 15 7 1 8 2 9 3 10 88 11 4 12 89 13
REMARK SMILES IDX 5 14 6 15 7 17 8 18 9 19 14 20 10 21 13 22 11 23 12 24 21 25
REMARK SMILES IDX 22 26 23 27 24 29 25 30 26 31 87 32 27 33 86 34 28 35 29 36
REMARK SMILES IDX 30 37 80 38 31 39 85 40 79 41 81 42 32 43 84 44 78 45 77 46
REMARK SMILES IDX 33 48 65 49 45 50 64 51 46 52 49 53 63 54 82 55 47 56 48 57
REMARK SMILES IDX 62 59 83 60 50 61 34 62 35 63 43 64 36 65 37 66 41 67 44 68
REMARK SMILES IDX 38 69 39 70 42 71 40 72 66 73 67 74 75 75 68 76 69 77 73 78
REMARK SMILES IDX 76 79 70 80 71 81 74 82 72 83 51 84 52 85 60 86 53 87 54 88
REMARK SMILES IDX 58 89 61 90 55 91 56 92 59 93 57 94
REMARK H PARENT 18 6 5 16 22 28 81 47 49 58
REMARK Flexibility Score: inf
ROOT
ATOM      1  C   UNL A   1      31.789  29.697  27.249  1.00  0.00     0.042 C 
ENDROOT
BRANCH   1   2
ATOM      2  C   UNL A   1      32.449  28.330  27.323  1.00  0.00     0.118 C 
BRANCH   2   3
ATOM      3  N   UNL A   1      33.192  27.972  26.128  1.00  0.00    -0.352 N 
ATOM      4  C   UNL A   1      32.736  27.435  24.947  1.00  0.00     0.254 C 
ATOM      5  O   UNL A   1      33.572  27.051  24.132  1.00  0.00    -0.269 OA
ATOM      6  H   UNL A   1      34.161  28.139  26.169  1.00  0.00     0.163 HD
BRANCH   4   7
ATOM      7  C   UNL A   1      31.298  27.263  24.723  1.00  0.00     0.077 A 
ATOM      8  C   UNL A   1      28.221  28.161  22.678  1.00  0.00     0.057 C 
ATOM      9  C   UNL A   1      29.270  27.633  23.600  1.00  0.00     0.007 A 
ATOM     10  S   UNL A   1      29.004  26.160  24.420  1.00  0.00    -0.122 S 
ATOM     11  C   UNL A   1      30.491  28.194  23.944  1.00  0.00    -0.022 A 
ATOM     12  C   UNL A   1      30.463  26.312  25.283  1.00  0.00     0.109 A 
ATOM     13  C   UNL A   1      30.956  29.559  23.534  1.00  0.00     0.046 C 
BRANCH  12  14
ATOM     14  N   UNL A   1      30.525  25.428  26.336  1.00  0.00    -0.313 N 
ATOM     15  C   UNL A   1      31.262  24.270  26.450  1.00  0.00     0.257 C 
ATOM     16  H   UNL A   1      29.968  25.655  27.116  1.00  0.00     0.171 HD
ATOM     17  O   UNL A   1      30.927  23.412  27.263  1.00  0.00    -0.269 OA
BRANCH  15  18
ATOM     18  C   UNL A   1      32.459  24.028  25.625  1.00  0.00     0.058 A 
ATOM     19  C   UNL A   1      32.395  23.575  24.307  1.00  0.00     0.018 A 
ATOM     20  C   UNL A   1      33.713  24.243  26.185  1.00  0.00     0.126 A 
ATOM     21  C   UNL A   1      33.580  23.242  23.649  1.00  0.00     0.037 A 
ATOM     22  N   UNL A   1      34.877  23.926  25.570  1.00  0.00    -0.249 NA
ATOM     23  C   UNL A   1      34.783  23.408  24.324  1.00  0.00     0.106 A 
ATOM     24  Br  UNL A   1      36.389  22.869  23.473  1.00  0.00    -0.029 Br
ENDBRANCH  15  18
ENDBRANCH  12  14
ENDBRANCH   4   7
ENDBRANCH   2   3
ENDBRANCH   1   2
BRANCH   1  25
ATOM     25  C   UNL A   1      32.590  30.775  26.528  1.00  0.00     0.118 C 
BRANCH  25  26
ATOM     26  N   UNL A   1      32.586  32.097  27.140  1.00  0.00    -0.352 N 
ATOM     27  C   UNL A   1      33.630  32.784  27.727  1.00  0.00     0.251 C 
ATOM     28  H   UNL A   1      31.719  32.564  27.134  1.00  0.00     0.163 HD
ATOM     29  O   UNL A   1      33.471  33.934  28.124  1.00  0.00    -0.269 OA
BRANCH  27  30
ATOM     30  C   UNL A   1      34.919  32.101  27.984  1.00  0.00     0.039 A 
ATOM     31  C   UNL A   1      36.049  32.898  28.193  1.00  0.00     0.014 A 
ATOM     32  C   UNL A   1      35.005  30.718  28.138  1.00  0.00     0.014 A 
ATOM     33  C   UNL A   1      37.217  32.325  28.698  1.00  0.00     0.010 A 
ATOM     34  C   UNL A   1      36.132  30.164  28.743  1.00  0.00     0.010 A 
ATOM     35  C   UNL A   1      37.238  30.968  29.061  1.00  0.00    -0.014 A 
BRANCH  35  36
ATOM     36  C   UNL A   1      38.377  30.404  29.835  1.00  0.00     0.031 A 
ATOM     37  C   UNL A   1      38.604  30.795  31.267  1.00  0.00     0.074 A 
ATOM     38  C   UNL A   1      39.261  29.595  29.214  1.00  0.00     0.049 A 
ATOM     39  N   UNL A   1      39.567  30.436  32.080  1.00  0.00    -0.248 NA
ATOM     40  C   UNL A   1      37.649  31.747  31.854  1.00  0.00     0.031 C 
ATOM     41  C   UNL A   1      39.212  29.210  27.801  1.00  0.00     0.029 A 
ATOM     42  N   UNL A   1      40.375  28.949  29.690  1.00  0.00    -0.354 N 
ATOM     43  C   UNL A   1      39.345  31.132  33.260  1.00  0.00     0.074 A 
ATOM     44  C   UNL A   1      38.192  31.979  33.040  1.00  0.00     0.031 C 
ATOM     45  C   UNL A   1      40.219  28.363  27.537  1.00  0.00     0.029 A 
ATOM     46  C   UNL A   1      41.003  28.166  28.751  1.00  0.00     0.049 A 
ATOM     47  H   UNL A   1      40.695  29.039  30.616  1.00  0.00     0.167 HD
ATOM     48  C   UNL A   1      40.021  31.051  34.431  1.00  0.00     0.037 A 
ATOM     49  C   UNL A   1      42.082  27.368  28.860  1.00  0.00     0.037 A 
ATOM     50  C   UNL A   1      41.140  30.178  34.665  1.00  0.00     0.049 A 
ATOM     51  C   UNL A   1      42.773  27.245  30.189  1.00  0.00     0.074 A 
ATOM     52  C   UNL A   1      41.848  29.974  35.837  1.00  0.00     0.029 A 
ATOM     53  N   UNL A   1      41.709  29.354  33.706  1.00  0.00    -0.354 N 
ATOM     54  N   UNL A   1      42.503  27.847  31.320  1.00  0.00    -0.248 NA
ATOM     55  C   UNL A   1      43.913  26.320  30.258  1.00  0.00     0.031 C 
ATOM     56  C   UNL A   1      42.863  29.046  35.579  1.00  0.00     0.029 A 
ATOM     57  C   UNL A   1      42.764  28.645  34.258  1.00  0.00     0.049 A 
ATOM     58  H   UNL A   1      41.409  29.285  32.770  1.00  0.00     0.167 HD
ATOM     59  C   UNL A   1      43.418  27.358  32.241  1.00  0.00     0.074 A 
ATOM     60  C   UNL A   1      44.240  26.393  31.541  1.00  0.00     0.031 C 
ATOM     61  C   UNL A   1      43.566  27.682  33.549  1.00  0.00     0.037 A 
BRANCH  48  62
ATOM     62  C   UNL A   1      39.547  31.924  35.558  1.00  0.00     0.064 A 
ATOM     63  C   UNL A   1      38.580  31.478  36.472  1.00  0.00     0.173 A 
ATOM     64  C   UNL A   1      40.076  33.210  35.735  1.00  0.00     0.173 A 
ATOM     65  F   UNL A   1      38.034  30.260  36.336  1.00  0.00    -0.203 F 
ATOM     66  C   UNL A   1      38.134  32.302  37.501  1.00  0.00     0.198 A 
ATOM     67  C   UNL A   1      39.649  34.021  36.785  1.00  0.00     0.198 A 
ATOM     68  F   UNL A   1      41.008  33.683  34.894  1.00  0.00    -0.203 F 
ATOM     69  F   UNL A   1      37.169  31.876  38.327  1.00  0.00    -0.200 F 
ATOM     70  C   UNL A   1      38.672  33.570  37.660  1.00  0.00     0.200 A 
ATOM     71  F   UNL A   1      40.178  35.242  36.945  1.00  0.00    -0.200 F 
ATOM     72  F   UNL A   1      38.243  34.361  38.653  1.00  0.00    -0.200 F 
ENDBRANCH  48  62
BRANCH  49  73
ATOM     73  C   UNL A   1      42.542  26.575  27.691  1.00  0.00     0.064 A 
ATOM     74  C   UNL A   1      42.013  25.301  27.439  1.00  0.00     0.173 A 
ATOM     75  C   UNL A   1      43.517  27.062  26.810  1.00  0.00     0.173 A 
ATOM     76  F   UNL A   1      41.092  24.784  28.267  1.00  0.00    -0.203 F 
ATOM     77  C   UNL A   1      42.458  24.535  26.365  1.00  0.00     0.198 A 
ATOM     78  C   UNL A   1      43.944  26.305  25.720  1.00  0.00     0.198 A 
ATOM     79  F   UNL A   1      44.049  28.278  27.003  1.00  0.00    -0.203 F 
ATOM     80  F   UNL A   1      41.968  23.301  26.175  1.00  0.00    -0.200 F 
ATOM     81  C   UNL A   1      43.421  25.039  25.504  1.00  0.00     0.200 A 
ATOM     82  F   UNL A   1      44.866  26.800  24.883  1.00  0.00    -0.200 F 
ATOM     83  F   UNL A   1      43.849  24.302  24.470  1.00  0.00    -0.200 F 
ENDBRANCH  49  73
BRANCH  61  84
ATOM     84  C   UNL A   1      44.637  26.961  34.312  1.00  0.00     0.064 A 
ATOM     85  C   UNL A   1      45.935  27.483  34.427  1.00  0.00     0.173 A 
ATOM     86  C   UNL A   1      44.357  25.744  34.950  1.00  0.00     0.173 A 
ATOM     87  F   UNL A   1      46.254  28.635  33.820  1.00  0.00    -0.203 F 
ATOM     88  C   UNL A   1      46.920  26.797  35.131  1.00  0.00     0.198 A 
ATOM     89  C   UNL A   1      45.338  25.074  35.675  1.00  0.00     0.198 A 
ATOM     90  F   UNL A   1      43.132  25.206  34.872  1.00  0.00    -0.203 F 
ATOM     91  F   UNL A   1      48.166  27.288  35.187  1.00  0.00    -0.200 F 
ATOM     92  C   UNL A   1      46.621  25.596  35.758  1.00  0.00     0.200 A 
ATOM     93  F   UNL A   1      45.046  23.919  36.288  1.00  0.00    -0.200 F 
ATOM     94  F   UNL A   1      47.571  24.937  36.435  1.00  0.00    -0.200 F 
ENDBRANCH  61  84
ENDBRANCH  35  36
ENDBRANCH  27  30
ENDBRANCH  25  26
ENDBRANCH   1  25
TORSDOF 12
ENDMDL
MODEL 2
REMARK VINA RESULT:     -13.0      1.473      2.519
REMARK SMILES Cc1sc(NC(=O)c2ccc(Br)nc2)c(C(=O)NCCCNC(=O)c2ccc(-c3c4nc(c(-c5c(F)c(F)c(F)c(F)c5F)c5ccc([nH]5)c(-c5c(F)c(F)c(F)c(F)c5F)c5nc(c(-c6c(F)c(F)c(F)c(F)c6F)c6ccc3[nH]6)C=C5)C=C4)cc2)c1C
REMARK SMILES IDX 20 1 19 2 18 3 16 4 17 5 15 7 1 8 2 9 3 10 88 11 4 12 89 13
REMARK SMILES IDX 5 14 6 15 7 17 8 18 9 19 14 20 10 21 13 22 11 23 12 24 21 25
REMARK SMILES IDX 22 26 23 27 24 29 25 30 26 31 87 32 27 33 86 34 28 35 29 36
REMARK SMILES IDX 30 37 80 38 31 39 85 40 79 41 81 42 32 43 84 44 78 45 77 46
REMARK SMILES IDX 33 48 65 49 45 50 64 51 46 52 49 53 63 54 82 55 47 56 48 57
REMARK SMILES IDX 62 59 83 60 50 61 34 62 35 63 43 64 36 65 37 66 41 67 44 68
REMARK SMILES IDX 38 69 39 70 42 71 40 72 66 73 67 74 75 75 68 76 69 77 73 78
REMARK SMILES IDX 76 79 70 80 71 81 74 82 72 83 51 84 52 85 60 86 53 87 54 88
REMARK SMILES IDX 58 89 61 90 55 91 56 92 59 93 57 94
REMARK H PARENT 18 6 5 16 22 28 81 47 49 58
REMARK Flexibility Score: inf
ROOT
ATOM      1  C   UNL A   1      31.758  29.057  26.839  1.00  0.00     0.042 C 
ENDROOT
BRANCH   1   2
ATOM      2  C   UNL A   1      31.425  27.919  25.889  1.00  0.00     0.118 C 
BRANCH   2   3
ATOM      3  N   UNL A   1      30.883  26.744  26.548  1.00  0.00    -0.352 N 
ATOM      4  C   UNL A   1      31.064  25.415  26.246  1.00  0.00     0.254 C 
ATOM      5  O   UNL A   1      30.367  24.593  26.836  1.00  0.00    -0.269 OA
ATOM      6  H   UNL A   1      30.304  26.925  27.323  1.00  0.00     0.163 HD
BRANCH   4   7
ATOM      7  C   UNL A   1      32.006  25.021  25.195  1.00  0.00     0.077 A 
ATOM      8  C   UNL A   1      32.915  25.044  21.502  1.00  0.00     0.057 C 
ATOM      9  C   UNL A   1      32.796  24.925  22.986  1.00  0.00     0.007 A 
ATOM     10  S   UNL A   1      34.194  24.629  23.919  1.00  0.00    -0.122 S 
ATOM     11  C   UNL A   1      31.660  24.991  23.778  1.00  0.00    -0.022 A 
ATOM     12  C   UNL A   1      33.283  24.510  25.351  1.00  0.00     0.109 A 
ATOM     13  C   UNL A   1      30.255  25.073  23.262  1.00  0.00     0.046 C 
BRANCH  12  14
ATOM     14  N   UNL A   1      34.019  23.965  26.379  1.00  0.00    -0.313 N 
ATOM     15  C   UNL A   1      34.118  22.648  26.767  1.00  0.00     0.257 C 
ATOM     16  H   UNL A   1      34.548  24.606  26.908  1.00  0.00     0.171 HD
ATOM     17  O   UNL A   1      34.492  22.374  27.905  1.00  0.00    -0.269 OA
BRANCH  15  18
ATOM     18  C   UNL A   1      33.795  21.542  25.847  1.00  0.00     0.058 A 
ATOM     19  C   UNL A   1      32.497  21.264  25.419  1.00  0.00     0.018 A 
ATOM     20  C   UNL A   1      34.824  20.724  25.397  1.00  0.00     0.126 A 
ATOM     21  C   UNL A   1      32.268  20.116  24.660  1.00  0.00     0.037 A 
ATOM     22  N   UNL A   1      34.629  19.603  24.663  1.00  0.00    -0.249 NA
ATOM     23  C   UNL A   1      33.351  19.309  24.332  1.00  0.00     0.106 A 
ATOM     24  Br  UNL A   1      33.036  17.699  23.384  1.00  0.00    -0.029 Br
ENDBRANCH  15  18
ENDBRANCH  12  14
ENDBRANCH   4   7
ENDBRANCH   2   3
ENDBRANCH   1   2
BRANCH   1  25
ATOM     25  C   UNL A   1      32.590  30.187  26.244  1.00  0.00     0.118 C 
BRANCH  25  26
ATOM     26  N   UNL A   1      32.487  31.480  26.907  1.00  0.00    -0.352 N 
ATOM     27  C   UNL A   1      33.471  32.205  27.552  1.00  0.00     0.251 C 
ATOM     28  H   UNL A   1      31.594  31.894  26.894  1.00  0.00     0.163 HD
ATOM     29  O   UNL A   1      33.230  33.326  27.989  1.00  0.00    -0.269 OA
BRANCH  27  30
ATOM     30  C   UNL A   1      34.792  31.591  27.821  1.00  0.00     0.039 A 
ATOM     31  C   UNL A   1      35.886  32.446  27.990  1.00  0.00     0.014 A 
ATOM     32  C   UNL A   1      34.943  30.220  28.023  1.00  0.00     0.014 A 
ATOM     33  C   UNL A   1      37.083  31.946  28.505  1.00  0.00     0.010 A 
ATOM     34  C   UNL A   1      36.099  29.741  28.636  1.00  0.00     0.010 A 
ATOM     35  C   UNL A   1      37.169  30.605  28.914  1.00  0.00    -0.014 A 
BRANCH  35  36
ATOM     36  C   UNL A   1      38.339  30.122  29.697  1.00  0.00     0.031 A 
ATOM     37  C   UNL A   1      38.562  30.579  31.110  1.00  0.00     0.074 A 
ATOM     38  C   UNL A   1      39.252  29.328  29.098  1.00  0.00     0.049 A 
ATOM     39  N   UNL A   1      39.547  30.293  31.926  1.00  0.00    -0.248 NA
ATOM     40  C   UNL A   1      37.572  31.510  31.671  1.00  0.00     0.031 C 
ATOM     41  C   UNL A   1      39.207  28.887  27.702  1.00  0.00     0.029 A 
ATOM     42  N   UNL A   1      40.398  28.751  29.586  1.00  0.00    -0.354 N 
ATOM     43  C   UNL A   1      39.306  31.025  33.080  1.00  0.00     0.074 A 
ATOM     44  C   UNL A   1      38.116  31.812  32.841  1.00  0.00     0.031 C 
ATOM     45  C   UNL A   1      40.247  28.074  27.459  1.00  0.00     0.029 A 
ATOM     46  C   UNL A   1      41.051  27.959  28.672  1.00  0.00     0.049 A 
ATOM     47  H   UNL A   1      40.722  28.891  30.504  1.00  0.00     0.167 HD
ATOM     48  C   UNL A   1      39.996  31.019  34.246  1.00  0.00     0.037 A 
ATOM     49  C   UNL A   1      42.164  27.214  28.799  1.00  0.00     0.037 A 
ATOM     50  C   UNL A   1      41.155  30.206  34.501  1.00  0.00     0.049 A 
ATOM     51  C   UNL A   1      42.872  27.173  30.124  1.00  0.00     0.074 A 
ATOM     52  C   UNL A   1      41.882  30.078  35.672  1.00  0.00     0.029 A 
ATOM     53  N   UNL A   1      41.751  29.371  33.568  1.00  0.00    -0.354 N 
ATOM     54  N   UNL A   1      42.587  27.807  31.234  1.00  0.00    -0.248 NA
ATOM     55  C   UNL A   1      44.052  26.302  30.216  1.00  0.00     0.031 C 
ATOM     56  C   UNL A   1      42.935  29.186  35.439  1.00  0.00     0.029 A 
ATOM     57  C   UNL A   1      42.841  28.729  34.135  1.00  0.00     0.049 A 
ATOM     58  H   UNL A   1      41.445  29.251  32.639  1.00  0.00     0.167 HD
ATOM     59  C   UNL A   1      43.532  27.394  32.162  1.00  0.00     0.074 A 
ATOM     60  C   UNL A   1      44.389  26.440  31.491  1.00  0.00     0.031 C 
ATOM     61  C   UNL A   1      43.677  27.775  33.455  1.00  0.00     0.037 A 
BRANCH  48  62
ATOM     62  C   UNL A   1      39.496  31.914  35.343  1.00  0.00     0.064 A 
ATOM     63  C   UNL A   1      39.910  33.252  35.442  1.00  0.00     0.173 A 
ATOM     64  C   UNL A   1      38.581  31.438  36.292  1.00  0.00     0.173 A 
ATOM     65  F   UNL A   1      40.795  33.751  34.566  1.00  0.00    -0.203 F 
ATOM     66  C   UNL A   1      39.455  34.067  36.474  1.00  0.00     0.198 A 
ATOM     67  C   UNL A   1      38.104  32.266  37.306  1.00  0.00     0.198 A 
ATOM     68  F   UNL A   1      38.147  30.169  36.239  1.00  0.00    -0.203 F 
ATOM     69  F   UNL A   1      39.909  35.324  36.582  1.00  0.00    -0.200 F 
ATOM     70  C   UNL A   1      38.549  33.576  37.402  1.00  0.00     0.200 A 
ATOM     71  F   UNL A   1      37.219  31.794  38.195  1.00  0.00    -0.200 F 
ATOM     72  F   UNL A   1      38.110  34.364  38.393  1.00  0.00    -0.200 F 
ENDBRANCH  48  62
BRANCH  49  73
ATOM     73  C   UNL A   1      42.647  26.397  27.656  1.00  0.00     0.064 A 
ATOM     74  C   UNL A   1      43.631  26.892  26.788  1.00  0.00     0.173 A 
ATOM     75  C   UNL A   1      42.137  25.117  27.401  1.00  0.00     0.173 A 
ATOM     76  F   UNL A   1      44.135  28.120  26.980  1.00  0.00    -0.203 F 
ATOM     77  C   UNL A   1      44.069  26.147  25.696  1.00  0.00     0.198 A 
ATOM     78  C   UNL A   1      42.594  24.362  26.323  1.00  0.00     0.198 A 
ATOM     79  F   UNL A   1      41.199  24.595  28.207  1.00  0.00    -0.203 F 
ATOM     80  F   UNL A   1      44.977  26.664  24.856  1.00  0.00    -0.200 F 
ATOM     81  C   UNL A   1      43.553  24.881  25.466  1.00  0.00     0.200 A 
ATOM     82  F   UNL A   1      42.101  23.134  26.110  1.00  0.00    -0.200 F 
ATOM     83  F   UNL A   1      43.975  24.165  24.415  1.00  0.00    -0.200 F 
ENDBRANCH  49  73
BRANCH  61  84
ATOM     84  C   UNL A   1      44.786  27.132  34.233  1.00  0.00     0.064 A 
ATOM     85  C   UNL A   1      46.062  27.711  34.309  1.00  0.00     0.173 A 
ATOM     86  C   UNL A   1      44.565  25.933  34.925  1.00  0.00     0.173 A 
ATOM     87  F   UNL A   1      46.327  28.849  33.651  1.00  0.00    -0.203 F 
ATOM     88  C   UNL A   1      47.083  27.097  35.028  1.00  0.00     0.198 A 
ATOM     89  C   UNL A   1      45.581  25.335  35.665  1.00  0.00     0.198 A 
ATOM     90  F   UNL A   1      43.362  25.342  34.886  1.00  0.00    -0.203 F 
ATOM     91  F   UNL A   1      48.308  27.641  35.047  1.00  0.00    -0.200 F 
ATOM     92  C   UNL A   1      46.842  25.913  35.709  1.00  0.00     0.200 A 
ATOM     93  F   UNL A   1      45.344  24.196  36.330  1.00  0.00    -0.200 F 
ATOM     94  F   UNL A   1      47.827  25.323  36.400  1.00  0.00    -0.200 F 
ENDBRANCH  61  84
ENDBRANCH  35  36
ENDBRANCH  27  30
ENDBRANCH  25  26
ENDBRANCH   1  25
TORSDOF 12
ENDMDL
MODEL 3
REMARK VINA RESULT:     -12.9      1.361      2.025
REMARK SMILES Cc1sc(NC(=O)c2ccc(Br)nc2)c(C(=O)NCCCNC(=O)c2ccc(-c3c4nc(c(-c5c(F)c(F)c(F)c(F)c5F)c5ccc([nH]5)c(-c5c(F)c(F)c(F)c(F)c5F)c5nc(c(-c6c(F)c(F)c(F)c(F)c6F)c6ccc3[nH]6)C=C5)C=C4)cc2)c1C
REMARK SMILES IDX 20 1 19 2 18 3 16 4 17 5 15 7 1 8 2 9 3 10 88 11 4 12 89 13
REMARK SMILES IDX 5 14 6 15 7 17 8 18 9 19 14 20 10 21 13 22 11 23 12 24 21 25
REMARK SMILES IDX 22 26 23 27 24 29 25 30 26 31 87 32 27 33 86 34 28 35 29 36
REMARK SMILES IDX 30 37 80 38 31 39 85 40 79 41 81 42 32 43 84 44 78 45 77 46
REMARK SMILES IDX 33 48 65 49 45 50 64 51 46 52 49 53 63 54 82 55 47 56 48 57
REMARK SMILES IDX 62 59 83 60 50 61 34 62 35 63 43 64 36 65 37 66 41 67 44 68
REMARK SMILES IDX 38 69 39 70 42 71 40 72 66 73 67 74 75 75 68 76 69 77 73 78
REMARK SMILES IDX 76 79 70 80 71 81 74 82 72 83 51 84 52 85 60 86 53 87 54 88
REMARK SMILES IDX 58 89 61 90 55 91 56 92 59 93 57 94
REMARK H PARENT 18 6 5 16 22 28 81 47 49 58
REMARK Flexibility Score: inf
ROOT
ATOM      1  C   UNL A   1      31.041  31.411  25.794  1.00  0.00     0.042 C 
ENDROOT
BRANCH   1   2
ATOM      2  C   UNL A   1      31.021  30.111  25.008  1.00  0.00     0.118 C 
BRANCH   2   3
ATOM      3  N   UNL A   1      32.328  29.697  24.527  1.00  0.00    -0.352 N 
ATOM      4  C   UNL A   1      32.804  28.430  24.286  1.00  0.00     0.254 C 
ATOM      5  O   UNL A   1      34.004  28.305  24.045  1.00  0.00    -0.269 OA
ATOM      6  H   UNL A   1      32.961  30.428  24.346  1.00  0.00     0.163 HD
BRANCH   4   7
ATOM      7  C   UNL A   1      31.912  27.273  24.397  1.00  0.00     0.077 A 
ATOM      8  C   UNL A   1      29.488  25.260  26.527  1.00  0.00     0.057 C 
ATOM      9  C   UNL A   1      30.368  25.887  25.495  1.00  0.00     0.007 A 
ATOM     10  S   UNL A   1      30.107  25.539  23.845  1.00  0.00    -0.122 S 
ATOM     11  C   UNL A   1      31.450  26.736  25.672  1.00  0.00    -0.022 A 
ATOM     12  C   UNL A   1      31.469  26.445  23.380  1.00  0.00     0.109 A 
ATOM     13  C   UNL A   1      32.048  27.104  26.996  1.00  0.00     0.046 C 
BRANCH  12  14
ATOM     14  N   UNL A   1      31.826  26.194  22.073  1.00  0.00    -0.313 N 
ATOM     15  C   UNL A   1      32.764  25.311  21.589  1.00  0.00     0.257 C 
ATOM     16  H   UNL A   1      31.342  26.717  21.394  1.00  0.00     0.171 HD
ATOM     17  O   UNL A   1      33.230  25.474  20.464  1.00  0.00    -0.269 OA
BRANCH  15  18
ATOM     18  C   UNL A   1      33.226  24.156  22.381  1.00  0.00     0.058 A 
ATOM     19  C   UNL A   1      32.559  22.932  22.399  1.00  0.00     0.018 A 
ATOM     20  C   UNL A   1      34.367  24.294  23.162  1.00  0.00     0.126 A 
ATOM     21  C   UNL A   1      32.988  21.941  23.283  1.00  0.00     0.037 A 
ATOM     22  N   UNL A   1      34.803  23.351  24.030  1.00  0.00    -0.249 NA
ATOM     23  C   UNL A   1      34.088  22.204  24.090  1.00  0.00     0.106 A 
ATOM     24  Br  UNL A   1      34.621  20.903  25.361  1.00  0.00    -0.029 Br
ENDBRANCH  15  18
ENDBRANCH  12  14
ENDBRANCH   4   7
ENDBRANCH   2   3
ENDBRANCH   1   2
BRANCH   1  25
ATOM     25  C   UNL A   1      32.238  31.602  26.718  1.00  0.00     0.118 C 
BRANCH  25  26
ATOM     26  N   UNL A   1      32.369  32.914  27.339  1.00  0.00    -0.352 N 
ATOM     27  C   UNL A   1      33.479  33.490  27.924  1.00  0.00     0.251 C 
ATOM     28  H   UNL A   1      31.553  33.465  27.341  1.00  0.00     0.163 HD
ATOM     29  O   UNL A   1      33.438  34.647  28.330  1.00  0.00    -0.269 OA
BRANCH  27  30
ATOM     30  C   UNL A   1      34.695  32.679  28.170  1.00  0.00     0.039 A 
ATOM     31  C   UNL A   1      35.928  33.339  28.178  1.00  0.00     0.014 A 
ATOM     32  C   UNL A   1      34.628  31.327  28.504  1.00  0.00     0.014 A 
ATOM     33  C   UNL A   1      37.061  32.685  28.663  1.00  0.00     0.010 A 
ATOM     34  C   UNL A   1      35.732  30.710  29.089  1.00  0.00     0.010 A 
ATOM     35  C   UNL A   1      36.953  31.394  29.205  1.00  0.00    -0.014 A 
BRANCH  35  36
ATOM     36  C   UNL A   1      38.084  30.786  29.956  1.00  0.00     0.031 A 
ATOM     37  C   UNL A   1      38.341  31.150  31.391  1.00  0.00     0.074 A 
ATOM     38  C   UNL A   1      38.936  29.959  29.313  1.00  0.00     0.049 A 
ATOM     39  N   UNL A   1      39.302  30.751  32.186  1.00  0.00    -0.248 NA
ATOM     40  C   UNL A   1      37.422  32.122  32.003  1.00  0.00     0.031 C 
ATOM     41  C   UNL A   1      38.857  29.595  27.896  1.00  0.00     0.029 A 
ATOM     42  N   UNL A   1      40.036  29.274  29.766  1.00  0.00    -0.354 N 
ATOM     43  C   UNL A   1      39.116  31.438  33.378  1.00  0.00     0.074 A 
ATOM     44  C   UNL A   1      37.987  32.321  33.185  1.00  0.00     0.031 C 
ATOM     45  C   UNL A   1      39.835  28.722  27.608  1.00  0.00     0.029 A 
ATOM     46  C   UNL A   1      40.628  28.485  28.809  1.00  0.00     0.049 A 
ATOM     47  H   UNL A   1      40.370  29.342  30.689  1.00  0.00     0.167 HD
ATOM     48  C   UNL A   1      39.804  31.320  34.539  1.00  0.00     0.037 A 
ATOM     49  C   UNL A   1      41.684  27.655  28.893  1.00  0.00     0.037 A 
ATOM     50  C   UNL A   1      40.899  30.412  34.747  1.00  0.00     0.049 A 
ATOM     51  C   UNL A   1      42.387  27.492  30.211  1.00  0.00     0.074 A 
ATOM     52  C   UNL A   1      41.616  30.170  35.907  1.00  0.00     0.029 A 
ATOM     53  N   UNL A   1      41.432  29.584  33.769  1.00  0.00    -0.354 N 
ATOM     54  N   UNL A   1      42.150  28.087  31.354  1.00  0.00    -0.248 NA
ATOM     55  C   UNL A   1      43.500  26.533  30.253  1.00  0.00     0.031 C 
ATOM     56  C   UNL A   1      42.600  29.216  35.623  1.00  0.00     0.029 A 
ATOM     57  C   UNL A   1      42.472  28.836  34.298  1.00  0.00     0.049 A 
ATOM     58  H   UNL A   1      41.118  29.536  32.837  1.00  0.00     0.167 HD
ATOM     59  C   UNL A   1      43.062  27.558  32.255  1.00  0.00     0.074 A 
ATOM     60  C   UNL A   1      43.846  26.579  31.532  1.00  0.00     0.031 C 
ATOM     61  C   UNL A   1      43.235  27.859  33.566  1.00  0.00     0.037 A 
BRANCH  48  62
ATOM     62  C   UNL A   1      39.371  32.191  35.683  1.00  0.00     0.064 A 
ATOM     63  C   UNL A   1      39.886  33.486  35.852  1.00  0.00     0.173 A 
ATOM     64  C   UNL A   1      38.422  31.736  36.608  1.00  0.00     0.173 A 
ATOM     65  F   UNL A   1      40.807  33.963  35.001  1.00  0.00    -0.203 F 
ATOM     66  C   UNL A   1      39.493  34.278  36.926  1.00  0.00     0.198 A 
ATOM     67  C   UNL A   1      38.008  32.544  37.666  1.00  0.00     0.198 A 
ATOM     68  F   UNL A   1      37.892  30.509  36.489  1.00  0.00    -0.203 F 
ATOM     69  F   UNL A   1      40.040  35.490  37.099  1.00  0.00    -0.200 F 
ATOM     70  C   UNL A   1      38.550  33.809  37.829  1.00  0.00     0.200 A 
ATOM     71  F   UNL A   1      37.088  32.094  38.531  1.00  0.00    -0.200 F 
ATOM     72  F   UNL A   1      38.171  34.575  38.862  1.00  0.00    -0.200 F 
ENDBRANCH  48  62
BRANCH  49  73
ATOM     73  C   UNL A   1      42.105  26.864  27.707  1.00  0.00     0.064 A 
ATOM     74  C   UNL A   1      41.552  25.599  27.459  1.00  0.00     0.173 A 
ATOM     75  C   UNL A   1      43.066  27.344  26.808  1.00  0.00     0.173 A 
ATOM     76  F   UNL A   1      40.643  25.089  28.304  1.00  0.00    -0.203 F 
ATOM     77  C   UNL A   1      41.961  24.836  26.368  1.00  0.00     0.198 A 
ATOM     78  C   UNL A   1      43.457  26.590  25.703  1.00  0.00     0.198 A 
ATOM     79  F   UNL A   1      43.620  28.551  26.997  1.00  0.00    -0.203 F 
ATOM     80  F   UNL A   1      41.449  23.611  26.181  1.00  0.00    -0.200 F 
ATOM     81  C   UNL A   1      42.911  25.333  25.489  1.00  0.00     0.200 A 
ATOM     82  F   UNL A   1      44.366  27.079  24.848  1.00  0.00    -0.200 F 
ATOM     83  F   UNL A   1      43.304  24.599  24.440  1.00  0.00    -0.200 F 
ENDBRANCH  49  73
BRANCH  61  84
ATOM     84  C   UNL A   1      44.294  27.096  34.305  1.00  0.00     0.064 A 
ATOM     85  C   UNL A   1      45.608  27.578  34.410  1.00  0.00     0.173 A 
ATOM     86  C   UNL A   1      43.986  25.880  34.931  1.00  0.00     0.173 A 
ATOM     87  F   UNL A   1      45.955  28.728  33.814  1.00  0.00    -0.203 F 
ATOM     88  C   UNL A   1      46.582  26.853  35.091  1.00  0.00     0.198 A 
ATOM     89  C   UNL A   1      44.956  25.171  35.634  1.00  0.00     0.198 A 
ATOM     90  F   UNL A   1      42.744  25.380  34.862  1.00  0.00    -0.203 F 
ATOM     91  F   UNL A   1      47.843  27.307  35.137  1.00  0.00    -0.200 F 
ATOM     92  C   UNL A   1      46.255  25.654  35.707  1.00  0.00     0.200 A 
ATOM     93  F   UNL A   1      44.637  24.017  36.236  1.00  0.00    -0.200 F 
ATOM     94  F   UNL A   1      47.193  24.958  36.362  1.00  0.00    -0.200 F 
ENDBRANCH  61  84
ENDBRANCH  35  36
ENDBRANCH  27  30
ENDBRANCH  25  26
ENDBRANCH   1  25
TORSDOF 12
ENDMDL
