MODEL 1
REMARK VINA RESULT:     -13.7      0.000      0.000
REMARK SMILES O=C(NCCCNC(=O)c1cccc2c1N[C@H](c1ccccc1Br)[C@H]1CC=C[C@H]21)c1ccc(-c2c3nc(c(-c4c(F)c(F)c(F)c(F)c4F)c4ccc([nH]4)c(-c4c(F)c(F)c(F)c(F)c4F)c4nc(c(-c5c(F)c(F)c(F)c(F)c5F)c5ccc2[nH]5)C=C4)C=C3)cc1
REMARK SMILES IDX 4 1 3 2 1 3 2 4 30 6 31 7 92 8 32 9 91 10 33 11 34 12 35 13
REMARK SMILES IDX 85 14 36 15 90 16 84 17 86 18 37 19 89 20 83 21 82 22 38 24
REMARK SMILES IDX 70 25 50 26 69 27 51 28 54 29 68 30 87 31 52 32 53 33 67 35
REMARK SMILES IDX 88 36 55 37 39 38 40 39 48 40 41 41 42 42 46 43 49 44 43 45
REMARK SMILES IDX 44 46 47 47 45 48 71 49 72 50 80 51 73 52 74 53 78 54 81 55
REMARK SMILES IDX 75 56 76 57 79 58 77 59 56 60 57 61 65 62 58 63 59 64 63 65
REMARK SMILES IDX 66 66 60 67 61 68 64 69 62 70 5 71 6 72 7 73 8 74 9 76 10 77
REMARK SMILES IDX 11 78 15 79 12 80 14 81 16 82 13 83 29 84 17 85 25 87 28 88
REMARK SMILES IDX 26 89 27 90 18 91 19 92 23 93 20 94 22 95 24 96 21 97
REMARK H PARENT 3 5 86 23 54 34 7 75 16 86
REMARK Flexibility Score: inf
ROOT
ATOM      1  C   UNL A   1      33.100  29.103  25.579  1.00  0.00     0.118 C 
ENDROOT
BRANCH   1   2
ATOM      2  N   UNL A   1      32.700  30.454  25.954  1.00  0.00    -0.352 N 
ATOM      3  O   UNL A   1      32.603  32.328  27.198  1.00  0.00    -0.269 OA
ATOM      4  C   UNL A   1      33.198  31.293  26.919  1.00  0.00     0.251 C 
ATOM      5  H   UNL A   1      31.953  30.824  25.431  1.00  0.00     0.163 HD
BRANCH   4   6
ATOM      6  C   UNL A   1      34.447  30.949  27.633  1.00  0.00     0.039 A 
ATOM      7  C   UNL A   1      34.627  29.643  28.097  1.00  0.00     0.014 A 
ATOM      8  C   UNL A   1      35.421  31.917  27.886  1.00  0.00     0.014 A 
ATOM      9  C   UNL A   1      35.791  29.308  28.790  1.00  0.00     0.010 A 
ATOM     10  C   UNL A   1      36.632  31.553  28.454  1.00  0.00     0.010 A 
ATOM     11  C   UNL A   1      36.807  30.260  28.964  1.00  0.00    -0.014 A 
BRANCH  11  12
ATOM     12  C   UNL A   1      38.005  29.987  29.793  1.00  0.00     0.031 A 
ATOM     13  C   UNL A   1      39.073  29.076  29.248  1.00  0.00     0.074 A 
ATOM     14  C   UNL A   1      38.118  30.507  31.028  1.00  0.00     0.049 A 
ATOM     15  N   UNL A   1      40.138  28.595  29.838  1.00  0.00    -0.248 NA
ATOM     16  C   UNL A   1      38.899  28.610  27.861  1.00  0.00     0.031 C 
ATOM     17  C   UNL A   1      37.145  31.390  31.669  1.00  0.00     0.029 A 
ATOM     18  N   UNL A   1      39.108  30.359  31.966  1.00  0.00    -0.354 N 
ATOM     19  C   UNL A   1      40.737  27.759  28.905  1.00  0.00     0.074 A 
ATOM     20  C   UNL A   1      39.881  27.733  27.741  1.00  0.00     0.031 C 
ATOM     21  C   UNL A   1      37.604  31.736  32.883  1.00  0.00     0.029 A 
ATOM     22  C   UNL A   1      38.877  31.060  33.123  1.00  0.00     0.049 A 
ATOM     23  H   UNL A   1      39.907  29.803  31.824  1.00  0.00     0.167 HD
ATOM     24  C   UNL A   1      41.917  27.104  28.991  1.00  0.00     0.037 A 
ATOM     25  C   UNL A   1      39.610  31.140  34.249  1.00  0.00     0.037 A 
ATOM     26  C   UNL A   1      42.787  27.169  30.133  1.00  0.00     0.049 A 
ATOM     27  C   UNL A   1      40.901  30.373  34.339  1.00  0.00     0.074 A 
ATOM     28  C   UNL A   1      44.025  26.581  30.309  1.00  0.00     0.029 A 
ATOM     29  N   UNL A   1      42.509  27.877  31.294  1.00  0.00    -0.354 N 
ATOM     30  N   UNL A   1      41.477  29.610  33.441  1.00  0.00    -0.248 NA
ATOM     31  C   UNL A   1      41.646  30.479  35.601  1.00  0.00     0.031 C 
ATOM     32  C   UNL A   1      44.476  26.892  31.595  1.00  0.00     0.029 A 
ATOM     33  C   UNL A   1      43.543  27.720  32.202  1.00  0.00     0.049 A 
ATOM     34  H   UNL A   1      41.697  28.413  31.450  1.00  0.00     0.167 HD
ATOM     35  C   UNL A   1      42.654  29.156  34.022  1.00  0.00     0.074 A 
ATOM     36  C   UNL A   1      42.724  29.753  35.340  1.00  0.00     0.031 C 
ATOM     37  C   UNL A   1      43.590  28.317  33.513  1.00  0.00     0.037 A 
BRANCH  24  38
ATOM     38  C   UNL A   1      42.339  26.274  27.813  1.00  0.00     0.064 A 
ATOM     39  C   UNL A   1      41.843  24.975  27.611  1.00  0.00     0.173 A 
ATOM     40  C   UNL A   1      43.228  26.790  26.857  1.00  0.00     0.173 A 
ATOM     41  F   UNL A   1      41.004  24.427  28.503  1.00  0.00    -0.203 F 
ATOM     42  C   UNL A   1      42.245  24.215  26.517  1.00  0.00     0.198 A 
ATOM     43  C   UNL A   1      43.600  26.039  25.745  1.00  0.00     0.198 A 
ATOM     44  F   UNL A   1      43.732  28.025  26.999  1.00  0.00    -0.203 F 
ATOM     45  F   UNL A   1      41.802  22.958  26.379  1.00  0.00    -0.200 F 
ATOM     46  C   UNL A   1      43.115  24.750  25.580  1.00  0.00     0.200 A 
ATOM     47  F   UNL A   1      44.430  26.563  24.833  1.00  0.00    -0.200 F 
ATOM     48  F   UNL A   1      43.493  24.021  24.521  1.00  0.00    -0.200 F 
ENDBRANCH  24  38
BRANCH  25  49
ATOM     49  C   UNL A   1      39.151  32.011  35.363  1.00  0.00     0.064 A 
ATOM     50  C   UNL A   1      38.390  31.481  36.414  1.00  0.00     0.173 A 
ATOM     51  C   UNL A   1      39.487  33.371  35.420  1.00  0.00     0.173 A 
ATOM     52  F   UNL A   1      38.026  30.191  36.393  1.00  0.00    -0.203 F 
ATOM     53  C   UNL A   1      37.979  32.280  37.479  1.00  0.00     0.198 A 
ATOM     54  C   UNL A   1      39.099  34.163  36.499  1.00  0.00     0.198 A 
ATOM     55  F   UNL A   1      40.215  33.926  34.439  1.00  0.00    -0.203 F 
ATOM     56  F   UNL A   1      37.227  31.756  38.456  1.00  0.00    -0.200 F 
ATOM     57  C   UNL A   1      38.342  33.619  37.526  1.00  0.00     0.200 A 
ATOM     58  F   UNL A   1      39.464  35.452  36.547  1.00  0.00    -0.200 F 
ATOM     59  F   UNL A   1      37.961  34.383  38.558  1.00  0.00    -0.200 F 
ENDBRANCH  25  49
BRANCH  37  60
ATOM     60  C   UNL A   1      44.771  27.990  34.380  1.00  0.00     0.064 A 
ATOM     61  C   UNL A   1      44.779  26.855  35.206  1.00  0.00     0.173 A 
ATOM     62  C   UNL A   1      45.931  28.779  34.338  1.00  0.00     0.173 A 
ATOM     63  F   UNL A   1      43.692  26.074  35.290  1.00  0.00    -0.203 F 
ATOM     64  C   UNL A   1      45.895  26.538  35.974  1.00  0.00     0.198 A 
ATOM     65  C   UNL A   1      47.057  28.439  35.080  1.00  0.00     0.198 A 
ATOM     66  F   UNL A   1      45.979  29.869  33.556  1.00  0.00    -0.203 F 
ATOM     67  F   UNL A   1      45.864  25.475  36.789  1.00  0.00    -0.200 F 
ATOM     68  C   UNL A   1      47.036  27.323  35.903  1.00  0.00     0.200 A 
ATOM     69  F   UNL A   1      48.165  29.188  34.996  1.00  0.00    -0.200 F 
ATOM     70  F   UNL A   1      48.116  27.007  36.632  1.00  0.00    -0.200 F 
ENDBRANCH  37  60
ENDBRANCH  11  12
ENDBRANCH   4   6
ENDBRANCH   1   2
BRANCH   1  71
ATOM     71  C   UNL A   1      34.106  29.081  24.447  1.00  0.00     0.042 C 
BRANCH  71  72
ATOM     72  C   UNL A   1      33.472  29.260  23.087  1.00  0.00     0.118 C 
BRANCH  72  73
ATOM     73  N   UNL A   1      33.736  28.151  22.182  1.00  0.00    -0.352 N 
ATOM     74  C   UNL A   1      33.101  26.936  22.117  1.00  0.00     0.253 C 
ATOM     75  H   UNL A   1      34.464  28.292  21.533  1.00  0.00     0.163 HD
ATOM     76  O   UNL A   1      33.514  26.069  21.355  1.00  0.00    -0.269 OA
BRANCH  74  77
ATOM     77  C   UNL A   1      31.947  26.667  23.001  1.00  0.00     0.063 A 
ATOM     78  C   UNL A   1      30.709  27.157  22.564  1.00  0.00     0.016 A 
ATOM     79  C   UNL A   1      32.064  25.926  24.197  1.00  0.00     0.051 A 
ATOM     80  C   UNL A   1      29.557  26.867  23.286  1.00  0.00     0.001 A 
ATOM     81  C   UNL A   1      30.876  25.606  24.891  1.00  0.00    -0.017 A 
ATOM     82  N   UNL A   1      33.292  25.435  24.644  1.00  0.00    -0.377 N 
ATOM     83  C   UNL A   1      29.638  26.092  24.442  1.00  0.00     0.006 A 
ATOM     84  C   UNL A   1      31.039  24.819  26.158  1.00  0.00     0.049 C 
ATOM     85  C   UNL A   1      33.461  24.380  25.657  1.00  0.00     0.115 C 
ATOM     86  H   UNL A   1      34.107  25.823  24.251  1.00  0.00     0.161 HD
ATOM     87  C   UNL A   1      32.107  23.734  25.923  1.00  0.00     0.031 C 
ATOM     88  C   UNL A   1      29.932  23.953  26.688  1.00  0.00    -0.023 C 
ATOM     89  C   UNL A   1      31.946  22.839  27.151  1.00  0.00     0.034 C 
ATOM     90  C   UNL A   1      30.448  22.863  27.280  1.00  0.00    -0.030 C 
BRANCH  85  91
ATOM     91  C   UNL A   1      34.679  23.522  25.262  1.00  0.00    -0.011 A 
ATOM     92  C   UNL A   1      35.939  24.131  25.522  1.00  0.00     0.007 A 
ATOM     93  C   UNL A   1      34.723  22.247  24.661  1.00  0.00     0.023 A 
ATOM     94  C   UNL A   1      37.157  23.505  25.236  1.00  0.00     0.000 A 
ATOM     95  C   UNL A   1      35.956  21.600  24.433  1.00  0.00     0.016 A 
ATOM     96  Br  UNL A   1      33.252  21.263  23.968  1.00  0.00    -0.050 Br
ATOM     97  C   UNL A   1      37.165  22.224  24.714  1.00  0.00     0.001 A 
ENDBRANCH  85  91
ENDBRANCH  74  77
ENDBRANCH  72  73
ENDBRANCH  71  72
ENDBRANCH   1  71
TORSDOF 11
ENDMDL
MODEL 2
REMARK VINA RESULT:     -13.6      0.080      1.111
REMARK SMILES O=C(NCCCNC(=O)c1cccc2c1N[C@H](c1ccccc1Br)[C@H]1CC=C[C@H]21)c1ccc(-c2c3nc(c(-c4c(F)c(F)c(F)c(F)c4F)c4ccc([nH]4)c(-c4c(F)c(F)c(F)c(F)c4F)c4nc(c(-c5c(F)c(F)c(F)c(F)c5F)c5ccc2[nH]5)C=C4)C=C3)cc1
REMARK SMILES IDX 4 1 3 2 1 3 2 4 30 6 31 7 92 8 32 9 91 10 33 11 34 12 35 13
REMARK SMILES IDX 85 14 36 15 90 16 84 17 86 18 37 19 89 20 83 21 82 22 38 24
REMARK SMILES IDX 70 25 50 26 69 27 51 28 54 29 68 30 87 31 52 32 53 33 67 35
REMARK SMILES IDX 88 36 55 37 39 38 40 39 48 40 41 41 42 42 46 43 49 44 43 45
REMARK SMILES IDX 44 46 47 47 45 48 71 49 72 50 80 51 73 52 74 53 78 54 81 55
REMARK SMILES IDX 75 56 76 57 79 58 77 59 56 60 57 61 65 62 58 63 59 64 63 65
REMARK SMILES IDX 66 66 60 67 61 68 64 69 62 70 5 71 6 72 7 73 8 74 9 76 10 77
REMARK SMILES IDX 11 78 15 79 12 80 14 81 16 82 13 83 29 84 17 85 25 87 28 88
REMARK SMILES IDX 26 89 27 90 18 91 19 92 23 93 20 94 22 95 24 96 21 97
REMARK H PARENT 3 5 86 23 54 34 7 75 16 86
REMARK Flexibility Score: inf
ROOT
ATOM      1  C   UNL A   1      33.082  29.047  25.612  1.00  0.00     0.118 C 
ENDROOT
BRANCH   1   2
ATOM      2  N   UNL A   1      32.687  30.403  25.975  1.00  0.00    -0.352 N 
ATOM      3  O   UNL A   1      32.601  32.292  27.199  1.00  0.00    -0.269 OA
ATOM      4  C   UNL A   1      33.193  31.252  26.928  1.00  0.00     0.251 C 
ATOM      5  H   UNL A   1      31.937  30.769  25.453  1.00  0.00     0.163 HD
BRANCH   4   6
ATOM      6  C   UNL A   1      34.446  30.914  27.637  1.00  0.00     0.039 A 
ATOM      7  C   UNL A   1      34.609  29.625  28.151  1.00  0.00     0.014 A 
ATOM      8  C   UNL A   1      35.441  31.873  27.837  1.00  0.00     0.014 A 
ATOM      9  C   UNL A   1      35.778  29.297  28.841  1.00  0.00     0.010 A 
ATOM     10  C   UNL A   1      36.653  31.510  28.403  1.00  0.00     0.010 A 
ATOM     11  C   UNL A   1      36.813  30.236  28.962  1.00  0.00    -0.014 A 
BRANCH  11  12
ATOM     12  C   UNL A   1      38.017  29.974  29.784  1.00  0.00     0.031 A 
ATOM     13  C   UNL A   1      39.083  29.060  29.241  1.00  0.00     0.074 A 
ATOM     14  C   UNL A   1      38.139  30.507  31.012  1.00  0.00     0.049 A 
ATOM     15  N   UNL A   1      40.154  28.588  29.827  1.00  0.00    -0.248 NA
ATOM     16  C   UNL A   1      38.900  28.579  27.859  1.00  0.00     0.031 C 
ATOM     17  C   UNL A   1      37.169  31.395  31.652  1.00  0.00     0.029 A 
ATOM     18  N   UNL A   1      39.136  30.372  31.944  1.00  0.00    -0.354 N 
ATOM     19  C   UNL A   1      40.748  27.744  28.898  1.00  0.00     0.074 A 
ATOM     20  C   UNL A   1      39.883  27.703  27.741  1.00  0.00     0.031 C 
ATOM     21  C   UNL A   1      37.636  31.755  32.859  1.00  0.00     0.029 A 
ATOM     22  C   UNL A   1      38.912  31.084  33.096  1.00  0.00     0.049 A 
ATOM     23  H   UNL A   1      39.936  29.816  31.802  1.00  0.00     0.167 HD
ATOM     24  C   UNL A   1      41.930  27.092  28.982  1.00  0.00     0.037 A 
ATOM     25  C   UNL A   1      39.654  31.178  34.216  1.00  0.00     0.037 A 
ATOM     26  C   UNL A   1      42.809  27.171  30.117  1.00  0.00     0.049 A 
ATOM     27  C   UNL A   1      40.948  30.415  34.303  1.00  0.00     0.074 A 
ATOM     28  C   UNL A   1      44.050  26.587  30.289  1.00  0.00     0.029 A 
ATOM     29  N   UNL A   1      42.538  27.891  31.272  1.00  0.00    -0.354 N 
ATOM     30  N   UNL A   1      41.518  29.643  33.409  1.00  0.00    -0.248 NA
ATOM     31  C   UNL A   1      41.702  30.536  35.559  1.00  0.00     0.031 C 
ATOM     32  C   UNL A   1      44.510  26.914  31.568  1.00  0.00     0.029 A 
ATOM     33  C   UNL A   1      43.580  27.745  32.173  1.00  0.00     0.049 A 
ATOM     34  H   UNL A   1      41.726  28.426  31.429  1.00  0.00     0.167 HD
ATOM     35  C   UNL A   1      42.701  29.198  33.985  1.00  0.00     0.074 A 
ATOM     36  C   UNL A   1      42.779  29.809  35.296  1.00  0.00     0.031 C 
ATOM     37  C   UNL A   1      43.635  28.356  33.478  1.00  0.00     0.037 A 
BRANCH  24  38
ATOM     38  C   UNL A   1      42.345  26.251  27.809  1.00  0.00     0.064 A 
ATOM     39  C   UNL A   1      43.246  26.728  26.843  1.00  0.00     0.173 A 
ATOM     40  C   UNL A   1      41.859  24.943  27.660  1.00  0.00     0.173 A 
ATOM     41  F   UNL A   1      43.727  27.977  26.927  1.00  0.00    -0.203 F 
ATOM     42  C   UNL A   1      43.618  25.940  25.758  1.00  0.00     0.198 A 
ATOM     43  C   UNL A   1      42.262  24.146  26.593  1.00  0.00     0.198 A 
ATOM     44  F   UNL A   1      40.996  24.436  28.554  1.00  0.00    -0.203 F 
ATOM     45  F   UNL A   1      44.434  26.440  24.819  1.00  0.00    -0.200 F 
ATOM     46  C   UNL A   1      43.134  24.647  25.638  1.00  0.00     0.200 A 
ATOM     47  F   UNL A   1      41.804  22.890  26.487  1.00  0.00    -0.200 F 
ATOM     48  F   UNL A   1      43.504  23.885  24.599  1.00  0.00    -0.200 F 
ENDBRANCH  24  38
BRANCH  25  49
ATOM     49  C   UNL A   1      39.202  32.059  35.323  1.00  0.00     0.064 A 
ATOM     50  C   UNL A   1      38.439  31.541  36.380  1.00  0.00     0.173 A 
ATOM     51  C   UNL A   1      39.545  33.417  35.371  1.00  0.00     0.173 A 
ATOM     52  F   UNL A   1      38.068  30.252  36.369  1.00  0.00    -0.203 F 
ATOM     53  C   UNL A   1      38.035  32.350  37.439  1.00  0.00     0.198 A 
ATOM     54  C   UNL A   1      39.163  34.219  36.444  1.00  0.00     0.198 A 
ATOM     55  F   UNL A   1      40.275  33.961  34.385  1.00  0.00    -0.203 F 
ATOM     56  F   UNL A   1      37.282  31.837  38.422  1.00  0.00    -0.200 F 
ATOM     57  C   UNL A   1      38.405  33.686  37.476  1.00  0.00     0.200 A 
ATOM     58  F   UNL A   1      39.536  35.506  36.483  1.00  0.00    -0.200 F 
ATOM     59  F   UNL A   1      38.030  34.460  38.504  1.00  0.00    -0.200 F 
ENDBRANCH  25  49
BRANCH  37  60
ATOM     60  C   UNL A   1      44.823  28.041  34.339  1.00  0.00     0.064 A 
ATOM     61  C   UNL A   1      44.836  26.921  35.185  1.00  0.00     0.173 A 
ATOM     62  C   UNL A   1      45.985  28.825  34.271  1.00  0.00     0.173 A 
ATOM     63  F   UNL A   1      43.747  26.146  35.294  1.00  0.00    -0.203 F 
ATOM     64  C   UNL A   1      45.959  26.614  35.948  1.00  0.00     0.198 A 
ATOM     65  C   UNL A   1      47.118  28.495  35.009  1.00  0.00     0.198 A 
ATOM     66  F   UNL A   1      46.029  29.900  33.469  1.00  0.00    -0.203 F 
ATOM     67  F   UNL A   1      45.932  25.566  36.783  1.00  0.00    -0.200 F 
ATOM     68  C   UNL A   1      47.101  27.394  35.852  1.00  0.00     0.200 A 
ATOM     69  F   UNL A   1      48.227  29.238  34.900  1.00  0.00    -0.200 F 
ATOM     70  F   UNL A   1      48.187  27.087  36.575  1.00  0.00    -0.200 F 
ENDBRANCH  37  60
ENDBRANCH  11  12
ENDBRANCH   4   6
ENDBRANCH   1   2
BRANCH   1  71
ATOM     71  C   UNL A   1      34.115  29.013  24.505  1.00  0.00     0.042 C 
BRANCH  71  72
ATOM     72  C   UNL A   1      33.517  29.212  23.132  1.00  0.00     0.118 C 
BRANCH  72  73
ATOM     73  N   UNL A   1      33.784  28.106  22.225  1.00  0.00    -0.352 N 
ATOM     74  C   UNL A   1      33.140  26.896  22.146  1.00  0.00     0.253 C 
ATOM     75  H   UNL A   1      34.520  28.243  21.585  1.00  0.00     0.163 HD
ATOM     76  O   UNL A   1      33.556  26.029  21.385  1.00  0.00    -0.269 OA
BRANCH  74  77
ATOM     77  C   UNL A   1      31.973  26.633  23.014  1.00  0.00     0.063 A 
ATOM     78  C   UNL A   1      30.745  27.141  22.567  1.00  0.00     0.016 A 
ATOM     79  C   UNL A   1      32.067  25.879  24.204  1.00  0.00     0.051 A 
ATOM     80  C   UNL A   1      29.581  26.858  23.273  1.00  0.00     0.001 A 
ATOM     81  C   UNL A   1      30.868  25.566  24.881  1.00  0.00    -0.017 A 
ATOM     82  N   UNL A   1      33.284  25.369  24.660  1.00  0.00    -0.377 N 
ATOM     83  C   UNL A   1      29.640  26.071  24.423  1.00  0.00     0.006 A 
ATOM     84  C   UNL A   1      31.006  24.765  26.142  1.00  0.00     0.049 C 
ATOM     85  C   UNL A   1      33.429  24.301  25.665  1.00  0.00     0.115 C 
ATOM     86  H   UNL A   1      34.108  25.751  24.281  1.00  0.00     0.161 HD
ATOM     87  C   UNL A   1      32.064  23.669  25.909  1.00  0.00     0.031 C 
ATOM     88  C   UNL A   1      29.883  23.907  26.651  1.00  0.00    -0.023 C 
ATOM     89  C   UNL A   1      31.878  22.765  27.126  1.00  0.00     0.034 C 
ATOM     90  C   UNL A   1      30.379  22.805  27.238  1.00  0.00    -0.030 C 
BRANCH  85  91
ATOM     91  C   UNL A   1      34.641  23.433  25.276  1.00  0.00    -0.011 A 
ATOM     92  C   UNL A   1      35.905  24.031  25.541  1.00  0.00     0.007 A 
ATOM     93  C   UNL A   1      34.677  22.158  24.675  1.00  0.00     0.023 A 
ATOM     94  C   UNL A   1      37.118  23.395  25.261  1.00  0.00     0.000 A 
ATOM     95  C   UNL A   1      35.905  21.500  24.452  1.00  0.00     0.016 A 
ATOM     96  Br  UNL A   1      33.201  21.186  23.975  1.00  0.00    -0.050 Br
ATOM     97  C   UNL A   1      37.118  22.113  24.739  1.00  0.00     0.001 A 
ENDBRANCH  85  91
ENDBRANCH  74  77
ENDBRANCH  72  73
ENDBRANCH  71  72
ENDBRANCH   1  71
TORSDOF 11
ENDMDL
MODEL 3
REMARK VINA RESULT:     -13.4      2.159      7.476
REMARK SMILES O=C(NCCCNC(=O)c1cccc2c1N[C@H](c1ccccc1Br)[C@H]1CC=C[C@H]21)c1ccc(-c2c3nc(c(-c4c(F)c(F)c(F)c(F)c4F)c4ccc([nH]4)c(-c4c(F)c(F)c(F)c(F)c4F)c4nc(c(-c5c(F)c(F)c(F)c(F)c5F)c5ccc2[nH]5)C=C4)C=C3)cc1
REMARK SMILES IDX 4 1 3 2 1 3 2 4 30 6 31 7 92 8 32 9 91 10 33 11 34 12 35 13
REMARK SMILES IDX 85 14 36 15 90 16 84 17 86 18 37 19 89 20 83 21 82 22 38 24
REMARK SMILES IDX 70 25 50 26 69 27 51 28 54 29 68 30 87 31 52 32 53 33 67 35
REMARK SMILES IDX 88 36 55 37 39 38 40 39 48 40 41 41 42 42 46 43 49 44 43 45
REMARK SMILES IDX 44 46 47 47 45 48 71 49 72 50 80 51 73 52 74 53 78 54 81 55
REMARK SMILES IDX 75 56 76 57 79 58 77 59 56 60 57 61 65 62 58 63 59 64 63 65
REMARK SMILES IDX 66 66 60 67 61 68 64 69 62 70 5 71 6 72 7 73 8 74 9 76 10 77
REMARK SMILES IDX 11 78 15 79 12 80 14 81 16 82 13 83 29 84 17 85 25 87 28 88
REMARK SMILES IDX 26 89 27 90 18 91 19 92 23 93 20 94 22 95 24 96 21 97
REMARK H PARENT 3 5 86 23 54 34 7 75 16 86
REMARK Flexibility Score: inf
ROOT
ATOM      1  C   UNL A   1      33.770  28.846  26.146  1.00  0.00     0.118 C 
ENDROOT
BRANCH   1   2
ATOM      2  N   UNL A   1      33.636  30.196  26.680  1.00  0.00    -0.352 N 
ATOM      3  O   UNL A   1      34.020  31.942  28.048  1.00  0.00    -0.269 OA
ATOM      4  C   UNL A   1      34.406  30.870  27.595  1.00  0.00     0.251 C 
ATOM      5  H   UNL A   1      32.872  30.705  26.329  1.00  0.00     0.163 HD
BRANCH   4   6
ATOM      6  C   UNL A   1      35.696  30.304  28.044  1.00  0.00     0.039 A 
ATOM      7  C   UNL A   1      35.765  29.673  29.289  1.00  0.00     0.014 A 
ATOM      8  C   UNL A   1      36.848  30.432  27.265  1.00  0.00     0.014 A 
ATOM      9  C   UNL A   1      36.981  29.151  29.735  1.00  0.00     0.010 A 
ATOM     10  C   UNL A   1      38.021  29.798  27.647  1.00  0.00     0.010 A 
ATOM     11  C   UNL A   1      38.115  29.202  28.912  1.00  0.00    -0.014 A 
BRANCH  11  12
ATOM     12  C   UNL A   1      39.450  28.771  29.388  1.00  0.00     0.031 A 
ATOM     13  C   UNL A   1      40.169  29.620  30.403  1.00  0.00     0.074 A 
ATOM     14  C   UNL A   1      40.032  27.665  28.891  1.00  0.00     0.049 A 
ATOM     15  N   UNL A   1      41.388  29.511  30.866  1.00  0.00    -0.248 NA
ATOM     16  C   UNL A   1      39.427  30.773  30.943  1.00  0.00     0.031 C 
ATOM     17  C   UNL A   1      39.442  26.770  27.896  1.00  0.00     0.029 A 
ATOM     18  N   UNL A   1      41.257  27.110  29.159  1.00  0.00    -0.354 N 
ATOM     19  C   UNL A   1      41.559  30.589  31.725  1.00  0.00     0.074 A 
ATOM     20  C   UNL A   1      40.354  31.384  31.661  1.00  0.00     0.031 C 
ATOM     21  C   UNL A   1      40.293  25.757  27.662  1.00  0.00     0.029 A 
ATOM     22  C   UNL A   1      41.504  25.958  28.454  1.00  0.00     0.049 A 
ATOM     23  H   UNL A   1      41.899  27.500  29.794  1.00  0.00     0.167 HD
ATOM     24  C   UNL A   1      42.610  30.871  32.528  1.00  0.00     0.037 A 
ATOM     25  C   UNL A   1      42.589  25.161  28.448  1.00  0.00     0.037 A 
ATOM     26  C   UNL A   1      43.788  30.053  32.622  1.00  0.00     0.049 A 
ATOM     27  C   UNL A   1      43.762  25.513  29.322  1.00  0.00     0.074 A 
ATOM     28  C   UNL A   1      44.892  30.222  33.436  1.00  0.00     0.029 A 
ATOM     29  N   UNL A   1      44.007  28.902  31.879  1.00  0.00    -0.354 N 
ATOM     30  N   UNL A   1      43.904  26.517  30.154  1.00  0.00    -0.248 NA
ATOM     31  C   UNL A   1      44.927  24.621  29.254  1.00  0.00     0.031 C 
ATOM     32  C   UNL A   1      45.802  29.200  33.152  1.00  0.00     0.029 A 
ATOM     33  C   UNL A   1      45.243  28.363  32.198  1.00  0.00     0.049 A 
ATOM     34  H   UNL A   1      43.379  28.524  31.223  1.00  0.00     0.167 HD
ATOM     35  C   UNL A   1      45.165  26.371  30.718  1.00  0.00     0.074 A 
ATOM     36  C   UNL A   1      45.735  25.165  30.154  1.00  0.00     0.031 C 
ATOM     37  C   UNL A   1      45.796  27.165  31.618  1.00  0.00     0.037 A 
BRANCH  24  38
ATOM     38  C   UNL A   1      42.523  32.106  33.378  1.00  0.00     0.064 A 
ATOM     39  C   UNL A   1      42.962  33.355  32.909  1.00  0.00     0.173 A 
ATOM     40  C   UNL A   1      41.969  32.050  34.666  1.00  0.00     0.173 A 
ATOM     41  F   UNL A   1      43.515  33.463  31.691  1.00  0.00    -0.203 F 
ATOM     42  C   UNL A   1      42.879  34.492  33.708  1.00  0.00     0.198 A 
ATOM     43  C   UNL A   1      41.856  33.196  35.449  1.00  0.00     0.198 A 
ATOM     44  F   UNL A   1      41.533  30.883  35.165  1.00  0.00    -0.203 F 
ATOM     45  F   UNL A   1      43.359  35.660  33.258  1.00  0.00    -0.200 F 
ATOM     46  C   UNL A   1      42.318  34.414  34.973  1.00  0.00     0.200 A 
ATOM     47  F   UNL A   1      41.300  33.121  36.666  1.00  0.00    -0.200 F 
ATOM     48  F   UNL A   1      42.229  35.512  35.737  1.00  0.00    -0.200 F 
ENDBRANCH  24  38
BRANCH  25  49
ATOM     49  C   UNL A   1      42.592  23.933  27.611  1.00  0.00     0.064 A 
ATOM     50  C   UNL A   1      42.968  23.991  26.262  1.00  0.00     0.173 A 
ATOM     51  C   UNL A   1      42.256  22.679  28.142  1.00  0.00     0.173 A 
ATOM     52  F   UNL A   1      43.277  25.171  25.703  1.00  0.00    -0.203 F 
ATOM     53  C   UNL A   1      43.004  22.843  25.474  1.00  0.00     0.198 A 
ATOM     54  C   UNL A   1      42.319  21.527  27.360  1.00  0.00     0.198 A 
ATOM     55  F   UNL A   1      41.891  22.570  29.428  1.00  0.00    -0.203 F 
ATOM     56  F   UNL A   1      43.338  22.930  24.180  1.00  0.00    -0.200 F 
ATOM     57  C   UNL A   1      42.689  21.610  26.026  1.00  0.00     0.200 A 
ATOM     58  F   UNL A   1      42.028  20.336  27.902  1.00  0.00    -0.200 F 
ATOM     59  F   UNL A   1      42.740  20.503  25.273  1.00  0.00    -0.200 F 
ENDBRANCH  25  49
BRANCH  37  60
ATOM     60  C   UNL A   1      47.176  26.761  32.050  1.00  0.00     0.064 A 
ATOM     61  C   UNL A   1      47.376  25.829  33.080  1.00  0.00     0.173 A 
ATOM     62  C   UNL A   1      48.308  27.258  31.386  1.00  0.00     0.173 A 
ATOM     63  F   UNL A   1      46.327  25.332  33.752  1.00  0.00    -0.203 F 
ATOM     64  C   UNL A   1      48.658  25.429  33.443  1.00  0.00     0.198 A 
ATOM     65  C   UNL A   1      49.587  26.830  31.730  1.00  0.00     0.198 A 
ATOM     66  F   UNL A   1      48.171  28.144  30.387  1.00  0.00    -0.203 F 
ATOM     67  F   UNL A   1      48.827  24.572  34.460  1.00  0.00    -0.200 F 
ATOM     68  C   UNL A   1      49.761  25.921  32.763  1.00  0.00     0.200 A 
ATOM     69  F   UNL A   1      50.650  27.292  31.057  1.00  0.00    -0.200 F 
ATOM     70  F   UNL A   1      50.994  25.523  33.104  1.00  0.00    -0.200 F 
ENDBRANCH  37  60
ENDBRANCH  11  12
ENDBRANCH   4   6
ENDBRANCH   1   2
BRANCH   1  71
ATOM     71  C   UNL A   1      34.583  28.797  24.869  1.00  0.00     0.042 C 
BRANCH  71  72
ATOM     72  C   UNL A   1      33.786  29.179  23.644  1.00  0.00     0.118 C 
BRANCH  72  73
ATOM     73  N   UNL A   1      33.930  28.232  22.548  1.00  0.00    -0.352 N 
ATOM     74  C   UNL A   1      33.163  27.126  22.274  1.00  0.00     0.253 C 
ATOM     75  H   UNL A   1      34.671  28.407  21.924  1.00  0.00     0.163 HD
ATOM     76  O   UNL A   1      33.481  26.372  21.360  1.00  0.00    -0.269 OA
BRANCH  74  77
ATOM     77  C   UNL A   1      31.982  26.831  23.111  1.00  0.00     0.063 A 
ATOM     78  C   UNL A   1      30.761  27.352  22.661  1.00  0.00     0.016 A 
ATOM     79  C   UNL A   1      32.057  26.035  24.275  1.00  0.00     0.051 A 
ATOM     80  C   UNL A   1      29.586  27.043  23.336  1.00  0.00     0.001 A 
ATOM     81  C   UNL A   1      30.847  25.697  24.920  1.00  0.00    -0.017 A 
ATOM     82  N   UNL A   1      33.267  25.511  24.734  1.00  0.00    -0.377 N 
ATOM     83  C   UNL A   1      29.627  26.216  24.458  1.00  0.00     0.006 A 
ATOM     84  C   UNL A   1      30.966  24.851  26.154  1.00  0.00     0.049 C 
ATOM     85  C   UNL A   1      33.398  24.410  25.702  1.00  0.00     0.115 C 
ATOM     86  H   UNL A   1      34.097  25.908  24.382  1.00  0.00     0.161 HD
ATOM     87  C   UNL A   1      32.030  23.767  25.901  1.00  0.00     0.031 C 
ATOM     88  C   UNL A   1      29.836  23.975  26.612  1.00  0.00    -0.023 C 
ATOM     89  C   UNL A   1      31.826  22.820  27.082  1.00  0.00     0.034 C 
ATOM     90  C   UNL A   1      30.325  22.853  27.169  1.00  0.00    -0.030 C 
BRANCH  85  91
ATOM     91  C   UNL A   1      34.618  23.558  25.304  1.00  0.00    -0.011 A 
ATOM     92  C   UNL A   1      35.875  24.136  25.637  1.00  0.00     0.007 A 
ATOM     93  C   UNL A   1      34.668  22.315  24.639  1.00  0.00     0.023 A 
ATOM     94  C   UNL A   1      37.095  23.510  25.360  1.00  0.00     0.000 A 
ATOM     95  C   UNL A   1      35.900  21.665  24.418  1.00  0.00     0.016 A 
ATOM     96  Br  UNL A   1      33.210  21.388  23.846  1.00  0.00    -0.050 Br
ATOM     97  C   UNL A   1      37.106  22.257  24.771  1.00  0.00     0.001 A 
ENDBRANCH  85  91
ENDBRANCH  74  77
ENDBRANCH  72  73
ENDBRANCH  71  72
ENDBRANCH   1  71
TORSDOF 11
ENDMDL
