MODEL 1
REMARK VINA RESULT:     -13.0      0.000      0.000
REMARK SMILES CC[NH+]1CCC2(CC1)OC[C@H](C(=O)NCCCNC(=O)c1ccc(-c3c4nc(c(-c5c(F)c(F)c(F)c(F)c5F)c5ccc([nH]5)c(-c5c(F)c(F)c(F)c(F)c5F)c5nc(c(-c6c(F)c(F)c(F)c(F)c6F)c6ccc3[nH]6)C=C5)C=C4)cc1)N2C(=O)c1ccccc1
REMARK SMILES IDX 16 1 15 2 14 3 12 4 13 5 11 7 3 8 4 9 8 10 5 12 7 13 6 14
REMARK SMILES IDX 9 15 84 16 10 17 2 18 1 19 85 20 86 21 87 22 88 23 92 24
REMARK SMILES IDX 89 25 91 26 90 27 17 28 18 29 19 30 20 32 21 33 22 34 83 35
REMARK SMILES IDX 23 36 82 37 24 38 25 39 26 40 76 41 27 42 81 43 75 44 77 45
REMARK SMILES IDX 28 46 80 47 74 48 73 49 29 51 61 52 41 53 60 54 42 55 45 56
REMARK SMILES IDX 59 57 78 58 43 59 44 60 58 62 79 63 46 64 30 65 31 66 39 67
REMARK SMILES IDX 32 68 33 69 37 70 40 71 34 72 35 73 38 74 36 75 62 76 63 77
REMARK SMILES IDX 71 78 64 79 65 80 69 81 72 82 66 83 67 84 70 85 68 86 47 87
REMARK SMILES IDX 48 88 56 89 49 90 50 91 54 92 57 93 51 94 52 95 55 96 53 97
REMARK H PARENT 14 6 3 11 18 31 77 50 45 61
REMARK Flexibility Score: inf
ROOT
ATOM      1  C   UNL A   1      31.266  32.304  26.384  1.00  0.00     0.042 C 
ENDROOT
BRANCH   1   2
ATOM      2  C   UNL A   1      31.290  30.806  26.100  1.00  0.00     0.117 C 
BRANCH   2   3
ATOM      3  N   UNL A   1      32.622  30.256  26.252  1.00  0.00    -0.354 N 
ATOM      4  C   UNL A   1      33.303  29.374  25.467  1.00  0.00     0.245 C 
ATOM      5  O   UNL A   1      34.323  28.885  25.959  1.00  0.00    -0.273 OA
ATOM      6  H   UNL A   1      33.113  30.569  27.047  1.00  0.00     0.163 HD
BRANCH   4   7
ATOM      7  C   UNL A   1      32.844  29.089  24.024  1.00  0.00     0.203 C 
ATOM      8  N   UNL A   1      32.630  23.890  23.424  1.00  0.00    -0.335 N 
ATOM      9  C   UNL A   1      32.979  24.597  24.649  1.00  0.00     0.267 C 
ATOM     10  C   UNL A   1      32.277  24.725  22.279  1.00  0.00     0.267 C 
ATOM     11  H   UNL A   1      31.736  23.460  23.664  1.00  0.00     0.348 HD
ATOM     12  C   UNL A   1      33.812  25.842  24.468  1.00  0.00     0.120 C 
ATOM     13  C   UNL A   1      33.002  26.054  22.117  1.00  0.00     0.120 C 
ATOM     14  C   UNL A   1      33.264  26.811  23.417  1.00  0.00     0.155 C 
ATOM     15  O   UNL A   1      34.430  27.649  23.101  1.00  0.00    -0.352 OA
ATOM     16  N   UNL A   1      32.233  27.781  23.862  1.00  0.00    -0.295 N 
ATOM     17  C   UNL A   1      34.045  29.024  23.122  1.00  0.00     0.198 C 
BRANCH   8  18
ATOM     18  C   UNL A   1      33.510  22.772  23.105  1.00  0.00     0.258 C 
ATOM     19  C   UNL A   1      33.036  21.498  23.804  1.00  0.00     0.071 C 
ENDBRANCH   8  18
BRANCH  16  20
ATOM     20  C   UNL A   1      30.867  27.749  24.114  1.00  0.00     0.256 C 
ATOM     21  O   UNL A   1      30.395  27.108  25.058  1.00  0.00    -0.269 OA
BRANCH  20  22
ATOM     22  C   UNL A   1      29.884  28.526  23.357  1.00  0.00     0.040 A 
ATOM     23  C   UNL A   1      28.521  28.236  23.497  1.00  0.00     0.014 A 
ATOM     24  C   UNL A   1      30.310  29.427  22.380  1.00  0.00     0.014 A 
ATOM     25  C   UNL A   1      27.581  28.970  22.767  1.00  0.00     0.001 A 
ATOM     26  C   UNL A   1      29.368  30.183  21.679  1.00  0.00     0.001 A 
ATOM     27  C   UNL A   1      28.005  29.967  21.887  1.00  0.00     0.000 A 
ENDBRANCH  20  22
ENDBRANCH  16  20
ENDBRANCH   4   7
ENDBRANCH   2   3
ENDBRANCH   1   2
BRANCH   1  28
ATOM     28  C   UNL A   1      32.433  32.797  27.235  1.00  0.00     0.118 C 
BRANCH  28  29
ATOM     29  N   UNL A   1      32.315  34.207  27.585  1.00  0.00    -0.352 N 
ATOM     30  C   UNL A   1      32.974  34.944  28.536  1.00  0.00     0.251 C 
ATOM     31  H   UNL A   1      31.658  34.712  27.053  1.00  0.00     0.163 HD
ATOM     32  O   UNL A   1      32.582  36.075  28.807  1.00  0.00    -0.269 OA
BRANCH  30  33
ATOM     33  C   UNL A   1      34.142  34.383  29.248  1.00  0.00     0.039 A 
ATOM     34  C   UNL A   1      33.928  33.675  30.435  1.00  0.00     0.014 A 
ATOM     35  C   UNL A   1      35.442  34.579  28.778  1.00  0.00     0.014 A 
ATOM     36  C   UNL A   1      35.011  33.114  31.114  1.00  0.00     0.010 A 
ATOM     37  C   UNL A   1      36.512  33.949  29.408  1.00  0.00     0.010 A 
ATOM     38  C   UNL A   1      36.309  33.216  30.587  1.00  0.00    -0.014 A 
BRANCH  38  39
ATOM     39  C   UNL A   1      37.462  32.563  31.258  1.00  0.00     0.031 A 
ATOM     40  C   UNL A   1      38.188  31.430  30.589  1.00  0.00     0.074 A 
ATOM     41  C   UNL A   1      37.819  32.955  32.497  1.00  0.00     0.049 A 
ATOM     42  N   UNL A   1      39.181  30.701  31.036  1.00  0.00    -0.248 NA
ATOM     43  C   UNL A   1      37.721  31.043  29.248  1.00  0.00     0.031 C 
ATOM     44  C   UNL A   1      37.162  34.009  33.272  1.00  0.00     0.029 A 
ATOM     45  N   UNL A   1      38.818  32.508  33.325  1.00  0.00    -0.354 N 
ATOM     46  C   UNL A   1      39.444  29.769  30.042  1.00  0.00     0.074 A 
ATOM     47  C   UNL A   1      38.472  29.983  28.993  1.00  0.00     0.031 C 
ATOM     48  C   UNL A   1      37.789  34.144  34.450  1.00  0.00     0.029 A 
ATOM     49  C   UNL A   1      38.865  33.161  34.532  1.00  0.00     0.049 A 
ATOM     50  H   UNL A   1      39.441  31.786  33.078  1.00  0.00     0.167 HD
ATOM     51  C   UNL A   1      40.423  28.833  29.997  1.00  0.00     0.037 A 
ATOM     52  C   UNL A   1      39.679  32.982  35.590  1.00  0.00     0.037 A 
ATOM     53  C   UNL A   1      41.400  28.635  31.036  1.00  0.00     0.049 A 
ATOM     54  C   UNL A   1      40.753  31.930  35.519  1.00  0.00     0.074 A 
ATOM     55  C   UNL A   1      42.468  27.754  31.061  1.00  0.00     0.029 A 
ATOM     56  N   UNL A   1      41.426  29.327  32.239  1.00  0.00    -0.354 N 
ATOM     57  N   UNL A   1      41.039  31.102  34.542  1.00  0.00    -0.248 NA
ATOM     58  C   UNL A   1      41.624  31.793  36.694  1.00  0.00     0.031 C 
ATOM     59  C   UNL A   1      43.105  27.873  32.300  1.00  0.00     0.029 A 
ATOM     60  C   UNL A   1      42.475  28.874  33.023  1.00  0.00     0.049 A 
ATOM     61  H   UNL A   1      40.792  30.034  32.497  1.00  0.00     0.167 HD
ATOM     62  C   UNL A   1      42.139  30.371  34.972  1.00  0.00     0.074 A 
ATOM     63  C   UNL A   1      42.478  30.864  36.290  1.00  0.00     0.031 C 
ATOM     64  C   UNL A   1      42.807  29.380  34.332  1.00  0.00     0.037 A 
BRANCH  51  65
ATOM     65  C   UNL A   1      40.487  27.949  28.784  1.00  0.00     0.064 A 
ATOM     66  C   UNL A   1      39.785  26.737  28.717  1.00  0.00     0.173 A 
ATOM     67  C   UNL A   1      41.231  28.337  27.658  1.00  0.00     0.173 A 
ATOM     68  F   UNL A   1      39.066  26.312  29.768  1.00  0.00    -0.203 F 
ATOM     69  C   UNL A   1      39.850  25.930  27.582  1.00  0.00     0.198 A 
ATOM     70  C   UNL A   1      41.266  27.545  26.513  1.00  0.00     0.198 A 
ATOM     71  F   UNL A   1      41.916  29.490  27.664  1.00  0.00    -0.203 F 
ATOM     72  F   UNL A   1      39.212  24.751  27.563  1.00  0.00    -0.200 F 
ATOM     73  C   UNL A   1      40.583  26.339  26.479  1.00  0.00     0.200 A 
ATOM     74  F   UNL A   1      41.963  27.950  25.442  1.00  0.00    -0.200 F 
ATOM     75  F   UNL A   1      40.637  25.568  25.385  1.00  0.00    -0.200 F 
ENDBRANCH  51  65
BRANCH  52  76
ATOM     76  C   UNL A   1      39.526  33.833  36.800  1.00  0.00     0.064 A 
ATOM     77  C   UNL A   1      38.764  33.401  37.893  1.00  0.00     0.173 A 
ATOM     78  C   UNL A   1      40.130  35.096  36.884  1.00  0.00     0.173 A 
ATOM     79  F   UNL A   1      38.150  32.208  37.852  1.00  0.00    -0.203 F 
ATOM     80  C   UNL A   1      38.590  34.208  39.014  1.00  0.00     0.198 A 
ATOM     81  C   UNL A   1      39.982  35.890  38.020  1.00  0.00     0.198 A 
ATOM     82  F   UNL A   1      40.875  35.555  35.868  1.00  0.00    -0.203 F 
ATOM     83  F   UNL A   1      37.812  33.792  40.023  1.00  0.00    -0.200 F 
ATOM     84  C   UNL A   1      39.203  35.451  39.080  1.00  0.00     0.200 A 
ATOM     85  F   UNL A   1      40.589  37.082  38.085  1.00  0.00    -0.200 F 
ATOM     86  F   UNL A   1      39.037  36.225  40.160  1.00  0.00    -0.200 F 
ENDBRANCH  52  76
BRANCH  64  87
ATOM     87  C   UNL A   1      44.001  28.792  35.029  1.00  0.00     0.064 A 
ATOM     88  C   UNL A   1      45.288  29.329  34.873  1.00  0.00     0.173 A 
ATOM     89  C   UNL A   1      43.849  27.694  35.890  1.00  0.00     0.173 A 
ATOM     90  F   UNL A   1      45.491  30.370  34.050  1.00  0.00    -0.203 F 
ATOM     91  C   UNL A   1      46.382  28.768  35.526  1.00  0.00     0.198 A 
ATOM     92  C   UNL A   1      44.939  27.157  36.568  1.00  0.00     0.198 A 
ATOM     93  F   UNL A   1      42.639  27.146  36.081  1.00  0.00    -0.203 F 
ATOM     94  F   UNL A   1      47.611  29.261  35.318  1.00  0.00    -0.200 F 
ATOM     95  C   UNL A   1      46.205  27.688  36.379  1.00  0.00     0.200 A 
ATOM     96  F   UNL A   1      44.764  26.124  37.404  1.00  0.00    -0.200 F 
ATOM     97  F   UNL A   1      47.259  27.153  37.012  1.00  0.00    -0.200 F 
ENDBRANCH  64  87
ENDBRANCH  38  39
ENDBRANCH  30  33
ENDBRANCH  28  29
ENDBRANCH   1  28
TORSDOF 13
ENDMDL
MODEL 2
REMARK VINA RESULT:     -13.0      3.972      8.022
REMARK SMILES CC[NH+]1CCC2(CC1)OC[C@H](C(=O)NCCCNC(=O)c1ccc(-c3c4nc(c(-c5c(F)c(F)c(F)c(F)c5F)c5ccc([nH]5)c(-c5c(F)c(F)c(F)c(F)c5F)c5nc(c(-c6c(F)c(F)c(F)c(F)c6F)c6ccc3[nH]6)C=C5)C=C4)cc1)N2C(=O)c1ccccc1
REMARK SMILES IDX 16 1 15 2 14 3 12 4 13 5 11 7 3 8 4 9 8 10 5 12 7 13 6 14
REMARK SMILES IDX 9 15 84 16 10 17 2 18 1 19 85 20 86 21 87 22 88 23 92 24
REMARK SMILES IDX 89 25 91 26 90 27 17 28 18 29 19 30 20 32 21 33 22 34 83 35
REMARK SMILES IDX 23 36 82 37 24 38 25 39 26 40 76 41 27 42 81 43 75 44 77 45
REMARK SMILES IDX 28 46 80 47 74 48 73 49 29 51 61 52 41 53 60 54 42 55 45 56
REMARK SMILES IDX 59 57 78 58 43 59 44 60 58 62 79 63 46 64 30 65 31 66 39 67
REMARK SMILES IDX 32 68 33 69 37 70 40 71 34 72 35 73 38 74 36 75 62 76 63 77
REMARK SMILES IDX 71 78 64 79 65 80 69 81 72 82 66 83 67 84 70 85 68 86 47 87
REMARK SMILES IDX 48 88 56 89 49 90 50 91 54 92 57 93 51 94 52 95 55 96 53 97
REMARK H PARENT 14 6 3 11 18 31 77 50 45 61
REMARK Flexibility Score: inf
ROOT
ATOM      1  C   UNL A   1      35.090  23.068  26.393  1.00  0.00     0.042 C 
ENDROOT
BRANCH   1   2
ATOM      2  C   UNL A   1      33.899  24.005  26.219  1.00  0.00     0.117 C 
BRANCH   2   3
ATOM      3  N   UNL A   1      33.160  23.710  25.009  1.00  0.00    -0.354 N 
ATOM      4  C   UNL A   1      32.665  24.550  24.056  1.00  0.00     0.245 C 
ATOM      5  O   UNL A   1      31.863  24.054  23.261  1.00  0.00    -0.273 OA
ATOM      6  H   UNL A   1      32.989  22.754  24.850  1.00  0.00     0.163 HD
BRANCH   4   7
ATOM      7  C   UNL A   1      33.162  26.004  23.955  1.00  0.00     0.203 C 
ATOM      8  N   UNL A   1      28.970  29.069  23.264  1.00  0.00    -0.335 N 
ATOM      9  C   UNL A   1      28.953  27.624  23.449  1.00  0.00     0.267 C 
ATOM     10  C   UNL A   1      30.283  29.708  23.313  1.00  0.00     0.267 C 
ATOM     11  H   UNL A   1      28.531  29.407  24.120  1.00  0.00     0.348 HD
ATOM     12  C   UNL A   1      30.073  26.867  22.776  1.00  0.00     0.120 C 
ATOM     13  C   UNL A   1      31.472  28.935  22.758  1.00  0.00     0.120 C 
ATOM     14  C   UNL A   1      31.465  27.437  23.056  1.00  0.00     0.155 C 
ATOM     15  O   UNL A   1      32.280  26.864  21.974  1.00  0.00    -0.352 OA
ATOM     16  N   UNL A   1      32.146  26.985  24.295  1.00  0.00    -0.295 N 
ATOM     17  C   UNL A   1      33.483  26.323  22.521  1.00  0.00     0.198 C 
BRANCH   8  18
ATOM     18  C   UNL A   1      28.109  29.546  22.188  1.00  0.00     0.258 C 
ATOM     19  C   UNL A   1      27.932  31.061  22.273  1.00  0.00     0.071 C 
ENDBRANCH   8  18
BRANCH  16  20
ATOM     20  C   UNL A   1      32.072  27.291  25.649  1.00  0.00     0.256 C 
ATOM     21  O   UNL A   1      31.472  26.567  26.448  1.00  0.00    -0.269 OA
BRANCH  20  22
ATOM     22  C   UNL A   1      32.761  28.430  26.261  1.00  0.00     0.040 A 
ATOM     23  C   UNL A   1      34.106  28.304  26.628  1.00  0.00     0.014 A 
ATOM     24  C   UNL A   1      32.038  29.565  26.631  1.00  0.00     0.014 A 
ATOM     25  C   UNL A   1      34.763  29.386  27.222  1.00  0.00     0.001 A 
ATOM     26  C   UNL A   1      32.704  30.656  27.191  1.00  0.00     0.001 A 
ATOM     27  C   UNL A   1      34.070  30.573  27.469  1.00  0.00     0.000 A 
ENDBRANCH  20  22
ENDBRANCH  16  20
ENDBRANCH   4   7
ENDBRANCH   2   3
ENDBRANCH   1   2
BRANCH   1  28
ATOM     28  C   UNL A   1      36.438  23.704  26.064  1.00  0.00     0.118 C 
BRANCH  28  29
ATOM     29  N   UNL A   1      37.524  22.733  26.033  1.00  0.00    -0.352 N 
ATOM     30  C   UNL A   1      38.862  22.889  26.290  1.00  0.00     0.251 C 
ATOM     31  H   UNL A   1      37.253  21.818  25.790  1.00  0.00     0.163 HD
ATOM     32  O   UNL A   1      39.643  21.984  26.010  1.00  0.00    -0.269 OA
BRANCH  30  33
ATOM     33  C   UNL A   1      39.374  24.141  26.885  1.00  0.00     0.039 A 
ATOM     34  C   UNL A   1      40.025  25.061  26.056  1.00  0.00     0.014 A 
ATOM     35  C   UNL A   1      39.251  24.400  28.252  1.00  0.00     0.014 A 
ATOM     36  C   UNL A   1      40.496  26.262  26.589  1.00  0.00     0.010 A 
ATOM     37  C   UNL A   1      39.644  25.632  28.765  1.00  0.00     0.010 A 
ATOM     38  C   UNL A   1      40.278  26.574  27.941  1.00  0.00    -0.014 A 
BRANCH  38  39
ATOM     39  C   UNL A   1      40.709  27.879  28.506  1.00  0.00     0.031 A 
ATOM     40  C   UNL A   1      42.149  28.108  28.873  1.00  0.00     0.074 A 
ATOM     41  C   UNL A   1      39.792  28.836  28.741  1.00  0.00     0.049 A 
ATOM     42  N   UNL A   1      42.706  29.157  29.426  1.00  0.00    -0.248 NA
ATOM     43  C   UNL A   1      43.084  27.004  28.611  1.00  0.00     0.031 C 
ATOM     44  C   UNL A   1      38.357  28.716  28.475  1.00  0.00     0.029 A 
ATOM     45  N   UNL A   1      39.927  30.098  29.264  1.00  0.00    -0.354 N 
ATOM     46  C   UNL A   1      44.047  28.833  29.587  1.00  0.00     0.074 A 
ATOM     47  C   UNL A   1      44.210  27.471  29.128  1.00  0.00     0.031 C 
ATOM     48  C   UNL A   1      37.750  29.864  28.812  1.00  0.00     0.029 A 
ATOM     49  C   UNL A   1      38.741  30.786  29.356  1.00  0.00     0.049 A 
ATOM     50  H   UNL A   1      40.792  30.475  29.548  1.00  0.00     0.167 HD
ATOM     51  C   UNL A   1      45.055  29.609  30.052  1.00  0.00     0.037 A 
ATOM     52  C   UNL A   1      38.483  32.018  29.833  1.00  0.00     0.037 A 
ATOM     53  C   UNL A   1      44.891  30.971  30.490  1.00  0.00     0.049 A 
ATOM     54  C   UNL A   1      39.620  32.857  30.353  1.00  0.00     0.074 A 
ATOM     55  C   UNL A   1      45.859  31.861  30.924  1.00  0.00     0.029 A 
ATOM     56  N   UNL A   1      43.676  31.639  30.554  1.00  0.00    -0.354 N 
ATOM     57  N   UNL A   1      40.896  32.566  30.432  1.00  0.00    -0.248 NA
ATOM     58  C   UNL A   1      39.280  34.200  30.842  1.00  0.00     0.031 C 
ATOM     59  C   UNL A   1      45.224  33.047  31.303  1.00  0.00     0.029 A 
ATOM     60  C   UNL A   1      43.868  32.922  31.045  1.00  0.00     0.049 A 
ATOM     61  H   UNL A   1      42.808  31.259  30.291  1.00  0.00     0.167 HD
ATOM     62  C   UNL A   1      41.514  33.698  30.948  1.00  0.00     0.074 A 
ATOM     63  C   UNL A   1      40.475  34.685  31.148  1.00  0.00     0.031 C 
ATOM     64  C   UNL A   1      42.825  33.899  31.231  1.00  0.00     0.037 A 
BRANCH  51  65
ATOM     65  C   UNL A   1      46.429  29.003  30.113  1.00  0.00     0.064 A 
ATOM     66  C   UNL A   1      46.892  28.340  31.259  1.00  0.00     0.173 A 
ATOM     67  C   UNL A   1      47.280  29.054  28.998  1.00  0.00     0.173 A 
ATOM     68  F   UNL A   1      46.124  28.270  32.358  1.00  0.00    -0.203 F 
ATOM     69  C   UNL A   1      48.167  27.779  31.298  1.00  0.00     0.198 A 
ATOM     70  C   UNL A   1      48.540  28.462  29.029  1.00  0.00     0.198 A 
ATOM     71  F   UNL A   1      46.886  29.669  27.873  1.00  0.00    -0.203 F 
ATOM     72  F   UNL A   1      48.607  27.196  32.423  1.00  0.00    -0.200 F 
ATOM     73  C   UNL A   1      48.986  27.833  30.181  1.00  0.00     0.200 A 
ATOM     74  F   UNL A   1      49.324  28.502  27.943  1.00  0.00    -0.200 F 
ATOM     75  F   UNL A   1      50.208  27.284  30.217  1.00  0.00    -0.200 F 
ENDBRANCH  51  65
BRANCH  52  76
ATOM     76  C   UNL A   1      37.092  32.544  29.821  1.00  0.00     0.064 A 
ATOM     77  C   UNL A   1      36.609  33.276  28.728  1.00  0.00     0.173 A 
ATOM     78  C   UNL A   1      36.222  32.334  30.900  1.00  0.00     0.173 A 
ATOM     79  F   UNL A   1      37.409  33.522  27.679  1.00  0.00    -0.203 F 
ATOM     80  C   UNL A   1      35.318  33.800  28.725  1.00  0.00     0.198 A 
ATOM     81  C   UNL A   1      34.920  32.830  30.883  1.00  0.00     0.198 A 
ATOM     82  F   UNL A   1      36.633  31.634  31.969  1.00  0.00    -0.203 F 
ATOM     83  F   UNL A   1      34.900  34.542  27.691  1.00  0.00    -0.200 F 
ATOM     84  C   UNL A   1      34.472  33.572  29.801  1.00  0.00     0.200 A 
ATOM     85  F   UNL A   1      34.102  32.594  31.917  1.00  0.00    -0.200 F 
ATOM     86  F   UNL A   1      33.230  34.073  29.796  1.00  0.00    -0.200 F 
ENDBRANCH  52  76
BRANCH  64  87
ATOM     87  C   UNL A   1      43.217  35.255  31.746  1.00  0.00     0.064 A 
ATOM     88  C   UNL A   1      43.162  35.573  33.111  1.00  0.00     0.173 A 
ATOM     89  C   UNL A   1      43.685  36.240  30.862  1.00  0.00     0.173 A 
ATOM     90  F   UNL A   1      42.709  34.672  33.997  1.00  0.00    -0.203 F 
ATOM     91  C   UNL A   1      43.528  36.836  33.567  1.00  0.00     0.198 A 
ATOM     92  C   UNL A   1      44.083  37.490  31.326  1.00  0.00     0.198 A 
ATOM     93  F   UNL A   1      43.765  35.986  29.547  1.00  0.00    -0.203 F 
ATOM     94  F   UNL A   1      43.413  37.137  34.868  1.00  0.00    -0.200 F 
ATOM     95  C   UNL A   1      43.996  37.791  32.676  1.00  0.00     0.200 A 
ATOM     96  F   UNL A   1      44.550  38.405  30.464  1.00  0.00    -0.200 F 
ATOM     97  F   UNL A   1      44.353  39.004  33.117  1.00  0.00    -0.200 F 
ENDBRANCH  64  87
ENDBRANCH  38  39
ENDBRANCH  30  33
ENDBRANCH  28  29
ENDBRANCH   1  28
TORSDOF 13
ENDMDL
MODEL 3
REMARK VINA RESULT:     -13.0      0.566      7.296
REMARK SMILES CC[NH+]1CCC2(CC1)OC[C@H](C(=O)NCCCNC(=O)c1ccc(-c3c4nc(c(-c5c(F)c(F)c(F)c(F)c5F)c5ccc([nH]5)c(-c5c(F)c(F)c(F)c(F)c5F)c5nc(c(-c6c(F)c(F)c(F)c(F)c6F)c6ccc3[nH]6)C=C5)C=C4)cc1)N2C(=O)c1ccccc1
REMARK SMILES IDX 16 1 15 2 14 3 12 4 13 5 11 7 3 8 4 9 8 10 5 12 7 13 6 14
REMARK SMILES IDX 9 15 84 16 10 17 2 18 1 19 85 20 86 21 87 22 88 23 92 24
REMARK SMILES IDX 89 25 91 26 90 27 17 28 18 29 19 30 20 32 21 33 22 34 83 35
REMARK SMILES IDX 23 36 82 37 24 38 25 39 26 40 76 41 27 42 81 43 75 44 77 45
REMARK SMILES IDX 28 46 80 47 74 48 73 49 29 51 61 52 41 53 60 54 42 55 45 56
REMARK SMILES IDX 59 57 78 58 43 59 44 60 58 62 79 63 46 64 30 65 31 66 39 67
REMARK SMILES IDX 32 68 33 69 37 70 40 71 34 72 35 73 38 74 36 75 62 76 63 77
REMARK SMILES IDX 71 78 64 79 65 80 69 81 72 82 66 83 67 84 70 85 68 86 47 87
REMARK SMILES IDX 48 88 56 89 49 90 50 91 54 92 57 93 51 94 52 95 55 96 53 97
REMARK H PARENT 14 6 3 11 18 31 77 50 45 61
REMARK Flexibility Score: inf
ROOT
ATOM      1  C   UNL A   1      31.128  32.280  26.480  1.00  0.00     0.042 C 
ENDROOT
BRANCH   1   2
ATOM      2  C   UNL A   1      31.240  30.921  25.796  1.00  0.00     0.117 C 
BRANCH   2   3
ATOM      3  N   UNL A   1      32.533  30.311  26.029  1.00  0.00    -0.354 N 
ATOM      4  C   UNL A   1      33.189  29.346  25.324  1.00  0.00     0.245 C 
ATOM      5  O   UNL A   1      34.162  28.834  25.881  1.00  0.00    -0.273 OA
ATOM      6  H   UNL A   1      33.014  30.646  26.821  1.00  0.00     0.163 HD
BRANCH   4   7
ATOM      7  C   UNL A   1      32.762  28.998  23.885  1.00  0.00     0.203 C 
ATOM      8  N   UNL A   1      32.512  23.778  23.525  1.00  0.00    -0.335 N 
ATOM      9  C   UNL A   1      32.838  24.539  24.724  1.00  0.00     0.267 C 
ATOM     10  C   UNL A   1      32.195  24.561  22.333  1.00  0.00     0.267 C 
ATOM     11  H   UNL A   1      31.609  23.367  23.762  1.00  0.00     0.348 HD
ATOM     12  C   UNL A   1      33.688  25.767  24.505  1.00  0.00     0.120 C 
ATOM     13  C   UNL A   1      32.937  25.875  22.127  1.00  0.00     0.120 C 
ATOM     14  C   UNL A   1      33.175  26.689  23.396  1.00  0.00     0.155 C 
ATOM     15  O   UNL A   1      34.357  27.502  23.071  1.00  0.00    -0.352 OA
ATOM     16  N   UNL A   1      32.143  27.689  23.769  1.00  0.00    -0.295 N 
ATOM     17  C   UNL A   1      33.984  28.880  23.017  1.00  0.00     0.198 C 
BRANCH   8  18
ATOM     18  C   UNL A   1      33.389  22.639  23.280  1.00  0.00     0.258 C 
ATOM     19  C   UNL A   1      32.704  21.335  23.690  1.00  0.00     0.071 C 
ENDBRANCH   8  18
BRANCH  16  20
ATOM     20  C   UNL A   1      30.771  27.680  23.989  1.00  0.00     0.256 C 
ATOM     21  O   UNL A   1      30.260  27.005  24.888  1.00  0.00    -0.269 OA
BRANCH  20  22
ATOM     22  C   UNL A   1      29.826  28.521  23.251  1.00  0.00     0.040 A 
ATOM     23  C   UNL A   1      28.450  28.310  23.406  1.00  0.00     0.014 A 
ATOM     24  C   UNL A   1      30.292  29.404  22.276  1.00  0.00     0.014 A 
ATOM     25  C   UNL A   1      27.546  29.105  22.694  1.00  0.00     0.001 A 
ATOM     26  C   UNL A   1      29.389  30.220  21.593  1.00  0.00     0.001 A 
ATOM     27  C   UNL A   1      28.018  30.083  21.817  1.00  0.00     0.000 A 
ENDBRANCH  20  22
ENDBRANCH  16  20
ENDBRANCH   4   7
ENDBRANCH   2   3
ENDBRANCH   1   2
BRANCH   1  28
ATOM     28  C   UNL A   1      32.418  32.751  27.146  1.00  0.00     0.118 C 
BRANCH  28  29
ATOM     29  N   UNL A   1      32.359  34.146  27.561  1.00  0.00    -0.352 N 
ATOM     30  C   UNL A   1      33.068  34.818  28.523  1.00  0.00     0.251 C 
ATOM     31  H   UNL A   1      31.706  34.696  27.069  1.00  0.00     0.163 HD
ATOM     32  O   UNL A   1      32.723  35.949  28.854  1.00  0.00    -0.269 OA
BRANCH  30  33
ATOM     33  C   UNL A   1      34.234  34.187  29.178  1.00  0.00     0.039 A 
ATOM     34  C   UNL A   1      34.021  33.391  30.307  1.00  0.00     0.014 A 
ATOM     35  C   UNL A   1      35.533  34.402  28.712  1.00  0.00     0.014 A 
ATOM     36  C   UNL A   1      35.102  32.764  30.929  1.00  0.00     0.010 A 
ATOM     37  C   UNL A   1      36.599  33.710  29.279  1.00  0.00     0.010 A 
ATOM     38  C   UNL A   1      36.397  32.890  30.399  1.00  0.00    -0.014 A 
BRANCH  38  39
ATOM     39  C   UNL A   1      37.546  32.171  31.006  1.00  0.00     0.031 A 
ATOM     40  C   UNL A   1      38.034  32.542  32.379  1.00  0.00     0.074 A 
ATOM     41  C   UNL A   1      38.187  31.223  30.296  1.00  0.00     0.049 A 
ATOM     42  N   UNL A   1      39.052  32.068  33.054  1.00  0.00    -0.248 NA
ATOM     43  C   UNL A   1      37.298  33.606  33.079  1.00  0.00     0.031 C 
ATOM     44  C   UNL A   1      37.842  30.808  28.935  1.00  0.00     0.029 A 
ATOM     45  N   UNL A   1      39.268  30.440  30.617  1.00  0.00    -0.354 N 
ATOM     46  C   UNL A   1      39.083  32.782  34.244  1.00  0.00     0.074 A 
ATOM     47  C   UNL A   1      38.021  33.761  34.177  1.00  0.00     0.031 C 
ATOM     48  C   UNL A   1      38.677  29.832  28.548  1.00  0.00     0.029 A 
ATOM     49  C   UNL A   1      39.641  29.579  29.613  1.00  0.00     0.049 A 
ATOM     50  H   UNL A   1      39.733  30.491  31.484  1.00  0.00     0.167 HD
ATOM     51  C   UNL A   1      39.908  32.621  35.306  1.00  0.00     0.037 A 
ATOM     52  C   UNL A   1      40.653  28.692  29.556  1.00  0.00     0.037 A 
ATOM     53  C   UNL A   1      40.953  31.632  35.375  1.00  0.00     0.049 A 
ATOM     54  C   UNL A   1      41.561  28.538  30.747  1.00  0.00     0.074 A 
ATOM     55  C   UNL A   1      41.805  31.349  36.429  1.00  0.00     0.029 A 
ATOM     56  N   UNL A   1      41.291  30.767  34.344  1.00  0.00    -0.354 N 
ATOM     57  N   UNL A   1      41.535  29.169  31.896  1.00  0.00    -0.248 NA
ATOM     58  C   UNL A   1      42.634  27.541  30.635  1.00  0.00     0.031 C 
ATOM     59  C   UNL A   1      42.695  30.351  36.016  1.00  0.00     0.029 A 
ATOM     60  C   UNL A   1      42.357  29.967  34.729  1.00  0.00     0.049 A 
ATOM     61  H   UNL A   1      40.842  30.727  33.470  1.00  0.00     0.167 HD
ATOM     62  C   UNL A   1      42.564  28.625  32.653  1.00  0.00     0.074 A 
ATOM     63  C   UNL A   1      43.184  27.601  31.839  1.00  0.00     0.031 C 
ATOM     64  C   UNL A   1      42.960  28.945  33.910  1.00  0.00     0.037 A 
BRANCH  51  65
ATOM     65  C   UNL A   1      39.716  33.534  36.483  1.00  0.00     0.064 A 
ATOM     66  C   UNL A   1      40.347  34.785  36.557  1.00  0.00     0.173 A 
ATOM     67  C   UNL A   1      38.859  33.172  37.534  1.00  0.00     0.173 A 
ATOM     68  F   UNL A   1      41.185  35.178  35.585  1.00  0.00    -0.203 F 
ATOM     69  C   UNL A   1      40.155  35.624  37.652  1.00  0.00     0.198 A 
ATOM     70  C   UNL A   1      38.642  34.028  38.611  1.00  0.00     0.198 A 
ATOM     71  F   UNL A   1      38.223  31.991  37.512  1.00  0.00    -0.203 F 
ATOM     72  F   UNL A   1      40.811  36.791  37.725  1.00  0.00    -0.200 F 
ATOM     73  C   UNL A   1      39.296  35.249  38.674  1.00  0.00     0.200 A 
ATOM     74  F   UNL A   1      37.799  33.670  39.590  1.00  0.00    -0.200 F 
ATOM     75  F   UNL A   1      39.104  36.060  39.722  1.00  0.00    -0.200 F 
ENDBRANCH  51  65
BRANCH  52  76
ATOM     76  C   UNL A   1      40.847  27.863  28.338  1.00  0.00     0.064 A 
ATOM     77  C   UNL A   1      41.620  28.329  27.265  1.00  0.00     0.173 A 
ATOM     78  C   UNL A   1      40.261  26.595  28.216  1.00  0.00     0.173 A 
ATOM     79  F   UNL A   1      42.185  29.544  27.325  1.00  0.00    -0.203 F 
ATOM     80  C   UNL A   1      41.777  27.571  26.108  1.00  0.00     0.198 A 
ATOM     81  C   UNL A   1      40.446  25.823  27.071  1.00  0.00     0.198 A 
ATOM     82  F   UNL A   1      39.517  26.099  29.216  1.00  0.00    -0.203 F 
ATOM     83  F   UNL A   1      42.477  28.063  25.076  1.00  0.00    -0.200 F 
ATOM     84  C   UNL A   1      41.195  26.315  26.013  1.00  0.00     0.200 A 
ATOM     85  F   UNL A   1      39.895  24.605  26.990  1.00  0.00    -0.200 F 
ATOM     86  F   UNL A   1      41.349  25.586  24.900  1.00  0.00    -0.200 F 
ENDBRANCH  52  76
BRANCH  64  87
ATOM     87  C   UNL A   1      44.089  28.149  34.500  1.00  0.00     0.064 A 
ATOM     88  C   UNL A   1      45.423  28.575  34.406  1.00  0.00     0.173 A 
ATOM     89  C   UNL A   1      43.829  26.959  35.197  1.00  0.00     0.173 A 
ATOM     90  F   UNL A   1      45.728  29.698  33.738  1.00  0.00    -0.203 F 
ATOM     91  C   UNL A   1      46.455  27.821  34.957  1.00  0.00     0.198 A 
ATOM     92  C   UNL A   1      44.860  26.226  35.777  1.00  0.00     0.198 A 
ATOM     93  F   UNL A   1      42.571  26.510  35.323  1.00  0.00    -0.203 F 
ATOM     94  F   UNL A   1      47.727  28.217  34.806  1.00  0.00    -0.200 F 
ATOM     95  C   UNL A   1      46.173  26.653  35.649  1.00  0.00     0.200 A 
ATOM     96  F   UNL A   1      44.583  25.106  36.459  1.00  0.00    -0.200 F 
ATOM     97  F   UNL A   1      47.168  25.932  36.185  1.00  0.00    -0.200 F 
ENDBRANCH  64  87
ENDBRANCH  38  39
ENDBRANCH  30  33
ENDBRANCH  28  29
ENDBRANCH   1  28
TORSDOF 13
ENDMDL
