MODEL 1
REMARK VINA RESULT:     -12.9      0.000      0.000
REMARK SMILES C[C@@H]1CCC[C@@](Cc2ncccn2)(C(=O)NCCCNC(=O)c2ccc(-c3c4nc(c(-c5c(F)c(F)c(F)c(F)c5F)c5ccc([nH]5)c(-c5c(F)c(F)c(F)c(F)c5F)c5nc(c(-c6c(F)c(F)c(F)c(F)c6F)c6ccc3[nH]6)C=C5)C=C4)cc2)C1
REMARK SMILES IDX 18 1 17 2 16 3 14 4 15 5 6 7 1 8 2 9 3 10 86 11 4 12 5 13
REMARK SMILES IDX 7 14 8 15 9 16 13 17 10 18 12 19 11 20 19 21 20 22 21 23
REMARK SMILES IDX 22 25 23 26 24 27 85 28 25 29 84 30 26 31 27 32 28 33 78 34
REMARK SMILES IDX 29 35 83 36 77 37 79 38 30 39 82 40 76 41 75 42 31 44 63 45
REMARK SMILES IDX 43 46 62 47 44 48 47 49 61 50 80 51 45 52 46 53 60 55 81 56
REMARK SMILES IDX 48 57 32 58 33 59 41 60 34 61 35 62 39 63 42 64 36 65 37 66
REMARK SMILES IDX 40 67 38 68 64 69 65 70 73 71 66 72 67 73 71 74 74 75 68 76
REMARK SMILES IDX 69 77 72 78 70 79 49 80 50 81 58 82 51 83 52 84 56 85 59 86
REMARK SMILES IDX 53 87 54 88 57 89 55 90
REMARK H PARENT 16 6 20 24 79 43 47 54
REMARK Flexibility Score: inf
ROOT
ATOM      1  C   UNL A   1      37.836  20.086  25.001  1.00  0.00     0.042 C 
ENDROOT
BRANCH   1   2
ATOM      2  C   UNL A   1      36.875  21.246  24.866  1.00  0.00     0.117 C 
BRANCH   2   3
ATOM      3  N   UNL A   1      36.119  21.541  26.060  1.00  0.00    -0.356 N 
ATOM      4  C   UNL A   1      34.784  21.731  26.239  1.00  0.00     0.226 C 
ATOM      5  O   UNL A   1      34.398  21.601  27.407  1.00  0.00    -0.274 OA
ATOM      6  H   UNL A   1      36.658  21.618  26.880  1.00  0.00     0.163 HD
BRANCH   4   7
ATOM      7  C   UNL A   1      33.791  22.099  25.095  1.00  0.00     0.056 C 
ATOM      8  C   UNL A   1      30.907  23.700  24.216  1.00  0.00     0.007 C 
ATOM      9  C   UNL A   1      32.294  24.250  24.556  1.00  0.00    -0.013 C 
ATOM     10  C   UNL A   1      33.131  24.492  23.301  1.00  0.00     0.003 C 
ATOM     11  C   UNL A   1      33.072  23.415  25.590  1.00  0.00     0.020 C 
ATOM     12  C   UNL A   1      33.733  23.209  22.752  1.00  0.00     0.001 C 
ATOM     13  C   UNL A   1      34.559  22.474  23.802  1.00  0.00     0.017 C 
BRANCH   7  14
ATOM     14  C   UNL A   1      32.698  20.999  24.959  1.00  0.00     0.094 C 
BRANCH  14  15
ATOM     15  C   UNL A   1      33.027  19.687  24.299  1.00  0.00     0.129 A 
ATOM     16  N   UNL A   1      34.085  18.994  24.765  1.00  0.00    -0.241 NA
ATOM     17  N   UNL A   1      32.236  19.273  23.289  1.00  0.00    -0.241 NA
ATOM     18  C   UNL A   1      34.330  17.803  24.182  1.00  0.00     0.115 A 
ATOM     19  C   UNL A   1      32.532  18.077  22.738  1.00  0.00     0.115 A 
ATOM     20  C   UNL A   1      33.570  17.284  23.161  1.00  0.00     0.040 A 
ENDBRANCH  14  15
ENDBRANCH   7  14
ENDBRANCH   4   7
ENDBRANCH   2   3
ENDBRANCH   1   2
BRANCH   1  21
ATOM     21  C   UNL A   1      39.103  20.462  25.751  1.00  0.00     0.118 C 
BRANCH  21  22
ATOM     22  N   UNL A   1      40.012  19.328  25.932  1.00  0.00    -0.352 N 
ATOM     23  C   UNL A   1      41.373  19.279  26.115  1.00  0.00     0.251 C 
ATOM     24  H   UNL A   1      39.571  18.448  25.921  1.00  0.00     0.163 HD
ATOM     25  O   UNL A   1      41.968  18.210  25.994  1.00  0.00    -0.269 OA
BRANCH  23  26
ATOM     26  C   UNL A   1      42.126  20.513  26.421  1.00  0.00     0.039 A 
ATOM     27  C   UNL A   1      42.653  21.276  25.376  1.00  0.00     0.014 A 
ATOM     28  C   UNL A   1      42.292  20.928  27.740  1.00  0.00     0.014 A 
ATOM     29  C   UNL A   1      43.236  22.516  25.655  1.00  0.00     0.010 A 
ATOM     30  C   UNL A   1      42.756  22.207  28.005  1.00  0.00     0.010 A 
ATOM     31  C   UNL A   1      43.226  23.021  26.964  1.00  0.00    -0.014 A 
BRANCH  31  32
ATOM     32  C   UNL A   1      43.670  24.401  27.285  1.00  0.00     0.031 A 
ATOM     33  C   UNL A   1      42.671  25.414  27.778  1.00  0.00     0.074 A 
ATOM     34  C   UNL A   1      44.934  24.774  27.002  1.00  0.00     0.049 A 
ATOM     35  N   UNL A   1      42.815  26.703  27.945  1.00  0.00    -0.248 NA
ATOM     36  C   UNL A   1      41.316  24.919  28.075  1.00  0.00     0.031 C 
ATOM     37  C   UNL A   1      45.973  23.902  26.447  1.00  0.00     0.029 A 
ATOM     38  N   UNL A   1      45.555  25.994  27.113  1.00  0.00    -0.354 N 
ATOM     39  C   UNL A   1      41.565  27.175  28.324  1.00  0.00     0.074 A 
ATOM     40  C   UNL A   1      40.664  26.045  28.320  1.00  0.00     0.031 C 
ATOM     41  C   UNL A   1      47.101  24.610  26.280  1.00  0.00     0.029 A 
ATOM     42  C   UNL A   1      46.857  25.993  26.669  1.00  0.00     0.049 A 
ATOM     43  H   UNL A   1      45.111  26.793  27.477  1.00  0.00     0.167 HD
ATOM     44  C   UNL A   1      41.210  28.436  28.666  1.00  0.00     0.037 A 
ATOM     45  C   UNL A   1      47.744  27.000  26.567  1.00  0.00     0.037 A 
ATOM     46  C   UNL A   1      42.129  29.539  28.734  1.00  0.00     0.049 A 
ATOM     47  C   UNL A   1      47.330  28.383  26.990  1.00  0.00     0.074 A 
ATOM     48  C   UNL A   1      41.900  30.822  29.197  1.00  0.00     0.029 A 
ATOM     49  N   UNL A   1      43.454  29.487  28.327  1.00  0.00    -0.354 N 
ATOM     50  N   UNL A   1      46.172  28.796  27.448  1.00  0.00    -0.248 NA
ATOM     51  C   UNL A   1      48.343  29.442  26.883  1.00  0.00     0.031 C 
ATOM     52  C   UNL A   1      43.074  31.562  29.026  1.00  0.00     0.029 A 
ATOM     53  C   UNL A   1      44.046  30.727  28.497  1.00  0.00     0.049 A 
ATOM     54  H   UNL A   1      43.906  28.688  27.972  1.00  0.00     0.167 HD
ATOM     55  C   UNL A   1      46.324  30.151  27.701  1.00  0.00     0.074 A 
ATOM     56  C   UNL A   1      47.691  30.490  27.367  1.00  0.00     0.031 C 
ATOM     57  C   UNL A   1      45.410  31.040  28.162  1.00  0.00     0.037 A 
BRANCH  44  58
ATOM     58  C   UNL A   1      39.773  28.695  29.009  1.00  0.00     0.064 A 
ATOM     59  C   UNL A   1      39.286  28.542  30.315  1.00  0.00     0.173 A 
ATOM     60  C   UNL A   1      38.886  29.167  28.028  1.00  0.00     0.173 A 
ATOM     61  F   UNL A   1      40.090  28.084  31.286  1.00  0.00    -0.203 F 
ATOM     62  C   UNL A   1      37.960  28.833  30.624  1.00  0.00     0.198 A 
ATOM     63  C   UNL A   1      37.569  29.484  28.347  1.00  0.00     0.198 A 
ATOM     64  F   UNL A   1      39.302  29.335  26.764  1.00  0.00    -0.203 F 
ATOM     65  F   UNL A   1      37.508  28.644  31.871  1.00  0.00    -0.200 F 
ATOM     66  C   UNL A   1      37.105  29.313  29.643  1.00  0.00     0.200 A 
ATOM     67  F   UNL A   1      36.747  29.959  27.400  1.00  0.00    -0.200 F 
ATOM     68  F   UNL A   1      35.833  29.607  29.946  1.00  0.00    -0.200 F 
ENDBRANCH  44  58
BRANCH  45  69
ATOM     69  C   UNL A   1      49.112  26.744  26.041  1.00  0.00     0.064 A 
ATOM     70  C   UNL A   1      49.422  26.987  24.696  1.00  0.00     0.173 A 
ATOM     71  C   UNL A   1      50.128  26.236  26.863  1.00  0.00     0.173 A 
ATOM     72  F   UNL A   1      48.478  27.454  23.865  1.00  0.00    -0.203 F 
ATOM     73  C   UNL A   1      50.687  26.703  24.186  1.00  0.00     0.198 A 
ATOM     74  C   UNL A   1      51.402  25.981  26.360  1.00  0.00     0.198 A 
ATOM     75  F   UNL A   1      49.886  25.993  28.160  1.00  0.00    -0.203 F 
ATOM     76  F   UNL A   1      50.941  26.895  22.885  1.00  0.00    -0.200 F 
ATOM     77  C   UNL A   1      51.678  26.205  25.019  1.00  0.00     0.200 A 
ATOM     78  F   UNL A   1      52.361  25.515  27.172  1.00  0.00    -0.200 F 
ATOM     79  F   UNL A   1      52.894  25.933  24.528  1.00  0.00    -0.200 F 
ENDBRANCH  45  69
BRANCH  57  80
ATOM     80  C   UNL A   1      45.863  32.457  28.347  1.00  0.00     0.064 A 
ATOM     81  C   UNL A   1      46.453  32.884  29.544  1.00  0.00     0.173 A 
ATOM     82  C   UNL A   1      45.755  33.380  27.296  1.00  0.00     0.173 A 
ATOM     83  F   UNL A   1      46.561  32.042  30.582  1.00  0.00    -0.203 F 
ATOM     84  C   UNL A   1      46.907  34.193  29.688  1.00  0.00     0.198 A 
ATOM     85  C   UNL A   1      46.236  34.679  27.434  1.00  0.00     0.198 A 
ATOM     86  F   UNL A   1      45.203  33.017  26.129  1.00  0.00    -0.203 F 
ATOM     87  F   UNL A   1      47.433  34.592  30.854  1.00  0.00    -0.200 F 
ATOM     88  C   UNL A   1      46.806  35.085  28.631  1.00  0.00     0.200 A 
ATOM     89  F   UNL A   1      46.151  35.537  26.407  1.00  0.00    -0.200 F 
ATOM     90  F   UNL A   1      47.256  36.340  28.768  1.00  0.00    -0.200 F 
ENDBRANCH  57  80
ENDBRANCH  31  32
ENDBRANCH  23  26
ENDBRANCH  21  22
ENDBRANCH   1  21
TORSDOF 12
ENDMDL
MODEL 2
REMARK VINA RESULT:     -12.9      0.090      1.622
REMARK SMILES C[C@@H]1CCC[C@@](Cc2ncccn2)(C(=O)NCCCNC(=O)c2ccc(-c3c4nc(c(-c5c(F)c(F)c(F)c(F)c5F)c5ccc([nH]5)c(-c5c(F)c(F)c(F)c(F)c5F)c5nc(c(-c6c(F)c(F)c(F)c(F)c6F)c6ccc3[nH]6)C=C5)C=C4)cc2)C1
REMARK SMILES IDX 18 1 17 2 16 3 14 4 15 5 6 7 1 8 2 9 3 10 86 11 4 12 5 13
REMARK SMILES IDX 7 14 8 15 9 16 13 17 10 18 12 19 11 20 19 21 20 22 21 23
REMARK SMILES IDX 22 25 23 26 24 27 85 28 25 29 84 30 26 31 27 32 28 33 78 34
REMARK SMILES IDX 29 35 83 36 77 37 79 38 30 39 82 40 76 41 75 42 31 44 63 45
REMARK SMILES IDX 43 46 62 47 44 48 47 49 61 50 80 51 45 52 46 53 60 55 81 56
REMARK SMILES IDX 48 57 32 58 33 59 41 60 34 61 35 62 39 63 42 64 36 65 37 66
REMARK SMILES IDX 40 67 38 68 64 69 65 70 73 71 66 72 67 73 71 74 74 75 68 76
REMARK SMILES IDX 69 77 72 78 70 79 49 80 50 81 58 82 51 83 52 84 56 85 59 86
REMARK SMILES IDX 53 87 54 88 57 89 55 90
REMARK H PARENT 16 6 20 24 79 43 47 54
REMARK Flexibility Score: inf
ROOT
ATOM      1  C   UNL A   1      37.870  20.073  25.001  1.00  0.00     0.042 C 
ENDROOT
BRANCH   1   2
ATOM      2  C   UNL A   1      36.901  21.230  24.903  1.00  0.00     0.117 C 
BRANCH   2   3
ATOM      3  N   UNL A   1      36.119  21.461  26.094  1.00  0.00    -0.356 N 
ATOM      4  C   UNL A   1      34.782  21.646  26.253  1.00  0.00     0.226 C 
ATOM      5  O   UNL A   1      34.368  21.453  27.403  1.00  0.00    -0.274 OA
ATOM      6  H   UNL A   1      36.640  21.491  26.928  1.00  0.00     0.163 HD
BRANCH   4   7
ATOM      7  C   UNL A   1      33.816  22.081  25.109  1.00  0.00     0.056 C 
ATOM      8  C   UNL A   1      30.980  23.776  24.250  1.00  0.00     0.007 C 
ATOM      9  C   UNL A   1      32.371  24.282  24.634  1.00  0.00    -0.013 C 
ATOM     10  C   UNL A   1      33.234  24.557  23.403  1.00  0.00     0.003 C 
ATOM     11  C   UNL A   1      33.115  23.390  25.646  1.00  0.00     0.020 C 
ATOM     12  C   UNL A   1      33.819  23.285  22.812  1.00  0.00     0.001 C 
ATOM     13  C   UNL A   1      34.612  22.491  23.845  1.00  0.00     0.017 C 
BRANCH   7  14
ATOM     14  C   UNL A   1      32.702  21.010  24.911  1.00  0.00     0.094 C 
BRANCH  14  15
ATOM     15  C   UNL A   1      33.029  19.695  24.257  1.00  0.00     0.129 A 
ATOM     16  N   UNL A   1      34.090  19.005  24.722  1.00  0.00    -0.241 NA
ATOM     17  N   UNL A   1      32.234  19.274  23.253  1.00  0.00    -0.241 NA
ATOM     18  C   UNL A   1      34.334  17.812  24.144  1.00  0.00     0.115 A 
ATOM     19  C   UNL A   1      32.529  18.076  22.707  1.00  0.00     0.115 A 
ATOM     20  C   UNL A   1      33.569  17.286  23.130  1.00  0.00     0.040 A 
ENDBRANCH  14  15
ENDBRANCH   7  14
ENDBRANCH   4   7
ENDBRANCH   2   3
ENDBRANCH   1   2
BRANCH   1  21
ATOM     21  C   UNL A   1      39.135  20.433  25.762  1.00  0.00     0.118 C 
BRANCH  21  22
ATOM     22  N   UNL A   1      40.046  19.297  25.918  1.00  0.00    -0.352 N 
ATOM     23  C   UNL A   1      41.409  19.246  26.089  1.00  0.00     0.251 C 
ATOM     24  H   UNL A   1      39.605  18.417  25.896  1.00  0.00     0.163 HD
ATOM     25  O   UNL A   1      42.003  18.179  25.947  1.00  0.00    -0.269 OA
BRANCH  23  26
ATOM     26  C   UNL A   1      42.163  20.475  26.408  1.00  0.00     0.039 A 
ATOM     27  C   UNL A   1      42.746  21.215  25.377  1.00  0.00     0.014 A 
ATOM     28  C   UNL A   1      42.276  20.909  27.727  1.00  0.00     0.014 A 
ATOM     29  C   UNL A   1      43.332  22.451  25.661  1.00  0.00     0.010 A 
ATOM     30  C   UNL A   1      42.745  22.187  27.992  1.00  0.00     0.010 A 
ATOM     31  C   UNL A   1      43.271  22.978  26.961  1.00  0.00    -0.014 A 
BRANCH  31  32
ATOM     32  C   UNL A   1      43.718  24.357  27.279  1.00  0.00     0.031 A 
ATOM     33  C   UNL A   1      42.722  25.374  27.767  1.00  0.00     0.074 A 
ATOM     34  C   UNL A   1      44.984  24.725  26.997  1.00  0.00     0.049 A 
ATOM     35  N   UNL A   1      42.869  26.663  27.932  1.00  0.00    -0.248 NA
ATOM     36  C   UNL A   1      41.365  24.884  28.063  1.00  0.00     0.031 C 
ATOM     37  C   UNL A   1      46.021  23.850  26.446  1.00  0.00     0.029 A 
ATOM     38  N   UNL A   1      45.608  25.944  27.107  1.00  0.00    -0.354 N 
ATOM     39  C   UNL A   1      41.620  27.140  28.307  1.00  0.00     0.074 A 
ATOM     40  C   UNL A   1      40.715  26.013  28.304  1.00  0.00     0.031 C 
ATOM     41  C   UNL A   1      47.152  24.553  26.280  1.00  0.00     0.029 A 
ATOM     42  C   UNL A   1      46.911  25.938  26.665  1.00  0.00     0.049 A 
ATOM     43  H   UNL A   1      45.166  26.746  27.467  1.00  0.00     0.167 HD
ATOM     44  C   UNL A   1      41.268  28.403  28.645  1.00  0.00     0.037 A 
ATOM     45  C   UNL A   1      47.801  26.942  26.562  1.00  0.00     0.037 A 
ATOM     46  C   UNL A   1      42.190  29.503  28.713  1.00  0.00     0.049 A 
ATOM     47  C   UNL A   1      47.391  28.328  26.981  1.00  0.00     0.074 A 
ATOM     48  C   UNL A   1      41.964  30.788  29.172  1.00  0.00     0.029 A 
ATOM     49  N   UNL A   1      43.515  29.446  28.308  1.00  0.00    -0.354 N 
ATOM     50  N   UNL A   1      46.234  28.745  27.436  1.00  0.00    -0.248 NA
ATOM     51  C   UNL A   1      48.408  29.384  26.874  1.00  0.00     0.031 C 
ATOM     52  C   UNL A   1      43.141  31.524  29.001  1.00  0.00     0.029 A 
ATOM     53  C   UNL A   1      44.111  30.685  28.476  1.00  0.00     0.049 A 
ATOM     54  H   UNL A   1      43.966  28.646  27.956  1.00  0.00     0.167 HD
ATOM     55  C   UNL A   1      46.389  30.101  27.686  1.00  0.00     0.074 A 
ATOM     56  C   UNL A   1      47.757  30.435  27.354  1.00  0.00     0.031 C 
ATOM     57  C   UNL A   1      45.477  30.993  28.143  1.00  0.00     0.037 A 
BRANCH  44  58
ATOM     58  C   UNL A   1      39.831  28.667  28.985  1.00  0.00     0.064 A 
ATOM     59  C   UNL A   1      39.338  28.505  30.288  1.00  0.00     0.173 A 
ATOM     60  C   UNL A   1      38.950  29.153  28.005  1.00  0.00     0.173 A 
ATOM     61  F   UNL A   1      40.136  28.035  31.258  1.00  0.00    -0.203 F 
ATOM     62  C   UNL A   1      38.013  28.801  30.595  1.00  0.00     0.198 A 
ATOM     63  C   UNL A   1      37.634  29.474  28.321  1.00  0.00     0.198 A 
ATOM     64  F   UNL A   1      39.373  29.329  26.744  1.00  0.00    -0.203 F 
ATOM     65  F   UNL A   1      37.554  28.604  31.838  1.00  0.00    -0.200 F 
ATOM     66  C   UNL A   1      37.164  29.294  29.614  1.00  0.00     0.200 A 
ATOM     67  F   UNL A   1      36.818  29.962  27.375  1.00  0.00    -0.200 F 
ATOM     68  F   UNL A   1      35.893  29.593  29.915  1.00  0.00    -0.200 F 
ENDBRANCH  44  58
BRANCH  45  69
ATOM     69  C   UNL A   1      49.169  26.681  26.040  1.00  0.00     0.064 A 
ATOM     70  C   UNL A   1      50.178  26.192  26.880  1.00  0.00     0.173 A 
ATOM     71  C   UNL A   1      49.502  26.932  24.701  1.00  0.00     0.173 A 
ATOM     72  F   UNL A   1      49.915  25.955  28.174  1.00  0.00    -0.203 F 
ATOM     73  C   UNL A   1      51.474  25.991  26.410  1.00  0.00     0.198 A 
ATOM     74  C   UNL A   1      50.790  26.703  24.222  1.00  0.00     0.198 A 
ATOM     75  F   UNL A   1      48.572  27.395  23.853  1.00  0.00    -0.203 F 
ATOM     76  F   UNL A   1      52.432  25.573  27.248  1.00  0.00    -0.200 F 
ATOM     77  C   UNL A   1      51.779  26.242  25.080  1.00  0.00     0.200 A 
ATOM     78  F   UNL A   1      51.076  26.931  22.934  1.00  0.00    -0.200 F 
ATOM     79  F   UNL A   1      53.025  26.049  24.628  1.00  0.00    -0.200 F 
ENDBRANCH  45  69
BRANCH  57  80
ATOM     80  C   UNL A   1      45.933  32.409  28.325  1.00  0.00     0.064 A 
ATOM     81  C   UNL A   1      45.788  33.360  27.306  1.00  0.00     0.173 A 
ATOM     82  C   UNL A   1      46.468  32.831  29.552  1.00  0.00     0.173 A 
ATOM     83  F   UNL A   1      45.297  32.998  26.110  1.00  0.00    -0.203 F 
ATOM     84  C   UNL A   1      46.177  34.681  27.502  1.00  0.00     0.198 A 
ATOM     85  C   UNL A   1      46.830  34.161  29.753  1.00  0.00     0.198 A 
ATOM     86  F   UNL A   1      46.621  31.961  30.559  1.00  0.00    -0.203 F 
ATOM     87  F   UNL A   1      46.066  35.566  26.500  1.00  0.00    -0.200 F 
ATOM     88  C   UNL A   1      46.689  35.082  28.726  1.00  0.00     0.200 A 
ATOM     89  F   UNL A   1      47.311  34.550  30.942  1.00  0.00    -0.200 F 
ATOM     90  F   UNL A   1      47.051  36.359  28.918  1.00  0.00    -0.200 F 
ENDBRANCH  57  80
ENDBRANCH  31  32
ENDBRANCH  23  26
ENDBRANCH  21  22
ENDBRANCH   1  21
TORSDOF 12
ENDMDL
MODEL 3
REMARK VINA RESULT:     -12.9      6.414     11.637
REMARK SMILES C[C@@H]1CCC[C@@](Cc2ncccn2)(C(=O)NCCCNC(=O)c2ccc(-c3c4nc(c(-c5c(F)c(F)c(F)c(F)c5F)c5ccc([nH]5)c(-c5c(F)c(F)c(F)c(F)c5F)c5nc(c(-c6c(F)c(F)c(F)c(F)c6F)c6ccc3[nH]6)C=C5)C=C4)cc2)C1
REMARK SMILES IDX 18 1 17 2 16 3 14 4 15 5 6 7 1 8 2 9 3 10 86 11 4 12 5 13
REMARK SMILES IDX 7 14 8 15 9 16 13 17 10 18 12 19 11 20 19 21 20 22 21 23
REMARK SMILES IDX 22 25 23 26 24 27 85 28 25 29 84 30 26 31 27 32 28 33 78 34
REMARK SMILES IDX 29 35 83 36 77 37 79 38 30 39 82 40 76 41 75 42 31 44 63 45
REMARK SMILES IDX 43 46 62 47 44 48 47 49 61 50 80 51 45 52 46 53 60 55 81 56
REMARK SMILES IDX 48 57 32 58 33 59 41 60 34 61 35 62 39 63 42 64 36 65 37 66
REMARK SMILES IDX 40 67 38 68 64 69 65 70 73 71 66 72 67 73 71 74 74 75 68 76
REMARK SMILES IDX 69 77 72 78 70 79 49 80 50 81 58 82 51 83 52 84 56 85 59 86
REMARK SMILES IDX 53 87 54 88 57 89 55 90
REMARK H PARENT 16 6 20 24 79 43 47 54
REMARK Flexibility Score: inf
ROOT
ATOM      1  C   UNL A   1      31.741  31.542  26.501  1.00  0.00     0.042 C 
ENDROOT
BRANCH   1   2
ATOM      2  C   UNL A   1      32.089  30.097  26.222  1.00  0.00     0.117 C 
BRANCH   2   3
ATOM      3  N   UNL A   1      32.933  29.894  25.069  1.00  0.00    -0.356 N 
ATOM      4  C   UNL A   1      32.823  29.021  24.033  1.00  0.00     0.226 C 
ATOM      5  O   UNL A   1      33.478  29.328  23.028  1.00  0.00    -0.274 OA
ATOM      6  H   UNL A   1      33.719  30.485  25.026  1.00  0.00     0.163 HD
BRANCH   4   7
ATOM      7  C   UNL A   1      31.966  27.719  24.072  1.00  0.00     0.056 C 
ATOM      8  C   UNL A   1      31.772  24.398  23.310  1.00  0.00     0.007 C 
ATOM      9  C   UNL A   1      32.537  25.128  24.416  1.00  0.00    -0.013 C 
ATOM     10  C   UNL A   1      31.753  25.151  25.727  1.00  0.00     0.003 C 
ATOM     11  C   UNL A   1      33.015  26.540  24.030  1.00  0.00     0.020 C 
ATOM     12  C   UNL A   1      30.663  26.210  25.730  1.00  0.00     0.001 C 
ATOM     13  C   UNL A   1      31.217  27.597  25.423  1.00  0.00     0.017 C 
BRANCH   7  14
ATOM     14  C   UNL A   1      31.097  27.610  22.784  1.00  0.00     0.094 C 
BRANCH  14  15
ATOM     15  C   UNL A   1      29.940  28.549  22.574  1.00  0.00     0.129 A 
ATOM     16  N   UNL A   1      30.152  29.655  21.832  1.00  0.00    -0.241 NA
ATOM     17  N   UNL A   1      28.754  28.224  23.125  1.00  0.00    -0.241 NA
ATOM     18  C   UNL A   1      29.088  30.457  21.626  1.00  0.00     0.115 A 
ATOM     19  C   UNL A   1      27.725  29.066  22.893  1.00  0.00     0.115 A 
ATOM     20  C   UNL A   1      27.834  30.201  22.127  1.00  0.00     0.040 A 
ENDBRANCH  14  15
ENDBRANCH   7  14
ENDBRANCH   4   7
ENDBRANCH   2   3
ENDBRANCH   1   2
BRANCH   1  21
ATOM     21  C   UNL A   1      32.808  32.252  27.317  1.00  0.00     0.118 C 
BRANCH  21  22
ATOM     22  N   UNL A   1      32.532  33.679  27.492  1.00  0.00    -0.352 N 
ATOM     23  C   UNL A   1      33.030  34.595  28.387  1.00  0.00     0.251 C 
ATOM     24  H   UNL A   1      31.874  34.047  26.857  1.00  0.00     0.163 HD
ATOM     25  O   UNL A   1      32.475  35.684  28.521  1.00  0.00    -0.269 OA
BRANCH  23  26
ATOM     26  C   UNL A   1      34.208  34.261  29.213  1.00  0.00     0.039 A 
ATOM     27  C   UNL A   1      34.027  33.670  30.466  1.00  0.00     0.014 A 
ATOM     28  C   UNL A   1      35.494  34.511  28.741  1.00  0.00     0.014 A 
ATOM     29  C   UNL A   1      35.139  33.219  31.183  1.00  0.00     0.010 A 
ATOM     30  C   UNL A   1      36.585  33.956  29.390  1.00  0.00     0.010 A 
ATOM     31  C   UNL A   1      36.421  33.295  30.616  1.00  0.00    -0.014 A 
BRANCH  31  32
ATOM     32  C   UNL A   1      37.608  32.674  31.255  1.00  0.00     0.031 A 
ATOM     33  C   UNL A   1      38.294  31.511  30.591  1.00  0.00     0.074 A 
ATOM     34  C   UNL A   1      37.978  33.068  32.491  1.00  0.00     0.049 A 
ATOM     35  N   UNL A   1      39.226  30.723  31.060  1.00  0.00    -0.248 NA
ATOM     36  C   UNL A   1      37.836  31.156  29.237  1.00  0.00     0.031 C 
ATOM     37  C   UNL A   1      37.341  34.132  33.270  1.00  0.00     0.029 A 
ATOM     38  N   UNL A   1      38.964  32.597  33.323  1.00  0.00    -0.354 N 
ATOM     39  C   UNL A   1      39.434  29.761  30.081  1.00  0.00     0.074 A 
ATOM     40  C   UNL A   1      38.503  30.034  29.010  1.00  0.00     0.031 C 
ATOM     41  C   UNL A   1      37.958  34.241  34.457  1.00  0.00     0.029 A 
ATOM     42  C   UNL A   1      39.002  33.228  34.545  1.00  0.00     0.049 A 
ATOM     43  H   UNL A   1      39.585  31.877  33.070  1.00  0.00     0.167 HD
ATOM     44  C   UNL A   1      40.338  28.753  30.070  1.00  0.00     0.037 A 
ATOM     45  C   UNL A   1      39.777  32.998  35.621  1.00  0.00     0.037 A 
ATOM     46  C   UNL A   1      41.307  28.531  31.108  1.00  0.00     0.049 A 
ATOM     47  C   UNL A   1      40.798  31.895  35.564  1.00  0.00     0.074 A 
ATOM     48  C   UNL A   1      42.352  27.625  31.131  1.00  0.00     0.029 A 
ATOM     49  N   UNL A   1      41.350  29.226  32.307  1.00  0.00    -0.354 N 
ATOM     50  N   UNL A   1      41.056  31.058  34.587  1.00  0.00    -0.248 NA
ATOM     51  C   UNL A   1      41.636  31.702  36.755  1.00  0.00     0.031 C 
ATOM     52  C   UNL A   1      42.998  27.737  32.365  1.00  0.00     0.029 A 
ATOM     53  C   UNL A   1      42.383  28.743  33.093  1.00  0.00     0.049 A 
ATOM     54  H   UNL A   1      40.738  29.953  32.563  1.00  0.00     0.167 HD
ATOM     55  C   UNL A   1      42.095  30.256  35.038  1.00  0.00     0.074 A 
ATOM     56  C   UNL A   1      42.435  30.718  36.367  1.00  0.00     0.031 C 
ATOM     57  C   UNL A   1      42.707  29.222  34.411  1.00  0.00     0.037 A 
BRANCH  44  58
ATOM     58  C   UNL A   1      40.339  27.819  28.896  1.00  0.00     0.064 A 
ATOM     59  C   UNL A   1      41.088  28.086  27.740  1.00  0.00     0.173 A 
ATOM     60  C   UNL A   1      39.632  26.608  28.955  1.00  0.00     0.173 A 
ATOM     61  F   UNL A   1      41.772  29.234  27.630  1.00  0.00    -0.203 F 
ATOM     62  C   UNL A   1      41.114  27.185  26.679  1.00  0.00     0.198 A 
ATOM     63  C   UNL A   1      39.683  25.696  27.904  1.00  0.00     0.198 A 
ATOM     64  F   UNL A   1      38.903  26.302  30.039  1.00  0.00    -0.203 F 
ATOM     65  F   UNL A   1      41.806  27.478  25.570  1.00  0.00    -0.200 F 
ATOM     66  C   UNL A   1      40.420  25.987  26.766  1.00  0.00     0.200 A 
ATOM     67  F   UNL A   1      39.021  24.534  27.994  1.00  0.00    -0.200 F 
ATOM     68  F   UNL A   1      40.459  25.114  25.749  1.00  0.00    -0.200 F 
ENDBRANCH  44  58
BRANCH  45  69
ATOM     69  C   UNL A   1      39.621  33.825  36.848  1.00  0.00     0.064 A 
ATOM     70  C   UNL A   1      38.800  33.401  37.901  1.00  0.00     0.173 A 
ATOM     71  C   UNL A   1      40.271  35.061  36.985  1.00  0.00     0.173 A 
ATOM     72  F   UNL A   1      38.141  32.237  37.809  1.00  0.00    -0.203 F 
ATOM     73  C   UNL A   1      38.611  34.193  39.032  1.00  0.00     0.198 A 
ATOM     74  C   UNL A   1      40.106  35.839  38.129  1.00  0.00     0.198 A 
ATOM     75  F   UNL A   1      41.073  35.510  36.009  1.00  0.00    -0.203 F 
ATOM     76  F   UNL A   1      37.779  33.788  40.000  1.00  0.00    -0.200 F 
ATOM     77  C   UNL A   1      39.268  35.410  39.147  1.00  0.00     0.200 A 
ATOM     78  F   UNL A   1      40.755  37.005  38.243  1.00  0.00    -0.200 F 
ATOM     79  F   UNL A   1      39.086  36.171  40.234  1.00  0.00    -0.200 F 
ENDBRANCH  45  69
BRANCH  57  80
ATOM     80  C   UNL A   1      43.817  28.533  35.146  1.00  0.00     0.064 A 
ATOM     81  C   UNL A   1      45.142  28.981  35.054  1.00  0.00     0.173 A 
ATOM     82  C   UNL A   1      43.542  27.450  35.995  1.00  0.00     0.173 A 
ATOM     83  F   UNL A   1      45.455  30.001  34.242  1.00  0.00    -0.203 F 
ATOM     84  C   UNL A   1      46.157  28.357  35.774  1.00  0.00     0.198 A 
ATOM     85  C   UNL A   1      44.555  26.848  36.736  1.00  0.00     0.198 A 
ATOM     86  F   UNL A   1      42.289  26.990  36.122  1.00  0.00    -0.203 F 
ATOM     87  F   UNL A   1      47.423  28.776  35.641  1.00  0.00    -0.200 F 
ATOM     88  C   UNL A   1      45.862  27.299  36.620  1.00  0.00     0.200 A 
ATOM     89  F   UNL A   1      44.267  25.835  37.564  1.00  0.00    -0.200 F 
ATOM     90  F   UNL A   1      46.839  26.710  37.324  1.00  0.00    -0.200 F 
ENDBRANCH  57  80
ENDBRANCH  31  32
ENDBRANCH  23  26
ENDBRANCH  21  22
ENDBRANCH   1  21
TORSDOF 12
ENDMDL
