MODEL 1
REMARK VINA RESULT:     -15.2      0.000      0.000
REMARK SMILES Cc1ccc(-c2csc(NC(=O)[C@H]3[C@@H](C(=O)NCCCNC(=O)c4ccc(-c5c6nc(c(-c7c(F)c(F)c(F)c(F)c7F)c7ccc([nH]7)c(-c7c(F)c(F)c(F)c(F)c7F)c7nc(c(-c8c(F)c(F)c(F)c(F)c8F)c8ccc5[nH]8)C=C7)C=C6)cc4)[C@H]4C=C[C@@H]3C4)c2C(=O)NC2CC2)cc1
REMARK SMILES IDX 18 1 17 2 15 3 16 4 14 6 13 7 90 8 87 9 89 10 91 11 88 12
REMARK SMILES IDX 11 13 10 14 12 16 9 17 6 18 7 19 92 20 8 21 5 22 1 23 2 24
REMARK SMILES IDX 3 25 100 26 4 27 99 28 93 29 94 30 95 31 96 33 97 34 98 35
REMARK SMILES IDX 19 36 20 37 21 38 22 39 23 41 24 42 25 43 86 44 26 45 85 46
REMARK SMILES IDX 27 47 28 48 29 49 79 50 30 51 84 52 78 53 80 54 31 55 83 56
REMARK SMILES IDX 77 57 76 58 32 60 64 61 44 62 63 63 45 64 48 65 62 66 81 67
REMARK SMILES IDX 46 68 47 69 61 71 82 72 49 73 33 74 34 75 42 76 35 77 36 78
REMARK SMILES IDX 40 79 43 80 37 81 38 82 41 83 39 84 65 85 66 86 74 87 67 88
REMARK SMILES IDX 68 89 72 90 75 91 69 92 70 93 73 94 71 95 50 96 51 97 59 98
REMARK SMILES IDX 52 99 53 100 57 101 60 102 54 103 55 104 58 105 56 106
REMARK H PARENT 17 5 10 15 95 32 21 40 80 59 48 70
REMARK Flexibility Score: inf
ROOT
ATOM      1  C   UNL A   1      31.840  30.171  26.488  1.00  0.00     0.117 C 
ENDROOT
BRANCH   1   2
ATOM      2  N   UNL A   1      32.208  30.059  25.086  1.00  0.00    -0.356 N 
ATOM      3  C   UNL A   1      31.949  29.044  24.201  1.00  0.00     0.224 C 
ATOM      4  O   UNL A   1      32.373  29.167  23.053  1.00  0.00    -0.275 OA
ATOM      5  H   UNL A   1      32.715  30.820  24.720  1.00  0.00     0.163 HD
BRANCH   3   6
ATOM      6  C   UNL A   1      31.030  27.909  24.656  1.00  0.00     0.098 C 
ATOM      7  C   UNL A   1      31.628  26.524  25.131  1.00  0.00     0.099 C 
ATOM      8  C   UNL A   1      31.035  25.555  24.069  1.00  0.00     0.025 C 
ATOM      9  C   UNL A   1      30.128  27.497  23.452  1.00  0.00     0.025 C 
ATOM     10  C   UNL A   1      31.569  25.871  22.699  1.00  0.00    -0.027 C 
ATOM     11  C   UNL A   1      29.620  26.137  23.918  1.00  0.00     0.017 C 
ATOM     12  C   UNL A   1      30.998  27.018  22.310  1.00  0.00    -0.027 C 
BRANCH   7  13
ATOM     13  C   UNL A   1      33.127  26.521  25.429  1.00  0.00     0.229 C 
ATOM     14  N   UNL A   1      33.895  25.398  25.294  1.00  0.00    -0.317 N 
ATOM     15  H   UNL A   1      34.837  25.565  25.062  1.00  0.00     0.170 HD
ATOM     16  O   UNL A   1      33.674  27.536  25.878  1.00  0.00    -0.274 OA
BRANCH  14  17
ATOM     17  C   UNL A   1      33.552  24.066  25.431  1.00  0.00     0.108 A 
ATOM     18  C   UNL A   1      33.281  21.779  25.096  1.00  0.00     0.007 A 
ATOM     19  C   UNL A   1      32.497  22.019  26.212  1.00  0.00     0.076 A 
ATOM     20  C   UNL A   1      33.984  22.981  24.661  1.00  0.00     0.082 A 
ATOM     21  S   UNL A   1      32.667  23.597  26.805  1.00  0.00    -0.125 S 
BRANCH  18  22
ATOM     22  C   UNL A   1      33.292  20.412  24.585  1.00  0.00    -0.017 A 
ATOM     23  C   UNL A   1      33.912  16.565  22.762  1.00  0.00     0.044 C 
ATOM     24  C   UNL A   1      33.596  17.839  23.488  1.00  0.00    -0.051 A 
ATOM     25  C   UNL A   1      34.439  18.265  24.516  1.00  0.00     0.004 A 
ATOM     26  C   UNL A   1      32.546  18.675  23.073  1.00  0.00     0.004 A 
ATOM     27  C   UNL A   1      34.269  19.527  25.077  1.00  0.00     0.009 A 
ATOM     28  C   UNL A   1      32.393  19.961  23.618  1.00  0.00     0.009 A 
ENDBRANCH  18  22
BRANCH  20  29
ATOM     29  C   UNL A   1      34.812  23.245  23.479  1.00  0.00     0.255 C 
ATOM     30  O   UNL A   1      34.276  23.685  22.455  1.00  0.00    -0.269 OA
ATOM     31  N   UNL A   1      36.181  23.160  23.401  1.00  0.00    -0.349 N 
ATOM     32  H   UNL A   1      36.493  23.413  22.503  1.00  0.00     0.164 HD
BRANCH  31  33
ATOM     33  C   UNL A   1      37.280  22.813  24.233  1.00  0.00     0.082 C 
ATOM     34  C   UNL A   1      37.342  22.636  25.708  1.00  0.00     0.027 C 
ATOM     35  C   UNL A   1      37.298  21.428  24.813  1.00  0.00     0.027 C 
ENDBRANCH  31  33
ENDBRANCH  20  29
ENDBRANCH  14  17
ENDBRANCH   7  13
ENDBRANCH   3   6
ENDBRANCH   1   2
BRANCH   1  36
ATOM     36  C   UNL A   1      32.682  31.222  27.205  1.00  0.00     0.042 C 
BRANCH  36  37
ATOM     37  C   UNL A   1      34.054  30.693  27.607  1.00  0.00     0.118 C 
BRANCH  37  38
ATOM     38  N   UNL A   1      34.846  31.637  28.395  1.00  0.00    -0.352 N 
ATOM     39  C   UNL A   1      36.056  31.450  29.047  1.00  0.00     0.251 C 
ATOM     40  H   UNL A   1      34.463  32.540  28.474  1.00  0.00     0.163 HD
ATOM     41  O   UNL A   1      36.551  32.354  29.697  1.00  0.00    -0.269 OA
BRANCH  39  42
ATOM     42  C   UNL A   1      36.804  30.187  28.838  1.00  0.00     0.039 A 
ATOM     43  C   UNL A   1      36.999  29.346  29.942  1.00  0.00     0.014 A 
ATOM     44  C   UNL A   1      37.482  29.953  27.647  1.00  0.00     0.014 A 
ATOM     45  C   UNL A   1      38.060  28.445  29.932  1.00  0.00     0.010 A 
ATOM     46  C   UNL A   1      38.599  29.144  27.673  1.00  0.00     0.010 A 
ATOM     47  C   UNL A   1      38.926  28.446  28.840  1.00  0.00    -0.014 A 
BRANCH  47  48
ATOM     48  C   UNL A   1      40.260  27.861  28.873  1.00  0.00     0.031 A 
ATOM     49  C   UNL A   1      40.463  26.434  28.551  1.00  0.00     0.074 A 
ATOM     50  C   UNL A   1      41.319  28.681  29.050  1.00  0.00     0.049 A 
ATOM     51  N   UNL A   1      41.498  25.747  28.902  1.00  0.00    -0.248 NA
ATOM     52  C   UNL A   1      39.476  25.647  27.823  1.00  0.00     0.031 C 
ATOM     53  C   UNL A   1      42.724  28.384  28.781  1.00  0.00     0.029 A 
ATOM     54  N   UNL A   1      41.344  29.938  29.682  1.00  0.00    -0.354 N 
ATOM     55  C   UNL A   1      41.454  24.544  28.232  1.00  0.00     0.074 A 
ATOM     56  C   UNL A   1      40.144  24.507  27.625  1.00  0.00     0.031 C 
ATOM     57  C   UNL A   1      43.489  29.242  29.474  1.00  0.00     0.029 A 
ATOM     58  C   UNL A   1      42.600  30.011  30.327  1.00  0.00     0.049 A 
ATOM     59  H   UNL A   1      40.636  30.622  29.677  1.00  0.00     0.167 HD
ATOM     60  C   UNL A   1      42.585  23.781  28.158  1.00  0.00     0.037 A 
ATOM     61  C   UNL A   1      42.702  30.082  31.686  1.00  0.00     0.037 A 
ATOM     62  C   UNL A   1      43.677  24.394  28.911  1.00  0.00     0.049 A 
ATOM     63  C   UNL A   1      43.476  28.941  32.299  1.00  0.00     0.074 A 
ATOM     64  C   UNL A   1      44.733  25.202  28.521  1.00  0.00     0.029 A 
ATOM     65  N   UNL A   1      43.601  24.484  30.297  1.00  0.00    -0.354 N 
ATOM     66  N   UNL A   1      43.661  27.794  31.707  1.00  0.00    -0.248 NA
ATOM     67  C   UNL A   1      44.071  28.989  33.631  1.00  0.00     0.031 C 
ATOM     68  C   UNL A   1      45.259  25.826  29.677  1.00  0.00     0.029 A 
ATOM     69  C   UNL A   1      44.539  25.382  30.772  1.00  0.00     0.049 A 
ATOM     70  H   UNL A   1      42.970  23.980  30.859  1.00  0.00     0.167 HD
ATOM     71  C   UNL A   1      44.353  26.960  32.543  1.00  0.00     0.074 A 
ATOM     72  C   UNL A   1      44.598  27.756  33.731  1.00  0.00     0.031 C 
ATOM     73  C   UNL A   1      44.655  25.677  32.190  1.00  0.00     0.037 A 
BRANCH  60  74
ATOM     74  C   UNL A   1      42.795  22.660  27.158  1.00  0.00     0.064 A 
ATOM     75  C   UNL A   1      42.109  21.431  27.295  1.00  0.00     0.173 A 
ATOM     76  C   UNL A   1      43.696  22.705  26.079  1.00  0.00     0.173 A 
ATOM     77  F   UNL A   1      41.125  21.272  28.189  1.00  0.00    -0.203 F 
ATOM     78  C   UNL A   1      42.406  20.310  26.514  1.00  0.00     0.198 A 
ATOM     79  C   UNL A   1      44.034  21.570  25.332  1.00  0.00     0.198 A 
ATOM     80  F   UNL A   1      44.230  23.860  25.665  1.00  0.00    -0.203 F 
ATOM     81  F   UNL A   1      41.727  19.169  26.703  1.00  0.00    -0.200 F 
ATOM     82  C   UNL A   1      43.399  20.367  25.560  1.00  0.00     0.200 A 
ATOM     83  F   UNL A   1      44.978  21.655  24.384  1.00  0.00    -0.200 F 
ATOM     84  F   UNL A   1      43.718  19.281  24.843  1.00  0.00    -0.200 F 
ENDBRANCH  60  74
BRANCH  61  85
ATOM     85  C   UNL A   1      41.549  30.764  32.327  1.00  0.00     0.064 A 
ATOM     86  C   UNL A   1      41.482  32.167  32.257  1.00  0.00     0.173 A 
ATOM     87  C   UNL A   1      40.369  30.072  32.633  1.00  0.00     0.173 A 
ATOM     88  F   UNL A   1      42.585  32.876  31.969  1.00  0.00    -0.203 F 
ATOM     89  C   UNL A   1      40.267  32.841  32.363  1.00  0.00     0.198 A 
ATOM     90  C   UNL A   1      39.156  30.752  32.751  1.00  0.00     0.198 A 
ATOM     91  F   UNL A   1      40.365  28.733  32.699  1.00  0.00    -0.203 F 
ATOM     92  F   UNL A   1      40.219  34.168  32.178  1.00  0.00    -0.200 F 
ATOM     93  C   UNL A   1      39.100  32.128  32.580  1.00  0.00     0.200 A 
ATOM     94  F   UNL A   1      38.020  30.062  32.934  1.00  0.00    -0.200 F 
ATOM     95  F   UNL A   1      37.918  32.761  32.584  1.00  0.00    -0.200 F 
ENDBRANCH  61  85
BRANCH  73  96
ATOM     96  C   UNL A   1      45.184  24.617  33.121  1.00  0.00     0.064 A 
ATOM     97  C   UNL A   1      44.442  23.493  33.519  1.00  0.00     0.173 A 
ATOM     98  C   UNL A   1      46.540  24.632  33.525  1.00  0.00     0.173 A 
ATOM     99  F   UNL A   1      43.183  23.308  33.102  1.00  0.00    -0.203 F 
ATOM    100  C   UNL A   1      44.997  22.490  34.318  1.00  0.00     0.198 A 
ATOM    101  C   UNL A   1      47.105  23.602  34.276  1.00  0.00     0.198 A 
ATOM    102  F   UNL A   1      47.362  25.635  33.181  1.00  0.00    -0.203 F 
ATOM    103  F   UNL A   1      44.235  21.456  34.706  1.00  0.00    -0.200 F 
ATOM    104  C   UNL A   1      46.327  22.538  34.686  1.00  0.00     0.200 A 
ATOM    105  F   UNL A   1      48.409  23.637  34.580  1.00  0.00    -0.200 F 
ATOM    106  F   UNL A   1      46.866  21.553  35.415  1.00  0.00    -0.200 F 
ENDBRANCH  73  96
ENDBRANCH  47  48
ENDBRANCH  39  42
ENDBRANCH  37  38
ENDBRANCH  36  37
ENDBRANCH   1  36
TORSDOF 15
ENDMDL
MODEL 2
REMARK VINA RESULT:     -14.9      3.381     10.133
REMARK SMILES Cc1ccc(-c2csc(NC(=O)[C@H]3[C@@H](C(=O)NCCCNC(=O)c4ccc(-c5c6nc(c(-c7c(F)c(F)c(F)c(F)c7F)c7ccc([nH]7)c(-c7c(F)c(F)c(F)c(F)c7F)c7nc(c(-c8c(F)c(F)c(F)c(F)c8F)c8ccc5[nH]8)C=C7)C=C6)cc4)[C@H]4C=C[C@@H]3C4)c2C(=O)NC2CC2)cc1
REMARK SMILES IDX 18 1 17 2 15 3 16 4 14 6 13 7 90 8 87 9 89 10 91 11 88 12
REMARK SMILES IDX 11 13 10 14 12 16 9 17 6 18 7 19 92 20 8 21 5 22 1 23 2 24
REMARK SMILES IDX 3 25 100 26 4 27 99 28 93 29 94 30 95 31 96 33 97 34 98 35
REMARK SMILES IDX 19 36 20 37 21 38 22 39 23 41 24 42 25 43 86 44 26 45 85 46
REMARK SMILES IDX 27 47 28 48 29 49 79 50 30 51 84 52 78 53 80 54 31 55 83 56
REMARK SMILES IDX 77 57 76 58 32 60 64 61 44 62 63 63 45 64 48 65 62 66 81 67
REMARK SMILES IDX 46 68 47 69 61 71 82 72 49 73 33 74 34 75 42 76 35 77 36 78
REMARK SMILES IDX 40 79 43 80 37 81 38 82 41 83 39 84 65 85 66 86 74 87 67 88
REMARK SMILES IDX 68 89 72 90 75 91 69 92 70 93 73 94 71 95 50 96 51 97 59 98
REMARK SMILES IDX 52 99 53 100 57 101 60 102 54 103 55 104 58 105 56 106
REMARK H PARENT 17 5 10 15 95 32 21 40 80 59 48 70
REMARK Flexibility Score: inf
ROOT
ATOM      1  C   UNL A   1      37.058  21.321  24.780  1.00  0.00     0.117 C 
ENDROOT
BRANCH   1   2
ATOM      2  N   UNL A   1      36.026  21.007  25.755  1.00  0.00    -0.356 N 
ATOM      3  C   UNL A   1      34.676  21.241  25.693  1.00  0.00     0.224 C 
ATOM      4  O   UNL A   1      33.992  20.892  26.654  1.00  0.00    -0.275 OA
ATOM      5  H   UNL A   1      36.341  20.564  26.576  1.00  0.00     0.163 HD
BRANCH   3   6
ATOM      6  C   UNL A   1      34.098  21.778  24.383  1.00  0.00     0.098 C 
ATOM      7  C   UNL A   1      33.732  23.309  24.225  1.00  0.00     0.099 C 
ATOM      8  C   UNL A   1      32.198  23.233  23.985  1.00  0.00     0.025 C 
ATOM      9  C   UNL A   1      32.732  21.072  24.124  1.00  0.00     0.025 C 
ATOM     10  C   UNL A   1      31.493  22.686  25.195  1.00  0.00    -0.027 C 
ATOM     11  C   UNL A   1      32.118  21.994  23.077  1.00  0.00     0.017 C 
ATOM     12  C   UNL A   1      31.782  21.380  25.262  1.00  0.00    -0.027 C 
BRANCH   7  13
ATOM     13  C   UNL A   1      34.301  24.236  25.299  1.00  0.00     0.229 C 
ATOM     14  N   UNL A   1      33.775  25.472  25.548  1.00  0.00    -0.317 N 
ATOM     15  H   UNL A   1      33.873  25.787  26.476  1.00  0.00     0.170 HD
ATOM     16  O   UNL A   1      35.316  23.910  25.928  1.00  0.00    -0.274 OA
BRANCH  14  17
ATOM     17  C   UNL A   1      33.127  26.350  24.698  1.00  0.00     0.108 A 
ATOM     18  C   UNL A   1      31.667  27.918  23.790  1.00  0.00     0.007 A 
ATOM     19  C   UNL A   1      32.401  27.509  22.688  1.00  0.00     0.076 A 
ATOM     20  C   UNL A   1      32.142  27.290  25.018  1.00  0.00     0.082 A 
ATOM     21  S   UNL A   1      33.692  26.493  23.102  1.00  0.00    -0.125 S 
BRANCH  18  22
ATOM     22  C   UNL A   1      30.607  28.891  23.547  1.00  0.00    -0.017 A 
ATOM     23  C   UNL A   1      27.270  31.604  23.470  1.00  0.00     0.044 C 
ATOM     24  C   UNL A   1      28.486  30.731  23.376  1.00  0.00    -0.051 A 
ATOM     25  C   UNL A   1      29.587  31.006  24.189  1.00  0.00     0.004 A 
ATOM     26  C   UNL A   1      28.494  29.572  22.583  1.00  0.00     0.004 A 
ATOM     27  C   UNL A   1      30.648  30.108  24.250  1.00  0.00     0.009 A 
ATOM     28  C   UNL A   1      29.550  28.650  22.667  1.00  0.00     0.009 A 
ENDBRANCH  18  22
BRANCH  20  29
ATOM     29  C   UNL A   1      31.612  27.314  26.386  1.00  0.00     0.255 C 
ATOM     30  O   UNL A   1      30.789  26.457  26.727  1.00  0.00    -0.269 OA
ATOM     31  N   UNL A   1      32.016  28.141  27.407  1.00  0.00    -0.349 N 
ATOM     32  H   UNL A   1      31.520  27.937  28.233  1.00  0.00     0.164 HD
BRANCH  31  33
ATOM     33  C   UNL A   1      32.934  29.203  27.624  1.00  0.00     0.082 C 
ATOM     34  C   UNL A   1      33.929  29.807  26.699  1.00  0.00     0.027 C 
ATOM     35  C   UNL A   1      32.634  30.521  26.971  1.00  0.00     0.027 C 
ENDBRANCH  31  33
ENDBRANCH  20  29
ENDBRANCH  14  17
ENDBRANCH   7  13
ENDBRANCH   3   6
ENDBRANCH   1   2
BRANCH   1  36
ATOM     36  C   UNL A   1      38.450  21.268  25.402  1.00  0.00     0.042 C 
BRANCH  36  37
ATOM     37  C   UNL A   1      38.828  22.571  26.096  1.00  0.00     0.118 C 
BRANCH  37  38
ATOM     38  N   UNL A   1      40.255  22.696  26.388  1.00  0.00    -0.352 N 
ATOM     39  C   UNL A   1      40.995  23.819  26.729  1.00  0.00     0.251 C 
ATOM     40  H   UNL A   1      40.767  21.857  26.336  1.00  0.00     0.163 HD
ATOM     41  O   UNL A   1      42.198  23.735  26.898  1.00  0.00    -0.269 OA
BRANCH  39  42
ATOM     42  C   UNL A   1      40.290  25.092  27.014  1.00  0.00     0.039 A 
ATOM     43  C   UNL A   1      40.642  26.222  26.264  1.00  0.00     0.014 A 
ATOM     44  C   UNL A   1      39.475  25.216  28.134  1.00  0.00     0.014 A 
ATOM     45  C   UNL A   1      40.397  27.489  26.787  1.00  0.00     0.010 A 
ATOM     46  C   UNL A   1      39.330  26.462  28.708  1.00  0.00     0.010 A 
ATOM     47  C   UNL A   1      39.855  27.590  28.067  1.00  0.00    -0.014 A 
BRANCH  47  48
ATOM     48  C   UNL A   1      39.916  28.802  28.872  1.00  0.00     0.031 A 
ATOM     49  C   UNL A   1      38.876  29.843  28.744  1.00  0.00     0.074 A 
ATOM     50  C   UNL A   1      40.852  28.884  29.843  1.00  0.00     0.049 A 
ATOM     51  N   UNL A   1      39.025  31.072  29.110  1.00  0.00    -0.248 NA
ATOM     52  C   UNL A   1      37.573  29.578  28.149  1.00  0.00     0.031 C 
ATOM     53  C   UNL A   1      40.884  29.818  30.966  1.00  0.00     0.029 A 
ATOM     54  N   UNL A   1      42.086  28.212  29.914  1.00  0.00    -0.354 N 
ATOM     55  C   UNL A   1      37.790  31.679  29.064  1.00  0.00     0.074 A 
ATOM     56  C   UNL A   1      36.934  30.724  28.398  1.00  0.00     0.031 C 
ATOM     57  C   UNL A   1      42.140  29.889  31.435  1.00  0.00     0.029 A 
ATOM     58  C   UNL A   1      42.977  29.122  30.529  1.00  0.00     0.049 A 
ATOM     59  H   UNL A   1      42.288  27.301  29.601  1.00  0.00     0.167 HD
ATOM     60  C   UNL A   1      37.605  32.864  29.717  1.00  0.00     0.037 A 
ATOM     61  C   UNL A   1      44.058  29.624  29.864  1.00  0.00     0.037 A 
ATOM     62  C   UNL A   1      38.853  33.326  30.322  1.00  0.00     0.049 A 
ATOM     63  C   UNL A   1      44.050  31.127  29.737  1.00  0.00     0.074 A 
ATOM     64  C   UNL A   1      39.359  33.209  31.606  1.00  0.00     0.029 A 
ATOM     65  N   UNL A   1      39.914  33.720  29.513  1.00  0.00    -0.354 N 
ATOM     66  N   UNL A   1      42.974  31.855  29.838  1.00  0.00    -0.248 NA
ATOM     67  C   UNL A   1      45.242  31.922  29.455  1.00  0.00     0.031 C 
ATOM     68  C   UNL A   1      40.747  33.479  31.558  1.00  0.00     0.029 A 
ATOM     69  C   UNL A   1      41.081  33.783  30.249  1.00  0.00     0.049 A 
ATOM     70  H   UNL A   1      39.842  33.925  28.553  1.00  0.00     0.167 HD
ATOM     71  C   UNL A   1      43.293  33.169  29.622  1.00  0.00     0.074 A 
ATOM     72  C   UNL A   1      44.726  33.163  29.399  1.00  0.00     0.031 C 
ATOM     73  C   UNL A   1      42.346  34.151  29.634  1.00  0.00     0.037 A 
BRANCH  60  74
ATOM     74  C   UNL A   1      36.248  33.440  30.076  1.00  0.00     0.064 A 
ATOM     75  C   UNL A   1      35.411  33.994  29.080  1.00  0.00     0.173 A 
ATOM     76  C   UNL A   1      35.734  33.531  31.382  1.00  0.00     0.173 A 
ATOM     77  F   UNL A   1      35.694  33.871  27.777  1.00  0.00    -0.203 F 
ATOM     78  C   UNL A   1      34.242  34.700  29.382  1.00  0.00     0.198 A 
ATOM     79  C   UNL A   1      34.595  34.283  31.692  1.00  0.00     0.198 A 
ATOM     80  F   UNL A   1      36.277  32.843  32.393  1.00  0.00    -0.203 F 
ATOM     81  F   UNL A   1      33.500  35.212  28.391  1.00  0.00    -0.200 F 
ATOM     82  C   UNL A   1      33.857  34.881  30.693  1.00  0.00     0.200 A 
ATOM     83  F   UNL A   1      34.215  34.418  32.971  1.00  0.00    -0.200 F 
ATOM     84  F   UNL A   1      32.763  35.597  30.988  1.00  0.00    -0.200 F 
ENDBRANCH  60  74
BRANCH  61  85
ATOM     85  C   UNL A   1      44.607  28.690  28.848  1.00  0.00     0.064 A 
ATOM     86  C   UNL A   1      45.386  27.606  29.293  1.00  0.00     0.173 A 
ATOM     87  C   UNL A   1      44.070  28.618  27.557  1.00  0.00     0.173 A 
ATOM     88  F   UNL A   1      45.925  27.628  30.522  1.00  0.00    -0.203 F 
ATOM     89  C   UNL A   1      45.517  26.448  28.529  1.00  0.00     0.198 A 
ATOM     90  C   UNL A   1      44.214  27.460  26.790  1.00  0.00     0.198 A 
ATOM     91  F   UNL A   1      43.307  29.613  27.082  1.00  0.00    -0.203 F 
ATOM     92  F   UNL A   1      46.169  25.388  29.028  1.00  0.00    -0.200 F 
ATOM     93  C   UNL A   1      44.904  26.365  27.291  1.00  0.00     0.200 A 
ATOM     94  F   UNL A   1      43.599  27.367  25.601  1.00  0.00    -0.200 F 
ATOM     95  F   UNL A   1      44.945  25.218  26.597  1.00  0.00    -0.200 F 
ENDBRANCH  61  85
BRANCH  73  96
ATOM     96  C   UNL A   1      42.552  35.568  29.169  1.00  0.00     0.064 A 
ATOM     97  C   UNL A   1      41.947  36.103  28.020  1.00  0.00     0.173 A 
ATOM     98  C   UNL A   1      43.264  36.489  29.973  1.00  0.00     0.173 A 
ATOM     99  F   UNL A   1      41.152  35.357  27.241  1.00  0.00    -0.203 F 
ATOM    100  C   UNL A   1      42.098  37.446  27.666  1.00  0.00     0.198 A 
ATOM    101  C   UNL A   1      43.365  37.841  29.645  1.00  0.00     0.198 A 
ATOM    102  F   UNL A   1      43.859  36.109  31.113  1.00  0.00    -0.203 F 
ATOM    103  F   UNL A   1      41.534  37.900  26.536  1.00  0.00    -0.200 F 
ATOM    104  C   UNL A   1      42.795  38.315  28.482  1.00  0.00     0.200 A 
ATOM    105  F   UNL A   1      44.000  38.681  30.473  1.00  0.00    -0.200 F 
ATOM    106  F   UNL A   1      42.900  39.611  28.160  1.00  0.00    -0.200 F 
ENDBRANCH  73  96
ENDBRANCH  47  48
ENDBRANCH  39  42
ENDBRANCH  37  38
ENDBRANCH  36  37
ENDBRANCH   1  36
TORSDOF 15
ENDMDL
MODEL 3
REMARK VINA RESULT:     -14.2      1.346      2.116
REMARK SMILES Cc1ccc(-c2csc(NC(=O)[C@H]3[C@@H](C(=O)NCCCNC(=O)c4ccc(-c5c6nc(c(-c7c(F)c(F)c(F)c(F)c7F)c7ccc([nH]7)c(-c7c(F)c(F)c(F)c(F)c7F)c7nc(c(-c8c(F)c(F)c(F)c(F)c8F)c8ccc5[nH]8)C=C7)C=C6)cc4)[C@H]4C=C[C@@H]3C4)c2C(=O)NC2CC2)cc1
REMARK SMILES IDX 18 1 17 2 15 3 16 4 14 6 13 7 90 8 87 9 89 10 91 11 88 12
REMARK SMILES IDX 11 13 10 14 12 16 9 17 6 18 7 19 92 20 8 21 5 22 1 23 2 24
REMARK SMILES IDX 3 25 100 26 4 27 99 28 93 29 94 30 95 31 96 33 97 34 98 35
REMARK SMILES IDX 19 36 20 37 21 38 22 39 23 41 24 42 25 43 86 44 26 45 85 46
REMARK SMILES IDX 27 47 28 48 29 49 79 50 30 51 84 52 78 53 80 54 31 55 83 56
REMARK SMILES IDX 77 57 76 58 32 60 64 61 44 62 63 63 45 64 48 65 62 66 81 67
REMARK SMILES IDX 46 68 47 69 61 71 82 72 49 73 33 74 34 75 42 76 35 77 36 78
REMARK SMILES IDX 40 79 43 80 37 81 38 82 41 83 39 84 65 85 66 86 74 87 67 88
REMARK SMILES IDX 68 89 72 90 75 91 69 92 70 93 73 94 71 95 50 96 51 97 59 98
REMARK SMILES IDX 52 99 53 100 57 101 60 102 54 103 55 104 58 105 56 106
REMARK H PARENT 17 5 10 15 95 32 21 40 80 59 48 70
REMARK Flexibility Score: inf
ROOT
ATOM      1  C   UNL A   1      32.118  29.889  26.868  1.00  0.00     0.117 C 
ENDROOT
BRANCH   1   2
ATOM      2  N   UNL A   1      32.389  30.050  25.448  1.00  0.00    -0.356 N 
ATOM      3  C   UNL A   1      32.085  29.210  24.408  1.00  0.00     0.224 C 
ATOM      4  O   UNL A   1      32.427  29.556  23.278  1.00  0.00    -0.275 OA
ATOM      5  H   UNL A   1      32.858  30.880  25.199  1.00  0.00     0.163 HD
BRANCH   3   6
ATOM      6  C   UNL A   1      31.219  27.984  24.701  1.00  0.00     0.098 C 
ATOM      7  C   UNL A   1      31.791  26.523  24.508  1.00  0.00     0.099 C 
ATOM      8  C   UNL A   1      30.853  25.972  23.398  1.00  0.00     0.025 C 
ATOM      9  C   UNL A   1      29.998  28.004  23.732  1.00  0.00     0.025 C 
ATOM     10  C   UNL A   1      31.034  26.738  22.116  1.00  0.00    -0.027 C 
ATOM     11  C   UNL A   1      29.507  26.566  23.848  1.00  0.00     0.017 C 
ATOM     12  C   UNL A   1      30.488  27.948  22.301  1.00  0.00    -0.027 C 
BRANCH   7  13
ATOM     13  C   UNL A   1      33.309  26.424  24.357  1.00  0.00     0.229 C 
ATOM     14  N   UNL A   1      33.906  25.439  23.621  1.00  0.00    -0.317 N 
ATOM     15  H   UNL A   1      34.766  25.689  23.214  1.00  0.00     0.170 HD
ATOM     16  O   UNL A   1      34.047  27.205  24.971  1.00  0.00    -0.274 OA
BRANCH  14  17
ATOM     17  C   UNL A   1      33.487  24.147  23.360  1.00  0.00     0.108 A 
ATOM     18  C   UNL A   1      32.950  21.890  23.537  1.00  0.00     0.007 A 
ATOM     19  C   UNL A   1      32.792  22.136  22.183  1.00  0.00     0.076 A 
ATOM     20  C   UNL A   1      33.291  23.104  24.271  1.00  0.00     0.082 A 
ATOM     21  S   UNL A   1      32.932  23.780  21.796  1.00  0.00    -0.125 S 
BRANCH  18  22
ATOM     22  C   UNL A   1      32.729  20.518  23.984  1.00  0.00    -0.017 A 
ATOM     23  C   UNL A   1      32.760  16.460  25.411  1.00  0.00     0.044 C 
ATOM     24  C   UNL A   1      32.600  17.873  24.933  1.00  0.00    -0.051 A 
ATOM     25  C   UNL A   1      32.839  18.924  25.821  1.00  0.00     0.004 A 
ATOM     26  C   UNL A   1      32.340  18.163  23.584  1.00  0.00     0.004 A 
ATOM     27  C   UNL A   1      32.874  20.235  25.354  1.00  0.00     0.009 A 
ATOM     28  C   UNL A   1      32.406  19.482  23.106  1.00  0.00     0.009 A 
ENDBRANCH  18  22
BRANCH  20  29
ATOM     29  C   UNL A   1      33.671  23.315  25.672  1.00  0.00     0.255 C 
ATOM     30  O   UNL A   1      34.870  23.328  25.975  1.00  0.00    -0.269 OA
ATOM     31  N   UNL A   1      32.827  23.618  26.713  1.00  0.00    -0.349 N 
ATOM     32  H   UNL A   1      33.336  23.735  27.548  1.00  0.00     0.164 HD
BRANCH  31  33
ATOM     33  C   UNL A   1      31.439  23.812  26.944  1.00  0.00     0.082 C 
ATOM     34  C   UNL A   1      30.280  23.574  26.043  1.00  0.00     0.027 C 
ATOM     35  C   UNL A   1      30.592  22.586  27.133  1.00  0.00     0.027 C 
ENDBRANCH  31  33
ENDBRANCH  20  29
ENDBRANCH  14  17
ENDBRANCH   7  13
ENDBRANCH   3   6
ENDBRANCH   1   2
BRANCH   1  36
ATOM     36  C   UNL A   1      33.403  29.669  27.661  1.00  0.00     0.042 C 
BRANCH  36  37
ATOM     37  C   UNL A   1      34.445  30.749  27.392  1.00  0.00     0.118 C 
BRANCH  37  38
ATOM     38  N   UNL A   1      34.897  31.451  28.592  1.00  0.00    -0.352 N 
ATOM     39  C   UNL A   1      35.887  31.107  29.500  1.00  0.00     0.251 C 
ATOM     40  H   UNL A   1      34.428  32.295  28.784  1.00  0.00     0.163 HD
ATOM     41  O   UNL A   1      36.097  31.805  30.476  1.00  0.00    -0.269 OA
BRANCH  39  42
ATOM     42  C   UNL A   1      36.774  29.956  29.204  1.00  0.00     0.039 A 
ATOM     43  C   UNL A   1      37.014  29.029  30.227  1.00  0.00     0.014 A 
ATOM     44  C   UNL A   1      37.519  29.918  28.030  1.00  0.00     0.014 A 
ATOM     45  C   UNL A   1      38.165  28.247  30.179  1.00  0.00     0.010 A 
ATOM     46  C   UNL A   1      38.714  29.230  28.031  1.00  0.00     0.010 A 
ATOM     47  C   UNL A   1      39.068  28.450  29.138  1.00  0.00    -0.014 A 
BRANCH  47  48
ATOM     48  C   UNL A   1      40.454  28.005  29.178  1.00  0.00     0.031 A 
ATOM     49  C   UNL A   1      40.839  26.692  28.621  1.00  0.00     0.074 A 
ATOM     50  C   UNL A   1      41.400  28.877  29.592  1.00  0.00     0.049 A 
ATOM     51  N   UNL A   1      41.920  26.057  28.929  1.00  0.00    -0.248 NA
ATOM     52  C   UNL A   1      39.998  25.965  27.680  1.00  0.00     0.031 C 
ATOM     53  C   UNL A   1      42.844  28.777  29.396  1.00  0.00     0.029 A 
ATOM     54  N   UNL A   1      41.240  29.987  30.442  1.00  0.00    -0.354 N 
ATOM     55  C   UNL A   1      42.057  25.005  28.050  1.00  0.00     0.074 A 
ATOM     56  C   UNL A   1      40.802  24.955  27.336  1.00  0.00     0.031 C 
ATOM     57  C   UNL A   1      43.459  29.559  30.297  1.00  0.00     0.029 A 
ATOM     58  C   UNL A   1      42.435  30.061  31.196  1.00  0.00     0.049 A 
ATOM     59  H   UNL A   1      40.461  30.586  30.501  1.00  0.00     0.167 HD
ATOM     60  C   UNL A   1      43.269  24.386  27.936  1.00  0.00     0.037 A 
ATOM     61  C   UNL A   1      42.438  29.881  32.548  1.00  0.00     0.037 A 
ATOM     62  C   UNL A   1      44.233  24.949  28.880  1.00  0.00     0.049 A 
ATOM     63  C   UNL A   1      43.294  28.727  33.007  1.00  0.00     0.074 A 
ATOM     64  C   UNL A   1      45.214  25.918  28.735  1.00  0.00     0.029 A 
ATOM     65  N   UNL A   1      44.056  24.767  30.247  1.00  0.00    -0.354 N 
ATOM     66  N   UNL A   1      43.646  27.737  32.235  1.00  0.00    -0.248 NA
ATOM     67  C   UNL A   1      43.791  28.579  34.373  1.00  0.00     0.031 C 
ATOM     68  C   UNL A   1      45.588  26.360  30.026  1.00  0.00     0.029 A 
ATOM     69  C   UNL A   1      44.852  25.646  30.956  1.00  0.00     0.049 A 
ATOM     70  H   UNL A   1      43.450  24.105  30.652  1.00  0.00     0.167 HD
ATOM     71  C   UNL A   1      44.371  26.832  32.962  1.00  0.00     0.074 A 
ATOM     72  C   UNL A   1      44.446  27.408  34.291  1.00  0.00     0.031 C 
ATOM     73  C   UNL A   1      44.840  25.676  32.409  1.00  0.00     0.037 A 
BRANCH  60  74
ATOM     74  C   UNL A   1      43.671  23.502  26.771  1.00  0.00     0.064 A 
ATOM     75  C   UNL A   1      43.220  22.164  26.689  1.00  0.00     0.173 A 
ATOM     76  C   UNL A   1      44.540  23.886  25.734  1.00  0.00     0.173 A 
ATOM     77  F   UNL A   1      42.287  21.686  27.522  1.00  0.00    -0.203 F 
ATOM     78  C   UNL A   1      43.708  21.259  25.741  1.00  0.00     0.198 A 
ATOM     79  C   UNL A   1      45.072  22.969  24.819  1.00  0.00     0.198 A 
ATOM     80  F   UNL A   1      44.854  25.170  25.527  1.00  0.00    -0.203 F 
ATOM     81  F   UNL A   1      43.248  20.000  25.726  1.00  0.00    -0.200 F 
ATOM     82  C   UNL A   1      44.667  21.651  24.832  1.00  0.00     0.200 A 
ATOM     83  F   UNL A   1      45.978  23.378  23.918  1.00  0.00    -0.200 F 
ATOM     84  F   UNL A   1      45.172  20.774  23.954  1.00  0.00    -0.200 F 
ENDBRANCH  60  74
BRANCH  61  85
ATOM     85  C   UNL A   1      41.174  30.311  33.201  1.00  0.00     0.064 A 
ATOM     86  C   UNL A   1      40.946  31.690  33.366  1.00  0.00     0.173 A 
ATOM     87  C   UNL A   1      40.069  29.455  33.288  1.00  0.00     0.173 A 
ATOM     88  F   UNL A   1      41.973  32.551  33.293  1.00  0.00    -0.203 F 
ATOM     89  C   UNL A   1      39.655  32.201  33.487  1.00  0.00     0.198 A 
ATOM     90  C   UNL A   1      38.779  29.970  33.422  1.00  0.00     0.198 A 
ATOM     91  F   UNL A   1      40.220  28.133  33.124  1.00  0.00    -0.203 F 
ATOM     92  F   UNL A   1      39.462  33.526  33.528  1.00  0.00    -0.200 F 
ATOM     93  C   UNL A   1      38.570  31.341  33.484  1.00  0.00     0.200 A 
ATOM     94  F   UNL A   1      37.724  29.142  33.392  1.00  0.00    -0.200 F 
ATOM     95  F   UNL A   1      37.324  31.834  33.500  1.00  0.00    -0.200 F 
ENDBRANCH  61  85
BRANCH  73  96
ATOM     96  C   UNL A   1      45.423  24.517  33.174  1.00  0.00     0.064 A 
ATOM     97  C   UNL A   1      46.703  24.535  33.751  1.00  0.00     0.173 A 
ATOM     98  C   UNL A   1      44.628  23.387  33.479  1.00  0.00     0.173 A 
ATOM     99  F   UNL A   1      47.505  25.601  33.632  1.00  0.00    -0.203 F 
ATOM    100  C   UNL A   1      47.178  23.471  34.524  1.00  0.00     0.198 A 
ATOM    101  C   UNL A   1      45.085  22.354  34.295  1.00  0.00     0.198 A 
ATOM    102  F   UNL A   1      43.375  23.268  33.014  1.00  0.00    -0.203 F 
ATOM    103  F   UNL A   1      48.423  23.518  35.020  1.00  0.00    -0.200 F 
ATOM    104  C   UNL A   1      46.367  22.389  34.804  1.00  0.00     0.200 A 
ATOM    105  F   UNL A   1      44.269  21.336  34.601  1.00  0.00    -0.200 F 
ATOM    106  F   UNL A   1      46.811  21.392  35.580  1.00  0.00    -0.200 F 
ENDBRANCH  73  96
ENDBRANCH  47  48
ENDBRANCH  39  42
ENDBRANCH  37  38
ENDBRANCH  36  37
ENDBRANCH   1  36
TORSDOF 15
ENDMDL
