MODEL 1
REMARK VINA RESULT:     -13.2      0.000      0.000
REMARK SMILES Cc1ccccc1SCC(=O)N[C@H]1C=C[C@H](C(=O)NCCCNC(=O)c2ccc(-c3c4nc(c(-c5c(F)c(F)c(F)c(F)c5F)c5ccc([nH]5)c(-c5c(F)c(F)c(F)c(F)c5F)c5nc(c(-c6c(F)c(F)c(F)c(F)c6F)c6ccc3[nH]6)C=C5)C=C4)cc2)C1
REMARK SMILES IDX 20 1 19 2 17 3 18 4 16 6 13 7 14 8 89 9 15 10 12 11 10 12
REMARK SMILES IDX 11 13 9 15 8 16 7 17 1 18 2 19 3 20 4 21 6 22 5 23 21 24
REMARK SMILES IDX 22 25 23 26 24 27 25 29 26 30 27 31 88 32 28 33 87 34 29 35
REMARK SMILES IDX 30 36 31 37 81 38 32 39 86 40 80 41 82 42 33 43 85 44 79 45
REMARK SMILES IDX 78 46 34 48 66 49 46 50 65 51 47 52 50 53 64 54 83 55 48 56
REMARK SMILES IDX 49 57 63 59 84 60 51 61 35 62 36 63 44 64 37 65 38 66 42 67
REMARK SMILES IDX 45 68 39 69 40 70 43 71 41 72 67 73 68 74 76 75 69 76 70 77
REMARK SMILES IDX 74 78 77 79 71 80 72 81 75 82 73 83 52 84 53 85 61 86 54 87
REMARK SMILES IDX 55 88 59 89 62 90 56 91 57 92 60 93 58 94
REMARK H PARENT 19 5 12 14 23 28 82 47 50 58
REMARK Flexibility Score: inf
ROOT
ATOM      1  C   UNL A   1      31.749  30.584  25.855  1.00  0.00     0.117 C 
ENDROOT
BRANCH   1   2
ATOM      2  N   UNL A   1      32.578  29.773  24.975  1.00  0.00    -0.356 N 
ATOM      3  C   UNL A   1      32.330  28.525  24.470  1.00  0.00     0.227 C 
ATOM      4  O   UNL A   1      33.174  28.017  23.731  1.00  0.00    -0.274 OA
ATOM      5  H   UNL A   1      33.434  30.178  24.707  1.00  0.00     0.163 HD
BRANCH   3   6
ATOM      6  C   UNL A   1      31.009  27.833  24.817  1.00  0.00     0.103 C 
ATOM      7  C   UNL A   1      31.372  25.616  25.831  1.00  0.00     0.106 C 
ATOM      8  C   UNL A   1      30.971  25.520  24.391  1.00  0.00    -0.006 C 
ATOM      9  C   UNL A   1      31.068  27.085  26.158  1.00  0.00     0.047 C 
ATOM     10  C   UNL A   1      30.760  26.721  23.842  1.00  0.00    -0.016 C 
BRANCH   7  11
ATOM     11  N   UNL A   1      30.563  24.670  26.568  1.00  0.00    -0.349 N 
ATOM     12  C   UNL A   1      30.834  23.401  26.970  1.00  0.00     0.230 C 
ATOM     13  O   UNL A   1      29.936  22.805  27.574  1.00  0.00    -0.274 OA
ATOM     14  H   UNL A   1      29.670  25.000  26.820  1.00  0.00     0.164 HD
BRANCH  12  15
ATOM     15  C   UNL A   1      32.211  22.792  26.848  1.00  0.00     0.174 C 
BRANCH  15  16
ATOM     16  S   UNL A   1      32.625  21.985  25.282  1.00  0.00    -0.116 SA
BRANCH  16  17
ATOM     17  C   UNL A   1      34.378  22.159  24.954  1.00  0.00     0.011 A 
ATOM     18  C   UNL A   1      34.537  24.570  24.028  1.00  0.00     0.045 C 
ATOM     19  C   UNL A   1      35.101  23.234  24.409  1.00  0.00    -0.038 A 
ATOM     20  C   UNL A   1      36.493  23.085  24.191  1.00  0.00     0.004 A 
ATOM     21  C   UNL A   1      37.153  21.885  24.437  1.00  0.00     0.000 A 
ATOM     22  C   UNL A   1      35.074  20.951  25.192  1.00  0.00     0.015 A 
ATOM     23  C   UNL A   1      36.439  20.809  24.932  1.00  0.00     0.001 A 
ENDBRANCH  16  17
ENDBRANCH  15  16
ENDBRANCH  12  15
ENDBRANCH   7  11
ENDBRANCH   3   6
ENDBRANCH   1   2
BRANCH   1  24
ATOM     24  C   UNL A   1      32.363  30.734  27.244  1.00  0.00     0.042 C 
BRANCH  24  25
ATOM     25  C   UNL A   1      33.882  30.868  27.212  1.00  0.00     0.118 C 
BRANCH  25  26
ATOM     26  N   UNL A   1      34.442  31.688  28.287  1.00  0.00    -0.352 N 
ATOM     27  C   UNL A   1      35.511  31.405  29.120  1.00  0.00     0.251 C 
ATOM     28  H   UNL A   1      34.000  32.554  28.438  1.00  0.00     0.163 HD
ATOM     29  O   UNL A   1      35.859  32.199  29.990  1.00  0.00    -0.269 OA
BRANCH  27  30
ATOM     30  C   UNL A   1      36.311  30.189  28.856  1.00  0.00     0.039 A 
ATOM     31  C   UNL A   1      36.728  29.431  29.954  1.00  0.00     0.014 A 
ATOM     32  C   UNL A   1      36.867  29.981  27.597  1.00  0.00     0.014 A 
ATOM     33  C   UNL A   1      37.893  28.676  29.849  1.00  0.00     0.010 A 
ATOM     34  C   UNL A   1      38.070  29.309  27.513  1.00  0.00     0.010 A 
ATOM     35  C   UNL A   1      38.620  28.724  28.659  1.00  0.00    -0.014 A 
BRANCH  35  36
ATOM     36  C   UNL A   1      39.994  28.251  28.558  1.00  0.00     0.031 A 
ATOM     37  C   UNL A   1      40.261  26.824  28.298  1.00  0.00     0.074 A 
ATOM     38  C   UNL A   1      41.030  29.112  28.681  1.00  0.00     0.049 A 
ATOM     39  N   UNL A   1      41.295  26.193  28.743  1.00  0.00    -0.248 NA
ATOM     40  C   UNL A   1      39.348  25.981  27.539  1.00  0.00     0.031 C 
ATOM     41  C   UNL A   1      42.435  28.837  28.393  1.00  0.00     0.029 A 
ATOM     42  N   UNL A   1      41.038  30.392  29.261  1.00  0.00    -0.354 N 
ATOM     43  C   UNL A   1      41.328  24.964  28.127  1.00  0.00     0.074 A 
ATOM     44  C   UNL A   1      40.059  24.854  27.439  1.00  0.00     0.031 C 
ATOM     45  C   UNL A   1      43.197  29.734  29.038  1.00  0.00     0.029 A 
ATOM     46  C   UNL A   1      42.318  30.545  29.857  1.00  0.00     0.049 A 
ATOM     47  H   UNL A   1      40.307  31.049  29.255  1.00  0.00     0.167 HD
ATOM     48  C   UNL A   1      42.478  24.231  28.149  1.00  0.00     0.037 A 
ATOM     49  C   UNL A   1      42.475  30.787  31.191  1.00  0.00     0.037 A 
ATOM     50  C   UNL A   1      43.533  24.917  28.889  1.00  0.00     0.049 A 
ATOM     51  C   UNL A   1      43.250  29.716  31.915  1.00  0.00     0.074 A 
ATOM     52  C   UNL A   1      44.567  25.739  28.472  1.00  0.00     0.029 A 
ATOM     53  N   UNL A   1      43.427  25.087  30.266  1.00  0.00    -0.354 N 
ATOM     54  N   UNL A   1      43.512  28.550  31.399  1.00  0.00    -0.248 NA
ATOM     55  C   UNL A   1      43.722  29.840  33.292  1.00  0.00     0.031 C 
ATOM     56  C   UNL A   1      45.049  26.447  29.597  1.00  0.00     0.029 A 
ATOM     57  C   UNL A   1      44.323  26.045  30.703  1.00  0.00     0.049 A 
ATOM     58  H   UNL A   1      42.802  24.595  30.845  1.00  0.00     0.167 HD
ATOM     59  C   UNL A   1      44.101  27.757  32.346  1.00  0.00     0.074 A 
ATOM     60  C   UNL A   1      44.247  28.620  33.502  1.00  0.00     0.031 C 
ATOM     61  C   UNL A   1      44.385  26.445  32.101  1.00  0.00     0.037 A 
BRANCH  48  62
ATOM     62  C   UNL A   1      42.723  23.060  27.226  1.00  0.00     0.064 A 
ATOM     63  C   UNL A   1      42.114  21.807  27.458  1.00  0.00     0.173 A 
ATOM     64  C   UNL A   1      43.596  23.096  26.123  1.00  0.00     0.173 A 
ATOM     65  F   UNL A   1      41.174  21.647  28.399  1.00  0.00    -0.203 F 
ATOM     66  C   UNL A   1      42.454  20.661  26.735  1.00  0.00     0.198 A 
ATOM     67  C   UNL A   1      43.980  21.940  25.435  1.00  0.00     0.198 A 
ATOM     68  F   UNL A   1      44.072  24.259  25.658  1.00  0.00    -0.203 F 
ATOM     69  F   UNL A   1      41.850  19.497  27.011  1.00  0.00    -0.200 F 
ATOM     70  C   UNL A   1      43.418  20.719  25.751  1.00  0.00     0.200 A 
ATOM     71  F   UNL A   1      44.903  22.018  24.467  1.00  0.00    -0.200 F 
ATOM     72  F   UNL A   1      43.787  19.610  25.096  1.00  0.00    -0.200 F 
ENDBRANCH  48  62
BRANCH  49  73
ATOM     73  C   UNL A   1      41.336  31.553  31.761  1.00  0.00     0.064 A 
ATOM     74  C   UNL A   1      40.375  30.814  32.478  1.00  0.00     0.173 A 
ATOM     75  C   UNL A   1      41.470  32.914  32.050  1.00  0.00     0.173 A 
ATOM     76  F   UNL A   1      40.186  29.514  32.203  1.00  0.00    -0.203 F 
ATOM     77  C   UNL A   1      39.751  31.357  33.594  1.00  0.00     0.198 A 
ATOM     78  C   UNL A   1      40.808  33.465  33.147  1.00  0.00     0.198 A 
ATOM     79  F   UNL A   1      42.342  33.673  31.372  1.00  0.00    -0.203 F 
ATOM     80  F   UNL A   1      39.000  30.576  34.384  1.00  0.00    -0.200 F 
ATOM     81  C   UNL A   1      40.007  32.668  33.955  1.00  0.00     0.200 A 
ATOM     82  F   UNL A   1      41.034  34.742  33.487  1.00  0.00    -0.200 F 
ATOM     83  F   UNL A   1      39.525  33.147  35.111  1.00  0.00    -0.200 F 
ENDBRANCH  49  73
BRANCH  61  84
ATOM     84  C   UNL A   1      44.851  25.461  33.138  1.00  0.00     0.064 A 
ATOM     85  C   UNL A   1      46.164  24.969  33.210  1.00  0.00     0.173 A 
ATOM     86  C   UNL A   1      43.985  25.061  34.181  1.00  0.00     0.173 A 
ATOM     87  F   UNL A   1      47.110  25.386  32.357  1.00  0.00    -0.203 F 
ATOM     88  C   UNL A   1      46.558  24.064  34.198  1.00  0.00     0.198 A 
ATOM     89  C   UNL A   1      44.397  24.204  35.199  1.00  0.00     0.198 A 
ATOM     90  F   UNL A   1      42.721  25.506  34.249  1.00  0.00    -0.203 F 
ATOM     91  F   UNL A   1      47.805  23.575  34.191  1.00  0.00    -0.200 F 
ATOM     92  C   UNL A   1      45.676  23.685  35.193  1.00  0.00     0.200 A 
ATOM     93  F   UNL A   1      43.550  23.891  36.191  1.00  0.00    -0.200 F 
ATOM     94  F   UNL A   1      46.066  22.839  36.156  1.00  0.00    -0.200 F 
ENDBRANCH  61  84
ENDBRANCH  35  36
ENDBRANCH  27  30
ENDBRANCH  25  26
ENDBRANCH  24  25
ENDBRANCH   1  24
TORSDOF 14
ENDMDL
MODEL 2
REMARK VINA RESULT:     -13.1      0.973      1.495
REMARK SMILES Cc1ccccc1SCC(=O)N[C@H]1C=C[C@H](C(=O)NCCCNC(=O)c2ccc(-c3c4nc(c(-c5c(F)c(F)c(F)c(F)c5F)c5ccc([nH]5)c(-c5c(F)c(F)c(F)c(F)c5F)c5nc(c(-c6c(F)c(F)c(F)c(F)c6F)c6ccc3[nH]6)C=C5)C=C4)cc2)C1
REMARK SMILES IDX 20 1 19 2 17 3 18 4 16 6 13 7 14 8 89 9 15 10 12 11 10 12
REMARK SMILES IDX 11 13 9 15 8 16 7 17 1 18 2 19 3 20 4 21 6 22 5 23 21 24
REMARK SMILES IDX 22 25 23 26 24 27 25 29 26 30 27 31 88 32 28 33 87 34 29 35
REMARK SMILES IDX 30 36 31 37 81 38 32 39 86 40 80 41 82 42 33 43 85 44 79 45
REMARK SMILES IDX 78 46 34 48 66 49 46 50 65 51 47 52 50 53 64 54 83 55 48 56
REMARK SMILES IDX 49 57 63 59 84 60 51 61 35 62 36 63 44 64 37 65 38 66 42 67
REMARK SMILES IDX 45 68 39 69 40 70 43 71 41 72 67 73 68 74 76 75 69 76 70 77
REMARK SMILES IDX 74 78 77 79 71 80 72 81 75 82 73 83 52 84 53 85 61 86 54 87
REMARK SMILES IDX 55 88 59 89 62 90 56 91 57 92 60 93 58 94
REMARK H PARENT 19 5 12 14 23 28 82 47 50 58
REMARK Flexibility Score: inf
ROOT
ATOM      1  C   UNL A   1      32.819  30.446  26.480  1.00  0.00     0.117 C 
ENDROOT
BRANCH   1   2
ATOM      2  N   UNL A   1      33.264  29.684  25.322  1.00  0.00    -0.356 N 
ATOM      3  C   UNL A   1      32.657  28.622  24.707  1.00  0.00     0.227 C 
ATOM      4  O   UNL A   1      33.209  28.123  23.726  1.00  0.00    -0.274 OA
ATOM      5  H   UNL A   1      34.119  29.972  24.928  1.00  0.00     0.163 HD
BRANCH   3   6
ATOM      6  C   UNL A   1      31.311  28.125  25.242  1.00  0.00     0.103 C 
ATOM      7  C   UNL A   1      31.355  25.712  25.741  1.00  0.00     0.106 C 
ATOM      8  C   UNL A   1      30.659  26.009  24.448  1.00  0.00    -0.006 C 
ATOM      9  C   UNL A   1      31.467  27.105  26.379  1.00  0.00     0.047 C 
ATOM     10  C   UNL A   1      30.622  27.319  24.181  1.00  0.00    -0.016 C 
BRANCH   7  11
ATOM     11  N   UNL A   1      30.518  24.793  26.480  1.00  0.00    -0.349 N 
ATOM     12  C   UNL A   1      30.785  23.555  26.971  1.00  0.00     0.230 C 
ATOM     13  O   UNL A   1      29.862  22.975  27.551  1.00  0.00    -0.274 OA
ATOM     14  H   UNL A   1      29.604  25.117  26.655  1.00  0.00     0.164 HD
BRANCH  12  15
ATOM     15  C   UNL A   1      32.178  22.970  26.971  1.00  0.00     0.174 C 
BRANCH  15  16
ATOM     16  S   UNL A   1      32.725  22.131  25.465  1.00  0.00    -0.116 SA
BRANCH  16  17
ATOM     17  C   UNL A   1      34.493  22.347  25.257  1.00  0.00     0.011 A 
ATOM     18  C   UNL A   1      34.728  24.919  25.096  1.00  0.00     0.045 C 
ATOM     19  C   UNL A   1      35.254  23.515  25.079  1.00  0.00    -0.038 A 
ATOM     20  C   UNL A   1      36.650  23.399  24.870  1.00  0.00     0.004 A 
ATOM     21  C   UNL A   1      37.280  22.162  24.769  1.00  0.00     0.000 A 
ATOM     22  C   UNL A   1      35.159  21.103  25.147  1.00  0.00     0.015 A 
ATOM     23  C   UNL A   1      36.530  21.007  24.899  1.00  0.00     0.001 A 
ENDBRANCH  16  17
ENDBRANCH  15  16
ENDBRANCH  12  15
ENDBRANCH   7  11
ENDBRANCH   3   6
ENDBRANCH   1   2
BRANCH   1  24
ATOM     24  C   UNL A   1      33.788  30.324  27.653  1.00  0.00     0.042 C 
BRANCH  24  25
ATOM     25  C   UNL A   1      34.851  31.417  27.664  1.00  0.00     0.118 C 
BRANCH  25  26
ATOM     26  N   UNL A   1      35.278  31.835  29.000  1.00  0.00    -0.352 N 
ATOM     27  C   UNL A   1      36.152  31.197  29.864  1.00  0.00     0.251 C 
ATOM     28  H   UNL A   1      34.893  32.679  29.327  1.00  0.00     0.163 HD
ATOM     29  O   UNL A   1      36.406  31.673  30.968  1.00  0.00    -0.269 OA
BRANCH  27  30
ATOM     30  C   UNL A   1      36.878  30.002  29.383  1.00  0.00     0.039 A 
ATOM     31  C   UNL A   1      37.251  29.040  30.326  1.00  0.00     0.014 A 
ATOM     32  C   UNL A   1      37.417  29.984  28.099  1.00  0.00     0.014 A 
ATOM     33  C   UNL A   1      38.368  28.249  30.077  1.00  0.00     0.010 A 
ATOM     34  C   UNL A   1      38.577  29.268  27.885  1.00  0.00     0.010 A 
ATOM     35  C   UNL A   1      39.094  28.461  28.905  1.00  0.00    -0.014 A 
BRANCH  35  36
ATOM     36  C   UNL A   1      40.437  27.934  28.705  1.00  0.00     0.031 A 
ATOM     37  C   UNL A   1      40.626  26.500  28.416  1.00  0.00     0.074 A 
ATOM     38  C   UNL A   1      41.514  28.750  28.765  1.00  0.00     0.049 A 
ATOM     39  N   UNL A   1      41.662  25.822  28.783  1.00  0.00    -0.248 NA
ATOM     40  C   UNL A   1      39.629  25.703  27.714  1.00  0.00     0.031 C 
ATOM     41  C   UNL A   1      42.884  28.421  28.378  1.00  0.00     0.029 A 
ATOM     42  N   UNL A   1      41.615  30.022  29.353  1.00  0.00    -0.354 N 
ATOM     43  C   UNL A   1      41.601  24.600  28.157  1.00  0.00     0.074 A 
ATOM     44  C   UNL A   1      40.285  24.550  27.556  1.00  0.00     0.031 C 
ATOM     45  C   UNL A   1      43.724  29.279  28.977  1.00  0.00     0.029 A 
ATOM     46  C   UNL A   1      42.937  30.115  29.861  1.00  0.00     0.049 A 
ATOM     47  H   UNL A   1      40.912  30.708  29.403  1.00  0.00     0.167 HD
ATOM     48  C   UNL A   1      42.719  23.820  28.093  1.00  0.00     0.037 A 
ATOM     49  C   UNL A   1      43.195  30.336  31.183  1.00  0.00     0.037 A 
ATOM     50  C   UNL A   1      43.849  24.454  28.765  1.00  0.00     0.049 A 
ATOM     51  C   UNL A   1      43.973  29.227  31.843  1.00  0.00     0.074 A 
ATOM     52  C   UNL A   1      44.885  25.238  28.284  1.00  0.00     0.029 A 
ATOM     53  N   UNL A   1      43.845  24.612  30.146  1.00  0.00    -0.354 N 
ATOM     54  N   UNL A   1      44.151  28.056  31.301  1.00  0.00    -0.248 NA
ATOM     55  C   UNL A   1      44.542  29.315  33.185  1.00  0.00     0.031 C 
ATOM     56  C   UNL A   1      45.472  25.913  29.379  1.00  0.00     0.029 A 
ATOM     57  C   UNL A   1      44.807  25.528  30.530  1.00  0.00     0.049 A 
ATOM     58  H   UNL A   1      43.241  24.140  30.763  1.00  0.00     0.167 HD
ATOM     59  C   UNL A   1      44.769  27.230  32.198  1.00  0.00     0.074 A 
ATOM     60  C   UNL A   1      45.030  28.073  33.349  1.00  0.00     0.031 C 
ATOM     61  C   UNL A   1      44.981  25.909  31.923  1.00  0.00     0.037 A 
BRANCH  48  62
ATOM     62  C   UNL A   1      42.851  22.650  27.145  1.00  0.00     0.064 A 
ATOM     63  C   UNL A   1      42.142  21.449  27.365  1.00  0.00     0.173 A 
ATOM     64  C   UNL A   1      43.709  22.635  26.030  1.00  0.00     0.173 A 
ATOM     65  F   UNL A   1      41.206  21.350  28.318  1.00  0.00    -0.203 F 
ATOM     66  C   UNL A   1      42.374  20.293  26.616  1.00  0.00     0.198 A 
ATOM     67  C   UNL A   1      43.984  21.463  25.315  1.00  0.00     0.198 A 
ATOM     68  F   UNL A   1      44.274  23.762  25.578  1.00  0.00    -0.203 F 
ATOM     69  F   UNL A   1      41.679  19.178  26.881  1.00  0.00    -0.200 F 
ATOM     70  C   UNL A   1      43.326  20.288  25.618  1.00  0.00     0.200 A 
ATOM     71  F   UNL A   1      44.896  21.482  24.334  1.00  0.00    -0.200 F 
ATOM     72  F   UNL A   1      43.591  19.165  24.938  1.00  0.00    -0.200 F 
ENDBRANCH  48  62
BRANCH  49  73
ATOM     73  C   UNL A   1      42.131  31.141  31.836  1.00  0.00     0.064 A 
ATOM     74  C   UNL A   1      42.116  32.519  31.549  1.00  0.00     0.173 A 
ATOM     75  C   UNL A   1      40.935  30.542  32.244  1.00  0.00     0.173 A 
ATOM     76  F   UNL A   1      43.251  33.143  31.193  1.00  0.00    -0.203 F 
ATOM     77  C   UNL A   1      40.915  33.209  31.439  1.00  0.00     0.198 A 
ATOM     78  C   UNL A   1      39.737  31.251  32.174  1.00  0.00     0.198 A 
ATOM     79  F   UNL A   1      40.900  29.241  32.568  1.00  0.00    -0.203 F 
ATOM     80  F   UNL A   1      40.906  34.462  30.963  1.00  0.00    -0.200 F 
ATOM     81  C   UNL A   1      39.723  32.558  31.706  1.00  0.00     0.200 A 
ATOM     82  F   UNL A   1      38.581  30.631  32.453  1.00  0.00    -0.200 F 
ATOM     83  F   UNL A   1      38.558  33.175  31.459  1.00  0.00    -0.200 F 
ENDBRANCH  49  73
BRANCH  61  84
ATOM     84  C   UNL A   1      45.475  24.896  32.918  1.00  0.00     0.064 A 
ATOM     85  C   UNL A   1      46.800  24.841  33.380  1.00  0.00     0.173 A 
ATOM     86  C   UNL A   1      44.572  23.996  33.527  1.00  0.00     0.173 A 
ATOM     87  F   UNL A   1      47.714  25.735  32.977  1.00  0.00    -0.203 F 
ATOM     88  C   UNL A   1      47.215  23.890  34.314  1.00  0.00     0.198 A 
ATOM     89  C   UNL A   1      44.977  23.086  34.502  1.00  0.00     0.198 A 
ATOM     90  F   UNL A   1      43.270  23.988  33.206  1.00  0.00    -0.203 F 
ATOM     91  F   UNL A   1      48.503  23.837  34.680  1.00  0.00    -0.200 F 
ATOM     92  C   UNL A   1      46.303  23.016  34.877  1.00  0.00     0.200 A 
ATOM     93  F   UNL A   1      44.072  22.285  35.082  1.00  0.00    -0.200 F 
ATOM     94  F   UNL A   1      46.699  22.123  35.793  1.00  0.00    -0.200 F 
ENDBRANCH  61  84
ENDBRANCH  35  36
ENDBRANCH  27  30
ENDBRANCH  25  26
ENDBRANCH  24  25
ENDBRANCH   1  24
TORSDOF 14
ENDMDL
MODEL 3
REMARK VINA RESULT:     -13.0      1.837      2.959
REMARK SMILES Cc1ccccc1SCC(=O)N[C@H]1C=C[C@H](C(=O)NCCCNC(=O)c2ccc(-c3c4nc(c(-c5c(F)c(F)c(F)c(F)c5F)c5ccc([nH]5)c(-c5c(F)c(F)c(F)c(F)c5F)c5nc(c(-c6c(F)c(F)c(F)c(F)c6F)c6ccc3[nH]6)C=C5)C=C4)cc2)C1
REMARK SMILES IDX 20 1 19 2 17 3 18 4 16 6 13 7 14 8 89 9 15 10 12 11 10 12
REMARK SMILES IDX 11 13 9 15 8 16 7 17 1 18 2 19 3 20 4 21 6 22 5 23 21 24
REMARK SMILES IDX 22 25 23 26 24 27 25 29 26 30 27 31 88 32 28 33 87 34 29 35
REMARK SMILES IDX 30 36 31 37 81 38 32 39 86 40 80 41 82 42 33 43 85 44 79 45
REMARK SMILES IDX 78 46 34 48 66 49 46 50 65 51 47 52 50 53 64 54 83 55 48 56
REMARK SMILES IDX 49 57 63 59 84 60 51 61 35 62 36 63 44 64 37 65 38 66 42 67
REMARK SMILES IDX 45 68 39 69 40 70 43 71 41 72 67 73 68 74 76 75 69 76 70 77
REMARK SMILES IDX 74 78 77 79 71 80 72 81 75 82 73 83 52 84 53 85 61 86 54 87
REMARK SMILES IDX 55 88 59 89 62 90 56 91 57 92 60 93 58 94
REMARK H PARENT 19 5 12 14 23 28 82 47 50 58
REMARK Flexibility Score: inf
ROOT
ATOM      1  C   UNL A   1      33.247  29.888  26.027  1.00  0.00     0.117 C 
ENDROOT
BRANCH   1   2
ATOM      2  N   UNL A   1      33.258  29.232  24.728  1.00  0.00    -0.356 N 
ATOM      3  C   UNL A   1      32.352  28.348  24.204  1.00  0.00     0.227 C 
ATOM      4  O   UNL A   1      32.552  27.912  23.070  1.00  0.00    -0.274 OA
ATOM      5  H   UNL A   1      34.021  29.453  24.147  1.00  0.00     0.163 HD
BRANCH   3   6
ATOM      6  C   UNL A   1      31.122  27.967  25.032  1.00  0.00     0.103 C 
ATOM      7  C   UNL A   1      31.078  25.561  25.561  1.00  0.00     0.106 C 
ATOM      8  C   UNL A   1      30.141  25.911  24.446  1.00  0.00    -0.006 C 
ATOM      9  C   UNL A   1      31.442  26.940  26.129  1.00  0.00     0.047 C 
ATOM     10  C   UNL A   1      30.153  27.219  24.167  1.00  0.00    -0.016 C 
BRANCH   7  11
ATOM     11  N   UNL A   1      30.353  24.717  26.485  1.00  0.00    -0.349 N 
ATOM     12  C   UNL A   1      30.510  23.403  26.790  1.00  0.00     0.230 C 
ATOM     13  O   UNL A   1      29.722  22.924  27.613  1.00  0.00    -0.274 OA
ATOM     14  H   UNL A   1      29.627  25.169  26.973  1.00  0.00     0.164 HD
BRANCH  12  15
ATOM     15  C   UNL A   1      31.684  22.592  26.292  1.00  0.00     0.174 C 
BRANCH  15  16
ATOM     16  S   UNL A   1      33.246  22.758  27.189  1.00  0.00    -0.116 SA
BRANCH  16  17
ATOM     17  C   UNL A   1      34.616  22.724  26.033  1.00  0.00     0.011 A 
ATOM     18  C   UNL A   1      34.598  25.126  25.071  1.00  0.00     0.045 C 
ATOM     19  C   UNL A   1      35.105  23.718  25.168  1.00  0.00    -0.038 A 
ATOM     20  C   UNL A   1      36.177  23.404  24.298  1.00  0.00     0.004 A 
ATOM     21  C   UNL A   1      36.717  22.124  24.226  1.00  0.00     0.000 A 
ATOM     22  C   UNL A   1      35.182  21.431  25.937  1.00  0.00     0.015 A 
ATOM     23  C   UNL A   1      36.212  21.129  25.043  1.00  0.00     0.001 A 
ENDBRANCH  16  17
ENDBRANCH  15  16
ENDBRANCH  12  15
ENDBRANCH   7  11
ENDBRANCH   3   6
ENDBRANCH   1   2
BRANCH   1  24
ATOM     24  C   UNL A   1      34.282  29.293  26.978  1.00  0.00     0.042 C 
BRANCH  24  25
ATOM     25  C   UNL A   1      34.926  30.336  27.885  1.00  0.00     0.118 C 
BRANCH  25  26
ATOM     26  N   UNL A   1      34.064  31.473  28.210  1.00  0.00    -0.352 N 
ATOM     27  C   UNL A   1      34.323  32.538  29.057  1.00  0.00     0.251 C 
ATOM     28  H   UNL A   1      33.184  31.482  27.769  1.00  0.00     0.163 HD
ATOM     29  O   UNL A   1      33.486  33.419  29.236  1.00  0.00    -0.269 OA
BRANCH  27  30
ATOM     30  C   UNL A   1      35.677  32.665  29.639  1.00  0.00     0.039 A 
ATOM     31  C   UNL A   1      36.624  33.412  28.932  1.00  0.00     0.014 A 
ATOM     32  C   UNL A   1      36.065  31.837  30.688  1.00  0.00     0.014 A 
ATOM     33  C   UNL A   1      37.973  33.107  29.085  1.00  0.00     0.010 A 
ATOM     34  C   UNL A   1      37.392  31.468  30.776  1.00  0.00     0.010 A 
ATOM     35  C   UNL A   1      38.333  32.049  29.919  1.00  0.00    -0.014 A 
BRANCH  35  36
ATOM     36  C   UNL A   1      39.657  31.443  29.894  1.00  0.00     0.031 A 
ATOM     37  C   UNL A   1      39.842  30.112  29.285  1.00  0.00     0.074 A 
ATOM     38  C   UNL A   1      40.725  32.096  30.406  1.00  0.00     0.049 A 
ATOM     39  N   UNL A   1      40.723  29.255  29.683  1.00  0.00    -0.248 NA
ATOM     40  C   UNL A   1      39.010  29.626  28.193  1.00  0.00     0.031 C 
ATOM     41  C   UNL A   1      42.130  31.723  30.264  1.00  0.00     0.029 A 
ATOM     42  N   UNL A   1      40.740  33.166  31.318  1.00  0.00    -0.354 N 
ATOM     43  C   UNL A   1      40.758  28.238  28.759  1.00  0.00     0.074 A 
ATOM     44  C   UNL A   1      39.629  28.482  27.887  1.00  0.00     0.031 C 
ATOM     45  C   UNL A   1      42.838  32.310  31.241  1.00  0.00     0.029 A 
ATOM     46  C   UNL A   1      41.900  32.986  32.115  1.00  0.00     0.049 A 
ATOM     47  H   UNL A   1      40.080  33.892  31.388  1.00  0.00     0.167 HD
ATOM     48  C   UNL A   1      41.819  27.380  28.743  1.00  0.00     0.037 A 
ATOM     49  C   UNL A   1      41.836  32.846  33.471  1.00  0.00     0.037 A 
ATOM     50  C   UNL A   1      42.780  27.702  29.794  1.00  0.00     0.049 A 
ATOM     51  C   UNL A   1      42.375  31.530  33.971  1.00  0.00     0.074 A 
ATOM     52  C   UNL A   1      43.938  28.461  29.783  1.00  0.00     0.029 A 
ATOM     53  N   UNL A   1      42.444  27.516  31.131  1.00  0.00    -0.354 N 
ATOM     54  N   UNL A   1      42.623  30.516  33.193  1.00  0.00    -0.248 NA
ATOM     55  C   UNL A   1      42.602  31.224  35.381  1.00  0.00     0.031 C 
ATOM     56  C   UNL A   1      44.271  28.778  31.120  1.00  0.00     0.029 A 
ATOM     57  C   UNL A   1      43.327  28.198  31.949  1.00  0.00     0.049 A 
ATOM     58  H   UNL A   1      41.686  26.976  31.450  1.00  0.00     0.167 HD
ATOM     59  C   UNL A   1      42.963  29.432  33.955  1.00  0.00     0.074 A 
ATOM     60  C   UNL A   1      42.974  29.934  35.315  1.00  0.00     0.031 C 
ATOM     61  C   UNL A   1      43.172  28.205  33.395  1.00  0.00     0.037 A 
BRANCH  48  62
ATOM     62  C   UNL A   1      42.123  26.471  27.574  1.00  0.00     0.064 A 
ATOM     63  C   UNL A   1      41.468  25.230  27.425  1.00  0.00     0.173 A 
ATOM     64  C   UNL A   1      43.096  26.746  26.597  1.00  0.00     0.173 A 
ATOM     65  F   UNL A   1      40.441  24.879  28.211  1.00  0.00    -0.203 F 
ATOM     66  C   UNL A   1      41.848  24.290  26.464  1.00  0.00     0.198 A 
ATOM     67  C   UNL A   1      43.517  25.786  25.670  1.00  0.00     0.198 A 
ATOM     68  F   UNL A   1      43.639  27.967  26.487  1.00  0.00    -0.203 F 
ATOM     69  F   UNL A   1      41.195  23.122  26.380  1.00  0.00    -0.200 F 
ATOM     70  C   UNL A   1      42.901  24.552  25.613  1.00  0.00     0.200 A 
ATOM     71  F   UNL A   1      44.528  26.065  24.836  1.00  0.00    -0.200 F 
ATOM     72  F   UNL A   1      43.305  23.629  24.729  1.00  0.00    -0.200 F 
ENDBRANCH  48  62
BRANCH  49  73
ATOM     73  C   UNL A   1      40.685  33.578  34.059  1.00  0.00     0.064 A 
ATOM     74  C   UNL A   1      39.557  32.808  34.404  1.00  0.00     0.173 A 
ATOM     75  C   UNL A   1      40.879  34.794  34.720  1.00  0.00     0.173 A 
ATOM     76  F   UNL A   1      39.312  31.654  33.765  1.00  0.00    -0.203 F 
ATOM     77  C   UNL A   1      38.800  33.123  35.526  1.00  0.00     0.198 A 
ATOM     78  C   UNL A   1      40.087  35.128  35.819  1.00  0.00     0.198 A 
ATOM     79  F   UNL A   1      41.913  35.586  34.403  1.00  0.00    -0.203 F 
ATOM     80  F   UNL A   1      37.863  32.268  35.960  1.00  0.00    -0.200 F 
ATOM     81  C   UNL A   1      39.098  34.258  36.259  1.00  0.00     0.200 A 
ATOM     82  F   UNL A   1      40.357  36.238  36.520  1.00  0.00    -0.200 F 
ATOM     83  F   UNL A   1      38.467  34.485  37.421  1.00  0.00    -0.200 F 
ENDBRANCH  49  73
BRANCH  61  84
ATOM     84  C   UNL A   1      43.358  26.930  34.171  1.00  0.00     0.064 A 
ATOM     85  C   UNL A   1      42.298  26.188  34.716  1.00  0.00     0.173 A 
ATOM     86  C   UNL A   1      44.642  26.353  34.295  1.00  0.00     0.173 A 
ATOM     87  F   UNL A   1      41.024  26.566  34.541  1.00  0.00    -0.203 F 
ATOM     88  C   UNL A   1      42.515  25.003  35.421  1.00  0.00     0.198 A 
ATOM     89  C   UNL A   1      44.849  25.140  34.948  1.00  0.00     0.198 A 
ATOM     90  F   UNL A   1      45.727  26.942  33.770  1.00  0.00    -0.203 F 
ATOM     91  F   UNL A   1      41.478  24.361  35.976  1.00  0.00    -0.200 F 
ATOM     92  C   UNL A   1      43.789  24.477  35.533  1.00  0.00     0.200 A 
ATOM     93  F   UNL A   1      46.081  24.612  34.999  1.00  0.00    -0.200 F 
ATOM     94  F   UNL A   1      43.990  23.325  36.185  1.00  0.00    -0.200 F 
ENDBRANCH  61  84
ENDBRANCH  35  36
ENDBRANCH  27  30
ENDBRANCH  25  26
ENDBRANCH  24  25
ENDBRANCH   1  24
TORSDOF 14
ENDMDL
