MODEL 1
REMARK VINA RESULT:     -13.8      0.000      0.000
REMARK SMILES Nc1ccc(C(=O)N2Cc3nc[nH]c3C[C@H]2C(=O)NCCCNC(=O)c2ccc(-c3c4nc(c(-c5c(F)c(F)c(F)c(F)c5F)c5ccc([nH]5)c(-c5c(F)c(F)c(F)c(F)c5F)c5nc(c(-c6c(F)c(F)c(F)c(F)c6F)c6ccc3[nH]6)C=C5)C=C4)cc2)cc1
REMARK SMILES IDX 20 1 19 2 17 3 18 4 16 6 8 7 9 8 10 9 15 10 11 11 14 12
REMARK SMILES IDX 12 13 13 14 6 16 7 17 5 18 2 19 3 20 90 21 4 22 89 23 1 24
REMARK SMILES IDX 21 27 22 28 23 29 24 30 25 32 26 33 27 34 88 35 28 36 87 37
REMARK SMILES IDX 29 38 30 39 31 40 81 41 32 42 86 43 80 44 82 45 33 46 85 47
REMARK SMILES IDX 79 48 78 49 34 51 66 52 46 53 65 54 47 55 50 56 64 57 83 58
REMARK SMILES IDX 48 59 49 60 63 62 84 63 51 64 35 65 36 66 44 67 37 68 38 69
REMARK SMILES IDX 42 70 45 71 39 72 40 73 43 74 41 75 67 76 68 77 76 78 69 79
REMARK SMILES IDX 70 80 74 81 77 82 71 83 72 84 75 85 73 86 52 87 53 88 61 89
REMARK SMILES IDX 54 90 55 91 59 92 62 93 56 94 57 95 60 96 58 97
REMARK H PARENT 19 5 13 15 1 25 1 26 23 31 82 50 50 61
REMARK Flexibility Score: inf
ROOT
ATOM      1  C   UNL A   1      36.407  20.915  25.373  1.00  0.00     0.117 C 
ENDROOT
BRANCH   1   2
ATOM      2  N   UNL A   1      35.759  21.710  26.397  1.00  0.00    -0.354 N 
ATOM      3  C   UNL A   1      34.657  22.507  26.351  1.00  0.00     0.243 C 
ATOM      4  O   UNL A   1      34.061  22.632  27.431  1.00  0.00    -0.273 OA
ATOM      5  H   UNL A   1      36.192  21.667  27.280  1.00  0.00     0.163 HD
BRANCH   3   6
ATOM      6  C   UNL A   1      34.097  23.216  25.087  1.00  0.00     0.181 C 
ATOM      7  N   UNL A   1      32.754  22.775  24.563  1.00  0.00    -0.320 N 
ATOM      8  C   UNL A   1      31.524  23.546  24.863  1.00  0.00     0.178 C 
ATOM      9  C   UNL A   1      31.809  24.858  25.490  1.00  0.00     0.081 A 
ATOM     10  C   UNL A   1      34.307  24.760  25.163  1.00  0.00     0.091 C 
ATOM     11  N   UNL A   1      30.896  25.594  26.200  1.00  0.00    -0.240 NA
ATOM     12  C   UNL A   1      33.058  25.412  25.607  1.00  0.00     0.042 A 
ATOM     13  C   UNL A   1      31.582  26.582  26.732  1.00  0.00     0.197 A 
ATOM     14  N   UNL A   1      32.899  26.546  26.352  1.00  0.00    -0.348 N 
ATOM     15  H   UNL A   1      33.594  27.209  26.571  1.00  0.00     0.167 HD
BRANCH   7  16
ATOM     16  C   UNL A   1      32.555  21.747  23.628  1.00  0.00     0.254 C 
ATOM     17  O   UNL A   1      32.218  21.988  22.467  1.00  0.00    -0.269 OA
BRANCH  16  18
ATOM     18  C   UNL A   1      32.672  20.309  23.980  1.00  0.00     0.040 A 
ATOM     19  C   UNL A   1      32.528  17.558  24.611  1.00  0.00     0.031 A 
ATOM     20  C   UNL A   1      32.414  17.990  23.289  1.00  0.00     0.026 A 
ATOM     21  C   UNL A   1      32.653  18.518  25.616  1.00  0.00     0.026 A 
ATOM     22  C   UNL A   1      32.501  19.351  22.971  1.00  0.00     0.016 A 
ATOM     23  C   UNL A   1      32.697  19.882  25.306  1.00  0.00     0.016 A 
BRANCH  19  24
ATOM     24  N   UNL A   1      32.353  16.223  24.939  1.00  0.00    -0.399 N 
ATOM     25  H   UNL A   1      32.501  15.525  24.260  1.00  0.00     0.156 HD
ATOM     26  H   UNL A   1      32.081  15.972  25.851  1.00  0.00     0.156 HD
ENDBRANCH  19  24
ENDBRANCH  16  18
ENDBRANCH   7  16
ENDBRANCH   3   6
ENDBRANCH   1   2
BRANCH   1  27
ATOM     27  C   UNL A   1      37.757  21.455  24.907  1.00  0.00     0.042 C 
BRANCH  27  28
ATOM     28  C   UNL A   1      38.314  22.480  25.871  1.00  0.00     0.118 C 
BRANCH  28  29
ATOM     29  N   UNL A   1      39.322  21.943  26.809  1.00  0.00    -0.352 N 
ATOM     30  C   UNL A   1      40.406  22.601  27.401  1.00  0.00     0.251 C 
ATOM     31  H   UNL A   1      39.217  20.993  27.051  1.00  0.00     0.163 HD
ATOM     32  O   UNL A   1      41.332  22.001  27.905  1.00  0.00    -0.269 OA
BRANCH  30  33
ATOM     33  C   UNL A   1      40.361  24.077  27.427  1.00  0.00     0.039 A 
ATOM     34  C   UNL A   1      39.225  24.863  27.196  1.00  0.00     0.014 A 
ATOM     35  C   UNL A   1      41.504  24.650  27.922  1.00  0.00     0.014 A 
ATOM     36  C   UNL A   1      39.289  26.215  27.550  1.00  0.00     0.010 A 
ATOM     37  C   UNL A   1      41.265  25.677  28.766  1.00  0.00     0.010 A 
ATOM     38  C   UNL A   1      40.364  26.616  28.342  1.00  0.00    -0.014 A 
BRANCH  38  39
ATOM     39  C   UNL A   1      40.630  27.936  28.879  1.00  0.00     0.031 A 
ATOM     40  C   UNL A   1      41.794  28.616  28.278  1.00  0.00     0.074 A 
ATOM     41  C   UNL A   1      39.703  28.595  29.619  1.00  0.00     0.049 A 
ATOM     42  N   UNL A   1      42.939  28.827  28.828  1.00  0.00    -0.248 NA
ATOM     43  C   UNL A   1      41.746  28.950  26.847  1.00  0.00     0.031 C 
ATOM     44  C   UNL A   1      38.329  28.205  29.986  1.00  0.00     0.029 A 
ATOM     45  N   UNL A   1      39.792  29.843  30.149  1.00  0.00    -0.354 N 
ATOM     46  C   UNL A   1      43.698  29.508  27.882  1.00  0.00     0.074 A 
ATOM     47  C   UNL A   1      42.999  29.357  26.633  1.00  0.00     0.031 C 
ATOM     48  C   UNL A   1      37.660  29.272  30.482  1.00  0.00     0.029 A 
ATOM     49  C   UNL A   1      38.595  30.364  30.637  1.00  0.00     0.049 A 
ATOM     50  H   UNL A   1      40.640  30.342  30.185  1.00  0.00     0.167 HD
ATOM     51  C   UNL A   1      44.707  30.338  28.270  1.00  0.00     0.037 A 
ATOM     52  C   UNL A   1      38.424  31.627  31.105  1.00  0.00     0.037 A 
ATOM     53  C   UNL A   1      45.014  30.137  29.669  1.00  0.00     0.049 A 
ATOM     54  C   UNL A   1      39.784  32.138  31.447  1.00  0.00     0.074 A 
ATOM     55  C   UNL A   1      45.460  29.057  30.409  1.00  0.00     0.029 A 
ATOM     56  N   UNL A   1      44.453  31.002  30.580  1.00  0.00    -0.354 N 
ATOM     57  N   UNL A   1      40.517  31.632  32.405  1.00  0.00    -0.248 NA
ATOM     58  C   UNL A   1      40.521  32.815  30.388  1.00  0.00     0.031 C 
ATOM     59  C   UNL A   1      44.685  29.093  31.609  1.00  0.00     0.029 A 
ATOM     60  C   UNL A   1      43.890  30.240  31.576  1.00  0.00     0.049 A 
ATOM     61  H   UNL A   1      44.453  31.984  30.529  1.00  0.00     0.167 HD
ATOM     62  C   UNL A   1      41.801  31.563  31.878  1.00  0.00     0.074 A 
ATOM     63  C   UNL A   1      41.747  32.348  30.643  1.00  0.00     0.031 C 
ATOM     64  C   UNL A   1      42.704  30.630  32.309  1.00  0.00     0.037 A 
BRANCH  51  65
ATOM     65  C   UNL A   1      45.169  31.567  27.525  1.00  0.00     0.064 A 
ATOM     66  C   UNL A   1      46.483  31.590  27.012  1.00  0.00     0.173 A 
ATOM     67  C   UNL A   1      44.506  32.813  27.539  1.00  0.00     0.173 A 
ATOM     68  F   UNL A   1      47.209  30.463  26.939  1.00  0.00    -0.203 F 
ATOM     69  C   UNL A   1      47.117  32.780  26.648  1.00  0.00     0.198 A 
ATOM     70  C   UNL A   1      45.125  33.992  27.124  1.00  0.00     0.198 A 
ATOM     71  F   UNL A   1      43.280  32.971  28.048  1.00  0.00    -0.203 F 
ATOM     72  F   UNL A   1      48.409  32.763  26.298  1.00  0.00    -0.200 F 
ATOM     73  C   UNL A   1      46.441  33.983  26.716  1.00  0.00     0.200 A 
ATOM     74  F   UNL A   1      44.454  35.150  27.206  1.00  0.00    -0.200 F 
ATOM     75  F   UNL A   1      47.066  35.133  26.436  1.00  0.00    -0.200 F 
ENDBRANCH  51  65
BRANCH  52  76
ATOM     76  C   UNL A   1      37.245  32.510  30.915  1.00  0.00     0.064 A 
ATOM     77  C   UNL A   1      36.954  33.083  29.667  1.00  0.00     0.173 A 
ATOM     78  C   UNL A   1      36.227  32.585  31.889  1.00  0.00     0.173 A 
ATOM     79  F   UNL A   1      37.849  33.017  28.671  1.00  0.00    -0.203 F 
ATOM     80  C   UNL A   1      35.712  33.676  29.402  1.00  0.00     0.198 A 
ATOM     81  C   UNL A   1      34.990  33.178  31.624  1.00  0.00     0.198 A 
ATOM     82  F   UNL A   1      36.378  32.004  33.088  1.00  0.00    -0.203 F 
ATOM     83  F   UNL A   1      35.449  34.165  28.182  1.00  0.00    -0.200 F 
ATOM     84  C   UNL A   1      34.728  33.713  30.377  1.00  0.00     0.200 A 
ATOM     85  F   UNL A   1      34.036  33.171  32.565  1.00  0.00    -0.200 F 
ATOM     86  F   UNL A   1      33.519  34.223  30.106  1.00  0.00    -0.200 F 
ENDBRANCH  52  76
BRANCH  64  87
ATOM     87  C   UNL A   1      42.343  29.784  33.505  1.00  0.00     0.064 A 
ATOM     88  C   UNL A   1      41.787  28.494  33.423  1.00  0.00     0.173 A 
ATOM     89  C   UNL A   1      42.745  30.220  34.773  1.00  0.00     0.173 A 
ATOM     90  F   UNL A   1      41.467  27.956  32.242  1.00  0.00    -0.203 F 
ATOM     91  C   UNL A   1      41.608  27.700  34.556  1.00  0.00     0.198 A 
ATOM     92  C   UNL A   1      42.599  29.413  35.901  1.00  0.00     0.198 A 
ATOM     93  F   UNL A   1      43.338  31.416  34.914  1.00  0.00    -0.203 F 
ATOM     94  F   UNL A   1      41.073  26.474  34.442  1.00  0.00    -0.200 F 
ATOM     95  C   UNL A   1      42.022  28.158  35.793  1.00  0.00     0.200 A 
ATOM     96  F   UNL A   1      43.049  29.842  37.087  1.00  0.00    -0.200 F 
ATOM     97  F   UNL A   1      41.893  27.380  36.877  1.00  0.00    -0.200 F 
ENDBRANCH  64  87
ENDBRANCH  38  39
ENDBRANCH  30  33
ENDBRANCH  28  29
ENDBRANCH  27  28
ENDBRANCH   1  27
TORSDOF 13
ENDMDL
MODEL 2
REMARK VINA RESULT:     -13.6      3.573      7.958
REMARK SMILES Nc1ccc(C(=O)N2Cc3nc[nH]c3C[C@H]2C(=O)NCCCNC(=O)c2ccc(-c3c4nc(c(-c5c(F)c(F)c(F)c(F)c5F)c5ccc([nH]5)c(-c5c(F)c(F)c(F)c(F)c5F)c5nc(c(-c6c(F)c(F)c(F)c(F)c6F)c6ccc3[nH]6)C=C5)C=C4)cc2)cc1
REMARK SMILES IDX 20 1 19 2 17 3 18 4 16 6 8 7 9 8 10 9 15 10 11 11 14 12
REMARK SMILES IDX 12 13 13 14 6 16 7 17 5 18 2 19 3 20 90 21 4 22 89 23 1 24
REMARK SMILES IDX 21 27 22 28 23 29 24 30 25 32 26 33 27 34 88 35 28 36 87 37
REMARK SMILES IDX 29 38 30 39 31 40 81 41 32 42 86 43 80 44 82 45 33 46 85 47
REMARK SMILES IDX 79 48 78 49 34 51 66 52 46 53 65 54 47 55 50 56 64 57 83 58
REMARK SMILES IDX 48 59 49 60 63 62 84 63 51 64 35 65 36 66 44 67 37 68 38 69
REMARK SMILES IDX 42 70 45 71 39 72 40 73 43 74 41 75 67 76 68 77 76 78 69 79
REMARK SMILES IDX 70 80 74 81 77 82 71 83 72 84 75 85 73 86 52 87 53 88 61 89
REMARK SMILES IDX 54 90 55 91 59 92 62 93 56 94 57 95 60 96 58 97
REMARK H PARENT 19 5 13 15 1 25 1 26 23 31 82 50 50 61
REMARK Flexibility Score: inf
ROOT
ATOM      1  C   UNL A   1      31.934  30.141  26.665  1.00  0.00     0.117 C 
ENDROOT
BRANCH   1   2
ATOM      2  N   UNL A   1      32.929  29.687  25.714  1.00  0.00    -0.354 N 
ATOM      3  C   UNL A   1      32.966  28.593  24.908  1.00  0.00     0.243 C 
ATOM      4  O   UNL A   1      33.643  28.728  23.878  1.00  0.00    -0.273 OA
ATOM      5  H   UNL A   1      33.717  30.274  25.640  1.00  0.00     0.163 HD
BRANCH   3   6
ATOM      6  C   UNL A   1      32.224  27.250  25.159  1.00  0.00     0.181 C 
ATOM      7  N   UNL A   1      31.360  26.700  24.052  1.00  0.00    -0.320 N 
ATOM      8  C   UNL A   1      31.853  25.624  23.159  1.00  0.00     0.178 C 
ATOM      9  C   UNL A   1      33.123  25.025  23.631  1.00  0.00     0.081 A 
ATOM     10  C   UNL A   1      33.155  26.210  25.856  1.00  0.00     0.091 C 
ATOM     11  N   UNL A   1      33.982  24.303  22.842  1.00  0.00    -0.240 NA
ATOM     12  C   UNL A   1      33.698  25.274  24.851  1.00  0.00     0.042 A 
ATOM     13  C   UNL A   1      35.055  24.111  23.577  1.00  0.00     0.197 A 
ATOM     14  N   UNL A   1      34.908  24.638  24.835  1.00  0.00    -0.348 N 
ATOM     15  H   UNL A   1      35.547  24.571  25.581  1.00  0.00     0.167 HD
BRANCH   7  16
ATOM     16  C   UNL A   1      30.001  26.998  23.871  1.00  0.00     0.254 C 
ATOM     17  O   UNL A   1      29.117  26.206  24.208  1.00  0.00    -0.269 OA
BRANCH  16  18
ATOM     18  C   UNL A   1      29.533  28.243  23.212  1.00  0.00     0.040 A 
ATOM     19  C   UNL A   1      28.514  30.396  21.689  1.00  0.00     0.031 A 
ATOM     20  C   UNL A   1      27.657  29.586  22.436  1.00  0.00     0.026 A 
ATOM     21  C   UNL A   1      29.873  30.081  21.665  1.00  0.00     0.026 A 
ATOM     22  C   UNL A   1      28.161  28.529  23.204  1.00  0.00     0.016 A 
ATOM     23  C   UNL A   1      30.374  28.998  22.398  1.00  0.00     0.016 A 
BRANCH  19  24
ATOM     24  N   UNL A   1      28.012  31.385  20.859  1.00  0.00    -0.399 N 
ATOM     25  H   UNL A   1      27.455  32.106  21.233  1.00  0.00     0.156 HD
ATOM     26  H   UNL A   1      28.213  31.367  19.895  1.00  0.00     0.156 HD
ENDBRANCH  19  24
ENDBRANCH  16  18
ENDBRANCH   7  16
ENDBRANCH   3   6
ENDBRANCH   1   2
BRANCH   1  27
ATOM     27  C   UNL A   1      31.689  31.649  26.659  1.00  0.00     0.042 C 
BRANCH  27  28
ATOM     28  C   UNL A   1      32.831  32.406  27.298  1.00  0.00     0.118 C 
BRANCH  28  29
ATOM     29  N   UNL A   1      32.523  33.817  27.609  1.00  0.00    -0.352 N 
ATOM     30  C   UNL A   1      33.023  34.616  28.644  1.00  0.00     0.251 C 
ATOM     31  H   UNL A   1      31.877  34.255  27.007  1.00  0.00     0.163 HD
ATOM     32  O   UNL A   1      32.483  35.646  28.987  1.00  0.00    -0.269 OA
BRANCH  30  33
ATOM     33  C   UNL A   1      34.277  34.173  29.286  1.00  0.00     0.039 A 
ATOM     34  C   UNL A   1      34.368  33.365  30.427  1.00  0.00     0.014 A 
ATOM     35  C   UNL A   1      35.396  34.438  28.540  1.00  0.00     0.014 A 
ATOM     36  C   UNL A   1      35.613  32.799  30.722  1.00  0.00     0.010 A 
ATOM     37  C   UNL A   1      36.280  33.417  28.521  1.00  0.00     0.010 A 
ATOM     38  C   UNL A   1      36.592  32.859  29.732  1.00  0.00    -0.014 A 
BRANCH  38  39
ATOM     39  C   UNL A   1      37.932  32.309  29.771  1.00  0.00     0.031 A 
ATOM     40  C   UNL A   1      38.047  30.940  29.232  1.00  0.00     0.074 A 
ATOM     41  C   UNL A   1      39.013  33.104  29.977  1.00  0.00     0.049 A 
ATOM     42  N   UNL A   1      38.238  29.856  29.900  1.00  0.00    -0.248 NA
ATOM     43  C   UNL A   1      37.744  30.722  27.809  1.00  0.00     0.031 C 
ATOM     44  C   UNL A   1      39.098  34.566  30.149  1.00  0.00     0.029 A 
ATOM     45  N   UNL A   1      40.323  32.742  29.998  1.00  0.00    -0.354 N 
ATOM     46  C   UNL A   1      38.288  28.831  28.961  1.00  0.00     0.074 A 
ATOM     47  C   UNL A   1      37.764  29.389  27.742  1.00  0.00     0.031 C 
ATOM     48  C   UNL A   1      40.384  34.973  30.040  1.00  0.00     0.029 A 
ATOM     49  C   UNL A   1      41.229  33.801  29.971  1.00  0.00     0.049 A 
ATOM     50  H   UNL A   1      40.610  31.801  30.029  1.00  0.00     0.167 HD
ATOM     51  C   UNL A   1      38.984  27.689  29.218  1.00  0.00     0.037 A 
ATOM     52  C   UNL A   1      42.577  33.676  29.872  1.00  0.00     0.037 A 
ATOM     53  C   UNL A   1      39.339  27.620  30.618  1.00  0.00     0.049 A 
ATOM     54  C   UNL A   1      42.902  32.279  30.287  1.00  0.00     0.074 A 
ATOM     55  C   UNL A   1      38.610  27.579  31.792  1.00  0.00     0.029 A 
ATOM     56  N   UNL A   1      40.601  28.030  30.981  1.00  0.00    -0.354 N 
ATOM     57  N   UNL A   1      42.716  31.834  31.503  1.00  0.00    -0.248 NA
ATOM     58  C   UNL A   1      42.905  31.263  29.243  1.00  0.00     0.031 C 
ATOM     59  C   UNL A   1      39.305  28.454  32.683  1.00  0.00     0.029 A 
ATOM     60  C   UNL A   1      40.463  28.895  32.040  1.00  0.00     0.049 A 
ATOM     61  H   UNL A   1      41.447  27.754  30.562  1.00  0.00     0.167 HD
ATOM     62  C   UNL A   1      42.176  30.563  31.342  1.00  0.00     0.074 A 
ATOM     63  C   UNL A   1      42.356  30.251  29.923  1.00  0.00     0.031 C 
ATOM     64  C   UNL A   1      41.354  30.010  32.285  1.00  0.00     0.037 A 
BRANCH  51  65
ATOM     65  C   UNL A   1      39.662  26.822  28.184  1.00  0.00     0.064 A 
ATOM     66  C   UNL A   1      39.525  25.422  28.284  1.00  0.00     0.173 A 
ATOM     67  C   UNL A   1      40.658  27.267  27.288  1.00  0.00     0.173 A 
ATOM     68  F   UNL A   1      38.603  24.881  29.096  1.00  0.00    -0.203 F 
ATOM     69  C   UNL A   1      40.387  24.542  27.627  1.00  0.00     0.198 A 
ATOM     70  C   UNL A   1      41.484  26.385  26.592  1.00  0.00     0.198 A 
ATOM     71  F   UNL A   1      40.953  28.560  27.124  1.00  0.00    -0.203 F 
ATOM     72  F   UNL A   1      40.302  23.227  27.863  1.00  0.00    -0.200 F 
ATOM     73  C   UNL A   1      41.376  25.025  26.790  1.00  0.00     0.200 A 
ATOM     74  F   UNL A   1      42.442  26.874  25.792  1.00  0.00    -0.200 F 
ATOM     75  F   UNL A   1      42.250  24.191  26.214  1.00  0.00    -0.200 F 
ENDBRANCH  51  65
BRANCH  52  76
ATOM     76  C   UNL A   1      43.511  34.536  29.103  1.00  0.00     0.064 A 
ATOM     77  C   UNL A   1      43.789  34.288  27.749  1.00  0.00     0.173 A 
ATOM     78  C   UNL A   1      43.936  35.783  29.608  1.00  0.00     0.173 A 
ATOM     79  F   UNL A   1      43.381  33.146  27.177  1.00  0.00    -0.203 F 
ATOM     80  C   UNL A   1      44.432  35.238  26.944  1.00  0.00     0.198 A 
ATOM     81  C   UNL A   1      44.579  36.728  28.805  1.00  0.00     0.198 A 
ATOM     82  F   UNL A   1      43.653  36.147  30.867  1.00  0.00    -0.203 F 
ATOM     83  F   UNL A   1      44.632  34.988  25.642  1.00  0.00    -0.200 F 
ATOM     84  C   UNL A   1      44.816  36.461  27.470  1.00  0.00     0.200 A 
ATOM     85  F   UNL A   1      44.909  37.921  29.319  1.00  0.00    -0.200 F 
ATOM     86  F   UNL A   1      45.375  37.394  26.687  1.00  0.00    -0.200 F 
ENDBRANCH  52  76
BRANCH  64  87
ATOM     87  C   UNL A   1      41.186  30.729  33.600  1.00  0.00     0.064 A 
ATOM     88  C   UNL A   1      40.165  31.659  33.868  1.00  0.00     0.173 A 
ATOM     89  C   UNL A   1      41.975  30.326  34.684  1.00  0.00     0.173 A 
ATOM     90  F   UNL A   1      39.300  32.025  32.918  1.00  0.00    -0.203 F 
ATOM     91  C   UNL A   1      39.970  32.185  35.146  1.00  0.00     0.198 A 
ATOM     92  C   UNL A   1      41.758  30.825  35.968  1.00  0.00     0.198 A 
ATOM     93  F   UNL A   1      42.928  29.397  34.510  1.00  0.00    -0.203 F 
ATOM     94  F   UNL A   1      38.986  33.071  35.366  1.00  0.00    -0.200 F 
ATOM     95  C   UNL A   1      40.762  31.761  36.196  1.00  0.00     0.200 A 
ATOM     96  F   UNL A   1      42.496  30.372  36.990  1.00  0.00    -0.200 F 
ATOM     97  F   UNL A   1      40.549  32.230  37.433  1.00  0.00    -0.200 F 
ENDBRANCH  64  87
ENDBRANCH  38  39
ENDBRANCH  30  33
ENDBRANCH  28  29
ENDBRANCH  27  28
ENDBRANCH   1  27
TORSDOF 13
ENDMDL
MODEL 3
REMARK VINA RESULT:     -13.5      5.418     11.129
REMARK SMILES Nc1ccc(C(=O)N2Cc3nc[nH]c3C[C@H]2C(=O)NCCCNC(=O)c2ccc(-c3c4nc(c(-c5c(F)c(F)c(F)c(F)c5F)c5ccc([nH]5)c(-c5c(F)c(F)c(F)c(F)c5F)c5nc(c(-c6c(F)c(F)c(F)c(F)c6F)c6ccc3[nH]6)C=C5)C=C4)cc2)cc1
REMARK SMILES IDX 20 1 19 2 17 3 18 4 16 6 8 7 9 8 10 9 15 10 11 11 14 12
REMARK SMILES IDX 12 13 13 14 6 16 7 17 5 18 2 19 3 20 90 21 4 22 89 23 1 24
REMARK SMILES IDX 21 27 22 28 23 29 24 30 25 32 26 33 27 34 88 35 28 36 87 37
REMARK SMILES IDX 29 38 30 39 31 40 81 41 32 42 86 43 80 44 82 45 33 46 85 47
REMARK SMILES IDX 79 48 78 49 34 51 66 52 46 53 65 54 47 55 50 56 64 57 83 58
REMARK SMILES IDX 48 59 49 60 63 62 84 63 51 64 35 65 36 66 44 67 37 68 38 69
REMARK SMILES IDX 42 70 45 71 39 72 40 73 43 74 41 75 67 76 68 77 76 78 69 79
REMARK SMILES IDX 70 80 74 81 77 82 71 83 72 84 75 85 73 86 52 87 53 88 61 89
REMARK SMILES IDX 54 90 55 91 59 92 62 93 56 94 57 95 60 96 58 97
REMARK H PARENT 19 5 13 15 1 25 1 26 23 31 82 50 50 61
REMARK Flexibility Score: inf
ROOT
ATOM      1  C   UNL A   1      34.950  32.771  32.205  1.00  0.00     0.117 C 
ENDROOT
BRANCH   1   2
ATOM      2  N   UNL A   1      35.536  31.466  31.966  1.00  0.00    -0.354 N 
ATOM      3  C   UNL A   1      36.642  30.870  32.487  1.00  0.00     0.243 C 
ATOM      4  O   UNL A   1      36.606  29.631  32.503  1.00  0.00    -0.273 OA
ATOM      5  H   UNL A   1      35.048  30.915  31.312  1.00  0.00     0.163 HD
BRANCH   3   6
ATOM      6  C   UNL A   1      37.882  31.603  33.070  1.00  0.00     0.181 C 
ATOM      7  N   UNL A   1      37.732  33.051  33.464  1.00  0.00    -0.320 N 
ATOM      8  C   UNL A   1      37.525  33.442  34.878  1.00  0.00     0.178 C 
ATOM      9  C   UNL A   1      37.730  32.317  35.820  1.00  0.00     0.081 A 
ATOM     10  C   UNL A   1      38.635  30.707  34.103  1.00  0.00     0.091 C 
ATOM     11  N   UNL A   1      37.254  32.283  37.106  1.00  0.00    -0.240 NA
ATOM     12  C   UNL A   1      38.247  31.094  35.475  1.00  0.00     0.042 A 
ATOM     13  C   UNL A   1      37.488  31.062  37.533  1.00  0.00     0.197 A 
ATOM     14  N   UNL A   1      38.145  30.312  36.591  1.00  0.00    -0.348 N 
ATOM     15  H   UNL A   1      38.479  29.392  36.698  1.00  0.00     0.167 HD
BRANCH   7  16
ATOM     16  C   UNL A   1      37.945  34.141  32.607  1.00  0.00     0.254 C 
ATOM     17  O   UNL A   1      37.210  35.132  32.629  1.00  0.00    -0.269 OA
BRANCH  16  18
ATOM     18  C   UNL A   1      39.015  34.156  31.578  1.00  0.00     0.040 A 
ATOM     19  C   UNL A   1      41.174  34.490  29.784  1.00  0.00     0.031 A 
ATOM     20  C   UNL A   1      41.389  33.991  31.069  1.00  0.00     0.026 A 
ATOM     21  C   UNL A   1      39.881  34.876  29.429  1.00  0.00     0.026 A 
ATOM     22  C   UNL A   1      40.319  33.808  31.954  1.00  0.00     0.016 A 
ATOM     23  C   UNL A   1      38.816  34.736  30.326  1.00  0.00     0.016 A 
BRANCH  19  24
ATOM     24  N   UNL A   1      42.239  34.755  28.938  1.00  0.00    -0.399 N 
ATOM     25  H   UNL A   1      42.076  34.928  27.982  1.00  0.00     0.156 HD
ATOM     26  H   UNL A   1      43.157  34.771  29.292  1.00  0.00     0.156 HD
ENDBRANCH  19  24
ENDBRANCH  16  18
ENDBRANCH   7  16
ENDBRANCH   3   6
ENDBRANCH   1   2
BRANCH   1  27
ATOM     27  C   UNL A   1      34.302  33.411  30.979  1.00  0.00     0.042 C 
BRANCH  27  28
ATOM     28  C   UNL A   1      35.037  33.055  29.706  1.00  0.00     0.118 C 
BRANCH  28  29
ATOM     29  N   UNL A   1      34.424  31.947  28.943  1.00  0.00    -0.352 N 
ATOM     30  C   UNL A   1      35.039  31.032  28.081  1.00  0.00     0.251 C 
ATOM     31  H   UNL A   1      33.452  31.838  29.057  1.00  0.00     0.163 HD
ATOM     32  O   UNL A   1      34.410  30.370  27.283  1.00  0.00    -0.269 OA
BRANCH  30  33
ATOM     33  C   UNL A   1      36.501  30.870  28.207  1.00  0.00     0.039 A 
ATOM     34  C   UNL A   1      37.359  31.723  28.913  1.00  0.00     0.014 A 
ATOM     35  C   UNL A   1      36.959  29.662  27.748  1.00  0.00     0.014 A 
ATOM     36  C   UNL A   1      38.654  31.265  29.180  1.00  0.00     0.010 A 
ATOM     37  C   UNL A   1      37.886  29.100  28.554  1.00  0.00     0.010 A 
ATOM     38  C   UNL A   1      38.909  29.912  28.965  1.00  0.00    -0.014 A 
BRANCH  38  39
ATOM     39  C   UNL A   1      40.140  29.188  29.209  1.00  0.00     0.031 A 
ATOM     40  C   UNL A   1      40.391  28.871  30.628  1.00  0.00     0.074 A 
ATOM     41  C   UNL A   1      40.814  28.583  28.197  1.00  0.00     0.049 A 
ATOM     42  N   UNL A   1      41.269  29.411  31.401  1.00  0.00    -0.248 NA
ATOM     43  C   UNL A   1      39.451  27.978  31.322  1.00  0.00     0.031 C 
ATOM     44  C   UNL A   1      40.482  28.479  26.764  1.00  0.00     0.029 A 
ATOM     45  N   UNL A   1      41.949  27.840  28.278  1.00  0.00    -0.354 N 
ATOM     46  C   UNL A   1      41.134  28.780  32.633  1.00  0.00     0.074 A 
ATOM     47  C   UNL A   1      39.876  28.082  32.583  1.00  0.00     0.031 C 
ATOM     48  C   UNL A   1      41.270  27.552  26.171  1.00  0.00     0.029 A 
ATOM     49  C   UNL A   1      42.272  27.128  27.125  1.00  0.00     0.049 A 
ATOM     50  H   UNL A   1      42.502  27.807  29.092  1.00  0.00     0.167 HD
ATOM     51  C   UNL A   1      42.191  28.696  33.488  1.00  0.00     0.037 A 
ATOM     52  C   UNL A   1      43.290  26.238  27.013  1.00  0.00     0.037 A 
ATOM     53  C   UNL A   1      43.256  29.578  33.059  1.00  0.00     0.049 A 
ATOM     54  C   UNL A   1      44.236  26.538  28.128  1.00  0.00     0.074 A 
ATOM     55  C   UNL A   1      43.357  30.945  32.881  1.00  0.00     0.029 A 
ATOM     56  N   UNL A   1      44.284  29.032  32.325  1.00  0.00    -0.354 N 
ATOM     57  N   UNL A   1      44.911  27.656  28.211  1.00  0.00    -0.248 NA
ATOM     58  C   UNL A   1      44.005  25.852  29.393  1.00  0.00     0.031 C 
ATOM     59  C   UNL A   1      44.085  31.099  31.661  1.00  0.00     0.029 A 
ATOM     60  C   UNL A   1      44.469  29.831  31.223  1.00  0.00     0.049 A 
ATOM     61  H   UNL A   1      44.792  28.220  32.547  1.00  0.00     0.167 HD
ATOM     62  C   UNL A   1      44.836  28.024  29.549  1.00  0.00     0.074 A 
ATOM     63  C   UNL A   1      44.299  26.848  30.236  1.00  0.00     0.031 C 
ATOM     64  C   UNL A   1      44.911  29.333  29.937  1.00  0.00     0.037 A 
BRANCH  51  65
ATOM     65  C   UNL A   1      42.433  27.585  34.481  1.00  0.00     0.064 A 
ATOM     66  C   UNL A   1      43.019  26.387  34.023  1.00  0.00     0.173 A 
ATOM     67  C   UNL A   1      41.867  27.523  35.772  1.00  0.00     0.173 A 
ATOM     68  F   UNL A   1      43.600  26.328  32.814  1.00  0.00    -0.203 F 
ATOM     69  C   UNL A   1      42.946  25.198  34.751  1.00  0.00     0.198 A 
ATOM     70  C   UNL A   1      41.842  26.346  36.520  1.00  0.00     0.198 A 
ATOM     71  F   UNL A   1      41.222  28.554  36.326  1.00  0.00    -0.203 F 
ATOM     72  F   UNL A   1      43.397  24.059  34.211  1.00  0.00    -0.200 F 
ATOM     73  C   UNL A   1      42.345  25.175  35.995  1.00  0.00     0.200 A 
ATOM     74  F   UNL A   1      41.246  26.344  37.722  1.00  0.00    -0.200 F 
ATOM     75  F   UNL A   1      42.208  24.025  36.666  1.00  0.00    -0.200 F 
ENDBRANCH  51  65
BRANCH  52  76
ATOM     76  C   UNL A   1      43.294  24.956  26.264  1.00  0.00     0.064 A 
ATOM     77  C   UNL A   1      44.212  24.716  25.229  1.00  0.00     0.173 A 
ATOM     78  C   UNL A   1      42.577  23.836  26.734  1.00  0.00     0.173 A 
ATOM     79  F   UNL A   1      44.966  25.717  24.752  1.00  0.00    -0.203 F 
ATOM     80  C   UNL A   1      44.416  23.430  24.710  1.00  0.00     0.198 A 
ATOM     81  C   UNL A   1      42.780  22.554  26.216  1.00  0.00     0.198 A 
ATOM     82  F   UNL A   1      41.732  23.945  27.769  1.00  0.00    -0.203 F 
ATOM     83  F   UNL A   1      45.340  23.229  23.760  1.00  0.00    -0.200 F 
ATOM     84  C   UNL A   1      43.708  22.349  25.213  1.00  0.00     0.200 A 
ATOM     85  F   UNL A   1      42.117  21.514  26.738  1.00  0.00    -0.200 F 
ATOM     86  F   UNL A   1      43.948  21.109  24.762  1.00  0.00    -0.200 F 
ENDBRANCH  52  76
BRANCH  64  87
ATOM     87  C   UNL A   1      45.264  30.369  28.899  1.00  0.00     0.064 A 
ATOM     88  C   UNL A   1      44.318  31.112  28.169  1.00  0.00     0.173 A 
ATOM     89  C   UNL A   1      46.605  30.752  28.770  1.00  0.00     0.173 A 
ATOM     90  F   UNL A   1      43.008  30.883  28.307  1.00  0.00    -0.203 F 
ATOM     91  C   UNL A   1      44.698  32.158  27.328  1.00  0.00     0.198 A 
ATOM     92  C   UNL A   1      46.982  31.819  27.956  1.00  0.00     0.198 A 
ATOM     93  F   UNL A   1      47.552  30.125  29.484  1.00  0.00    -0.203 F 
ATOM     94  F   UNL A   1      43.769  32.845  26.646  1.00  0.00    -0.200 F 
ATOM     95  C   UNL A   1      46.030  32.515  27.229  1.00  0.00     0.200 A 
ATOM     96  F   UNL A   1      48.267  32.193  27.905  1.00  0.00    -0.200 F 
ATOM     97  F   UNL A   1      46.395  33.548  26.456  1.00  0.00    -0.200 F 
ENDBRANCH  64  87
ENDBRANCH  38  39
ENDBRANCH  30  33
ENDBRANCH  28  29
ENDBRANCH  27  28
ENDBRANCH   1  27
TORSDOF 13
ENDMDL
