MODEL 1
REMARK VINA RESULT:     -12.0      0.000      0.000
REMARK SMILES COc1ccccc1-c1nnc(SCCC(=O)NCCCNC(=O)c2ccc(-c3c4nc(c(-c5c(F)c(F)c(F)c(F)c5F)c5ccc([nH]5)c(-c5c(F)c(F)c(F)c(F)c5F)c5nc(c(-c6c(F)c(F)c(F)c(F)c6F)c6ccc3[nH]6)C=C5)C=C4)cc2)o1
REMARK SMILES IDX 16 1 17 2 18 3 15 5 14 6 13 7 12 8 9 9 10 10 88 11 11 12
REMARK SMILES IDX 8 13 3 14 4 15 5 16 7 17 6 18 2 19 1 20 19 21 20 22 21 23
REMARK SMILES IDX 22 24 23 25 24 27 25 28 26 29 87 30 27 31 86 32 28 33 29 34
REMARK SMILES IDX 30 35 80 36 31 37 85 38 79 39 81 40 32 41 84 42 78 43 77 44
REMARK SMILES IDX 33 46 65 47 45 48 64 49 46 50 49 51 63 52 82 53 47 54 48 55
REMARK SMILES IDX 62 57 83 58 50 59 34 60 35 61 43 62 36 63 37 64 41 65 44 66
REMARK SMILES IDX 38 67 39 68 42 69 40 70 66 71 67 72 75 73 68 74 69 75 73 76
REMARK SMILES IDX 76 77 70 78 71 79 74 80 72 81 51 82 52 83 60 84 53 85 54 86
REMARK SMILES IDX 58 87 61 88 55 89 56 90 59 91 57 92
REMARK H PARENT 18 4 22 26 81 45 49 56
REMARK Flexibility Score: inf
ROOT
ATOM      1  C   UNL A   1      30.594  29.311  24.044  1.00  0.00     0.220 C 
ATOM      2  O   UNL A   1      29.926  29.385  23.012  1.00  0.00    -0.275 OA
ATOM      3  N   UNL A   1      30.999  30.454  24.659  1.00  0.00    -0.356 N 
ATOM      4  H   UNL A   1      30.992  31.252  24.081  1.00  0.00     0.163 HD
ENDROOT
BRANCH   1   5
ATOM      5  C   UNL A   1      31.044  27.975  24.552  1.00  0.00     0.111 C 
BRANCH   5   6
ATOM      6  C   UNL A   1      32.489  27.733  24.123  1.00  0.00     0.090 C 
BRANCH   6   7
ATOM      7  S   UNL A   1      32.695  27.213  22.401  1.00  0.00    -0.065 SA
BRANCH   7   8
ATOM      8  C   UNL A   1      33.323  25.588  22.453  1.00  0.00     0.276 A 
ATOM      9  C   UNL A   1      34.199  23.711  22.992  1.00  0.00     0.252 A 
ATOM     10  N   UNL A   1      33.684  23.555  21.787  1.00  0.00    -0.107 NA
ATOM     11  O   UNL A   1      34.027  24.989  23.475  1.00  0.00    -0.411 OA
ATOM     12  N   UNL A   1      33.105  24.755  21.453  1.00  0.00    -0.101 NA
BRANCH   9  13
ATOM     13  C   UNL A   1      34.959  22.733  23.763  1.00  0.00     0.081 A 
ATOM     14  C   UNL A   1      34.399  21.777  24.624  1.00  0.00     0.131 A 
ATOM     15  C   UNL A   1      35.230  20.938  25.383  1.00  0.00     0.047 A 
ATOM     16  C   UNL A   1      36.609  20.938  25.187  1.00  0.00     0.004 A 
ATOM     17  C   UNL A   1      36.353  22.693  23.557  1.00  0.00     0.018 A 
ATOM     18  C   UNL A   1      37.168  21.796  24.250  1.00  0.00     0.001 A 
BRANCH  14  19
ATOM     19  O   UNL A   1      33.038  21.656  24.725  1.00  0.00    -0.496 OA
ATOM     20  C   UNL A   1      32.506  20.621  23.888  1.00  0.00     0.278 C 
ENDBRANCH  14  19
ENDBRANCH   9  13
ENDBRANCH   7   8
ENDBRANCH   6   7
ENDBRANCH   5   6
ENDBRANCH   1   5
BRANCH   3  21
ATOM     21  C   UNL A   1      31.439  30.703  26.020  1.00  0.00     0.117 C 
BRANCH  21  22
ATOM     22  C   UNL A   1      31.274  32.145  26.502  1.00  0.00     0.042 C 
BRANCH  22  23
ATOM     23  C   UNL A   1      32.528  32.807  27.072  1.00  0.00     0.118 C 
BRANCH  23  24
ATOM     24  N   UNL A   1      32.299  34.130  27.626  1.00  0.00    -0.352 N 
ATOM     25  C   UNL A   1      33.023  34.811  28.576  1.00  0.00     0.251 C 
ATOM     26  H   UNL A   1      31.514  34.607  27.272  1.00  0.00     0.163 HD
ATOM     27  O   UNL A   1      32.644  35.925  28.939  1.00  0.00    -0.269 OA
BRANCH  25  28
ATOM     28  C   UNL A   1      34.221  34.212  29.213  1.00  0.00     0.039 A 
ATOM     29  C   UNL A   1      34.022  33.311  30.264  1.00  0.00     0.014 A 
ATOM     30  C   UNL A   1      35.523  34.541  28.824  1.00  0.00     0.014 A 
ATOM     31  C   UNL A   1      35.115  32.700  30.886  1.00  0.00     0.010 A 
ATOM     32  C   UNL A   1      36.617  33.895  29.417  1.00  0.00     0.010 A 
ATOM     33  C   UNL A   1      36.424  32.963  30.450  1.00  0.00    -0.014 A 
BRANCH  33  34
ATOM     34  C   UNL A   1      37.575  32.235  31.056  1.00  0.00     0.031 A 
ATOM     35  C   UNL A   1      38.063  32.568  32.440  1.00  0.00     0.074 A 
ATOM     36  C   UNL A   1      38.195  31.266  30.352  1.00  0.00     0.049 A 
ATOM     37  N   UNL A   1      39.036  32.021  33.130  1.00  0.00    -0.248 NA
ATOM     38  C   UNL A   1      37.376  33.663  33.139  1.00  0.00     0.031 C 
ATOM     39  C   UNL A   1      37.842  30.861  28.991  1.00  0.00     0.029 A 
ATOM     40  N   UNL A   1      39.248  30.446  30.681  1.00  0.00    -0.354 N 
ATOM     41  C   UNL A   1      39.076  32.702  34.339  1.00  0.00     0.074 A 
ATOM     42  C   UNL A   1      38.060  33.732  34.273  1.00  0.00     0.031 C 
ATOM     43  C   UNL A   1      38.650  29.858  28.610  1.00  0.00     0.029 A 
ATOM     44  C   UNL A   1      39.601  29.573  29.681  1.00  0.00     0.049 A 
ATOM     45  H   UNL A   1      39.706  30.480  31.553  1.00  0.00     0.167 HD
ATOM     46  C   UNL A   1      39.874  32.479  35.412  1.00  0.00     0.037 A 
ATOM     47  C   UNL A   1      40.586  28.656  29.623  1.00  0.00     0.037 A 
ATOM     48  C   UNL A   1      40.886  31.454  35.481  1.00  0.00     0.049 A 
ATOM     49  C   UNL A   1      41.486  28.458  30.815  1.00  0.00     0.074 A 
ATOM     50  C   UNL A   1      41.707  31.123  36.547  1.00  0.00     0.029 A 
ATOM     51  N   UNL A   1      41.227  30.603  34.440  1.00  0.00    -0.354 N 
ATOM     52  N   UNL A   1      41.462  29.056  31.981  1.00  0.00    -0.248 NA
ATOM     53  C   UNL A   1      42.550  27.450  30.683  1.00  0.00     0.031 C 
ATOM     54  C   UNL A   1      42.584  30.117  36.132  1.00  0.00     0.029 A 
ATOM     55  C   UNL A   1      42.267  29.773  34.828  1.00  0.00     0.049 A 
ATOM     56  H   UNL A   1      40.793  30.591  33.557  1.00  0.00     0.167 HD
ATOM     57  C   UNL A   1      42.481  28.480  32.728  1.00  0.00     0.074 A 
ATOM     58  C   UNL A   1      43.094  27.471  31.891  1.00  0.00     0.031 C 
ATOM     59  C   UNL A   1      42.871  28.765  33.995  1.00  0.00     0.037 A 
BRANCH  46  60
ATOM     60  C   UNL A   1      39.695  33.367  36.612  1.00  0.00     0.064 A 
ATOM     61  C   UNL A   1      40.381  34.586  36.733  1.00  0.00     0.173 A 
ATOM     62  C   UNL A   1      38.783  33.027  37.622  1.00  0.00     0.173 A 
ATOM     63  F   UNL A   1      41.267  34.959  35.797  1.00  0.00    -0.203 F 
ATOM     64  C   UNL A   1      40.179  35.415  37.834  1.00  0.00     0.198 A 
ATOM     65  C   UNL A   1      38.561  33.873  38.705  1.00  0.00     0.198 A 
ATOM     66  F   UNL A   1      38.091  31.879  37.549  1.00  0.00    -0.203 F 
ATOM     67  F   UNL A   1      40.879  36.553  37.950  1.00  0.00    -0.200 F 
ATOM     68  C   UNL A   1      39.265  35.062  38.815  1.00  0.00     0.200 A 
ATOM     69  F   UNL A   1      37.663  33.539  39.642  1.00  0.00    -0.200 F 
ATOM     70  F   UNL A   1      39.064  35.867  39.867  1.00  0.00    -0.200 F 
ENDBRANCH  46  60
BRANCH  47  71
ATOM     71  C   UNL A   1      40.774  27.842  28.392  1.00  0.00     0.064 A 
ATOM     72  C   UNL A   1      40.159  26.590  28.250  1.00  0.00     0.173 A 
ATOM     73  C   UNL A   1      41.593  28.289  27.344  1.00  0.00     0.173 A 
ATOM     74  F   UNL A   1      39.388  26.107  29.236  1.00  0.00    -0.203 F 
ATOM     75  C   UNL A   1      40.373  25.807  27.117  1.00  0.00     0.198 A 
ATOM     76  C   UNL A   1      41.780  27.519  26.198  1.00  0.00     0.198 A 
ATOM     77  F   UNL A   1      42.206  29.478  27.430  1.00  0.00    -0.203 F 
ATOM     78  F   UNL A   1      39.817  24.591  27.032  1.00  0.00    -0.200 F 
ATOM     79  C   UNL A   1      41.179  26.274  26.090  1.00  0.00     0.200 A 
ATOM     80  F   UNL A   1      42.547  27.980  25.202  1.00  0.00    -0.200 F 
ATOM     81  F   UNL A   1      41.383  25.521  25.001  1.00  0.00    -0.200 F 
ENDBRANCH  47  71
BRANCH  59  82
ATOM     82  C   UNL A   1      43.996  27.951  34.573  1.00  0.00     0.064 A 
ATOM     83  C   UNL A   1      45.332  28.370  34.489  1.00  0.00     0.173 A 
ATOM     84  C   UNL A   1      43.727  26.754  35.258  1.00  0.00     0.173 A 
ATOM     85  F   UNL A   1      45.647  29.497  33.833  1.00  0.00    -0.203 F 
ATOM     86  C   UNL A   1      46.358  27.609  35.044  1.00  0.00     0.198 A 
ATOM     87  C   UNL A   1      44.752  26.014  35.840  1.00  0.00     0.198 A 
ATOM     88  F   UNL A   1      42.467  26.310  35.374  1.00  0.00    -0.203 F 
ATOM     89  F   UNL A   1      47.632  28.004  34.907  1.00  0.00    -0.200 F 
ATOM     90  C   UNL A   1      46.068  26.437  35.726  1.00  0.00     0.200 A 
ATOM     91  F   UNL A   1      44.467  24.890  36.512  1.00  0.00    -0.200 F 
ATOM     92  F   UNL A   1      47.056  25.711  36.268  1.00  0.00    -0.200 F 
ENDBRANCH  59  82
ENDBRANCH  33  34
ENDBRANCH  25  28
ENDBRANCH  23  24
ENDBRANCH  22  23
ENDBRANCH  21  22
ENDBRANCH   3  21
TORSDOF 15
ENDMDL
MODEL 2
REMARK VINA RESULT:     -11.9      1.256      1.752
REMARK SMILES COc1ccccc1-c1nnc(SCCC(=O)NCCCNC(=O)c2ccc(-c3c4nc(c(-c5c(F)c(F)c(F)c(F)c5F)c5ccc([nH]5)c(-c5c(F)c(F)c(F)c(F)c5F)c5nc(c(-c6c(F)c(F)c(F)c(F)c6F)c6ccc3[nH]6)C=C5)C=C4)cc2)o1
REMARK SMILES IDX 16 1 17 2 18 3 15 5 14 6 13 7 12 8 9 9 10 10 88 11 11 12
REMARK SMILES IDX 8 13 3 14 4 15 5 16 7 17 6 18 2 19 1 20 19 21 20 22 21 23
REMARK SMILES IDX 22 24 23 25 24 27 25 28 26 29 87 30 27 31 86 32 28 33 29 34
REMARK SMILES IDX 30 35 80 36 31 37 85 38 79 39 81 40 32 41 84 42 78 43 77 44
REMARK SMILES IDX 33 46 65 47 45 48 64 49 46 50 49 51 63 52 82 53 47 54 48 55
REMARK SMILES IDX 62 57 83 58 50 59 34 60 35 61 43 62 36 63 37 64 41 65 44 66
REMARK SMILES IDX 38 67 39 68 42 69 40 70 66 71 67 72 75 73 68 74 69 75 73 76
REMARK SMILES IDX 76 77 70 78 71 79 74 80 72 81 51 82 52 83 60 84 53 85 54 86
REMARK SMILES IDX 58 87 61 88 55 89 56 90 59 91 57 92
REMARK H PARENT 18 4 22 26 81 45 49 56
REMARK Flexibility Score: inf
ROOT
ATOM      1  C   UNL A   1      30.771  29.125  24.306  1.00  0.00     0.220 C 
ATOM      2  O   UNL A   1      30.025  29.042  23.330  1.00  0.00    -0.275 OA
ATOM      3  N   UNL A   1      31.051  30.349  24.827  1.00  0.00    -0.356 N 
ATOM      4  H   UNL A   1      30.888  31.100  24.211  1.00  0.00     0.163 HD
ENDROOT
BRANCH   1   5
ATOM      5  C   UNL A   1      31.444  27.899  24.844  1.00  0.00     0.111 C 
BRANCH   5   6
ATOM      6  C   UNL A   1      30.600  26.672  24.506  1.00  0.00     0.090 C 
BRANCH   6   7
ATOM      7  S   UNL A   1      30.164  25.635  25.925  1.00  0.00    -0.065 SA
BRANCH   7   8
ATOM      8  C   UNL A   1      31.510  24.555  26.173  1.00  0.00     0.276 A 
ATOM      9  C   UNL A   1      33.373  23.503  26.115  1.00  0.00     0.252 A 
ATOM     10  N   UNL A   1      32.708  23.037  27.155  1.00  0.00    -0.107 NA
ATOM     11  O   UNL A   1      32.663  24.461  25.425  1.00  0.00    -0.411 OA
ATOM     12  N   UNL A   1      31.522  23.729  27.202  1.00  0.00    -0.101 NA
BRANCH   9  13
ATOM     13  C   UNL A   1      34.670  23.055  25.620  1.00  0.00     0.081 A 
ATOM     14  C   UNL A   1      34.887  21.882  24.882  1.00  0.00     0.131 A 
ATOM     15  C   UNL A   1      36.192  21.503  24.527  1.00  0.00     0.047 A 
ATOM     16  C   UNL A   1      37.269  22.352  24.770  1.00  0.00     0.004 A 
ATOM     17  C   UNL A   1      35.769  23.913  25.827  1.00  0.00     0.018 A 
ATOM     18  C   UNL A   1      37.052  23.573  25.393  1.00  0.00     0.001 A 
BRANCH  14  19
ATOM     19  O   UNL A   1      33.827  21.102  24.501  1.00  0.00    -0.496 OA
ATOM     20  C   UNL A   1      33.971  19.733  24.897  1.00  0.00     0.278 C 
ENDBRANCH  14  19
ENDBRANCH   9  13
ENDBRANCH   7   8
ENDBRANCH   6   7
ENDBRANCH   5   6
ENDBRANCH   1   5
BRANCH   3  21
ATOM     21  C   UNL A   1      31.550  30.741  26.134  1.00  0.00     0.117 C 
BRANCH  21  22
ATOM     22  C   UNL A   1      31.348  32.214  26.490  1.00  0.00     0.042 C 
BRANCH  22  23
ATOM     23  C   UNL A   1      32.579  32.949  27.017  1.00  0.00     0.118 C 
BRANCH  23  24
ATOM     24  N   UNL A   1      32.284  34.229  27.640  1.00  0.00    -0.352 N 
ATOM     25  C   UNL A   1      32.964  34.887  28.636  1.00  0.00     0.251 C 
ATOM     26  H   UNL A   1      31.484  34.690  27.299  1.00  0.00     0.163 HD
ATOM     27  O   UNL A   1      32.531  35.961  29.053  1.00  0.00    -0.269 OA
BRANCH  25  28
ATOM     28  C   UNL A   1      34.179  34.307  29.258  1.00  0.00     0.039 A 
ATOM     29  C   UNL A   1      34.016  33.522  30.405  1.00  0.00     0.014 A 
ATOM     30  C   UNL A   1      35.465  34.545  28.763  1.00  0.00     0.014 A 
ATOM     31  C   UNL A   1      35.125  32.932  31.019  1.00  0.00     0.010 A 
ATOM     32  C   UNL A   1      36.571  33.918  29.353  1.00  0.00     0.010 A 
ATOM     33  C   UNL A   1      36.412  33.100  30.483  1.00  0.00    -0.014 A 
BRANCH  33  34
ATOM     34  C   UNL A   1      37.574  32.391  31.091  1.00  0.00     0.031 A 
ATOM     35  C   UNL A   1      38.085  32.763  32.456  1.00  0.00     0.074 A 
ATOM     36  C   UNL A   1      38.183  31.402  30.405  1.00  0.00     0.049 A 
ATOM     37  N   UNL A   1      39.069  32.237  33.145  1.00  0.00    -0.248 NA
ATOM     38  C   UNL A   1      37.408  33.877  33.135  1.00  0.00     0.031 C 
ATOM     39  C   UNL A   1      37.808  30.958  29.062  1.00  0.00     0.029 A 
ATOM     40  N   UNL A   1      39.242  30.593  30.740  1.00  0.00    -0.354 N 
ATOM     41  C   UNL A   1      39.129  32.953  34.334  1.00  0.00     0.074 A 
ATOM     42  C   UNL A   1      38.110  33.980  34.255  1.00  0.00     0.031 C 
ATOM     43  C   UNL A   1      38.611  29.945  28.696  1.00  0.00     0.029 A 
ATOM     44  C   UNL A   1      39.580  29.692  29.759  1.00  0.00     0.049 A 
ATOM     45  H   UNL A   1      39.715  30.652  31.602  1.00  0.00     0.167 HD
ATOM     46  C   UNL A   1      39.944  32.761  35.399  1.00  0.00     0.037 A 
ATOM     47  C   UNL A   1      40.565  28.774  29.711  1.00  0.00     0.037 A 
ATOM     48  C   UNL A   1      40.958  31.739  35.481  1.00  0.00     0.049 A 
ATOM     49  C   UNL A   1      41.484  28.611  30.893  1.00  0.00     0.074 A 
ATOM     50  C   UNL A   1      41.797  31.440  36.542  1.00  0.00     0.029 A 
ATOM     51  N   UNL A   1      41.283  30.859  34.459  1.00  0.00    -0.354 N 
ATOM     52  N   UNL A   1      41.479  29.242  32.042  1.00  0.00    -0.248 NA
ATOM     53  C   UNL A   1      42.547  27.600  30.773  1.00  0.00     0.031 C 
ATOM     54  C   UNL A   1      42.669  30.422  36.141  1.00  0.00     0.029 A 
ATOM     55  C   UNL A   1      42.331  30.040  34.853  1.00  0.00     0.049 A 
ATOM     56  H   UNL A   1      40.835  30.821  33.583  1.00  0.00     0.167 HD
ATOM     57  C   UNL A   1      42.511  28.688  32.787  1.00  0.00     0.074 A 
ATOM     58  C   UNL A   1      43.111  27.656  31.970  1.00  0.00     0.031 C 
ATOM     59  C   UNL A   1      42.922  29.009  34.039  1.00  0.00     0.037 A 
BRANCH  46  60
ATOM     60  C   UNL A   1      39.785  33.683  36.575  1.00  0.00     0.064 A 
ATOM     61  C   UNL A   1      40.440  34.923  36.632  1.00  0.00     0.173 A 
ATOM     62  C   UNL A   1      38.920  33.351  37.629  1.00  0.00     0.173 A 
ATOM     63  F   UNL A   1      41.280  35.289  35.653  1.00  0.00    -0.203 F 
ATOM     64  C   UNL A   1      40.255  35.782  37.713  1.00  0.00     0.198 A 
ATOM     65  C   UNL A   1      38.713  34.226  38.693  1.00  0.00     0.198 A 
ATOM     66  F   UNL A   1      38.258  32.184  37.620  1.00  0.00    -0.203 F 
ATOM     67  F   UNL A   1      40.926  36.941  37.767  1.00  0.00    -0.200 F 
ATOM     68  C   UNL A   1      39.387  35.437  38.738  1.00  0.00     0.200 A 
ATOM     69  F   UNL A   1      37.860  33.899  39.672  1.00  0.00    -0.200 F 
ATOM     70  F   UNL A   1      39.202  36.270  39.770  1.00  0.00    -0.200 F 
ENDBRANCH  46  60
BRANCH  47  71
ATOM     71  C   UNL A   1      40.733  27.925  28.501  1.00  0.00     0.064 A 
ATOM     72  C   UNL A   1      41.503  28.360  27.413  1.00  0.00     0.173 A 
ATOM     73  C   UNL A   1      40.107  26.674  28.397  1.00  0.00     0.173 A 
ATOM     74  F   UNL A   1      42.100  29.560  27.452  1.00  0.00    -0.203 F 
ATOM     75  C   UNL A   1      41.622  27.586  26.260  1.00  0.00     0.198 A 
ATOM     76  C   UNL A   1      40.253  25.887  27.257  1.00  0.00     0.198 A 
ATOM     77  F   UNL A   1      39.358  26.212  29.409  1.00  0.00    -0.203 F 
ATOM     78  F   UNL A   1      42.318  28.051  25.213  1.00  0.00    -0.200 F 
ATOM     79  C   UNL A   1      41.002  26.348  26.185  1.00  0.00     0.200 A 
ATOM     80  F   UNL A   1      39.664  24.685  27.195  1.00  0.00    -0.200 F 
ATOM     81  F   UNL A   1      41.117  25.604  25.077  1.00  0.00    -0.200 F 
ENDBRANCH  47  71
BRANCH  59  82
ATOM     82  C   UNL A   1      44.057  28.214  34.622  1.00  0.00     0.064 A 
ATOM     83  C   UNL A   1      45.388  28.648  34.534  1.00  0.00     0.173 A 
ATOM     84  C   UNL A   1      43.803  27.018  35.314  1.00  0.00     0.173 A 
ATOM     85  F   UNL A   1      45.688  29.775  33.871  1.00  0.00    -0.203 F 
ATOM     86  C   UNL A   1      46.424  27.903  35.093  1.00  0.00     0.198 A 
ATOM     87  C   UNL A   1      44.838  26.294  35.900  1.00  0.00     0.198 A 
ATOM     88  F   UNL A   1      42.549  26.558  35.434  1.00  0.00    -0.203 F 
ATOM     89  F   UNL A   1      47.692  28.313  34.952  1.00  0.00    -0.200 F 
ATOM     90  C   UNL A   1      46.148  26.733  35.782  1.00  0.00     0.200 A 
ATOM     91  F   UNL A   1      44.567  25.171  36.579  1.00  0.00    -0.200 F 
ATOM     92  F   UNL A   1      47.145  26.022  36.328  1.00  0.00    -0.200 F 
ENDBRANCH  59  82
ENDBRANCH  33  34
ENDBRANCH  25  28
ENDBRANCH  23  24
ENDBRANCH  22  23
ENDBRANCH  21  22
ENDBRANCH   3  21
TORSDOF 15
ENDMDL
MODEL 3
REMARK VINA RESULT:     -11.7      1.123      7.640
REMARK SMILES COc1ccccc1-c1nnc(SCCC(=O)NCCCNC(=O)c2ccc(-c3c4nc(c(-c5c(F)c(F)c(F)c(F)c5F)c5ccc([nH]5)c(-c5c(F)c(F)c(F)c(F)c5F)c5nc(c(-c6c(F)c(F)c(F)c(F)c6F)c6ccc3[nH]6)C=C5)C=C4)cc2)o1
REMARK SMILES IDX 16 1 17 2 18 3 15 5 14 6 13 7 12 8 9 9 10 10 88 11 11 12
REMARK SMILES IDX 8 13 3 14 4 15 5 16 7 17 6 18 2 19 1 20 19 21 20 22 21 23
REMARK SMILES IDX 22 24 23 25 24 27 25 28 26 29 87 30 27 31 86 32 28 33 29 34
REMARK SMILES IDX 30 35 80 36 31 37 85 38 79 39 81 40 32 41 84 42 78 43 77 44
REMARK SMILES IDX 33 46 65 47 45 48 64 49 46 50 49 51 63 52 82 53 47 54 48 55
REMARK SMILES IDX 62 57 83 58 50 59 34 60 35 61 43 62 36 63 37 64 41 65 44 66
REMARK SMILES IDX 38 67 39 68 42 69 40 70 66 71 67 72 75 73 68 74 69 75 73 76
REMARK SMILES IDX 76 77 70 78 71 79 74 80 72 81 51 82 52 83 60 84 53 85 54 86
REMARK SMILES IDX 58 87 61 88 55 89 56 90 59 91 57 92
REMARK H PARENT 18 4 22 26 81 45 49 56
REMARK Flexibility Score: inf
ROOT
ATOM      1  C   UNL A   1      33.406  29.231  25.846  1.00  0.00     0.220 C 
ATOM      2  O   UNL A   1      34.342  28.826  26.535  1.00  0.00    -0.275 OA
ATOM      3  N   UNL A   1      32.431  29.983  26.423  1.00  0.00    -0.356 N 
ATOM      4  H   UNL A   1      32.378  29.897  27.403  1.00  0.00     0.163 HD
ENDROOT
BRANCH   1   5
ATOM      5  C   UNL A   1      33.291  28.810  24.413  1.00  0.00     0.111 C 
BRANCH   5   6
ATOM      6  C   UNL A   1      32.384  27.586  24.318  1.00  0.00     0.090 C 
BRANCH   6   7
ATOM      7  S   UNL A   1      32.050  27.015  22.633  1.00  0.00    -0.065 SA
BRANCH   7   8
ATOM      8  C   UNL A   1      32.677  25.391  22.534  1.00  0.00     0.276 A 
ATOM      9  C   UNL A   1      33.219  23.346  22.855  1.00  0.00     0.252 A 
ATOM     10  N   UNL A   1      33.585  23.645  21.623  1.00  0.00    -0.107 NA
ATOM     11  O   UNL A   1      32.650  24.417  23.507  1.00  0.00    -0.411 OA
ATOM     12  N   UNL A   1      33.217  24.952  21.413  1.00  0.00    -0.101 NA
BRANCH   9  13
ATOM     13  C   UNL A   1      33.432  22.087  23.561  1.00  0.00     0.081 A 
ATOM     14  C   UNL A   1      34.536  21.801  24.378  1.00  0.00     0.131 A 
ATOM     15  C   UNL A   1      34.683  20.524  24.944  1.00  0.00     0.047 A 
ATOM     16  C   UNL A   1      33.670  19.575  24.828  1.00  0.00     0.004 A 
ATOM     17  C   UNL A   1      32.406  21.124  23.484  1.00  0.00     0.018 A 
ATOM     18  C   UNL A   1      32.516  19.887  24.123  1.00  0.00     0.001 A 
BRANCH  14  19
ATOM     19  O   UNL A   1      35.475  22.767  24.629  1.00  0.00    -0.496 OA
ATOM     20  C   UNL A   1      35.351  23.338  25.937  1.00  0.00     0.278 C 
ENDBRANCH  14  19
ENDBRANCH   9  13
ENDBRANCH   7   8
ENDBRANCH   6   7
ENDBRANCH   5   6
ENDBRANCH   1   5
BRANCH   3  21
ATOM     21  C   UNL A   1      31.454  30.889  25.846  1.00  0.00     0.117 C 
BRANCH  21  22
ATOM     22  C   UNL A   1      31.219  32.177  26.635  1.00  0.00     0.042 C 
BRANCH  22  23
ATOM     23  C   UNL A   1      32.470  32.866  27.179  1.00  0.00     0.118 C 
BRANCH  23  24
ATOM     24  N   UNL A   1      32.248  34.230  27.629  1.00  0.00    -0.352 N 
ATOM     25  C   UNL A   1      32.965  34.973  28.535  1.00  0.00     0.251 C 
ATOM     26  H   UNL A   1      31.473  34.687  27.227  1.00  0.00     0.163 HD
ATOM     27  O   UNL A   1      32.592  36.115  28.808  1.00  0.00    -0.269 OA
BRANCH  25  28
ATOM     28  C   UNL A   1      34.147  34.412  29.234  1.00  0.00     0.039 A 
ATOM     29  C   UNL A   1      33.933  33.722  30.432  1.00  0.00     0.014 A 
ATOM     30  C   UNL A   1      35.451  34.579  28.758  1.00  0.00     0.014 A 
ATOM     31  C   UNL A   1      35.009  33.154  31.120  1.00  0.00     0.010 A 
ATOM     32  C   UNL A   1      36.525  33.971  29.424  1.00  0.00     0.010 A 
ATOM     33  C   UNL A   1      36.314  33.247  30.609  1.00  0.00    -0.014 A 
BRANCH  33  34
ATOM     34  C   UNL A   1      37.439  32.558  31.302  1.00  0.00     0.031 A 
ATOM     35  C   UNL A   1      38.168  31.413  30.652  1.00  0.00     0.074 A 
ATOM     36  C   UNL A   1      37.809  32.962  32.534  1.00  0.00     0.049 A 
ATOM     37  N   UNL A   1      39.183  30.714  31.101  1.00  0.00    -0.248 NA
ATOM     38  C   UNL A   1      37.690  30.991  29.328  1.00  0.00     0.031 C 
ATOM     39  C   UNL A   1      37.172  34.040  33.291  1.00  0.00     0.029 A 
ATOM     40  N   UNL A   1      38.807  32.516  33.367  1.00  0.00    -0.354 N 
ATOM     41  C   UNL A   1      39.464  29.774  30.119  1.00  0.00     0.074 A 
ATOM     42  C   UNL A   1      38.486  29.962  29.067  1.00  0.00     0.031 C 
ATOM     43  C   UNL A   1      37.806  34.184  34.466  1.00  0.00     0.029 A 
ATOM     44  C   UNL A   1      38.869  33.188  34.564  1.00  0.00     0.049 A 
ATOM     45  H   UNL A   1      39.422  31.784  33.129  1.00  0.00     0.167 HD
ATOM     46  C   UNL A   1      40.457  28.852  30.087  1.00  0.00     0.037 A 
ATOM     47  C   UNL A   1      39.679  33.016  35.627  1.00  0.00     0.037 A 
ATOM     48  C   UNL A   1      41.434  28.663  31.131  1.00  0.00     0.049 A 
ATOM     49  C   UNL A   1      40.747  31.955  35.582  1.00  0.00     0.074 A 
ATOM     50  C   UNL A   1      42.506  27.786  31.160  1.00  0.00     0.029 A 
ATOM     51  N   UNL A   1      41.451  29.350  32.336  1.00  0.00    -0.354 N 
ATOM     52  N   UNL A   1      41.051  31.125  34.613  1.00  0.00    -0.248 NA
ATOM     53  C   UNL A   1      41.589  31.808  36.779  1.00  0.00     0.031 C 
ATOM     54  C   UNL A   1      43.133  27.899  32.406  1.00  0.00     0.029 A 
ATOM     55  C   UNL A   1      42.493  28.893  33.128  1.00  0.00     0.049 A 
ATOM     56  H   UNL A   1      40.816  30.058  32.591  1.00  0.00     0.167 HD
ATOM     57  C   UNL A   1      42.133  30.384  35.071  1.00  0.00     0.074 A 
ATOM     58  C   UNL A   1      42.445  30.872  36.396  1.00  0.00     0.031 C 
ATOM     59  C   UNL A   1      42.805  29.386  34.445  1.00  0.00     0.037 A 
BRANCH  46  60
ATOM     60  C   UNL A   1      40.542  27.959  28.881  1.00  0.00     0.064 A 
ATOM     61  C   UNL A   1      39.827  26.753  28.807  1.00  0.00     0.173 A 
ATOM     62  C   UNL A   1      41.296  28.341  27.761  1.00  0.00     0.173 A 
ATOM     63  F   UNL A   1      39.092  26.338  29.849  1.00  0.00    -0.203 F 
ATOM     64  C   UNL A   1      39.888  25.953  27.668  1.00  0.00     0.198 A 
ATOM     65  C   UNL A   1      41.330  27.554  26.613  1.00  0.00     0.198 A 
ATOM     66  F   UNL A   1      41.989  29.491  27.773  1.00  0.00    -0.203 F 
ATOM     67  F   UNL A   1      39.233  24.784  27.638  1.00  0.00    -0.200 F 
ATOM     68  C   UNL A   1      40.633  26.357  26.571  1.00  0.00     0.200 A 
ATOM     69  F   UNL A   1      42.035  27.955  25.547  1.00  0.00    -0.200 F 
ATOM     70  F   UNL A   1      40.680  25.591  25.473  1.00  0.00    -0.200 F 
ENDBRANCH  46  60
BRANCH  47  71
ATOM     71  C   UNL A   1      39.520  33.876  36.830  1.00  0.00     0.064 A 
ATOM     72  C   UNL A   1      40.120  35.141  36.902  1.00  0.00     0.173 A 
ATOM     73  C   UNL A   1      38.786  33.439  37.944  1.00  0.00     0.173 A 
ATOM     74  F   UNL A   1      40.855  35.592  35.874  1.00  0.00    -0.203 F 
ATOM     75  C   UNL A   1      40.011  35.926  38.048  1.00  0.00     0.198 A 
ATOM     76  C   UNL A   1      38.651  34.240  39.076  1.00  0.00     0.198 A 
ATOM     77  F   UNL A   1      38.193  32.237  37.928  1.00  0.00    -0.203 F 
ATOM     78  F   UNL A   1      40.642  37.107  38.109  1.00  0.00    -0.200 F 
ATOM     79  C   UNL A   1      39.272  35.478  39.131  1.00  0.00     0.200 A 
ATOM     80  F   UNL A   1      37.923  33.809  40.115  1.00  0.00    -0.200 F 
ATOM     81  F   UNL A   1      39.166  36.234  40.232  1.00  0.00    -0.200 F 
ENDBRANCH  47  71
BRANCH  59  82
ATOM     82  C   UNL A   1      43.972  28.775  35.170  1.00  0.00     0.064 A 
ATOM     83  C   UNL A   1      43.817  27.674  36.026  1.00  0.00     0.173 A 
ATOM     84  C   UNL A   1      45.270  29.273  34.972  1.00  0.00     0.173 A 
ATOM     85  F   UNL A   1      42.598  27.168  36.262  1.00  0.00    -0.203 F 
ATOM     86  C   UNL A   1      44.914  27.113  36.677  1.00  0.00     0.198 A 
ATOM     87  C   UNL A   1      46.367  28.688  35.599  1.00  0.00     0.198 A 
ATOM     88  F   UNL A   1      45.477  30.320  34.160  1.00  0.00    -0.203 F 
ATOM     89  F   UNL A   1      44.734  26.094  37.529  1.00  0.00    -0.200 F 
ATOM     90  C   UNL A   1      46.188  27.614  36.457  1.00  0.00     0.200 A 
ATOM     91  F   UNL A   1      47.599  29.165  35.372  1.00  0.00    -0.200 F 
ATOM     92  F   UNL A   1      47.242  27.066  37.077  1.00  0.00    -0.200 F 
ENDBRANCH  59  82
ENDBRANCH  33  34
ENDBRANCH  25  28
ENDBRANCH  23  24
ENDBRANCH  22  23
ENDBRANCH  21  22
ENDBRANCH   3  21
TORSDOF 15
ENDMDL
