MODEL 1
REMARK VINA RESULT:     -11.4      0.000      0.000
REMARK SMILES C[C@H](NC(=O)C(=O)c1ccccc1)C(=O)NCCCNC(=O)c1ccc(-c2c3nc(c(-c4c(F)c(F)c(F)c(F)c4F)c4ccc([nH]4)c(-c4c(F)c(F)c(F)c(F)c4F)c4nc(c(-c5c(F)c(F)c(F)c(F)c5F)c5ccc2[nH]5)C=C4)C=C3)cc1
REMARK SMILES IDX 17 1 16 2 14 3 15 4 2 6 1 7 3 8 4 9 5 11 6 12 7 13 8 14 9 15
REMARK SMILES IDX 13 16 10 17 12 18 11 19 18 20 19 21 20 22 21 23 22 25 23 26
REMARK SMILES IDX 24 27 85 28 25 29 84 30 26 31 27 32 28 33 78 34 29 35 83 36
REMARK SMILES IDX 77 37 79 38 30 39 82 40 76 41 75 42 31 44 63 45 43 46 62 47
REMARK SMILES IDX 44 48 47 49 61 50 80 51 45 52 46 53 60 55 81 56 48 57 32 58
REMARK SMILES IDX 33 59 41 60 34 61 35 62 39 63 42 64 36 65 37 66 40 67 38 68
REMARK SMILES IDX 64 69 65 70 73 71 66 72 67 73 71 74 74 75 68 76 69 77 72 78
REMARK SMILES IDX 70 79 49 80 50 81 58 82 51 83 52 84 56 85 59 86 53 87 54 88
REMARK SMILES IDX 57 89 55 90
REMARK H PARENT 16 5 3 10 20 24 79 43 47 54
REMARK Flexibility Score: inf
ROOT
ATOM      1  C   UNL A   1      34.698  23.441  23.729  1.00  0.00     0.117 C 
ENDROOT
BRANCH   1   2
ATOM      2  N   UNL A   1      34.052  22.173  24.007  1.00  0.00    -0.354 N 
ATOM      3  C   UNL A   1      33.357  21.738  25.097  1.00  0.00     0.242 C 
ATOM      4  O   UNL A   1      32.631  20.753  24.927  1.00  0.00    -0.273 OA
ATOM      5  H   UNL A   1      34.128  21.510  23.283  1.00  0.00     0.163 HD
BRANCH   3   6
ATOM      6  C   UNL A   1      33.320  22.522  26.426  1.00  0.00     0.168 C 
ATOM      7  C   UNL A   1      34.277  21.908  27.443  1.00  0.00     0.041 C 
BRANCH   6   8
ATOM      8  N   UNL A   1      31.980  22.661  26.996  1.00  0.00    -0.338 N 
ATOM      9  C   UNL A   1      31.046  23.620  26.689  1.00  0.00     0.293 C 
ATOM     10  H   UNL A   1      31.720  21.996  27.675  1.00  0.00     0.164 HD
ATOM     11  O   UNL A   1      29.951  23.640  27.243  1.00  0.00    -0.265 OA
BRANCH   9  12
ATOM     12  C   UNL A   1      31.388  24.690  25.664  1.00  0.00     0.250 C 
ATOM     13  O   UNL A   1      31.155  24.460  24.482  1.00  0.00    -0.283 OA
BRANCH  12  14
ATOM     14  C   UNL A   1      31.986  25.976  26.110  1.00  0.00     0.028 A 
ATOM     15  C   UNL A   1      31.161  26.909  26.754  1.00  0.00     0.012 A 
ATOM     16  C   UNL A   1      33.337  26.282  25.899  1.00  0.00     0.012 A 
ATOM     17  C   UNL A   1      31.683  28.126  27.196  1.00  0.00     0.001 A 
ATOM     18  C   UNL A   1      33.852  27.505  26.337  1.00  0.00     0.001 A 
ATOM     19  C   UNL A   1      33.028  28.423  26.987  1.00  0.00     0.000 A 
ENDBRANCH  12  14
ENDBRANCH   9  12
ENDBRANCH   6   8
ENDBRANCH   3   6
ENDBRANCH   1   2
BRANCH   1  20
ATOM     20  C   UNL A   1      36.218  23.351  23.746  1.00  0.00     0.042 C 
BRANCH  20  21
ATOM     21  C   UNL A   1      36.867  23.628  25.099  1.00  0.00     0.118 C 
BRANCH  21  22
ATOM     22  N   UNL A   1      37.898  22.663  25.454  1.00  0.00    -0.352 N 
ATOM     23  C   UNL A   1      39.092  22.831  26.111  1.00  0.00     0.251 C 
ATOM     24  H   UNL A   1      37.709  21.737  25.177  1.00  0.00     0.163 HD
ATOM     25  O   UNL A   1      39.881  21.892  26.180  1.00  0.00    -0.269 OA
BRANCH  23  26
ATOM     26  C   UNL A   1      39.455  24.133  26.717  1.00  0.00     0.039 A 
ATOM     27  C   UNL A   1      39.084  24.384  28.043  1.00  0.00     0.014 A 
ATOM     28  C   UNL A   1      40.119  25.120  25.986  1.00  0.00     0.014 A 
ATOM     29  C   UNL A   1      39.434  25.592  28.652  1.00  0.00     0.010 A 
ATOM     30  C   UNL A   1      40.537  26.291  26.615  1.00  0.00     0.010 A 
ATOM     31  C   UNL A   1      40.193  26.543  27.952  1.00  0.00    -0.014 A 
BRANCH  31  32
ATOM     32  C   UNL A   1      40.617  27.816  28.590  1.00  0.00     0.031 A 
ATOM     33  C   UNL A   1      42.040  27.996  29.039  1.00  0.00     0.074 A 
ATOM     34  C   UNL A   1      39.709  28.782  28.829  1.00  0.00     0.049 A 
ATOM     35  N   UNL A   1      42.584  28.989  29.698  1.00  0.00    -0.248 NA
ATOM     36  C   UNL A   1      42.972  26.899  28.734  1.00  0.00     0.031 C 
ATOM     37  C   UNL A   1      38.288  28.712  28.486  1.00  0.00     0.029 A 
ATOM     38  N   UNL A   1      39.845  30.009  29.430  1.00  0.00    -0.354 N 
ATOM     39  C   UNL A   1      43.907  28.623  29.908  1.00  0.00     0.074 A 
ATOM     40  C   UNL A   1      44.075  27.301  29.347  1.00  0.00     0.031 C 
ATOM     41  C   UNL A   1      37.688  29.853  28.865  1.00  0.00     0.029 A 
ATOM     42  C   UNL A   1      38.672  30.719  29.505  1.00  0.00     0.049 A 
ATOM     43  H   UNL A   1      40.703  30.347  29.775  1.00  0.00     0.167 HD
ATOM     44  C   UNL A   1      44.898  29.335  30.498  1.00  0.00     0.037 A 
ATOM     45  C   UNL A   1      38.420  31.931  30.035  1.00  0.00     0.037 A 
ATOM     46  C   UNL A   1      44.742  30.668  31.017  1.00  0.00     0.049 A 
ATOM     47  C   UNL A   1      39.544  32.712  30.657  1.00  0.00     0.074 A 
ATOM     48  C   UNL A   1      45.701  31.496  31.573  1.00  0.00     0.029 A 
ATOM     49  N   UNL A   1      43.546  31.370  31.036  1.00  0.00    -0.354 N 
ATOM     50  N   UNL A   1      40.803  32.380  30.797  1.00  0.00    -0.248 NA
ATOM     51  C   UNL A   1      39.212  34.043  31.187  1.00  0.00     0.031 C 
ATOM     52  C   UNL A   1      45.079  32.689  31.956  1.00  0.00     0.029 A 
ATOM     53  C   UNL A   1      43.742  32.619  31.604  1.00  0.00     0.049 A 
ATOM     54  H   UNL A   1      42.687  31.031  30.697  1.00  0.00     0.167 HD
ATOM     55  C   UNL A   1      41.420  33.466  31.406  1.00  0.00     0.074 A 
ATOM     56  C   UNL A   1      40.397  34.474  31.597  1.00  0.00     0.031 C 
ATOM     57  C   UNL A   1      42.715  33.614  31.773  1.00  0.00     0.037 A 
BRANCH  44  58
ATOM     58  C   UNL A   1      46.246  28.685  30.605  1.00  0.00     0.064 A 
ATOM     59  C   UNL A   1      46.590  27.887  31.706  1.00  0.00     0.173 A 
ATOM     60  C   UNL A   1      47.194  28.838  29.582  1.00  0.00     0.173 A 
ATOM     61  F   UNL A   1      45.724  27.721  32.717  1.00  0.00    -0.203 F 
ATOM     62  C   UNL A   1      47.845  27.291  31.795  1.00  0.00     0.198 A 
ATOM     63  C   UNL A   1      48.438  28.217  29.660  1.00  0.00     0.198 A 
ATOM     64  F   UNL A   1      46.913  29.585  28.505  1.00  0.00    -0.203 F 
ATOM     65  F   UNL A   1      48.169  26.573  32.879  1.00  0.00    -0.200 F 
ATOM     66  C   UNL A   1      48.765  27.451  30.769  1.00  0.00     0.200 A 
ATOM     67  F   UNL A   1      49.323  28.362  28.665  1.00  0.00    -0.200 F 
ATOM     68  F   UNL A   1      49.972  26.873  30.854  1.00  0.00    -0.200 F 
ENDBRANCH  44  58
BRANCH  45  69
ATOM     69  C   UNL A   1      37.048  32.496  29.969  1.00  0.00     0.064 A 
ATOM     70  C   UNL A   1      36.646  33.272  28.872  1.00  0.00     0.173 A 
ATOM     71  C   UNL A   1      36.116  32.277  30.991  1.00  0.00     0.173 A 
ATOM     72  F   UNL A   1      37.512  33.526  27.880  1.00  0.00    -0.203 F 
ATOM     73  C   UNL A   1      35.369  33.822  28.809  1.00  0.00     0.198 A 
ATOM     74  C   UNL A   1      34.830  32.808  30.916  1.00  0.00     0.198 A 
ATOM     75  F   UNL A   1      36.451  31.538  32.059  1.00  0.00    -0.203 F 
ATOM     76  F   UNL A   1      35.023  34.593  27.769  1.00  0.00    -0.200 F 
ATOM     77  C   UNL A   1      34.459  33.585  29.829  1.00  0.00     0.200 A 
ATOM     78  F   UNL A   1      33.949  32.567  31.897  1.00  0.00    -0.200 F 
ATOM     79  F   UNL A   1      33.228  34.111  29.767  1.00  0.00    -0.200 F 
ENDBRANCH  45  69
BRANCH  57  80
ATOM     80  C   UNL A   1      43.110  34.925  32.383  1.00  0.00     0.064 A 
ATOM     81  C   UNL A   1      43.090  35.125  33.771  1.00  0.00     0.173 A 
ATOM     82  C   UNL A   1      43.554  35.980  31.570  1.00  0.00     0.173 A 
ATOM     83  F   UNL A   1      42.659  34.152  34.587  1.00  0.00    -0.203 F 
ATOM     84  C   UNL A   1      43.481  36.342  34.322  1.00  0.00     0.198 A 
ATOM     85  C   UNL A   1      43.968  37.186  32.127  1.00  0.00     0.198 A 
ATOM     86  F   UNL A   1      43.596  35.835  30.238  1.00  0.00    -0.203 F 
ATOM     87  F   UNL A   1      43.415  36.527  35.648  1.00  0.00    -0.200 F 
ATOM     88  C   UNL A   1      43.926  37.369  33.502  1.00  0.00     0.200 A 
ATOM     89  F   UNL A   1      44.407  38.173  31.334  1.00  0.00    -0.200 F 
ATOM     90  F   UNL A   1      44.306  38.536  34.036  1.00  0.00    -0.200 F 
ENDBRANCH  57  80
ENDBRANCH  31  32
ENDBRANCH  23  26
ENDBRANCH  21  22
ENDBRANCH  20  21
ENDBRANCH   1  20
TORSDOF 13
ENDMDL
MODEL 2
REMARK VINA RESULT:     -11.3      4.403      8.055
REMARK SMILES C[C@H](NC(=O)C(=O)c1ccccc1)C(=O)NCCCNC(=O)c1ccc(-c2c3nc(c(-c4c(F)c(F)c(F)c(F)c4F)c4ccc([nH]4)c(-c4c(F)c(F)c(F)c(F)c4F)c4nc(c(-c5c(F)c(F)c(F)c(F)c5F)c5ccc2[nH]5)C=C4)C=C3)cc1
REMARK SMILES IDX 17 1 16 2 14 3 15 4 2 6 1 7 3 8 4 9 5 11 6 12 7 13 8 14 9 15
REMARK SMILES IDX 13 16 10 17 12 18 11 19 18 20 19 21 20 22 21 23 22 25 23 26
REMARK SMILES IDX 24 27 85 28 25 29 84 30 26 31 27 32 28 33 78 34 29 35 83 36
REMARK SMILES IDX 77 37 79 38 30 39 82 40 76 41 75 42 31 44 63 45 43 46 62 47
REMARK SMILES IDX 44 48 47 49 61 50 80 51 45 52 46 53 60 55 81 56 48 57 32 58
REMARK SMILES IDX 33 59 41 60 34 61 35 62 39 63 42 64 36 65 37 66 40 67 38 68
REMARK SMILES IDX 64 69 65 70 73 71 66 72 67 73 71 74 74 75 68 76 69 77 72 78
REMARK SMILES IDX 70 79 49 80 50 81 58 82 51 83 52 84 56 85 59 86 53 87 54 88
REMARK SMILES IDX 57 89 55 90
REMARK H PARENT 16 5 3 10 20 24 79 43 47 54
REMARK Flexibility Score: inf
ROOT
ATOM      1  C   UNL A   1      31.405  30.868  25.895  1.00  0.00     0.117 C 
ENDROOT
BRANCH   1   2
ATOM      2  N   UNL A   1      32.678  30.263  26.237  1.00  0.00    -0.354 N 
ATOM      3  C   UNL A   1      33.168  29.011  26.010  1.00  0.00     0.242 C 
ATOM      4  O   UNL A   1      34.393  28.877  26.100  1.00  0.00    -0.273 OA
ATOM      5  H   UNL A   1      33.297  30.861  26.716  1.00  0.00     0.163 HD
BRANCH   3   6
ATOM      6  C   UNL A   1      32.287  27.855  25.490  1.00  0.00     0.168 C 
ATOM      7  C   UNL A   1      32.290  26.689  26.473  1.00  0.00     0.041 C 
BRANCH   6   8
ATOM      8  N   UNL A   1      32.639  27.398  24.146  1.00  0.00    -0.338 N 
ATOM      9  C   UNL A   1      31.776  26.990  23.158  1.00  0.00     0.293 C 
ATOM     10  H   UNL A   1      33.599  27.380  23.925  1.00  0.00     0.164 HD
ATOM     11  O   UNL A   1      32.191  26.619  22.065  1.00  0.00    -0.265 OA
BRANCH   9  12
ATOM     12  C   UNL A   1      30.281  26.974  23.438  1.00  0.00     0.250 C 
ATOM     13  O   UNL A   1      29.799  25.983  23.976  1.00  0.00    -0.283 OA
BRANCH  12  14
ATOM     14  C   UNL A   1      29.447  28.147  23.063  1.00  0.00     0.028 A 
ATOM     15  C   UNL A   1      30.081  29.269  22.512  1.00  0.00     0.012 A 
ATOM     16  C   UNL A   1      28.060  28.165  23.253  1.00  0.00     0.012 A 
ATOM     17  C   UNL A   1      29.335  30.389  22.140  1.00  0.00     0.001 A 
ATOM     18  C   UNL A   1      27.319  29.292  22.885  1.00  0.00     0.001 A 
ATOM     19  C   UNL A   1      27.955  30.400  22.326  1.00  0.00     0.000 A 
ENDBRANCH  12  14
ENDBRANCH   9  12
ENDBRANCH   6   8
ENDBRANCH   3   6
ENDBRANCH   1   2
BRANCH   1  20
ATOM     20  C   UNL A   1      31.224  32.254  26.498  1.00  0.00     0.042 C 
BRANCH  20  21
ATOM     21  C   UNL A   1      32.457  32.823  27.194  1.00  0.00     0.118 C 
BRANCH  21  22
ATOM     22  N   UNL A   1      32.297  34.209  27.612  1.00  0.00    -0.352 N 
ATOM     23  C   UNL A   1      32.970  34.938  28.561  1.00  0.00     0.251 C 
ATOM     24  H   UNL A   1      31.592  34.704  27.136  1.00  0.00     0.163 HD
ATOM     25  O   UNL A   1      32.571  36.065  28.851  1.00  0.00    -0.269 OA
BRANCH  23  26
ATOM     26  C   UNL A   1      34.150  34.382  29.261  1.00  0.00     0.039 A 
ATOM     27  C   UNL A   1      33.962  33.736  30.487  1.00  0.00     0.014 A 
ATOM     28  C   UNL A   1      35.440  34.524  28.745  1.00  0.00     0.014 A 
ATOM     29  C   UNL A   1      35.052  33.178  31.160  1.00  0.00     0.010 A 
ATOM     30  C   UNL A   1      36.515  33.901  29.374  1.00  0.00     0.010 A 
ATOM     31  C   UNL A   1      36.335  33.228  30.592  1.00  0.00    -0.014 A 
BRANCH  31  32
ATOM     32  C   UNL A   1      37.504  32.604  31.265  1.00  0.00     0.031 A 
ATOM     33  C   UNL A   1      38.256  31.492  30.588  1.00  0.00     0.074 A 
ATOM     34  C   UNL A   1      37.846  32.987  32.509  1.00  0.00     0.049 A 
ATOM     35  N   UNL A   1      39.240  30.757  31.045  1.00  0.00    -0.248 NA
ATOM     36  C   UNL A   1      37.827  31.137  29.226  1.00  0.00     0.031 C 
ATOM     37  C   UNL A   1      37.167  34.020  33.293  1.00  0.00     0.029 A 
ATOM     38  N   UNL A   1      38.843  32.541  33.341  1.00  0.00    -0.354 N 
ATOM     39  C   UNL A   1      39.524  29.840  30.042  1.00  0.00     0.074 A 
ATOM     40  C   UNL A   1      38.584  30.081  28.970  1.00  0.00     0.031 C 
ATOM     41  C   UNL A   1      37.779  34.142  34.483  1.00  0.00     0.029 A 
ATOM     42  C   UNL A   1      38.870  33.176  34.559  1.00  0.00     0.049 A 
ATOM     43  H   UNL A   1      39.479  31.834  33.088  1.00  0.00     0.167 HD
ATOM     44  C   UNL A   1      40.496  28.897  30.009  1.00  0.00     0.037 A 
ATOM     45  C   UNL A   1      39.681  32.994  35.617  1.00  0.00     0.037 A 
ATOM     46  C   UNL A   1      41.459  28.686  31.056  1.00  0.00     0.049 A 
ATOM     47  C   UNL A   1      40.771  31.960  35.543  1.00  0.00     0.074 A 
ATOM     48  C   UNL A   1      42.522  27.800  31.088  1.00  0.00     0.029 A 
ATOM     49  N   UNL A   1      41.479  29.378  32.258  1.00  0.00    -0.354 N 
ATOM     50  N   UNL A   1      41.067  31.139  34.566  1.00  0.00    -0.248 NA
ATOM     51  C   UNL A   1      41.645  31.833  36.718  1.00  0.00     0.031 C 
ATOM     52  C   UNL A   1      43.167  27.935  32.321  1.00  0.00     0.029 A 
ATOM     53  C   UNL A   1      42.530  28.931  33.042  1.00  0.00     0.049 A 
ATOM     54  H   UNL A   1      40.841  30.082  32.515  1.00  0.00     0.167 HD
ATOM     55  C   UNL A   1      42.174  30.418  34.994  1.00  0.00     0.074 A 
ATOM     56  C   UNL A   1      42.505  30.907  36.317  1.00  0.00     0.031 C 
ATOM     57  C   UNL A   1      42.853  29.440  34.350  1.00  0.00     0.037 A 
BRANCH  44  58
ATOM     58  C   UNL A   1      40.569  28.023  28.791  1.00  0.00     0.064 A 
ATOM     59  C   UNL A   1      39.850  26.822  28.705  1.00  0.00     0.173 A 
ATOM     60  C   UNL A   1      41.345  28.404  27.686  1.00  0.00     0.173 A 
ATOM     61  F   UNL A   1      39.104  26.406  29.740  1.00  0.00    -0.203 F 
ATOM     62  C   UNL A   1      39.928  26.019  27.570  1.00  0.00     0.198 A 
ATOM     63  C   UNL A   1      41.399  27.613  26.542  1.00  0.00     0.198 A 
ATOM     64  F   UNL A   1      42.048  29.546  27.714  1.00  0.00    -0.203 F 
ATOM     65  F   UNL A   1      39.270  24.852  27.531  1.00  0.00    -0.200 F 
ATOM     66  C   UNL A   1      40.697  26.418  26.487  1.00  0.00     0.200 A 
ATOM     67  F   UNL A   1      42.134  28.004  25.491  1.00  0.00    -0.200 F 
ATOM     68  F   UNL A   1      40.768  25.646  25.394  1.00  0.00    -0.200 F 
ENDBRANCH  44  58
BRANCH  45  69
ATOM     69  C   UNL A   1      39.516  33.837  36.829  1.00  0.00     0.064 A 
ATOM     70  C   UNL A   1      38.781  33.372  37.930  1.00  0.00     0.173 A 
ATOM     71  C   UNL A   1      40.082  35.115  36.915  1.00  0.00     0.173 A 
ATOM     72  F   UNL A   1      38.203  32.163  37.884  1.00  0.00    -0.203 F 
ATOM     73  C   UNL A   1      38.605  34.161  39.063  1.00  0.00     0.198 A 
ATOM     74  C   UNL A   1      39.926  35.895  38.059  1.00  0.00     0.198 A 
ATOM     75  F   UNL A   1      40.798  35.603  35.891  1.00  0.00    -0.203 F 
ATOM     76  F   UNL A   1      37.865  33.709  40.084  1.00  0.00    -0.200 F 
ATOM     77  C   UNL A   1      39.182  35.421  39.128  1.00  0.00     0.200 A 
ATOM     78  F   UNL A   1      40.495  37.107  38.124  1.00  0.00    -0.200 F 
ATOM     79  F   UNL A   1      39.016  36.180  40.221  1.00  0.00    -0.200 F 
ENDBRANCH  45  69
BRANCH  57  80
ATOM     80  C   UNL A   1      44.046  28.859  35.048  1.00  0.00     0.064 A 
ATOM     81  C   UNL A   1      43.933  27.742  35.889  1.00  0.00     0.173 A 
ATOM     82  C   UNL A   1      45.324  29.401  34.839  1.00  0.00     0.173 A 
ATOM     83  F   UNL A   1      42.731  27.199  36.131  1.00  0.00    -0.203 F 
ATOM     84  C   UNL A   1      45.055  27.202  36.512  1.00  0.00     0.198 A 
ATOM     85  C   UNL A   1      46.446  28.843  35.444  1.00  0.00     0.198 A 
ATOM     86  F   UNL A   1      45.483  30.466  34.039  1.00  0.00    -0.203 F 
ATOM     87  F   UNL A   1      44.920  26.160  37.344  1.00  0.00    -0.200 F 
ATOM     88  C   UNL A   1      46.310  27.747  36.284  1.00  0.00     0.200 A 
ATOM     89  F   UNL A   1      47.658  29.365  35.215  1.00  0.00    -0.200 F 
ATOM     90  F   UNL A   1      47.388  27.222  36.880  1.00  0.00    -0.200 F 
ENDBRANCH  57  80
ENDBRANCH  31  32
ENDBRANCH  23  26
ENDBRANCH  21  22
ENDBRANCH  20  21
ENDBRANCH   1  20
TORSDOF 13
ENDMDL
MODEL 3
REMARK VINA RESULT:     -11.3      3.471      8.812
REMARK SMILES C[C@H](NC(=O)C(=O)c1ccccc1)C(=O)NCCCNC(=O)c1ccc(-c2c3nc(c(-c4c(F)c(F)c(F)c(F)c4F)c4ccc([nH]4)c(-c4c(F)c(F)c(F)c(F)c4F)c4nc(c(-c5c(F)c(F)c(F)c(F)c5F)c5ccc2[nH]5)C=C4)C=C3)cc1
REMARK SMILES IDX 17 1 16 2 14 3 15 4 2 6 1 7 3 8 4 9 5 11 6 12 7 13 8 14 9 15
REMARK SMILES IDX 13 16 10 17 12 18 11 19 18 20 19 21 20 22 21 23 22 25 23 26
REMARK SMILES IDX 24 27 85 28 25 29 84 30 26 31 27 32 28 33 78 34 29 35 83 36
REMARK SMILES IDX 77 37 79 38 30 39 82 40 76 41 75 42 31 44 63 45 43 46 62 47
REMARK SMILES IDX 44 48 47 49 61 50 80 51 45 52 46 53 60 55 81 56 48 57 32 58
REMARK SMILES IDX 33 59 41 60 34 61 35 62 39 63 42 64 36 65 37 66 40 67 38 68
REMARK SMILES IDX 64 69 65 70 73 71 66 72 67 73 71 74 74 75 68 76 69 77 72 78
REMARK SMILES IDX 70 79 49 80 50 81 58 82 51 83 52 84 56 85 59 86 53 87 54 88
REMARK SMILES IDX 57 89 55 90
REMARK H PARENT 16 5 3 10 20 24 79 43 47 54
REMARK Flexibility Score: inf
ROOT
ATOM      1  C   UNL A   1      36.509  19.793  25.006  1.00  0.00     0.117 C 
ENDROOT
BRANCH   1   2
ATOM      2  N   UNL A   1      36.011  18.463  24.712  1.00  0.00    -0.354 N 
ATOM      3  C   UNL A   1      34.742  17.997  24.532  1.00  0.00     0.242 C 
ATOM      4  O   UNL A   1      34.633  16.908  23.959  1.00  0.00    -0.273 OA
ATOM      5  H   UNL A   1      36.712  17.776  24.626  1.00  0.00     0.163 HD
BRANCH   3   6
ATOM      6  C   UNL A   1      33.493  18.846  24.851  1.00  0.00     0.168 C 
ATOM      7  C   UNL A   1      32.508  18.058  25.709  1.00  0.00     0.041 C 
BRANCH   6   8
ATOM      8  N   UNL A   1      32.826  19.390  23.667  1.00  0.00    -0.338 N 
ATOM      9  C   UNL A   1      32.417  20.686  23.471  1.00  0.00     0.293 C 
ATOM     10  H   UNL A   1      32.651  18.758  22.933  1.00  0.00     0.164 HD
ATOM     11  O   UNL A   1      31.857  21.025  22.432  1.00  0.00    -0.265 OA
BRANCH   9  12
ATOM     12  C   UNL A   1      32.639  21.711  24.572  1.00  0.00     0.250 C 
ATOM     13  O   UNL A   1      31.713  21.953  25.338  1.00  0.00    -0.283 OA
BRANCH  12  14
ATOM     14  C   UNL A   1      33.958  22.385  24.699  1.00  0.00     0.028 A 
ATOM     15  C   UNL A   1      34.686  22.654  23.531  1.00  0.00     0.012 A 
ATOM     16  C   UNL A   1      34.494  22.746  25.941  1.00  0.00     0.012 A 
ATOM     17  C   UNL A   1      35.926  23.292  23.603  1.00  0.00     0.001 A 
ATOM     18  C   UNL A   1      35.739  23.377  26.009  1.00  0.00     0.001 A 
ATOM     19  C   UNL A   1      36.452  23.653  24.842  1.00  0.00     0.000 A 
ENDBRANCH  12  14
ENDBRANCH   9  12
ENDBRANCH   6   8
ENDBRANCH   3   6
ENDBRANCH   1   2
BRANCH   1  20
ATOM     20  C   UNL A   1      37.981  19.968  24.658  1.00  0.00     0.042 C 
BRANCH  20  21
ATOM     21  C   UNL A   1      38.911  20.148  25.854  1.00  0.00     0.118 C 
BRANCH  21  22
ATOM     22  N   UNL A   1      39.996  19.177  25.895  1.00  0.00    -0.352 N 
ATOM     23  C   UNL A   1      41.346  19.353  26.075  1.00  0.00     0.251 C 
ATOM     24  H   UNL A   1      39.716  18.242  25.774  1.00  0.00     0.163 HD
ATOM     25  O   UNL A   1      42.103  18.396  25.932  1.00  0.00    -0.269 OA
BRANCH  23  26
ATOM     26  C   UNL A   1      41.907  20.681  26.414  1.00  0.00     0.039 A 
ATOM     27  C   UNL A   1      42.132  21.598  25.381  1.00  0.00     0.014 A 
ATOM     28  C   UNL A   1      42.250  21.017  27.725  1.00  0.00     0.014 A 
ATOM     29  C   UNL A   1      42.637  22.869  25.671  1.00  0.00     0.010 A 
ATOM     30  C   UNL A   1      42.679  22.309  28.024  1.00  0.00     0.010 A 
ATOM     31  C   UNL A   1      42.883  23.246  27.000  1.00  0.00    -0.014 A 
BRANCH  31  32
ATOM     32  C   UNL A   1      43.378  24.606  27.339  1.00  0.00     0.031 A 
ATOM     33  C   UNL A   1      42.437  25.626  27.920  1.00  0.00     0.074 A 
ATOM     34  C   UNL A   1      44.651  24.946  27.062  1.00  0.00     0.049 A 
ATOM     35  N   UNL A   1      42.649  26.888  28.195  1.00  0.00    -0.248 NA
ATOM     36  C   UNL A   1      41.066  25.173  28.202  1.00  0.00     0.031 C 
ATOM     37  C   UNL A   1      45.649  24.065  26.455  1.00  0.00     0.029 A 
ATOM     38  N   UNL A   1      45.320  26.132  27.241  1.00  0.00    -0.354 N 
ATOM     39  C   UNL A   1      41.436  27.384  28.652  1.00  0.00     0.074 A 
ATOM     40  C   UNL A   1      40.481  26.301  28.579  1.00  0.00     0.031 C 
ATOM     41  C   UNL A   1      46.808  24.733  26.330  1.00  0.00     0.029 A 
ATOM     42  C   UNL A   1      46.625  26.097  26.817  1.00  0.00     0.049 A 
ATOM     43  H   UNL A   1      44.902  26.930  27.638  1.00  0.00     0.167 HD
ATOM     44  C   UNL A   1      41.149  28.626  29.113  1.00  0.00     0.037 A 
ATOM     45  C   UNL A   1      47.566  27.060  26.817  1.00  0.00     0.037 A 
ATOM     46  C   UNL A   1      42.108  29.692  29.227  1.00  0.00     0.049 A 
ATOM     47  C   UNL A   1      47.230  28.421  27.361  1.00  0.00     0.074 A 
ATOM     48  C   UNL A   1      41.930  30.964  29.742  1.00  0.00     0.029 A 
ATOM     49  N   UNL A   1      43.433  29.604  28.825  1.00  0.00    -0.354 N 
ATOM     50  N   UNL A   1      46.095  28.860  27.846  1.00  0.00    -0.248 NA
ATOM     51  C   UNL A   1      48.310  29.418  27.366  1.00  0.00     0.031 C 
ATOM     52  C   UNL A   1      43.139  31.656  29.625  1.00  0.00     0.029 A 
ATOM     53  C   UNL A   1      44.081  30.804  29.072  1.00  0.00     0.049 A 
ATOM     54  H   UNL A   1      43.850  28.808  28.424  1.00  0.00     0.167 HD
ATOM     55  C   UNL A   1      46.328  30.172  28.236  1.00  0.00     0.074 A 
ATOM     56  C   UNL A   1      47.718  30.455  27.943  1.00  0.00     0.031 C 
ATOM     57  C   UNL A   1      45.469  31.062  28.787  1.00  0.00     0.037 A 
BRANCH  44  58
ATOM     58  C   UNL A   1      39.734  28.896  29.536  1.00  0.00     0.064 A 
ATOM     59  C   UNL A   1      38.781  29.392  28.635  1.00  0.00     0.173 A 
ATOM     60  C   UNL A   1      39.321  28.629  30.849  1.00  0.00     0.173 A 
ATOM     61  F   UNL A   1      39.130  29.677  27.371  1.00  0.00    -0.203 F 
ATOM     62  C   UNL A   1      37.472  29.641  29.040  1.00  0.00     0.198 A 
ATOM     63  C   UNL A   1      38.004  28.852  31.245  1.00  0.00     0.198 A 
ATOM     64  F   UNL A   1      40.191  28.148  31.749  1.00  0.00    -0.203 F 
ATOM     65  F   UNL A   1      36.592  30.161  28.175  1.00  0.00    -0.200 F 
ATOM     66  C   UNL A   1      37.083  29.364  30.343  1.00  0.00     0.200 A 
ATOM     67  F   UNL A   1      37.626  28.574  32.500  1.00  0.00    -0.200 F 
ATOM     68  F   UNL A   1      35.822  29.600  30.731  1.00  0.00    -0.200 F 
ENDBRANCH  44  58
BRANCH  45  69
ATOM     69  C   UNL A   1      48.932  26.759  26.316  1.00  0.00     0.064 A 
ATOM     70  C   UNL A   1      49.910  26.236  27.174  1.00  0.00     0.173 A 
ATOM     71  C   UNL A   1      49.288  26.987  24.980  1.00  0.00     0.173 A 
ATOM     72  F   UNL A   1      49.621  26.022  28.465  1.00  0.00    -0.203 F 
ATOM     73  C   UNL A   1      51.198  25.969  26.718  1.00  0.00     0.198 A 
ATOM     74  C   UNL A   1      50.570  26.696  24.519  1.00  0.00     0.198 A 
ATOM     75  F   UNL A   1      48.386  27.482  24.120  1.00  0.00    -0.203 F 
ATOM     76  F   UNL A   1      52.126  25.506  27.567  1.00  0.00    -0.200 F 
ATOM     77  C   UNL A   1      51.526  26.194  25.389  1.00  0.00     0.200 A 
ATOM     78  F   UNL A   1      50.880  26.904  23.232  1.00  0.00    -0.200 F 
ATOM     79  F   UNL A   1      52.765  25.933  24.949  1.00  0.00    -0.200 F 
ENDBRANCH  45  69
BRANCH  57  80
ATOM     80  C   UNL A   1      46.013  32.412  29.146  1.00  0.00     0.064 A 
ATOM     81  C   UNL A   1      45.961  33.487  28.247  1.00  0.00     0.173 A 
ATOM     82  C   UNL A   1      46.556  32.641  30.420  1.00  0.00     0.173 A 
ATOM     83  F   UNL A   1      45.466  33.312  27.013  1.00  0.00    -0.203 F 
ATOM     84  C   UNL A   1      46.452  34.740  28.604  1.00  0.00     0.198 A 
ATOM     85  C   UNL A   1      47.023  33.901  30.781  1.00  0.00     0.198 A 
ATOM     86  F   UNL A   1      46.623  31.646  31.315  1.00  0.00    -0.203 F 
ATOM     87  F   UNL A   1      46.431  35.744  27.717  1.00  0.00    -0.200 F 
ATOM     88  C   UNL A   1      46.976  34.948  29.872  1.00  0.00     0.200 A 
ATOM     89  F   UNL A   1      47.519  34.104  32.010  1.00  0.00    -0.200 F 
ATOM     90  F   UNL A   1      47.443  36.156  30.215  1.00  0.00    -0.200 F 
ENDBRANCH  57  80
ENDBRANCH  31  32
ENDBRANCH  23  26
ENDBRANCH  21  22
ENDBRANCH  20  21
ENDBRANCH   1  20
TORSDOF 13
ENDMDL
