MODEL 1
REMARK VINA RESULT:     -11.2      0.000      0.000
REMARK SMILES O=C(C[C@@H](NC(=O)C1CC=CC1)C1CC1)NCCCNC(=O)c1ccc(-c2c3nc(c(-c4c(F)c(F)c(F)c(F)c4F)c4ccc([nH]4)c(-c4c(F)c(F)c(F)c(F)c4F)c4nc(c(-c5c(F)c(F)c(F)c(F)c5F)c5ccc2[nH]5)C=C4)C=C3)cc1
REMARK SMILES IDX 17 1 16 2 1 3 2 4 3 6 4 7 5 8 6 9 7 11 8 12 9 13 12 14 10 15
REMARK SMILES IDX 11 16 13 17 14 18 15 19 18 20 19 21 20 22 21 23 22 25 23 26
REMARK SMILES IDX 24 27 85 28 25 29 84 30 26 31 27 32 28 33 78 34 29 35 83 36
REMARK SMILES IDX 77 37 79 38 30 39 82 40 76 41 75 42 31 44 63 45 43 46 62 47
REMARK SMILES IDX 44 48 47 49 61 50 80 51 45 52 46 53 60 55 81 56 48 57 32 58
REMARK SMILES IDX 33 59 41 60 34 61 35 62 39 63 42 64 36 65 37 66 40 67 38 68
REMARK SMILES IDX 64 69 65 70 73 71 66 72 67 73 71 74 74 75 68 76 69 77 72 78
REMARK SMILES IDX 70 79 49 80 50 81 58 82 51 83 52 84 56 85 59 86 53 87 54 88
REMARK SMILES IDX 57 89 55 90
REMARK H PARENT 16 5 5 10 20 24 79 43 47 54
REMARK Flexibility Score: inf
ROOT
ATOM      1  C   UNL A   1      31.387  30.617  25.709  1.00  0.00     0.117 C 
ENDROOT
BRANCH   1   2
ATOM      2  N   UNL A   1      32.051  29.362  26.013  1.00  0.00    -0.356 N 
ATOM      3  O   UNL A   1      33.410  29.329  24.161  1.00  0.00    -0.275 OA
ATOM      4  C   UNL A   1      33.090  28.868  25.252  1.00  0.00     0.222 C 
ATOM      5  H   UNL A   1      31.749  28.844  26.793  1.00  0.00     0.163 HD
BRANCH   4   6
ATOM      6  C   UNL A   1      33.839  27.709  25.891  1.00  0.00     0.125 C 
BRANCH   6   7
ATOM      7  C   UNL A   1      33.483  26.399  25.174  1.00  0.00     0.094 C 
BRANCH   7   8
ATOM      8  N   UNL A   1      33.668  26.485  23.719  1.00  0.00    -0.352 N 
ATOM      9  C   UNL A   1      32.956  26.260  22.595  1.00  0.00     0.223 C 
ATOM     10  H   UNL A   1      34.575  26.799  23.500  1.00  0.00     0.163 HD
ATOM     11  O   UNL A   1      33.653  26.216  21.568  1.00  0.00    -0.275 OA
BRANCH   9  12
ATOM     12  C   UNL A   1      31.442  26.195  22.432  1.00  0.00     0.086 C 
ATOM     13  C   UNL A   1      30.578  25.278  23.292  1.00  0.00     0.040 C 
ATOM     14  C   UNL A   1      30.825  27.602  22.505  1.00  0.00     0.040 C 
ATOM     15  C   UNL A   1      29.567  26.198  23.902  1.00  0.00    -0.030 C 
ATOM     16  C   UNL A   1      29.699  27.455  23.472  1.00  0.00    -0.030 C 
ENDBRANCH   9  12
ENDBRANCH   7   8
BRANCH   7  17
ATOM     17  C   UNL A   1      34.099  25.164  25.754  1.00  0.00     0.012 C 
ATOM     18  C   UNL A   1      33.265  24.077  26.391  1.00  0.00     0.006 C 
ATOM     19  C   UNL A   1      33.884  23.848  25.045  1.00  0.00     0.006 C 
ENDBRANCH   7  17
ENDBRANCH   6   7
ENDBRANCH   4   6
ENDBRANCH   1   2
BRANCH   1  20
ATOM     20  C   UNL A   1      31.449  31.619  26.854  1.00  0.00     0.042 C 
BRANCH  20  21
ATOM     21  C   UNL A   1      32.706  32.481  26.884  1.00  0.00     0.118 C 
BRANCH  21  22
ATOM     22  N   UNL A   1      32.477  33.828  27.383  1.00  0.00    -0.352 N 
ATOM     23  C   UNL A   1      33.106  34.509  28.400  1.00  0.00     0.251 C 
ATOM     24  H   UNL A   1      31.765  34.330  26.924  1.00  0.00     0.163 HD
ATOM     25  O   UNL A   1      32.683  35.605  28.750  1.00  0.00    -0.269 OA
BRANCH  23  26
ATOM     26  C   UNL A   1      34.266  33.913  29.101  1.00  0.00     0.039 A 
ATOM     27  C   UNL A   1      34.028  33.006  30.140  1.00  0.00     0.014 A 
ATOM     28  C   UNL A   1      35.578  34.242  28.756  1.00  0.00     0.014 A 
ATOM     29  C   UNL A   1      35.102  32.384  30.781  1.00  0.00     0.010 A 
ATOM     30  C   UNL A   1      36.644  33.557  29.336  1.00  0.00     0.010 A 
ATOM     31  C   UNL A   1      36.419  32.625  30.361  1.00  0.00    -0.014 A 
BRANCH  31  32
ATOM     32  C   UNL A   1      37.571  31.924  30.991  1.00  0.00     0.031 A 
ATOM     33  C   UNL A   1      38.025  32.306  32.374  1.00  0.00     0.074 A 
ATOM     34  C   UNL A   1      38.241  30.981  30.301  1.00  0.00     0.049 A 
ATOM     35  N   UNL A   1      39.039  31.853  33.068  1.00  0.00    -0.248 NA
ATOM     36  C   UNL A   1      37.252  33.355  33.057  1.00  0.00     0.031 C 
ATOM     37  C   UNL A   1      37.930  30.548  28.938  1.00  0.00     0.029 A 
ATOM     38  N   UNL A   1      39.330  30.220  30.649  1.00  0.00    -0.354 N 
ATOM     39  C   UNL A   1      39.032  32.570  34.259  1.00  0.00     0.074 A 
ATOM     40  C   UNL A   1      37.953  33.528  34.168  1.00  0.00     0.031 C 
ATOM     41  C   UNL A   1      38.790  29.582  28.576  1.00  0.00     0.029 A 
ATOM     42  C   UNL A   1      39.739  29.356  29.662  1.00  0.00     0.049 A 
ATOM     43  H   UNL A   1      39.776  30.286  31.525  1.00  0.00     0.167 HD
ATOM     44  C   UNL A   1      39.835  32.425  35.340  1.00  0.00     0.037 A 
ATOM     45  C   UNL A   1      40.768  28.487  29.632  1.00  0.00     0.037 A 
ATOM     46  C   UNL A   1      40.897  31.457  35.436  1.00  0.00     0.049 A 
ATOM     47  C   UNL A   1      41.659  28.360  30.839  1.00  0.00     0.074 A 
ATOM     48  C   UNL A   1      41.731  31.195  36.509  1.00  0.00     0.029 A 
ATOM     49  N   UNL A   1      41.275  30.594  34.417  1.00  0.00    -0.354 N 
ATOM     50  N   UNL A   1      41.599  28.993  31.985  1.00  0.00    -0.248 NA
ATOM     51  C   UNL A   1      42.759  27.389  30.749  1.00  0.00     0.031 C 
ATOM     52  C   UNL A   1      42.650  30.215  36.120  1.00  0.00     0.029 A 
ATOM     53  C   UNL A   1      42.347  29.818  34.828  1.00  0.00     0.049 A 
ATOM     54  H   UNL A   1      40.845  30.541  33.533  1.00  0.00     0.167 HD
ATOM     55  C   UNL A   1      42.625  28.474  32.763  1.00  0.00     0.074 A 
ATOM     56  C   UNL A   1      43.285  27.464  31.964  1.00  0.00     0.031 C 
ATOM     57  C   UNL A   1      42.989  28.807  34.026  1.00  0.00     0.037 A 
BRANCH  44  58
ATOM     58  C   UNL A   1      39.597  33.337  36.510  1.00  0.00     0.064 A 
ATOM     59  C   UNL A   1      38.734  32.983  37.559  1.00  0.00     0.173 A 
ATOM     60  C   UNL A   1      40.267  34.567  36.603  1.00  0.00     0.173 A 
ATOM     61  F   UNL A   1      38.061  31.823  37.517  1.00  0.00    -0.203 F 
ATOM     62  C   UNL A   1      38.525  33.839  38.637  1.00  0.00     0.198 A 
ATOM     63  C   UNL A   1      40.082  35.405  37.699  1.00  0.00     0.198 A 
ATOM     64  F   UNL A   1      41.111  34.953  35.633  1.00  0.00    -0.203 F 
ATOM     65  F   UNL A   1      37.653  33.503  39.597  1.00  0.00    -0.200 F 
ATOM     66  C   UNL A   1      39.204  35.045  38.710  1.00  0.00     0.200 A 
ATOM     67  F   UNL A   1      40.754  36.562  37.777  1.00  0.00    -0.200 F 
ATOM     68  F   UNL A   1      39.010  35.864  39.753  1.00  0.00    -0.200 F 
ENDBRANCH  44  58
BRANCH  45  69
ATOM     69  C   UNL A   1      41.003  27.652  28.422  1.00  0.00     0.064 A 
ATOM     70  C   UNL A   1      41.862  28.085  27.403  1.00  0.00     0.173 A 
ATOM     71  C   UNL A   1      40.363  26.415  28.252  1.00  0.00     0.173 A 
ATOM     72  F   UNL A   1      42.482  29.270  27.509  1.00  0.00    -0.203 F 
ATOM     73  C   UNL A   1      42.052  27.328  26.249  1.00  0.00     0.198 A 
ATOM     74  C   UNL A   1      40.579  25.643  27.113  1.00  0.00     0.198 A 
ATOM     75  F   UNL A   1      39.534  25.952  29.198  1.00  0.00    -0.203 F 
ATOM     76  F   UNL A   1      42.836  27.792  25.267  1.00  0.00    -0.200 F 
ATOM     77  C   UNL A   1      41.415  26.105  26.108  1.00  0.00     0.200 A 
ATOM     78  F   UNL A   1      39.973  24.455  26.987  1.00  0.00    -0.200 F 
ATOM     79  F   UNL A   1      41.598  25.375  24.998  1.00  0.00    -0.200 F 
ENDBRANCH  45  69
BRANCH  57  80
ATOM     80  C   UNL A   1      44.123  28.038  34.645  1.00  0.00     0.064 A 
ATOM     81  C   UNL A   1      45.447  28.492  34.582  1.00  0.00     0.173 A 
ATOM     82  C   UNL A   1      43.870  26.848  35.348  1.00  0.00     0.173 A 
ATOM     83  F   UNL A   1      45.745  29.616  33.912  1.00  0.00    -0.203 F 
ATOM     84  C   UNL A   1      46.481  27.769  35.172  1.00  0.00     0.198 A 
ATOM     85  C   UNL A   1      44.900  26.147  35.966  1.00  0.00     0.198 A 
ATOM     86  F   UNL A   1      42.620  26.373  35.445  1.00  0.00    -0.203 F 
ATOM     87  F   UNL A   1      47.747  28.194  35.053  1.00  0.00    -0.200 F 
ATOM     88  C   UNL A   1      46.206  26.602  35.871  1.00  0.00     0.200 A 
ATOM     89  F   UNL A   1      44.630  25.029  36.655  1.00  0.00    -0.200 F 
ATOM     90  F   UNL A   1      47.201  25.914  36.446  1.00  0.00    -0.200 F 
ENDBRANCH  57  80
ENDBRANCH  31  32
ENDBRANCH  23  26
ENDBRANCH  21  22
ENDBRANCH  20  21
ENDBRANCH   1  20
TORSDOF 14
ENDMDL
MODEL 2
REMARK VINA RESULT:     -11.1      5.514      9.631
REMARK SMILES O=C(C[C@@H](NC(=O)C1CC=CC1)C1CC1)NCCCNC(=O)c1ccc(-c2c3nc(c(-c4c(F)c(F)c(F)c(F)c4F)c4ccc([nH]4)c(-c4c(F)c(F)c(F)c(F)c4F)c4nc(c(-c5c(F)c(F)c(F)c(F)c5F)c5ccc2[nH]5)C=C4)C=C3)cc1
REMARK SMILES IDX 17 1 16 2 1 3 2 4 3 6 4 7 5 8 6 9 7 11 8 12 9 13 12 14 10 15
REMARK SMILES IDX 11 16 13 17 14 18 15 19 18 20 19 21 20 22 21 23 22 25 23 26
REMARK SMILES IDX 24 27 85 28 25 29 84 30 26 31 27 32 28 33 78 34 29 35 83 36
REMARK SMILES IDX 77 37 79 38 30 39 82 40 76 41 75 42 31 44 63 45 43 46 62 47
REMARK SMILES IDX 44 48 47 49 61 50 80 51 45 52 46 53 60 55 81 56 48 57 32 58
REMARK SMILES IDX 33 59 41 60 34 61 35 62 39 63 42 64 36 65 37 66 40 67 38 68
REMARK SMILES IDX 64 69 65 70 73 71 66 72 67 73 71 74 74 75 68 76 69 77 72 78
REMARK SMILES IDX 70 79 49 80 50 81 58 82 51 83 52 84 56 85 59 86 53 87 54 88
REMARK SMILES IDX 57 89 55 90
REMARK H PARENT 16 5 5 10 20 24 79 43 47 54
REMARK Flexibility Score: inf
ROOT
ATOM      1  C   UNL A   1      36.585  20.304  25.005  1.00  0.00     0.117 C 
ENDROOT
BRANCH   1   2
ATOM      2  N   UNL A   1      36.500  21.629  25.592  1.00  0.00    -0.356 N 
ATOM      3  O   UNL A   1      35.539  22.660  23.778  1.00  0.00    -0.275 OA
ATOM      4  C   UNL A   1      35.886  22.686  24.955  1.00  0.00     0.222 C 
ATOM      5  H   UNL A   1      36.895  21.778  26.481  1.00  0.00     0.163 HD
BRANCH   4   6
ATOM      6  C   UNL A   1      35.639  23.897  25.843  1.00  0.00     0.125 C 
BRANCH   6   7
ATOM      7  C   UNL A   1      34.248  24.479  25.556  1.00  0.00     0.094 C 
BRANCH   7   8
ATOM      8  N   UNL A   1      33.225  23.977  26.484  1.00  0.00    -0.352 N 
ATOM      9  C   UNL A   1      32.043  23.331  26.430  1.00  0.00     0.223 C 
ATOM     10  H   UNL A   1      33.477  24.166  27.417  1.00  0.00     0.163 HD
ATOM     11  O   UNL A   1      31.409  23.369  27.497  1.00  0.00    -0.275 OA
BRANCH   9  12
ATOM     12  C   UNL A   1      31.483  22.476  25.299  1.00  0.00     0.086 C 
ATOM     13  C   UNL A   1      31.429  22.980  23.860  1.00  0.00     0.040 C 
ATOM     14  C   UNL A   1      32.160  21.095  25.272  1.00  0.00     0.040 C 
ATOM     15  C   UNL A   1      32.156  21.931  23.079  1.00  0.00    -0.030 C 
ATOM     16  C   UNL A   1      32.548  20.909  23.844  1.00  0.00    -0.030 C 
ENDBRANCH   9  12
ENDBRANCH   7   8
BRANCH   7  17
ATOM     17  C   UNL A   1      34.196  25.967  25.403  1.00  0.00     0.012 C 
ATOM     18  C   UNL A   1      33.631  26.625  24.166  1.00  0.00     0.006 C 
ATOM     19  C   UNL A   1      32.851  26.651  25.445  1.00  0.00     0.006 C 
ENDBRANCH   7  17
ENDBRANCH   6   7
ENDBRANCH   4   6
ENDBRANCH   1   2
BRANCH   1  20
ATOM     20  C   UNL A   1      38.010  19.892  24.663  1.00  0.00     0.042 C 
BRANCH  20  21
ATOM     21  C   UNL A   1      39.039  20.177  25.751  1.00  0.00     0.118 C 
BRANCH  21  22
ATOM     22  N   UNL A   1      40.075  19.160  25.855  1.00  0.00    -0.352 N 
ATOM     23  C   UNL A   1      41.422  19.298  26.098  1.00  0.00     0.251 C 
ATOM     24  H   UNL A   1      39.766  18.234  25.733  1.00  0.00     0.163 HD
ATOM     25  O   UNL A   1      42.156  18.318  26.028  1.00  0.00    -0.269 OA
BRANCH  23  26
ATOM     26  C   UNL A   1      42.000  20.627  26.406  1.00  0.00     0.039 A 
ATOM     27  C   UNL A   1      42.326  21.478  25.346  1.00  0.00     0.014 A 
ATOM     28  C   UNL A   1      42.233  21.036  27.721  1.00  0.00     0.014 A 
ATOM     29  C   UNL A   1      42.819  22.759  25.607  1.00  0.00     0.010 A 
ATOM     30  C   UNL A   1      42.641  22.343  27.982  1.00  0.00     0.010 A 
ATOM     31  C   UNL A   1      42.946  23.217  26.928  1.00  0.00    -0.014 A 
BRANCH  31  32
ATOM     32  C   UNL A   1      43.411  24.600  27.223  1.00  0.00     0.031 A 
ATOM     33  C   UNL A   1      42.452  25.618  27.779  1.00  0.00     0.074 A 
ATOM     34  C   UNL A   1      44.680  24.955  26.944  1.00  0.00     0.049 A 
ATOM     35  N   UNL A   1      42.652  26.884  28.049  1.00  0.00    -0.248 NA
ATOM     36  C   UNL A   1      41.080  25.159  28.044  1.00  0.00     0.031 C 
ATOM     37  C   UNL A   1      45.697  24.077  26.364  1.00  0.00     0.029 A 
ATOM     38  N   UNL A   1      45.331  26.154  27.103  1.00  0.00    -0.354 N 
ATOM     39  C   UNL A   1      41.431  27.372  28.499  1.00  0.00     0.074 A 
ATOM     40  C   UNL A   1      40.483  26.283  28.409  1.00  0.00     0.031 C 
ATOM     41  C   UNL A   1      46.847  24.757  26.240  1.00  0.00     0.029 A 
ATOM     42  C   UNL A   1      46.641  26.131  26.691  1.00  0.00     0.049 A 
ATOM     43  H   UNL A   1      44.899  26.956  27.477  1.00  0.00     0.167 HD
ATOM     44  C   UNL A   1      41.133  28.607  28.969  1.00  0.00     0.037 A 
ATOM     45  C   UNL A   1      47.569  27.107  26.670  1.00  0.00     0.037 A 
ATOM     46  C   UNL A   1      42.083  29.684  29.076  1.00  0.00     0.049 A 
ATOM     47  C   UNL A   1      47.206  28.477  27.178  1.00  0.00     0.074 A 
ATOM     48  C   UNL A   1      41.892  30.954  29.590  1.00  0.00     0.029 A 
ATOM     49  N   UNL A   1      43.404  29.618  28.656  1.00  0.00    -0.354 N 
ATOM     50  N   UNL A   1      46.069  28.906  27.668  1.00  0.00    -0.248 NA
ATOM     51  C   UNL A   1      48.263  29.498  27.139  1.00  0.00     0.031 C 
ATOM     52  C   UNL A   1      43.079  31.675  29.428  1.00  0.00     0.029 A 
ATOM     53  C   UNL A   1      44.031  30.834  28.874  1.00  0.00     0.049 A 
ATOM     54  H   UNL A   1      43.832  28.824  28.260  1.00  0.00     0.167 HD
ATOM     55  C   UNL A   1      46.281  30.231  28.026  1.00  0.00     0.074 A 
ATOM     56  C   UNL A   1      47.661  30.532  27.711  1.00  0.00     0.031 C 
ATOM     57  C   UNL A   1      45.410  31.118  28.566  1.00  0.00     0.037 A 
BRANCH  44  58
ATOM     58  C   UNL A   1      39.717  28.862  29.405  1.00  0.00     0.064 A 
ATOM     59  C   UNL A   1      38.750  29.360  28.519  1.00  0.00     0.173 A 
ATOM     60  C   UNL A   1      39.313  28.574  30.718  1.00  0.00     0.173 A 
ATOM     61  F   UNL A   1      39.083  29.661  27.254  1.00  0.00    -0.203 F 
ATOM     62  C   UNL A   1      37.442  29.590  28.939  1.00  0.00     0.198 A 
ATOM     63  C   UNL A   1      37.997  28.773  31.125  1.00  0.00     0.198 A 
ATOM     64  F   UNL A   1      40.195  28.089  31.607  1.00  0.00    -0.203 F 
ATOM     65  F   UNL A   1      36.551  30.118  28.088  1.00  0.00    -0.200 F 
ATOM     66  C   UNL A   1      37.065  29.290  30.238  1.00  0.00     0.200 A 
ATOM     67  F   UNL A   1      37.630  28.465  32.377  1.00  0.00    -0.200 F 
ATOM     68  F   UNL A   1      35.804  29.503  30.638  1.00  0.00    -0.200 F 
ENDBRANCH  44  58
BRANCH  45  69
ATOM     69  C   UNL A   1      48.940  26.822  26.166  1.00  0.00     0.064 A 
ATOM     70  C   UNL A   1      49.930  26.317  27.020  1.00  0.00     0.173 A 
ATOM     71  C   UNL A   1      49.294  27.065  24.830  1.00  0.00     0.173 A 
ATOM     72  F   UNL A   1      49.649  26.088  28.311  1.00  0.00    -0.203 F 
ATOM     73  C   UNL A   1      51.227  26.089  26.564  1.00  0.00     0.198 A 
ATOM     74  C   UNL A   1      50.582  26.806  24.367  1.00  0.00     0.198 A 
ATOM     75  F   UNL A   1      48.383  27.545  23.971  1.00  0.00    -0.203 F 
ATOM     76  F   UNL A   1      52.169  25.658  27.415  1.00  0.00    -0.200 F 
ATOM     77  C   UNL A   1      51.551  26.328  25.238  1.00  0.00     0.200 A 
ATOM     78  F   UNL A   1      50.885  27.024  23.081  1.00  0.00    -0.200 F 
ATOM     79  F   UNL A   1      52.798  26.109  24.799  1.00  0.00    -0.200 F 
ENDBRANCH  45  69
BRANCH  57  80
ATOM     80  C   UNL A   1      45.934  32.487  28.899  1.00  0.00     0.064 A 
ATOM     81  C   UNL A   1      46.531  32.771  30.136  1.00  0.00     0.173 A 
ATOM     82  C   UNL A   1      45.872  33.518  27.948  1.00  0.00     0.173 A 
ATOM     83  F   UNL A   1      46.604  31.825  31.085  1.00  0.00    -0.203 F 
ATOM     84  C   UNL A   1      47.019  34.044  30.419  1.00  0.00     0.198 A 
ATOM     85  C   UNL A   1      46.392  34.779  28.222  1.00  0.00     0.198 A 
ATOM     86  F   UNL A   1      45.317  33.299  26.747  1.00  0.00    -0.203 F 
ATOM     87  F   UNL A   1      47.538  34.308  31.627  1.00  0.00    -0.200 F 
ATOM     88  C   UNL A   1      46.958  35.045  29.459  1.00  0.00     0.200 A 
ATOM     89  F   UNL A   1      46.347  35.739  27.288  1.00  0.00    -0.200 F 
ATOM     90  F   UNL A   1      47.437  36.266  29.731  1.00  0.00    -0.200 F 
ENDBRANCH  57  80
ENDBRANCH  31  32
ENDBRANCH  23  26
ENDBRANCH  21  22
ENDBRANCH  20  21
ENDBRANCH   1  20
TORSDOF 14
ENDMDL
MODEL 3
REMARK VINA RESULT:     -11.0      0.487      7.495
REMARK SMILES O=C(C[C@@H](NC(=O)C1CC=CC1)C1CC1)NCCCNC(=O)c1ccc(-c2c3nc(c(-c4c(F)c(F)c(F)c(F)c4F)c4ccc([nH]4)c(-c4c(F)c(F)c(F)c(F)c4F)c4nc(c(-c5c(F)c(F)c(F)c(F)c5F)c5ccc2[nH]5)C=C4)C=C3)cc1
REMARK SMILES IDX 17 1 16 2 1 3 2 4 3 6 4 7 5 8 6 9 7 11 8 12 9 13 12 14 10 15
REMARK SMILES IDX 11 16 13 17 14 18 15 19 18 20 19 21 20 22 21 23 22 25 23 26
REMARK SMILES IDX 24 27 85 28 25 29 84 30 26 31 27 32 28 33 78 34 29 35 83 36
REMARK SMILES IDX 77 37 79 38 30 39 82 40 76 41 75 42 31 44 63 45 43 46 62 47
REMARK SMILES IDX 44 48 47 49 61 50 80 51 45 52 46 53 60 55 81 56 48 57 32 58
REMARK SMILES IDX 33 59 41 60 34 61 35 62 39 63 42 64 36 65 37 66 40 67 38 68
REMARK SMILES IDX 64 69 65 70 73 71 66 72 67 73 71 74 74 75 68 76 69 77 72 78
REMARK SMILES IDX 70 79 49 80 50 81 58 82 51 83 52 84 56 85 59 86 53 87 54 88
REMARK SMILES IDX 57 89 55 90
REMARK H PARENT 16 5 5 10 20 24 79 43 47 54
REMARK Flexibility Score: inf
ROOT
ATOM      1  C   UNL A   1      31.411  30.465  25.475  1.00  0.00     0.117 C 
ENDROOT
BRANCH   1   2
ATOM      2  N   UNL A   1      32.026  29.204  25.849  1.00  0.00    -0.356 N 
ATOM      3  O   UNL A   1      33.662  29.222  24.237  1.00  0.00    -0.275 OA
ATOM      4  C   UNL A   1      33.175  28.733  25.251  1.00  0.00     0.222 C 
ATOM      5  H   UNL A   1      31.607  28.666  26.558  1.00  0.00     0.163 HD
BRANCH   4   6
ATOM      6  C   UNL A   1      33.821  27.559  25.972  1.00  0.00     0.125 C 
BRANCH   6   7
ATOM      7  C   UNL A   1      33.563  26.262  25.192  1.00  0.00     0.094 C 
BRANCH   7   8
ATOM      8  N   UNL A   1      33.722  26.436  23.742  1.00  0.00    -0.352 N 
ATOM      9  C   UNL A   1      32.994  26.269  22.619  1.00  0.00     0.223 C 
ATOM     10  H   UNL A   1      34.622  26.772  23.527  1.00  0.00     0.163 HD
ATOM     11  O   UNL A   1      33.674  26.294  21.580  1.00  0.00    -0.275 OA
BRANCH   9  12
ATOM     12  C   UNL A   1      31.478  26.198  22.477  1.00  0.00     0.086 C 
ATOM     13  C   UNL A   1      30.626  25.314  23.383  1.00  0.00     0.040 C 
ATOM     14  C   UNL A   1      30.860  27.606  22.503  1.00  0.00     0.040 C 
ATOM     15  C   UNL A   1      29.621  26.255  23.968  1.00  0.00    -0.030 C 
ATOM     16  C   UNL A   1      29.746  27.495  23.488  1.00  0.00    -0.030 C 
ENDBRANCH   9  12
ENDBRANCH   7   8
BRANCH   7  17
ATOM     17  C   UNL A   1      34.284  25.054  25.703  1.00  0.00     0.012 C 
ATOM     18  C   UNL A   1      33.550  23.803  26.126  1.00  0.00     0.006 C 
ATOM     19  C   UNL A   1      34.319  23.815  24.841  1.00  0.00     0.006 C 
ENDBRANCH   7  17
ENDBRANCH   6   7
ENDBRANCH   4   6
ENDBRANCH   1   2
BRANCH   1  20
ATOM     20  C   UNL A   1      31.298  31.444  26.636  1.00  0.00     0.042 C 
BRANCH  20  21
ATOM     21  C   UNL A   1      32.561  32.249  26.921  1.00  0.00     0.118 C 
BRANCH  21  22
ATOM     22  N   UNL A   1      32.300  33.635  27.278  1.00  0.00    -0.352 N 
ATOM     23  C   UNL A   1      32.922  34.436  28.208  1.00  0.00     0.251 C 
ATOM     24  H   UNL A   1      31.569  34.065  26.779  1.00  0.00     0.163 HD
ATOM     25  O   UNL A   1      32.473  35.552  28.447  1.00  0.00    -0.269 OA
BRANCH  23  26
ATOM     26  C   UNL A   1      34.107  33.948  28.951  1.00  0.00     0.039 A 
ATOM     27  C   UNL A   1      33.911  33.071  30.023  1.00  0.00     0.014 A 
ATOM     28  C   UNL A   1      35.400  34.351  28.612  1.00  0.00     0.014 A 
ATOM     29  C   UNL A   1      35.012  32.549  30.707  1.00  0.00     0.010 A 
ATOM     30  C   UNL A   1      36.499  33.763  29.236  1.00  0.00     0.010 A 
ATOM     31  C   UNL A   1      36.318  32.861  30.296  1.00  0.00    -0.014 A 
BRANCH  31  32
ATOM     32  C   UNL A   1      37.502  32.266  30.972  1.00  0.00     0.031 A 
ATOM     33  C   UNL A   1      38.287  31.171  30.301  1.00  0.00     0.074 A 
ATOM     34  C   UNL A   1      37.841  32.672  32.212  1.00  0.00     0.049 A 
ATOM     35  N   UNL A   1      39.311  30.489  30.751  1.00  0.00    -0.248 NA
ATOM     36  C   UNL A   1      37.846  30.771  28.956  1.00  0.00     0.031 C 
ATOM     37  C   UNL A   1      37.139  33.694  32.990  1.00  0.00     0.029 A 
ATOM     38  N   UNL A   1      38.860  32.269  33.040  1.00  0.00    -0.354 N 
ATOM     39  C   UNL A   1      39.625  29.576  29.753  1.00  0.00     0.074 A 
ATOM     40  C   UNL A   1      38.647  29.748  28.701  1.00  0.00     0.031 C 
ATOM     41  C   UNL A   1      37.761  33.855  34.168  1.00  0.00     0.029 A 
ATOM     42  C   UNL A   1      38.881  32.920  34.249  1.00  0.00     0.049 A 
ATOM     43  H   UNL A   1      39.515  31.577  32.790  1.00  0.00     0.167 HD
ATOM     44  C   UNL A   1      40.650  28.692  29.705  1.00  0.00     0.037 A 
ATOM     45  C   UNL A   1      39.702  32.776  35.307  1.00  0.00     0.037 A 
ATOM     46  C   UNL A   1      41.634  28.536  30.744  1.00  0.00     0.049 A 
ATOM     47  C   UNL A   1      40.821  31.771  35.236  1.00  0.00     0.074 A 
ATOM     48  C   UNL A   1      42.742  27.707  30.766  1.00  0.00     0.029 A 
ATOM     49  N   UNL A   1      41.626  29.221  31.951  1.00  0.00    -0.354 N 
ATOM     50  N   UNL A   1      41.151  30.963  34.258  1.00  0.00    -0.248 NA
ATOM     51  C   UNL A   1      41.690  31.665  36.418  1.00  0.00     0.031 C 
ATOM     52  C   UNL A   1      43.371  27.848  32.007  1.00  0.00     0.029 A 
ATOM     53  C   UNL A   1      42.694  28.813  32.734  1.00  0.00     0.049 A 
ATOM     54  H   UNL A   1      40.959  29.897  32.212  1.00  0.00     0.167 HD
ATOM     55  C   UNL A   1      42.280  30.281  34.690  1.00  0.00     0.074 A 
ATOM     56  C   UNL A   1      42.589  30.779  36.012  1.00  0.00     0.031 C 
ATOM     57  C   UNL A   1      42.997  29.326  34.047  1.00  0.00     0.037 A 
BRANCH  44  58
ATOM     58  C   UNL A   1      40.762  27.821  28.485  1.00  0.00     0.064 A 
ATOM     59  C   UNL A   1      40.088  26.594  28.389  1.00  0.00     0.173 A 
ATOM     60  C   UNL A   1      41.524  28.234  27.382  1.00  0.00     0.173 A 
ATOM     61  F   UNL A   1      39.351  26.146  29.418  1.00  0.00    -0.203 F 
ATOM     62  C   UNL A   1      40.201  25.799  27.251  1.00  0.00     0.198 A 
ATOM     63  C   UNL A   1      41.607  27.454  26.232  1.00  0.00     0.198 A 
ATOM     64  F   UNL A   1      42.184  29.403  27.414  1.00  0.00    -0.203 F 
ATOM     65  F   UNL A   1      39.592  24.606  27.207  1.00  0.00    -0.200 F 
ATOM     66  C   UNL A   1      40.953  26.232  26.172  1.00  0.00     0.200 A 
ATOM     67  F   UNL A   1      42.322  27.883  25.182  1.00  0.00    -0.200 F 
ATOM     68  F   UNL A   1      41.054  25.471  25.073  1.00  0.00    -0.200 F 
ENDBRANCH  44  58
BRANCH  45  69
ATOM     69  C   UNL A   1      39.511  33.616  36.520  1.00  0.00     0.064 A 
ATOM     70  C   UNL A   1      40.138  34.864  36.638  1.00  0.00     0.173 A 
ATOM     71  C   UNL A   1      38.714  33.183  37.591  1.00  0.00     0.173 A 
ATOM     72  F   UNL A   1      40.927  35.313  35.651  1.00  0.00    -0.203 F 
ATOM     73  C   UNL A   1      39.997  35.636  37.790  1.00  0.00     0.198 A 
ATOM     74  C   UNL A   1      38.547  33.970  38.729  1.00  0.00     0.198 A 
ATOM     75  F   UNL A   1      38.089  31.999  37.528  1.00  0.00    -0.203 F 
ATOM     76  F   UNL A   1      40.652  36.799  37.899  1.00  0.00    -0.200 F 
ATOM     77  C   UNL A   1      39.198  35.191  38.832  1.00  0.00     0.200 A 
ATOM     78  F   UNL A   1      37.762  33.543  39.726  1.00  0.00    -0.200 F 
ATOM     79  F   UNL A   1      39.062  35.933  39.940  1.00  0.00    -0.200 F 
ENDBRANCH  45  69
BRANCH  57  80
ATOM     80  C   UNL A   1      44.217  28.789  34.743  1.00  0.00     0.064 A 
ATOM     81  C   UNL A   1      44.154  27.677  35.594  1.00  0.00     0.173 A 
ATOM     82  C   UNL A   1      45.473  29.376  34.520  1.00  0.00     0.173 A 
ATOM     83  F   UNL A   1      42.977  27.087  35.850  1.00  0.00    -0.203 F 
ATOM     84  C   UNL A   1      45.299  27.190  36.220  1.00  0.00     0.198 A 
ATOM     85  C   UNL A   1      46.620  28.865  35.121  1.00  0.00     0.198 A 
ATOM     86  F   UNL A   1      45.590  30.437  33.710  1.00  0.00    -0.203 F 
ATOM     87  F   UNL A   1      45.207  26.158  37.071  1.00  0.00    -0.200 F 
ATOM     88  C   UNL A   1      46.532  27.778  35.976  1.00  0.00     0.200 A 
ATOM     89  F   UNL A   1      47.812  29.424  34.870  1.00  0.00    -0.200 F 
ATOM     90  F   UNL A   1      47.633  27.301  36.572  1.00  0.00    -0.200 F 
ENDBRANCH  57  80
ENDBRANCH  31  32
ENDBRANCH  23  26
ENDBRANCH  21  22
ENDBRANCH  20  21
ENDBRANCH   1  20
TORSDOF 14
ENDMDL
