MODEL 1
REMARK VINA RESULT:     -12.8      0.000      0.000
REMARK SMILES CC[C@@H](C)[C@H](NC(=O)[C@H]1CCCN(S(=O)(=O)c2ccccc2)C1)C(=O)NCCCNC(=O)c1ccc(-c2c3nc(c(-c4c(F)c(F)c(F)c(F)c4F)c4ccc([nH]4)c(-c4c(F)c(F)c(F)c(F)c4F)c4nc(c(-c5c(F)c(F)c(F)c(F)c5F)c5ccc2[nH]5)C=C4)C=C3)cc1
REMARK SMILES IDX 27 1 26 2 24 3 25 4 5 6 3 7 4 8 2 9 1 10 6 11 7 12 8 14 9 15
REMARK SMILES IDX 10 16 23 17 11 18 13 19 12 20 14 21 15 22 16 23 17 24 18 25
REMARK SMILES IDX 22 26 19 27 21 28 20 29 28 30 29 31 30 32 31 33 32 35 33 36
REMARK SMILES IDX 34 37 95 38 35 39 94 40 36 41 37 42 38 43 88 44 39 45 93 46
REMARK SMILES IDX 87 47 89 48 40 49 92 50 86 51 85 52 41 54 73 55 53 56 72 57
REMARK SMILES IDX 54 58 57 59 71 60 90 61 55 62 56 63 70 65 91 66 58 67 42 68
REMARK SMILES IDX 43 69 51 70 44 71 45 72 49 73 52 74 46 75 47 76 50 77 48 78
REMARK SMILES IDX 74 79 75 80 83 81 76 82 77 83 81 84 84 85 78 86 79 87 82 88
REMARK SMILES IDX 80 89 59 90 60 91 68 92 61 93 62 94 66 95 69 96 63 97 64 98
REMARK SMILES IDX 67 99 65 100
REMARK H PARENT 26 5 6 13 30 34 89 53 57 64
REMARK Flexibility Score: inf
ROOT
ATOM      1  C   UNL A   1      31.597  30.673  26.272  1.00  0.00     0.117 C 
ENDROOT
BRANCH   1   2
ATOM      2  N   UNL A   1      32.743  29.888  26.686  1.00  0.00    -0.354 N 
ATOM      3  C   UNL A   1      33.385  28.783  26.221  1.00  0.00     0.242 C 
ATOM      4  O   UNL A   1      34.530  28.600  26.667  1.00  0.00    -0.273 OA
ATOM      5  H   UNL A   1      33.158  30.242  27.505  1.00  0.00     0.163 HD
BRANCH   3   6
ATOM      6  C   UNL A   1      32.849  27.774  25.184  1.00  0.00     0.174 C 
BRANCH   6   7
ATOM      7  C   UNL A   1      33.805  27.767  23.919  1.00  0.00     0.018 C 
ATOM      8  C   UNL A   1      33.510  28.990  23.013  1.00  0.00     0.010 C 
BRANCH   7   9
ATOM      9  C   UNL A   1      33.931  26.443  23.122  1.00  0.00     0.002 C 
ATOM     10  C   UNL A   1      33.158  26.341  21.797  1.00  0.00     0.004 C 
ENDBRANCH   7   9
ENDBRANCH   6   7
BRANCH   6  11
ATOM     11  N   UNL A   1      31.371  27.694  24.984  1.00  0.00    -0.344 N 
ATOM     12  C   UNL A   1      30.613  26.573  24.563  1.00  0.00     0.225 C 
ATOM     13  H   UNL A   1      30.863  28.518  25.166  1.00  0.00     0.164 HD
ATOM     14  O   UNL A   1      29.534  26.753  24.003  1.00  0.00    -0.275 OA
BRANCH  12  15
ATOM     15  C   UNL A   1      31.085  25.173  25.008  1.00  0.00     0.094 C 
ATOM     16  C   UNL A   1      29.902  24.647  25.800  1.00  0.00     0.016 C 
ATOM     17  C   UNL A   1      31.464  23.960  24.103  1.00  0.00     0.116 C 
ATOM     18  C   UNL A   1      30.432  23.668  26.809  1.00  0.00     0.018 C 
ATOM     19  N   UNL A   1      31.874  22.780  25.026  1.00  0.00    -0.197 NA
ATOM     20  C   UNL A   1      30.886  22.455  26.088  1.00  0.00     0.102 C 
BRANCH  19  21
ATOM     21  S   UNL A   1      32.450  21.320  24.306  1.00  0.00     0.243 S 
ATOM     22  O   UNL A   1      32.087  20.221  25.173  1.00  0.00    -0.207 OA
ATOM     23  O   UNL A   1      32.076  21.334  22.905  1.00  0.00    -0.207 OA
BRANCH  21  24
ATOM     24  C   UNL A   1      34.245  21.513  24.408  1.00  0.00     0.082 A 
ATOM     25  C   UNL A   1      35.006  20.522  25.025  1.00  0.00     0.022 A 
ATOM     26  C   UNL A   1      34.892  22.627  23.844  1.00  0.00     0.022 A 
ATOM     27  C   UNL A   1      36.404  20.590  24.977  1.00  0.00     0.001 A 
ATOM     28  C   UNL A   1      36.285  22.645  23.719  1.00  0.00     0.001 A 
ATOM     29  C   UNL A   1      37.039  21.621  24.284  1.00  0.00     0.000 A 
ENDBRANCH  21  24
ENDBRANCH  19  21
ENDBRANCH  12  15
ENDBRANCH   6  11
ENDBRANCH   3   6
ENDBRANCH   1   2
BRANCH   1  30
ATOM     30  C   UNL A   1      31.468  32.171  26.571  1.00  0.00     0.042 C 
BRANCH  30  31
ATOM     31  C   UNL A   1      32.533  32.915  27.385  1.00  0.00     0.118 C 
BRANCH  31  32
ATOM     32  N   UNL A   1      32.240  34.288  27.732  1.00  0.00    -0.352 N 
ATOM     33  C   UNL A   1      32.946  35.084  28.606  1.00  0.00     0.251 C 
ATOM     34  H   UNL A   1      31.454  34.696  27.299  1.00  0.00     0.163 HD
ATOM     35  O   UNL A   1      32.594  36.236  28.833  1.00  0.00    -0.269 OA
BRANCH  33  36
ATOM     36  C   UNL A   1      34.123  34.521  29.302  1.00  0.00     0.039 A 
ATOM     37  C   UNL A   1      33.941  33.937  30.557  1.00  0.00     0.014 A 
ATOM     38  C   UNL A   1      35.392  34.569  28.719  1.00  0.00     0.014 A 
ATOM     39  C   UNL A   1      35.030  33.360  31.216  1.00  0.00     0.010 A 
ATOM     40  C   UNL A   1      36.473  33.958  29.366  1.00  0.00     0.010 A 
ATOM     41  C   UNL A   1      36.302  33.344  30.618  1.00  0.00    -0.014 A 
BRANCH  41  42
ATOM     42  C   UNL A   1      37.443  32.665  31.293  1.00  0.00     0.031 A 
ATOM     43  C   UNL A   1      38.147  31.508  30.642  1.00  0.00     0.074 A 
ATOM     44  C   UNL A   1      37.832  33.076  32.518  1.00  0.00     0.049 A 
ATOM     45  N   UNL A   1      39.148  30.788  31.087  1.00  0.00    -0.248 NA
ATOM     46  C   UNL A   1      37.650  31.096  29.322  1.00  0.00     0.031 C 
ATOM     47  C   UNL A   1      37.212  34.163  33.275  1.00  0.00     0.029 A 
ATOM     48  N   UNL A   1      38.830  32.620  33.345  1.00  0.00    -0.354 N 
ATOM     49  C   UNL A   1      39.397  29.838  30.106  1.00  0.00     0.074 A 
ATOM     50  C   UNL A   1      38.410  30.040  29.066  1.00  0.00     0.031 C 
ATOM     51  C   UNL A   1      37.848  34.297  34.450  1.00  0.00     0.029 A 
ATOM     52  C   UNL A   1      38.893  33.281  34.548  1.00  0.00     0.049 A 
ATOM     53  H   UNL A   1      39.442  31.889  33.100  1.00  0.00     0.167 HD
ATOM     54  C   UNL A   1      40.370  28.893  30.067  1.00  0.00     0.037 A 
ATOM     55  C   UNL A   1      39.688  33.083  35.618  1.00  0.00     0.037 A 
ATOM     56  C   UNL A   1      41.348  28.691  31.106  1.00  0.00     0.049 A 
ATOM     57  C   UNL A   1      40.737  32.005  35.569  1.00  0.00     0.074 A 
ATOM     58  C   UNL A   1      42.404  27.795  31.135  1.00  0.00     0.029 A 
ATOM     59  N   UNL A   1      41.378  29.380  32.311  1.00  0.00    -0.354 N 
ATOM     60  N   UNL A   1      41.017  31.166  34.601  1.00  0.00    -0.248 NA
ATOM     61  C   UNL A   1      41.590  31.851  36.757  1.00  0.00     0.031 C 
ATOM     62  C   UNL A   1      43.030  27.896  32.381  1.00  0.00     0.029 A 
ATOM     63  C   UNL A   1      42.412  28.904  33.103  1.00  0.00     0.049 A 
ATOM     64  H   UNL A   1      40.758  30.100  32.565  1.00  0.00     0.167 HD
ATOM     65  C   UNL A   1      42.088  30.405  35.050  1.00  0.00     0.074 A 
ATOM     66  C   UNL A   1      42.419  30.891  36.373  1.00  0.00     0.031 C 
ATOM     67  C   UNL A   1      42.738  29.396  34.419  1.00  0.00     0.037 A 
BRANCH  54  68
ATOM     68  C   UNL A   1      40.412  27.990  28.864  1.00  0.00     0.064 A 
ATOM     69  C   UNL A   1      41.142  28.326  27.713  1.00  0.00     0.173 A 
ATOM     70  C   UNL A   1      39.732  26.762  28.871  1.00  0.00     0.173 A 
ATOM     71  F   UNL A   1      41.809  29.489  27.652  1.00  0.00    -0.203 F 
ATOM     72  C   UNL A   1      41.153  27.489  26.599  1.00  0.00     0.198 A 
ATOM     73  C   UNL A   1      39.775  25.911  27.768  1.00  0.00     0.198 A 
ATOM     74  F   UNL A   1      39.031  26.381  29.948  1.00  0.00    -0.203 F 
ATOM     75  F   UNL A   1      41.806  27.864  25.490  1.00  0.00    -0.200 F 
ATOM     76  C   UNL A   1      40.474  26.281  26.630  1.00  0.00     0.200 A 
ATOM     77  F   UNL A   1      39.136  24.734  27.808  1.00  0.00    -0.200 F 
ATOM     78  F   UNL A   1      40.487  25.476  25.558  1.00  0.00    -0.200 F 
ENDBRANCH  54  68
BRANCH  55  79
ATOM     79  C   UNL A   1      39.516  33.929  36.830  1.00  0.00     0.064 A 
ATOM     80  C   UNL A   1      38.745  33.494  37.917  1.00  0.00     0.173 A 
ATOM     81  C   UNL A   1      40.126  35.189  36.927  1.00  0.00     0.173 A 
ATOM     82  F   UNL A   1      38.124  32.306  37.865  1.00  0.00    -0.203 F 
ATOM     83  C   UNL A   1      38.578  34.292  39.047  1.00  0.00     0.198 A 
ATOM     84  C   UNL A   1      39.986  35.971  38.071  1.00  0.00     0.198 A 
ATOM     85  F   UNL A   1      40.879  35.650  35.918  1.00  0.00    -0.203 F 
ATOM     86  F   UNL A   1      37.801  33.871  40.054  1.00  0.00    -0.200 F 
ATOM     87  C   UNL A   1      39.205  35.526  39.126  1.00  0.00     0.200 A 
ATOM     88  F   UNL A   1      40.610  37.155  38.151  1.00  0.00    -0.200 F 
ATOM     89  F   UNL A   1      39.055  36.289  40.219  1.00  0.00    -0.200 F 
ENDBRANCH  55  79
BRANCH  67  90
ATOM     90  C   UNL A   1      43.903  28.765  35.131  1.00  0.00     0.064 A 
ATOM     91  C   UNL A   1      43.742  27.658  35.977  1.00  0.00     0.173 A 
ATOM     92  C   UNL A   1      45.206  29.239  34.914  1.00  0.00     0.173 A 
ATOM     93  F   UNL A   1      42.518  27.174  36.232  1.00  0.00    -0.203 F 
ATOM     94  C   UNL A   1      44.841  27.062  36.594  1.00  0.00     0.198 A 
ATOM     95  C   UNL A   1      46.304  28.621  35.505  1.00  0.00     0.198 A 
ATOM     96  F   UNL A   1      45.417  30.293  34.110  1.00  0.00    -0.203 F 
ATOM     97  F   UNL A   1      44.660  26.032  37.432  1.00  0.00    -0.200 F 
ATOM     98  C   UNL A   1      46.121  27.537  36.348  1.00  0.00     0.200 A 
ATOM     99  F   UNL A   1      47.541  29.071  35.253  1.00  0.00    -0.200 F 
ATOM    100  F   UNL A   1      47.177  26.951  36.930  1.00  0.00    -0.200 F 
ENDBRANCH  67  90
ENDBRANCH  41  42
ENDBRANCH  33  36
ENDBRANCH  31  32
ENDBRANCH  30  31
ENDBRANCH   1  30
TORSDOF 16
ENDMDL
MODEL 2
REMARK VINA RESULT:     -12.7      0.459      7.083
REMARK SMILES CC[C@@H](C)[C@H](NC(=O)[C@H]1CCCN(S(=O)(=O)c2ccccc2)C1)C(=O)NCCCNC(=O)c1ccc(-c2c3nc(c(-c4c(F)c(F)c(F)c(F)c4F)c4ccc([nH]4)c(-c4c(F)c(F)c(F)c(F)c4F)c4nc(c(-c5c(F)c(F)c(F)c(F)c5F)c5ccc2[nH]5)C=C4)C=C3)cc1
REMARK SMILES IDX 27 1 26 2 24 3 25 4 5 6 3 7 4 8 2 9 1 10 6 11 7 12 8 14 9 15
REMARK SMILES IDX 10 16 23 17 11 18 13 19 12 20 14 21 15 22 16 23 17 24 18 25
REMARK SMILES IDX 22 26 19 27 21 28 20 29 28 30 29 31 30 32 31 33 32 35 33 36
REMARK SMILES IDX 34 37 95 38 35 39 94 40 36 41 37 42 38 43 88 44 39 45 93 46
REMARK SMILES IDX 87 47 89 48 40 49 92 50 86 51 85 52 41 54 73 55 53 56 72 57
REMARK SMILES IDX 54 58 57 59 71 60 90 61 55 62 56 63 70 65 91 66 58 67 42 68
REMARK SMILES IDX 43 69 51 70 44 71 45 72 49 73 52 74 46 75 47 76 50 77 48 78
REMARK SMILES IDX 74 79 75 80 83 81 76 82 77 83 81 84 84 85 78 86 79 87 82 88
REMARK SMILES IDX 80 89 59 90 60 91 68 92 61 93 62 94 66 95 69 96 63 97 64 98
REMARK SMILES IDX 67 99 65 100
REMARK H PARENT 26 5 6 13 30 34 89 53 57 64
REMARK Flexibility Score: inf
ROOT
ATOM      1  C   UNL A   1      31.514  30.628  26.295  1.00  0.00     0.117 C 
ENDROOT
BRANCH   1   2
ATOM      2  N   UNL A   1      32.671  29.831  26.651  1.00  0.00    -0.354 N 
ATOM      3  C   UNL A   1      33.295  28.737  26.137  1.00  0.00     0.242 C 
ATOM      4  O   UNL A   1      34.453  28.541  26.539  1.00  0.00    -0.273 OA
ATOM      5  H   UNL A   1      33.115  30.163  27.464  1.00  0.00     0.163 HD
BRANCH   3   6
ATOM      6  C   UNL A   1      32.721  27.756  25.093  1.00  0.00     0.174 C 
BRANCH   6   7
ATOM      7  C   UNL A   1      33.596  27.827  23.772  1.00  0.00     0.018 C 
ATOM      8  C   UNL A   1      33.105  28.982  22.862  1.00  0.00     0.010 C 
BRANCH   7   9
ATOM      9  C   UNL A   1      33.832  26.507  22.995  1.00  0.00     0.002 C 
ATOM     10  C   UNL A   1      33.003  26.280  21.721  1.00  0.00     0.004 C 
ENDBRANCH   7   9
ENDBRANCH   6   7
BRANCH   6  11
ATOM     11  N   UNL A   1      31.236  27.641  24.982  1.00  0.00    -0.344 N 
ATOM     12  C   UNL A   1      30.481  26.503  24.602  1.00  0.00     0.225 C 
ATOM     13  H   UNL A   1      30.721  28.452  25.197  1.00  0.00     0.164 HD
ATOM     14  O   UNL A   1      29.366  26.659  24.108  1.00  0.00    -0.275 OA
BRANCH  12  15
ATOM     15  C   UNL A   1      31.012  25.114  25.012  1.00  0.00     0.094 C 
ATOM     16  C   UNL A   1      29.879  24.546  25.848  1.00  0.00     0.016 C 
ATOM     17  C   UNL A   1      31.386  23.920  24.079  1.00  0.00     0.116 C 
ATOM     18  C   UNL A   1      30.481  23.574  26.822  1.00  0.00     0.018 C 
ATOM     19  N   UNL A   1      31.870  22.744  24.971  1.00  0.00    -0.197 NA
ATOM     20  C   UNL A   1      30.937  22.381  26.070  1.00  0.00     0.102 C 
BRANCH  19  21
ATOM     21  S   UNL A   1      32.456  21.309  24.212  1.00  0.00     0.243 S 
ATOM     22  O   UNL A   1      32.063  20.181  25.027  1.00  0.00    -0.207 OA
ATOM     23  O   UNL A   1      32.119  21.378  22.802  1.00  0.00    -0.207 OA
BRANCH  21  24
ATOM     24  C   UNL A   1      34.248  21.486  24.368  1.00  0.00     0.082 A 
ATOM     25  C   UNL A   1      34.979  20.495  25.023  1.00  0.00     0.022 A 
ATOM     26  C   UNL A   1      34.925  22.585  23.811  1.00  0.00     0.022 A 
ATOM     27  C   UNL A   1      36.378  20.548  25.019  1.00  0.00     0.001 A 
ATOM     28  C   UNL A   1      36.321  22.587  23.731  1.00  0.00     0.001 A 
ATOM     29  C   UNL A   1      37.046  21.564  24.333  1.00  0.00     0.000 A 
ENDBRANCH  21  24
ENDBRANCH  19  21
ENDBRANCH  12  15
ENDBRANCH   6  11
ENDBRANCH   3   6
ENDBRANCH   1   2
BRANCH   1  30
ATOM     30  C   UNL A   1      31.442  32.140  26.544  1.00  0.00     0.042 C 
BRANCH  30  31
ATOM     31  C   UNL A   1      32.571  32.882  27.268  1.00  0.00     0.118 C 
BRANCH  31  32
ATOM     32  N   UNL A   1      32.281  34.229  27.709  1.00  0.00    -0.352 N 
ATOM     33  C   UNL A   1      32.988  34.961  28.635  1.00  0.00     0.251 C 
ATOM     34  H   UNL A   1      31.496  34.667  27.304  1.00  0.00     0.163 HD
ATOM     35  O   UNL A   1      32.639  36.095  28.940  1.00  0.00    -0.269 OA
BRANCH  33  36
ATOM     36  C   UNL A   1      34.164  34.349  29.291  1.00  0.00     0.039 A 
ATOM     37  C   UNL A   1      33.959  33.547  30.415  1.00  0.00     0.014 A 
ATOM     38  C   UNL A   1      35.454  34.564  28.799  1.00  0.00     0.014 A 
ATOM     39  C   UNL A   1      35.049  32.923  31.027  1.00  0.00     0.010 A 
ATOM     40  C   UNL A   1      36.539  33.908  29.393  1.00  0.00     0.010 A 
ATOM     41  C   UNL A   1      36.346  33.078  30.509  1.00  0.00    -0.014 A 
BRANCH  41  42
ATOM     42  C   UNL A   1      37.494  32.353  31.123  1.00  0.00     0.031 A 
ATOM     43  C   UNL A   1      38.003  32.730  32.486  1.00  0.00     0.074 A 
ATOM     44  C   UNL A   1      38.103  31.366  30.437  1.00  0.00     0.049 A 
ATOM     45  N   UNL A   1      38.999  32.221  33.170  1.00  0.00    -0.248 NA
ATOM     46  C   UNL A   1      37.312  33.836  33.164  1.00  0.00     0.031 C 
ATOM     47  C   UNL A   1      37.731  30.925  29.092  1.00  0.00     0.029 A 
ATOM     48  N   UNL A   1      39.169  30.564  30.766  1.00  0.00    -0.354 N 
ATOM     49  C   UNL A   1      39.055  32.946  34.354  1.00  0.00     0.074 A 
ATOM     50  C   UNL A   1      38.027  33.962  34.272  1.00  0.00     0.031 C 
ATOM     51  C   UNL A   1      38.547  29.928  28.716  1.00  0.00     0.029 A 
ATOM     52  C   UNL A   1      39.526  29.685  29.773  1.00  0.00     0.049 A 
ATOM     53  H   UNL A   1      39.634  30.615  31.633  1.00  0.00     0.167 HD
ATOM     54  C   UNL A   1      39.877  32.770  35.419  1.00  0.00     0.037 A 
ATOM     55  C   UNL A   1      40.537  28.796  29.708  1.00  0.00     0.037 A 
ATOM     56  C   UNL A   1      40.903  31.760  35.495  1.00  0.00     0.049 A 
ATOM     57  C   UNL A   1      41.461  28.641  30.886  1.00  0.00     0.074 A 
ATOM     58  C   UNL A   1      41.752  31.469  36.550  1.00  0.00     0.029 A 
ATOM     59  N   UNL A   1      41.236  30.889  34.466  1.00  0.00    -0.354 N 
ATOM     60  N   UNL A   1      41.452  29.276  32.033  1.00  0.00    -0.248 NA
ATOM     61  C   UNL A   1      42.530  27.640  30.767  1.00  0.00     0.031 C 
ATOM     62  C   UNL A   1      42.639  30.470  36.137  1.00  0.00     0.029 A 
ATOM     63  C   UNL A   1      42.298  30.086  34.850  1.00  0.00     0.049 A 
ATOM     64  H   UNL A   1      40.783  30.847  33.593  1.00  0.00     0.167 HD
ATOM     65  C   UNL A   1      42.493  28.737  32.779  1.00  0.00     0.074 A 
ATOM     66  C   UNL A   1      43.104  27.711  31.960  1.00  0.00     0.031 C 
ATOM     67  C   UNL A   1      42.900  29.063  34.030  1.00  0.00     0.037 A 
BRANCH  54  68
ATOM     68  C   UNL A   1      39.712  33.706  36.585  1.00  0.00     0.064 A 
ATOM     69  C   UNL A   1      40.350  34.956  36.625  1.00  0.00     0.173 A 
ATOM     70  C   UNL A   1      38.886  33.359  37.666  1.00  0.00     0.173 A 
ATOM     71  F   UNL A   1      41.151  35.338  35.619  1.00  0.00    -0.203 F 
ATOM     72  C   UNL A   1      40.204  35.802  37.723  1.00  0.00     0.198 A 
ATOM     73  C   UNL A   1      38.714  34.223  38.745  1.00  0.00     0.198 A 
ATOM     74  F   UNL A   1      38.240  32.184  37.675  1.00  0.00    -0.203 F 
ATOM     75  F   UNL A   1      40.874  36.961  37.765  1.00  0.00    -0.200 F 
ATOM     76  C   UNL A   1      39.383  35.437  38.778  1.00  0.00     0.200 A 
ATOM     77  F   UNL A   1      37.904  33.878  39.754  1.00  0.00    -0.200 F 
ATOM     78  F   UNL A   1      39.242  36.253  39.833  1.00  0.00    -0.200 F 
ENDBRANCH  54  68
BRANCH  55  79
ATOM     79  C   UNL A   1      40.726  27.984  28.476  1.00  0.00     0.064 A 
ATOM     80  C   UNL A   1      40.137  26.720  28.340  1.00  0.00     0.173 A 
ATOM     81  C   UNL A   1      41.496  28.462  27.404  1.00  0.00     0.173 A 
ATOM     82  F   UNL A   1      39.409  26.209  29.344  1.00  0.00    -0.203 F 
ATOM     83  C   UNL A   1      40.323  25.958  27.188  1.00  0.00     0.198 A 
ATOM     84  C   UNL A   1      41.654  27.714  26.240  1.00  0.00     0.198 A 
ATOM     85  F   UNL A   1      42.077  29.668  27.480  1.00  0.00    -0.203 F 
ATOM     86  F   UNL A   1      39.785  24.734  27.101  1.00  0.00    -0.200 F 
ATOM     87  C   UNL A   1      41.075  26.459  26.136  1.00  0.00     0.200 A 
ATOM     88  F   UNL A   1      42.365  28.211  25.218  1.00  0.00    -0.200 F 
ATOM     89  F   UNL A   1      41.244  25.732  25.023  1.00  0.00    -0.200 F 
ENDBRANCH  55  79
BRANCH  67  90
ATOM     90  C   UNL A   1      44.043  28.281  34.617  1.00  0.00     0.064 A 
ATOM     91  C   UNL A   1      45.368  28.734  34.538  1.00  0.00     0.173 A 
ATOM     92  C   UNL A   1      43.799  27.091  35.320  1.00  0.00     0.173 A 
ATOM     93  F   UNL A   1      45.660  29.857  33.864  1.00  0.00    -0.203 F 
ATOM     94  C   UNL A   1      46.407  28.015  35.125  1.00  0.00     0.198 A 
ATOM     95  C   UNL A   1      44.835  26.393  35.933  1.00  0.00     0.198 A 
ATOM     96  F   UNL A   1      42.549  26.614  35.429  1.00  0.00    -0.203 F 
ATOM     97  F   UNL A   1      47.671  28.444  35.001  1.00  0.00    -0.200 F 
ATOM     98  C   UNL A   1      46.139  26.852  35.831  1.00  0.00     0.200 A 
ATOM     99  F   UNL A   1      44.571  25.278  36.629  1.00  0.00    -0.200 F 
ATOM    100  F   UNL A   1      47.138  26.171  36.408  1.00  0.00    -0.200 F 
ENDBRANCH  67  90
ENDBRANCH  41  42
ENDBRANCH  33  36
ENDBRANCH  31  32
ENDBRANCH  30  31
ENDBRANCH   1  30
TORSDOF 16
ENDMDL
MODEL 3
REMARK VINA RESULT:     -12.7      1.199      7.303
REMARK SMILES CC[C@@H](C)[C@H](NC(=O)[C@H]1CCCN(S(=O)(=O)c2ccccc2)C1)C(=O)NCCCNC(=O)c1ccc(-c2c3nc(c(-c4c(F)c(F)c(F)c(F)c4F)c4ccc([nH]4)c(-c4c(F)c(F)c(F)c(F)c4F)c4nc(c(-c5c(F)c(F)c(F)c(F)c5F)c5ccc2[nH]5)C=C4)C=C3)cc1
REMARK SMILES IDX 27 1 26 2 24 3 25 4 5 6 3 7 4 8 2 9 1 10 6 11 7 12 8 14 9 15
REMARK SMILES IDX 10 16 23 17 11 18 13 19 12 20 14 21 15 22 16 23 17 24 18 25
REMARK SMILES IDX 22 26 19 27 21 28 20 29 28 30 29 31 30 32 31 33 32 35 33 36
REMARK SMILES IDX 34 37 95 38 35 39 94 40 36 41 37 42 38 43 88 44 39 45 93 46
REMARK SMILES IDX 87 47 89 48 40 49 92 50 86 51 85 52 41 54 73 55 53 56 72 57
REMARK SMILES IDX 54 58 57 59 71 60 90 61 55 62 56 63 70 65 91 66 58 67 42 68
REMARK SMILES IDX 43 69 51 70 44 71 45 72 49 73 52 74 46 75 47 76 50 77 48 78
REMARK SMILES IDX 74 79 75 80 83 81 76 82 77 83 81 84 84 85 78 86 79 87 82 88
REMARK SMILES IDX 80 89 59 90 60 91 68 92 61 93 62 94 66 95 69 96 63 97 64 98
REMARK SMILES IDX 67 99 65 100
REMARK H PARENT 26 5 6 13 30 34 89 53 57 64
REMARK Flexibility Score: inf
ROOT
ATOM      1  C   UNL A   1      31.611  30.594  25.737  1.00  0.00     0.117 C 
ENDROOT
BRANCH   1   2
ATOM      2  N   UNL A   1      30.847  30.382  24.523  1.00  0.00    -0.354 N 
ATOM      3  C   UNL A   1      30.707  29.371  23.625  1.00  0.00     0.242 C 
ATOM      4  O   UNL A   1      29.709  29.440  22.890  1.00  0.00    -0.273 OA
ATOM      5  H   UNL A   1      30.294  31.163  24.292  1.00  0.00     0.163 HD
BRANCH   3   6
ATOM      6  C   UNL A   1      31.637  28.150  23.461  1.00  0.00     0.174 C 
BRANCH   6   7
ATOM      7  C   UNL A   1      33.081  28.516  24.005  1.00  0.00     0.018 C 
ATOM      8  C   UNL A   1      34.038  28.827  22.826  1.00  0.00     0.010 C 
BRANCH   7   9
ATOM      9  C   UNL A   1      33.712  27.573  25.060  1.00  0.00     0.002 C 
ATOM     10  C   UNL A   1      34.098  28.188  26.415  1.00  0.00     0.004 C 
ENDBRANCH   7   9
ENDBRANCH   6   7
BRANCH   6  11
ATOM     11  N   UNL A   1      31.510  27.334  22.216  1.00  0.00    -0.344 N 
ATOM     12  C   UNL A   1      32.047  26.047  21.966  1.00  0.00     0.225 C 
ATOM     13  H   UNL A   1      30.992  27.739  21.483  1.00  0.00     0.164 HD
ATOM     14  O   UNL A   1      32.272  25.705  20.807  1.00  0.00    -0.275 OA
BRANCH  12  15
ATOM     15  C   UNL A   1      32.135  25.058  23.147  1.00  0.00     0.094 C 
ATOM     16  C   UNL A   1      30.679  24.776  23.469  1.00  0.00     0.016 C 
ATOM     17  C   UNL A   1      32.775  23.635  23.156  1.00  0.00     0.116 C 
ATOM     18  C   UNL A   1      30.600  24.415  24.925  1.00  0.00     0.018 C 
ATOM     19  N   UNL A   1      32.611  23.042  24.582  1.00  0.00    -0.197 NA
ATOM     20  C   UNL A   1      31.221  23.082  25.110  1.00  0.00     0.102 C 
BRANCH  19  21
ATOM     21  S   UNL A   1      33.318  21.506  24.933  1.00  0.00     0.243 S 
ATOM     22  O   UNL A   1      32.754  21.029  26.176  1.00  0.00    -0.207 OA
ATOM     23  O   UNL A   1      33.272  20.706  23.724  1.00  0.00    -0.207 OA
BRANCH  21  24
ATOM     24  C   UNL A   1      35.044  21.934  25.256  1.00  0.00     0.082 A 
ATOM     25  C   UNL A   1      36.045  21.010  24.960  1.00  0.00     0.022 A 
ATOM     26  C   UNL A   1      35.401  23.195  25.767  1.00  0.00     0.022 A 
ATOM     27  C   UNL A   1      37.390  21.386  25.067  1.00  0.00     0.001 A 
ATOM     28  C   UNL A   1      36.741  23.596  25.784  1.00  0.00     0.001 A 
ATOM     29  C   UNL A   1      37.734  22.689  25.430  1.00  0.00     0.000 A 
ENDBRANCH  21  24
ENDBRANCH  19  21
ENDBRANCH  12  15
ENDBRANCH   6  11
ENDBRANCH   3   6
ENDBRANCH   1   2
BRANCH   1  30
ATOM     30  C   UNL A   1      31.398  31.809  26.648  1.00  0.00     0.042 C 
BRANCH  30  31
ATOM     31  C   UNL A   1      32.583  32.616  27.189  1.00  0.00     0.118 C 
BRANCH  31  32
ATOM     32  N   UNL A   1      32.313  33.983  27.575  1.00  0.00    -0.352 N 
ATOM     33  C   UNL A   1      33.035  34.744  28.467  1.00  0.00     0.251 C 
ATOM     34  H   UNL A   1      31.532  34.414  27.157  1.00  0.00     0.163 HD
ATOM     35  O   UNL A   1      32.702  35.894  28.726  1.00  0.00    -0.269 OA
BRANCH  33  36
ATOM     36  C   UNL A   1      34.207  34.144  29.141  1.00  0.00     0.039 A 
ATOM     37  C   UNL A   1      33.988  33.255  30.195  1.00  0.00     0.014 A 
ATOM     38  C   UNL A   1      35.507  34.457  28.735  1.00  0.00     0.014 A 
ATOM     39  C   UNL A   1      35.077  32.643  30.820  1.00  0.00     0.010 A 
ATOM     40  C   UNL A   1      36.593  33.813  29.339  1.00  0.00     0.010 A 
ATOM     41  C   UNL A   1      36.389  32.897  30.385  1.00  0.00    -0.014 A 
BRANCH  41  42
ATOM     42  C   UNL A   1      37.541  32.188  31.008  1.00  0.00     0.031 A 
ATOM     43  C   UNL A   1      38.032  32.569  32.376  1.00  0.00     0.074 A 
ATOM     44  C   UNL A   1      38.170  31.210  30.325  1.00  0.00     0.049 A 
ATOM     45  N   UNL A   1      39.028  32.073  33.069  1.00  0.00    -0.248 NA
ATOM     46  C   UNL A   1      37.319  33.664  33.049  1.00  0.00     0.031 C 
ATOM     47  C   UNL A   1      37.817  30.766  28.977  1.00  0.00     0.029 A 
ATOM     48  N   UNL A   1      39.244  30.422  30.664  1.00  0.00    -0.354 N 
ATOM     49  C   UNL A   1      39.063  32.795  34.254  1.00  0.00     0.074 A 
ATOM     50  C   UNL A   1      38.022  33.798  34.165  1.00  0.00     0.031 C 
ATOM     51  C   UNL A   1      38.650  29.782  28.607  1.00  0.00     0.029 A 
ATOM     52  C   UNL A   1      39.622  29.550  29.672  1.00  0.00     0.049 A 
ATOM     53  H   UNL A   1      39.700  30.478  31.535  1.00  0.00     0.167 HD
ATOM     54  C   UNL A   1      39.877  32.629  35.326  1.00  0.00     0.037 A 
ATOM     55  C   UNL A   1      40.645  28.675  29.615  1.00  0.00     0.037 A 
ATOM     56  C   UNL A   1      40.916  31.633  35.411  1.00  0.00     0.049 A 
ATOM     57  C   UNL A   1      41.560  28.531  30.802  1.00  0.00     0.074 A 
ATOM     58  C   UNL A   1      41.759  31.352  36.473  1.00  0.00     0.029 A 
ATOM     59  N   UNL A   1      41.270  30.769  34.384  1.00  0.00    -0.354 N 
ATOM     60  N   UNL A   1      41.532  29.164  31.950  1.00  0.00    -0.248 NA
ATOM     61  C   UNL A   1      42.645  27.545  30.691  1.00  0.00     0.031 C 
ATOM     62  C   UNL A   1      42.663  30.366  36.067  1.00  0.00     0.029 A 
ATOM     63  C   UNL A   1      42.340  29.979  34.776  1.00  0.00     0.049 A 
ATOM     64  H   UNL A   1      40.826  30.722  33.506  1.00  0.00     0.167 HD
ATOM     65  C   UNL A   1      42.573  28.637  32.705  1.00  0.00     0.074 A 
ATOM     66  C   UNL A   1      43.206  27.622  31.890  1.00  0.00     0.031 C 
ATOM     67  C   UNL A   1      42.964  28.967  33.960  1.00  0.00     0.037 A 
BRANCH  54  68
ATOM     68  C   UNL A   1      39.688  33.560  36.493  1.00  0.00     0.064 A 
ATOM     69  C   UNL A   1      38.866  33.225  37.580  1.00  0.00     0.173 A 
ATOM     70  C   UNL A   1      40.355  34.795  36.535  1.00  0.00     0.173 A 
ATOM     71  F   UNL A   1      38.204  32.058  37.592  1.00  0.00    -0.203 F 
ATOM     72  C   UNL A   1      38.684  34.108  38.643  1.00  0.00     0.198 A 
ATOM     73  C   UNL A   1      40.199  35.659  37.616  1.00  0.00     0.198 A 
ATOM     74  F   UNL A   1      41.165  35.162  35.531  1.00  0.00    -0.203 F 
ATOM     75  F   UNL A   1      37.844  33.790  39.638  1.00  0.00    -0.200 F 
ATOM     76  C   UNL A   1      39.354  35.321  38.661  1.00  0.00     0.200 A 
ATOM     77  F   UNL A   1      40.864  36.822  37.642  1.00  0.00    -0.200 F 
ATOM     78  F   UNL A   1      39.179  36.169  39.685  1.00  0.00    -0.200 F 
ENDBRANCH  54  68
BRANCH  55  79
ATOM     79  C   UNL A   1      40.857  27.868  28.384  1.00  0.00     0.064 A 
ATOM     80  C   UNL A   1      41.640  28.349  27.325  1.00  0.00     0.173 A 
ATOM     81  C   UNL A   1      40.285  26.594  28.245  1.00  0.00     0.173 A 
ATOM     82  F   UNL A   1      42.192  29.569  27.400  1.00  0.00    -0.203 F 
ATOM     83  C   UNL A   1      41.829  27.594  26.169  1.00  0.00     0.198 A 
ATOM     84  C   UNL A   1      40.502  25.828  27.102  1.00  0.00     0.198 A 
ATOM     85  F   UNL A   1      39.532  26.085  29.230  1.00  0.00    -0.203 F 
ATOM     86  F   UNL A   1      42.546  28.095  25.153  1.00  0.00    -0.200 F 
ATOM     87  C   UNL A   1      41.267  26.331  26.061  1.00  0.00     0.200 A 
ATOM     88  F   UNL A   1      39.973  24.599  27.012  1.00  0.00    -0.200 F 
ATOM     89  F   UNL A   1      41.459  25.600  24.955  1.00  0.00    -0.200 F 
ENDBRANCH  55  79
BRANCH  67  90
ATOM     90  C   UNL A   1      44.112  28.199  34.556  1.00  0.00     0.064 A 
ATOM     91  C   UNL A   1      43.916  27.009  35.270  1.00  0.00     0.173 A 
ATOM     92  C   UNL A   1      45.433  28.633  34.356  1.00  0.00     0.173 A 
ATOM     93  F   UNL A   1      42.675  26.558  35.504  1.00  0.00    -0.203 F 
ATOM     94  C   UNL A   1      44.998  26.291  35.778  1.00  0.00     0.198 A 
ATOM     95  C   UNL A   1      46.512  27.897  34.835  1.00  0.00     0.198 A 
ATOM     96  F   UNL A   1      45.677  29.764  33.676  1.00  0.00    -0.203 F 
ATOM     97  F   UNL A   1      44.785  25.179  36.494  1.00  0.00    -0.200 F 
ATOM     98  C   UNL A   1      46.294  26.730  35.551  1.00  0.00     0.200 A 
ATOM     99  F   UNL A   1      47.763  28.314  34.600  1.00  0.00    -0.200 F 
ATOM    100  F   UNL A   1      47.333  26.029  36.026  1.00  0.00    -0.200 F 
ENDBRANCH  67  90
ENDBRANCH  41  42
ENDBRANCH  33  36
ENDBRANCH  31  32
ENDBRANCH  30  31
ENDBRANCH   1  30
TORSDOF 16
ENDMDL
