MODEL 1
REMARK VINA RESULT:     -11.2      0.000      0.000
REMARK SMILES CC1CC[NH+]([C@H](c2ccc(F)cc2)c2ccc([C@@H](C)C(=O)NCCCNC(=O)c3ccc(-c4c5nc(c(-c6c(F)c(F)c(F)c(F)c6F)c6ccc([nH]6)c(-c6c(F)c(F)c(F)c(F)c6F)c6nc(c(-c7c(F)c(F)c(F)c(F)c7F)c7ccc4[nH]7)C=C6)C=C5)cc3)cc2-c2ccc(C(F)(F)F)cc2)CC1
REMARK SMILES IDX 23 1 22 2 20 3 21 4 18 6 19 7 17 8 14 9 15 10 93 11 16 12
REMARK SMILES IDX 92 13 6 14 5 15 1 16 2 17 3 18 105 19 4 20 104 21 7 23 8 24
REMARK SMILES IDX 13 25 9 26 12 27 10 28 11 29 94 30 95 31 103 32 96 33 102 34
REMARK SMILES IDX 97 35 98 36 99 37 100 38 101 39 24 40 25 41 26 42 27 43
REMARK SMILES IDX 28 45 29 46 30 47 91 48 31 49 90 50 32 51 33 52 34 53 84 54
REMARK SMILES IDX 35 55 89 56 83 57 85 58 36 59 88 60 82 61 81 62 37 64 69 65
REMARK SMILES IDX 49 66 68 67 50 68 53 69 67 70 86 71 51 72 52 73 66 75 87 76
REMARK SMILES IDX 54 77 38 78 39 79 47 80 40 81 41 82 45 83 48 84 42 85 43 86
REMARK SMILES IDX 46 87 44 88 70 89 71 90 79 91 72 92 73 93 77 94 80 95 74 96
REMARK SMILES IDX 75 97 78 98 76 99 55 100 56 101 64 102 57 103 58 104 62 105
REMARK SMILES IDX 65 106 59 107 60 108 63 109 61 110
REMARK H PARENT 22 5 5 22 26 44 85 63 53 74
REMARK Flexibility Score: inf
ROOT
ATOM      1  C   UNL A   1      33.537  34.296  29.327  1.00  0.00     0.117 C 
ENDROOT
BRANCH   1   2
ATOM      2  N   UNL A   1      33.650  35.684  29.740  1.00  0.00    -0.356 N 
ATOM      3  C   UNL A   1      33.574  36.307  30.950  1.00  0.00     0.227 C 
ATOM      4  O   UNL A   1      33.666  37.541  30.920  1.00  0.00    -0.274 OA
ATOM      5  H   UNL A   1      33.814  36.303  28.992  1.00  0.00     0.163 HD
BRANCH   3   6
ATOM      6  C   UNL A   1      33.381  35.592  32.303  1.00  0.00     0.105 C 
ATOM      7  C   UNL A   1      32.729  36.444  33.389  1.00  0.00     0.023 C 
BRANCH   6   8
ATOM      8  C   UNL A   1      34.612  34.818  32.744  1.00  0.00    -0.035 A 
ATOM      9  C   UNL A   1      36.999  33.670  33.840  1.00  0.00     0.022 A 
ATOM     10  C   UNL A   1      35.718  33.386  34.341  1.00  0.00     0.011 A 
ATOM     11  C   UNL A   1      37.049  34.420  32.633  1.00  0.00    -0.009 A 
ATOM     12  C   UNL A   1      34.554  33.882  33.762  1.00  0.00     0.005 A 
ATOM     13  C   UNL A   1      35.864  35.042  32.158  1.00  0.00     0.013 A 
BRANCH   9  14
ATOM     14  C   UNL A   1      38.277  33.124  34.550  1.00  0.00     0.247 C 
BRANCH  14  15
ATOM     15  N   UNL A   1      38.490  31.638  34.563  1.00  0.00    -0.325 N 
ATOM     16  C   UNL A   1      40.141  27.922  32.891  1.00  0.00     0.008 C 
ATOM     17  C   UNL A   1      39.692  29.335  33.231  1.00  0.00    -0.003 C 
ATOM     18  C   UNL A   1      40.268  29.806  34.563  1.00  0.00     0.065 C 
ATOM     19  C   UNL A   1      38.176  29.435  33.345  1.00  0.00     0.065 C 
ATOM     20  C   UNL A   1      39.866  31.251  34.883  1.00  0.00     0.263 C 
ATOM     21  C   UNL A   1      37.758  30.893  33.536  1.00  0.00     0.263 C 
ATOM     22  H   UNL A   1      37.995  31.278  35.380  1.00  0.00     0.348 HD
ENDBRANCH  14  15
BRANCH  14  23
ATOM     23  C   UNL A   1      38.501  33.695  35.964  1.00  0.00     0.014 A 
ATOM     24  C   UNL A   1      39.317  34.820  36.198  1.00  0.00     0.013 A 
ATOM     25  C   UNL A   1      37.877  33.083  37.068  1.00  0.00     0.013 A 
ATOM     26  C   UNL A   1      39.503  35.312  37.491  1.00  0.00     0.040 A 
ATOM     27  C   UNL A   1      38.085  33.561  38.363  1.00  0.00     0.040 A 
ATOM     28  C   UNL A   1      38.892  34.673  38.562  1.00  0.00     0.123 A 
ATOM     29  F   UNL A   1      39.084  35.135  39.804  1.00  0.00    -0.207 F 
ENDBRANCH  14  23
ENDBRANCH   9  14
BRANCH  11  30
ATOM     30  C   UNL A   1      38.258  34.524  31.792  1.00  0.00    -0.018 A 
ATOM     31  C   UNL A   1      39.543  34.604  32.348  1.00  0.00     0.009 A 
ATOM     32  C   UNL A   1      38.138  34.599  30.393  1.00  0.00     0.009 A 
ATOM     33  C   UNL A   1      40.673  34.720  31.530  1.00  0.00     0.014 A 
ATOM     34  C   UNL A   1      39.264  34.706  29.573  1.00  0.00     0.014 A 
ATOM     35  C   UNL A   1      40.545  34.759  30.134  1.00  0.00     0.056 A 
BRANCH  35  36
ATOM     36  C   UNL A   1      41.768  34.885  29.260  1.00  0.00     0.416 C 
ATOM     37  F   UNL A   1      42.374  33.687  29.037  1.00  0.00    -0.166 F 
ATOM     38  F   UNL A   1      41.489  35.399  28.030  1.00  0.00    -0.166 F 
ATOM     39  F   UNL A   1      42.729  35.695  29.789  1.00  0.00    -0.166 F 
ENDBRANCH  35  36
ENDBRANCH  11  30
ENDBRANCH   6   8
ENDBRANCH   3   6
ENDBRANCH   1   2
BRANCH   1  40
ATOM     40  C   UNL A   1      34.201  34.033  27.975  1.00  0.00     0.042 C 
BRANCH  40  41
ATOM     41  C   UNL A   1      35.133  32.832  27.937  1.00  0.00     0.118 C 
BRANCH  41  42
ATOM     42  N   UNL A   1      34.411  31.574  27.836  1.00  0.00    -0.352 N 
ATOM     43  C   UNL A   1      34.847  30.272  27.868  1.00  0.00     0.251 C 
ATOM     44  H   UNL A   1      33.438  31.673  27.726  1.00  0.00     0.163 HD
ATOM     45  O   UNL A   1      34.054  29.382  27.569  1.00  0.00    -0.269 OA
BRANCH  43  46
ATOM     46  C   UNL A   1      36.237  29.909  28.242  1.00  0.00     0.039 A 
ATOM     47  C   UNL A   1      37.245  30.070  27.279  1.00  0.00     0.014 A 
ATOM     48  C   UNL A   1      36.561  29.333  29.473  1.00  0.00     0.014 A 
ATOM     49  C   UNL A   1      38.561  29.690  27.561  1.00  0.00     0.010 A 
ATOM     50  C   UNL A   1      37.888  29.035  29.785  1.00  0.00     0.010 A 
ATOM     51  C   UNL A   1      38.899  29.188  28.826  1.00  0.00    -0.014 A 
BRANCH  51  52
ATOM     52  C   UNL A   1      40.293  28.784  29.154  1.00  0.00     0.031 A 
ATOM     53  C   UNL A   1      41.176  29.696  29.956  1.00  0.00     0.074 A 
ATOM     54  C   UNL A   1      40.785  27.621  28.688  1.00  0.00     0.049 A 
ATOM     55  N   UNL A   1      42.436  29.553  30.282  1.00  0.00    -0.248 NA
ATOM     56  C   UNL A   1      40.570  30.946  30.441  1.00  0.00     0.031 C 
ATOM     57  C   UNL A   1      40.035  26.658  27.889  1.00  0.00     0.029 A 
ATOM     58  N   UNL A   1      42.030  27.055  28.807  1.00  0.00    -0.354 N 
ATOM     59  C   UNL A   1      42.769  30.688  31.007  1.00  0.00     0.074 A 
ATOM     60  C   UNL A   1      41.603  31.544  31.015  1.00  0.00     0.031 C 
ATOM     61  C   UNL A   1      40.827  25.617  27.589  1.00  0.00     0.029 A 
ATOM     62  C   UNL A   1      42.150  25.852  28.157  1.00  0.00     0.049 A 
ATOM     63  H   UNL A   1      42.766  27.472  29.311  1.00  0.00     0.167 HD
ATOM     64  C   UNL A   1      43.932  30.975  31.640  1.00  0.00     0.037 A 
ATOM     65  C   UNL A   1      43.205  25.025  28.031  1.00  0.00     0.037 A 
ATOM     66  C   UNL A   1      45.085  30.114  31.646  1.00  0.00     0.049 A 
ATOM     67  C   UNL A   1      44.497  25.377  28.709  1.00  0.00     0.074 A 
ATOM     68  C   UNL A   1      46.295  30.296  32.291  1.00  0.00     0.029 A 
ATOM     69  N   UNL A   1      45.169  28.902  30.973  1.00  0.00    -0.354 N 
ATOM     70  N   UNL A   1      44.787  26.434  29.428  1.00  0.00    -0.248 NA
ATOM     71  C   UNL A   1      45.602  24.420  28.571  1.00  0.00     0.031 C 
ATOM     72  C   UNL A   1      47.125  29.214  31.980  1.00  0.00     0.029 A 
ATOM     73  C   UNL A   1      46.417  28.335  31.176  1.00  0.00     0.049 A 
ATOM     74  H   UNL A   1      44.449  28.506  30.431  1.00  0.00     0.167 HD
ATOM     75  C   UNL A   1      46.094  26.256  29.857  1.00  0.00     0.074 A 
ATOM     76  C   UNL A   1      46.542  24.988  29.317  1.00  0.00     0.031 C 
ATOM     77  C   UNL A   1      46.848  27.069  30.635  1.00  0.00     0.037 A 
BRANCH  64  78
ATOM     78  C   UNL A   1      44.003  32.269  32.396  1.00  0.00     0.064 A 
ATOM     79  C   UNL A   1      43.628  32.334  33.747  1.00  0.00     0.173 A 
ATOM     80  C   UNL A   1      44.421  33.456  31.774  1.00  0.00     0.173 A 
ATOM     81  F   UNL A   1      43.218  31.229  34.388  1.00  0.00    -0.203 F 
ATOM     82  C   UNL A   1      43.668  33.538  34.444  1.00  0.00     0.198 A 
ATOM     83  C   UNL A   1      44.487  34.653  32.482  1.00  0.00     0.198 A 
ATOM     84  F   UNL A   1      44.803  33.447  30.488  1.00  0.00    -0.203 F 
ATOM     85  F   UNL A   1      43.287  33.581  35.728  1.00  0.00    -0.200 F 
ATOM     86  C   UNL A   1      44.105  34.695  33.815  1.00  0.00     0.200 A 
ATOM     87  F   UNL A   1      44.937  35.763  31.880  1.00  0.00    -0.200 F 
ATOM     88  F   UNL A   1      44.165  35.848  34.494  1.00  0.00    -0.200 F 
ENDBRANCH  64  78
BRANCH  65  89
ATOM     89  C   UNL A   1      43.043  23.757  27.277  1.00  0.00     0.064 A 
ATOM     90  C   UNL A   1      42.518  22.607  27.884  1.00  0.00     0.173 A 
ATOM     91  C   UNL A   1      43.485  23.654  25.951  1.00  0.00     0.173 A 
ATOM     92  F   UNL A   1      42.092  22.654  29.154  1.00  0.00    -0.203 F 
ATOM     93  C   UNL A   1      42.463  21.395  27.199  1.00  0.00     0.198 A 
ATOM     94  C   UNL A   1      43.411  22.447  25.260  1.00  0.00     0.198 A 
ATOM     95  F   UNL A   1      43.983  24.732  25.327  1.00  0.00    -0.203 F 
ATOM     96  F   UNL A   1      41.994  20.299  27.812  1.00  0.00    -0.200 F 
ATOM     97  C   UNL A   1      42.910  21.316  25.888  1.00  0.00     0.200 A 
ATOM     98  F   UNL A   1      43.832  22.378  23.990  1.00  0.00    -0.200 F 
ATOM     99  F   UNL A   1      42.862  20.150  25.230  1.00  0.00    -0.200 F 
ENDBRANCH  65  89
BRANCH  77 100
ATOM    100  C   UNL A   1      48.232  26.608  30.981  1.00  0.00     0.064 A 
ATOM    101  C   UNL A   1      48.453  25.825  32.125  1.00  0.00     0.173 A 
ATOM    102  C   UNL A   1      49.346  26.996  30.223  1.00  0.00     0.173 A 
ATOM    103  F   UNL A   1      47.419  25.435  32.886  1.00  0.00    -0.203 F 
ATOM    104  C   UNL A   1      49.740  25.460  32.506  1.00  0.00     0.198 A 
ATOM    105  C   UNL A   1      50.631  26.607  30.593  1.00  0.00     0.198 A 
ATOM    106  F   UNL A   1      49.183  27.731  29.113  1.00  0.00    -0.203 F 
ATOM    107  F   UNL A   1      49.929  24.739  33.620  1.00  0.00    -0.200 F 
ATOM    108  C   UNL A   1      50.828  25.848  31.738  1.00  0.00     0.200 A 
ATOM    109  F   UNL A   1      51.679  26.962  29.838  1.00  0.00    -0.200 F 
ATOM    110  F   UNL A   1      52.066  25.489  32.101  1.00  0.00    -0.200 F 
ENDBRANCH  77 100
ENDBRANCH  51  52
ENDBRANCH  43  46
ENDBRANCH  41  42
ENDBRANCH  40  41
ENDBRANCH   1  40
TORSDOF 16
ENDMDL
MODEL 2
REMARK VINA RESULT:     -10.6      4.679     12.882
REMARK SMILES CC1CC[NH+]([C@H](c2ccc(F)cc2)c2ccc([C@@H](C)C(=O)NCCCNC(=O)c3ccc(-c4c5nc(c(-c6c(F)c(F)c(F)c(F)c6F)c6ccc([nH]6)c(-c6c(F)c(F)c(F)c(F)c6F)c6nc(c(-c7c(F)c(F)c(F)c(F)c7F)c7ccc4[nH]7)C=C6)C=C5)cc3)cc2-c2ccc(C(F)(F)F)cc2)CC1
REMARK SMILES IDX 23 1 22 2 20 3 21 4 18 6 19 7 17 8 14 9 15 10 93 11 16 12
REMARK SMILES IDX 92 13 6 14 5 15 1 16 2 17 3 18 105 19 4 20 104 21 7 23 8 24
REMARK SMILES IDX 13 25 9 26 12 27 10 28 11 29 94 30 95 31 103 32 96 33 102 34
REMARK SMILES IDX 97 35 98 36 99 37 100 38 101 39 24 40 25 41 26 42 27 43
REMARK SMILES IDX 28 45 29 46 30 47 91 48 31 49 90 50 32 51 33 52 34 53 84 54
REMARK SMILES IDX 35 55 89 56 83 57 85 58 36 59 88 60 82 61 81 62 37 64 69 65
REMARK SMILES IDX 49 66 68 67 50 68 53 69 67 70 86 71 51 72 52 73 66 75 87 76
REMARK SMILES IDX 54 77 38 78 39 79 47 80 40 81 41 82 45 83 48 84 42 85 43 86
REMARK SMILES IDX 46 87 44 88 70 89 71 90 79 91 72 92 73 93 77 94 80 95 74 96
REMARK SMILES IDX 75 97 78 98 76 99 55 100 56 101 64 102 57 103 58 104 62 105
REMARK SMILES IDX 65 106 59 107 60 108 63 109 61 110
REMARK H PARENT 22 5 5 22 26 44 85 63 53 74
REMARK Flexibility Score: inf
ROOT
ATOM      1  C   UNL A   1      51.649  25.404  25.726  1.00  0.00     0.117 C 
ENDROOT
BRANCH   1   2
ATOM      2  N   UNL A   1      51.152  26.768  25.788  1.00  0.00    -0.356 N 
ATOM      3  C   UNL A   1      50.246  27.465  25.047  1.00  0.00     0.227 C 
ATOM      4  O   UNL A   1      50.106  28.655  25.358  1.00  0.00    -0.274 OA
ATOM      5  H   UNL A   1      51.553  27.297  26.515  1.00  0.00     0.163 HD
BRANCH   3   6
ATOM      6  C   UNL A   1      49.420  26.883  23.882  1.00  0.00     0.105 C 
ATOM      7  C   UNL A   1      49.618  27.587  22.542  1.00  0.00     0.023 C 
BRANCH   6   8
ATOM      8  C   UNL A   1      47.972  26.614  24.259  1.00  0.00    -0.035 A 
ATOM      9  C   UNL A   1      45.371  26.135  25.364  1.00  0.00     0.022 A 
ATOM     10  C   UNL A   1      45.826  27.417  25.015  1.00  0.00     0.011 A 
ATOM     11  C   UNL A   1      46.198  25.047  24.970  1.00  0.00    -0.009 A 
ATOM     12  C   UNL A   1      47.059  27.642  24.409  1.00  0.00     0.005 A 
ATOM     13  C   UNL A   1      47.511  25.313  24.501  1.00  0.00     0.013 A 
BRANCH   9  14
ATOM     14  C   UNL A   1      43.999  25.938  26.080  1.00  0.00     0.247 C 
BRANCH  14  15
ATOM     15  N   UNL A   1      43.213  27.166  26.436  1.00  0.00    -0.325 N 
ATOM     16  C   UNL A   1      39.471  29.243  27.443  1.00  0.00     0.008 C 
ATOM     17  C   UNL A   1      40.592  28.286  27.067  1.00  0.00    -0.003 C 
ATOM     18  C   UNL A   1      41.639  28.180  28.172  1.00  0.00     0.065 C 
ATOM     19  C   UNL A   1      41.321  28.735  25.807  1.00  0.00     0.065 C 
ATOM     20  C   UNL A   1      42.740  27.173  27.823  1.00  0.00     0.263 C 
ATOM     21  C   UNL A   1      42.335  27.674  25.380  1.00  0.00     0.263 C 
ATOM     22  H   UNL A   1      43.875  27.943  26.456  1.00  0.00     0.348 HD
ENDBRANCH  14  15
BRANCH  14  23
ATOM     23  C   UNL A   1      44.055  24.985  27.291  1.00  0.00     0.014 A 
ATOM     24  C   UNL A   1      43.164  23.902  27.435  1.00  0.00     0.013 A 
ATOM     25  C   UNL A   1      45.022  25.192  28.294  1.00  0.00     0.013 A 
ATOM     26  C   UNL A   1      43.239  23.059  28.545  1.00  0.00     0.040 A 
ATOM     27  C   UNL A   1      45.077  24.363  29.416  1.00  0.00     0.040 A 
ATOM     28  C   UNL A   1      44.189  23.302  29.528  1.00  0.00     0.123 A 
ATOM     29  F   UNL A   1      44.248  22.503  30.601  1.00  0.00    -0.207 F 
ENDBRANCH  14  23
ENDBRANCH   9  14
BRANCH  11  30
ATOM     30  C   UNL A   1      45.737  23.645  24.945  1.00  0.00    -0.018 A 
ATOM     31  C   UNL A   1      46.205  22.694  25.864  1.00  0.00     0.009 A 
ATOM     32  C   UNL A   1      44.842  23.215  23.950  1.00  0.00     0.009 A 
ATOM     33  C   UNL A   1      45.767  21.366  25.810  1.00  0.00     0.014 A 
ATOM     34  C   UNL A   1      44.395  21.893  23.897  1.00  0.00     0.014 A 
ATOM     35  C   UNL A   1      44.847  20.956  24.834  1.00  0.00     0.056 A 
BRANCH  35  36
ATOM     36  C   UNL A   1      44.380  19.522  24.782  1.00  0.00     0.416 C 
ATOM     37  F   UNL A   1      45.102  18.710  25.601  1.00  0.00    -0.166 F 
ATOM     38  F   UNL A   1      43.080  19.375  25.159  1.00  0.00    -0.166 F 
ATOM     39  F   UNL A   1      44.468  18.970  23.538  1.00  0.00    -0.166 F 
ENDBRANCH  35  36
ENDBRANCH  11  30
ENDBRANCH   6   8
ENDBRANCH   3   6
ENDBRANCH   1   2
BRANCH   1  40
ATOM     40  C   UNL A   1      53.141  25.311  26.047  1.00  0.00     0.042 C 
BRANCH  40  41
ATOM     41  C   UNL A   1      53.728  26.530  26.742  1.00  0.00     0.118 C 
BRANCH  41  42
ATOM     42  N   UNL A   1      54.323  26.201  28.028  1.00  0.00    -0.352 N 
ATOM     43  C   UNL A   1      53.846  26.335  29.308  1.00  0.00     0.251 C 
ATOM     44  H   UNL A   1      55.226  25.814  27.969  1.00  0.00     0.163 HD
ATOM     45  O   UNL A   1      54.624  26.158  30.243  1.00  0.00    -0.269 OA
BRANCH  43  46
ATOM     46  C   UNL A   1      52.435  26.692  29.598  1.00  0.00     0.039 A 
ATOM     47  C   UNL A   1      52.186  27.835  30.371  1.00  0.00     0.014 A 
ATOM     48  C   UNL A   1      51.359  25.889  29.208  1.00  0.00     0.014 A 
ATOM     49  C   UNL A   1      50.877  28.184  30.721  1.00  0.00     0.010 A 
ATOM     50  C   UNL A   1      50.049  26.284  29.483  1.00  0.00     0.010 A 
ATOM     51  C   UNL A   1      49.794  27.422  30.260  1.00  0.00    -0.014 A 
BRANCH  51  52
ATOM     52  C   UNL A   1      48.391  27.775  30.610  1.00  0.00     0.031 A 
ATOM     53  C   UNL A   1      47.643  26.976  31.637  1.00  0.00     0.074 A 
ATOM     54  C   UNL A   1      47.770  28.781  29.966  1.00  0.00     0.049 A 
ATOM     55  N   UNL A   1      46.397  27.085  32.024  1.00  0.00    -0.248 NA
ATOM     56  C   UNL A   1      48.387  25.898  32.307  1.00  0.00     0.031 C 
ATOM     57  C   UNL A   1      48.382  29.621  28.941  1.00  0.00     0.029 A 
ATOM     58  N   UNL A   1      46.489  29.263  30.068  1.00  0.00    -0.354 N 
ATOM     59  C   UNL A   1      46.210  26.095  32.978  1.00  0.00     0.074 A 
ATOM     60  C   UNL A   1      47.447  25.349  33.062  1.00  0.00     0.031 C 
ATOM     61  C   UNL A   1      47.483  30.518  28.507  1.00  0.00     0.029 A 
ATOM     62  C   UNL A   1      46.223  30.300  29.208  1.00  0.00     0.049 A 
ATOM     63  H   UNL A   1      45.824  28.900  30.697  1.00  0.00     0.167 HD
ATOM     64  C   UNL A   1      45.117  25.851  33.741  1.00  0.00     0.037 A 
ATOM     65  C   UNL A   1      45.093  31.003  29.006  1.00  0.00     0.037 A 
ATOM     66  C   UNL A   1      43.895  26.606  33.668  1.00  0.00     0.049 A 
ATOM     67  C   UNL A   1      43.880  30.695  29.835  1.00  0.00     0.074 A 
ATOM     68  C   UNL A   1      42.746  26.465  34.426  1.00  0.00     0.029 A 
ATOM     69  N   UNL A   1      43.662  27.650  32.782  1.00  0.00    -0.354 N 
ATOM     70  N   UNL A   1      43.729  29.784  30.765  1.00  0.00    -0.248 NA
ATOM     71  C   UNL A   1      42.687  31.519  29.599  1.00  0.00     0.031 C 
ATOM     72  C   UNL A   1      41.806  27.396  33.976  1.00  0.00     0.029 A 
ATOM     73  C   UNL A   1      42.383  28.150  32.966  1.00  0.00     0.049 A 
ATOM     74  H   UNL A   1      44.310  27.984  32.121  1.00  0.00     0.167 HD
ATOM     75  C   UNL A   1      42.439  29.943  31.249  1.00  0.00     0.074 A 
ATOM     76  C   UNL A   1      41.848  31.040  30.510  1.00  0.00     0.031 C 
ATOM     77  C   UNL A   1      41.809  29.246  32.225  1.00  0.00     0.037 A 
BRANCH  64  78
ATOM     78  C   UNL A   1      45.208  24.732  34.736  1.00  0.00     0.064 A 
ATOM     79  C   UNL A   1      45.648  24.970  36.047  1.00  0.00     0.173 A 
ATOM     80  C   UNL A   1      44.881  23.413  34.383  1.00  0.00     0.173 A 
ATOM     81  F   UNL A   1      45.976  26.211  36.435  1.00  0.00    -0.203 F 
ATOM     82  C   UNL A   1      45.758  23.929  36.965  1.00  0.00     0.198 A 
ATOM     83  C   UNL A   1      44.964  22.380  35.312  1.00  0.00     0.198 A 
ATOM     84  F   UNL A   1      44.442  23.134  33.146  1.00  0.00    -0.203 F 
ATOM     85  F   UNL A   1      46.199  24.176  38.207  1.00  0.00    -0.200 F 
ATOM     86  C   UNL A   1      45.409  22.637  36.601  1.00  0.00     0.200 A 
ATOM     87  F   UNL A   1      44.598  21.138  34.966  1.00  0.00    -0.200 F 
ATOM     88  F   UNL A   1      45.492  21.641  37.492  1.00  0.00    -0.200 F 
ENDBRANCH  64  78
BRANCH  65  89
ATOM     89  C   UNL A   1      45.095  32.104  28.011  1.00  0.00     0.064 A 
ATOM     90  C   UNL A   1      45.657  33.355  28.305  1.00  0.00     0.173 A 
ATOM     91  C   UNL A   1      44.463  31.946  26.770  1.00  0.00     0.173 A 
ATOM     92  F   UNL A   1      46.263  33.557  29.484  1.00  0.00    -0.203 F 
ATOM     93  C   UNL A   1      45.566  34.413  27.404  1.00  0.00     0.198 A 
ATOM     94  C   UNL A   1      44.390  32.999  25.861  1.00  0.00     0.198 A 
ATOM     95  F   UNL A   1      43.923  30.763  26.441  1.00  0.00    -0.203 F 
ATOM     96  F   UNL A   1      46.075  35.611  27.723  1.00  0.00    -0.200 F 
ATOM     97  C   UNL A   1      44.932  34.234  26.183  1.00  0.00     0.200 A 
ATOM     98  F   UNL A   1      43.789  32.818  24.678  1.00  0.00    -0.200 F 
ATOM     99  F   UNL A   1      44.840  35.253  25.317  1.00  0.00    -0.200 F 
ENDBRANCH  65  89
BRANCH  77 100
ATOM    100  C   UNL A   1      40.412  29.660  32.579  1.00  0.00     0.064 A 
ATOM    101  C   UNL A   1      39.315  29.099  31.907  1.00  0.00     0.173 A 
ATOM    102  C   UNL A   1      40.162  30.660  33.529  1.00  0.00     0.173 A 
ATOM    103  F   UNL A   1      39.505  28.143  30.984  1.00  0.00    -0.203 F 
ATOM    104  C   UNL A   1      38.019  29.534  32.163  1.00  0.00     0.198 A 
ATOM    105  C   UNL A   1      38.860  31.075  33.802  1.00  0.00     0.198 A 
ATOM    106  F   UNL A   1      41.177  31.215  34.207  1.00  0.00    -0.203 F 
ATOM    107  F   UNL A   1      36.989  29.006  31.487  1.00  0.00    -0.200 F 
ATOM    108  C   UNL A   1      37.792  30.519  33.113  1.00  0.00     0.200 A 
ATOM    109  F   UNL A   1      38.640  32.010  34.736  1.00  0.00    -0.200 F 
ATOM    110  F   UNL A   1      36.542  30.932  33.366  1.00  0.00    -0.200 F 
ENDBRANCH  77 100
ENDBRANCH  51  52
ENDBRANCH  43  46
ENDBRANCH  41  42
ENDBRANCH  40  41
ENDBRANCH   1  40
TORSDOF 16
ENDMDL
MODEL 3
REMARK VINA RESULT:     -10.6      3.949     11.700
REMARK SMILES CC1CC[NH+]([C@H](c2ccc(F)cc2)c2ccc([C@@H](C)C(=O)NCCCNC(=O)c3ccc(-c4c5nc(c(-c6c(F)c(F)c(F)c(F)c6F)c6ccc([nH]6)c(-c6c(F)c(F)c(F)c(F)c6F)c6nc(c(-c7c(F)c(F)c(F)c(F)c7F)c7ccc4[nH]7)C=C6)C=C5)cc3)cc2-c2ccc(C(F)(F)F)cc2)CC1
REMARK SMILES IDX 23 1 22 2 20 3 21 4 18 6 19 7 17 8 14 9 15 10 93 11 16 12
REMARK SMILES IDX 92 13 6 14 5 15 1 16 2 17 3 18 105 19 4 20 104 21 7 23 8 24
REMARK SMILES IDX 13 25 9 26 12 27 10 28 11 29 94 30 95 31 103 32 96 33 102 34
REMARK SMILES IDX 97 35 98 36 99 37 100 38 101 39 24 40 25 41 26 42 27 43
REMARK SMILES IDX 28 45 29 46 30 47 91 48 31 49 90 50 32 51 33 52 34 53 84 54
REMARK SMILES IDX 35 55 89 56 83 57 85 58 36 59 88 60 82 61 81 62 37 64 69 65
REMARK SMILES IDX 49 66 68 67 50 68 53 69 67 70 86 71 51 72 52 73 66 75 87 76
REMARK SMILES IDX 54 77 38 78 39 79 47 80 40 81 41 82 45 83 48 84 42 85 43 86
REMARK SMILES IDX 46 87 44 88 70 89 71 90 79 91 72 92 73 93 77 94 80 95 74 96
REMARK SMILES IDX 75 97 78 98 76 99 55 100 56 101 64 102 57 103 58 104 62 105
REMARK SMILES IDX 65 106 59 107 60 108 63 109 61 110
REMARK H PARENT 22 5 5 22 26 44 85 63 53 74
REMARK Flexibility Score: inf
ROOT
ATOM      1  C   UNL A   1      46.545  23.234  36.865  1.00  0.00     0.117 C 
ENDROOT
BRANCH   1   2
ATOM      2  N   UNL A   1      45.868  22.268  36.018  1.00  0.00    -0.356 N 
ATOM      3  C   UNL A   1      44.937  22.384  35.030  1.00  0.00     0.227 C 
ATOM      4  O   UNL A   1      44.534  21.316  34.550  1.00  0.00    -0.274 OA
ATOM      5  H   UNL A   1      46.136  21.337  36.196  1.00  0.00     0.163 HD
BRANCH   3   6
ATOM      6  C   UNL A   1      44.371  23.717  34.498  1.00  0.00     0.105 C 
ATOM      7  C   UNL A   1      42.850  23.830  34.545  1.00  0.00     0.023 C 
BRANCH   6   8
ATOM      8  C   UNL A   1      45.009  24.150  33.189  1.00  0.00    -0.035 A 
ATOM      9  C   UNL A   1      45.969  25.301  30.745  1.00  0.00     0.022 A 
ATOM     10  C   UNL A   1      46.586  25.525  31.987  1.00  0.00     0.011 A 
ATOM     11  C   UNL A   1      44.941  24.319  30.723  1.00  0.00    -0.009 A 
ATOM     12  C   UNL A   1      46.167  24.906  33.161  1.00  0.00     0.005 A 
ATOM     13  C   UNL A   1      44.432  23.826  31.954  1.00  0.00     0.013 A 
BRANCH   9  14
ATOM     14  C   UNL A   1      46.449  26.052  29.465  1.00  0.00     0.247 C 
BRANCH  14  15
ATOM     15  N   UNL A   1      47.856  25.813  28.999  1.00  0.00    -0.325 N 
ATOM     16  C   UNL A   1      51.307  26.678  26.416  1.00  0.00     0.008 C 
ATOM     17  C   UNL A   1      49.977  26.589  27.150  1.00  0.00    -0.003 C 
ATOM     18  C   UNL A   1      50.126  26.921  28.632  1.00  0.00     0.065 C 
ATOM     19  C   UNL A   1      49.378  25.190  27.068  1.00  0.00     0.065 C 
ATOM     20  C   UNL A   1      48.780  26.889  29.364  1.00  0.00     0.263 C 
ATOM     21  C   UNL A   1      47.980  25.181  27.684  1.00  0.00     0.263 C 
ATOM     22  H   UNL A   1      48.224  25.045  29.562  1.00  0.00     0.348 HD
ENDBRANCH  14  15
BRANCH  14  23
ATOM     23  C   UNL A   1      46.153  27.565  29.476  1.00  0.00     0.014 A 
ATOM     24  C   UNL A   1      46.380  28.365  30.614  1.00  0.00     0.013 A 
ATOM     25  C   UNL A   1      45.639  28.181  28.319  1.00  0.00     0.013 A 
ATOM     26  C   UNL A   1      46.099  29.732  30.593  1.00  0.00     0.040 A 
ATOM     27  C   UNL A   1      45.334  29.543  28.309  1.00  0.00     0.040 A 
ATOM     28  C   UNL A   1      45.571  30.307  29.445  1.00  0.00     0.123 A 
ATOM     29  F   UNL A   1      45.286  31.615  29.432  1.00  0.00    -0.207 F 
ENDBRANCH  14  23
ENDBRANCH   9  14
BRANCH  11  30
ATOM     30  C   UNL A   1      44.421  23.716  29.480  1.00  0.00    -0.018 A 
ATOM     31  C   UNL A   1      45.234  23.522  28.354  1.00  0.00     0.009 A 
ATOM     32  C   UNL A   1      43.063  23.365  29.383  1.00  0.00     0.009 A 
ATOM     33  C   UNL A   1      44.715  22.965  27.181  1.00  0.00     0.014 A 
ATOM     34  C   UNL A   1      42.542  22.800  28.216  1.00  0.00     0.014 A 
ATOM     35  C   UNL A   1      43.366  22.585  27.105  1.00  0.00     0.056 A 
BRANCH  35  36
ATOM     36  C   UNL A   1      42.814  21.986  25.836  1.00  0.00     0.416 C 
ATOM     37  F   UNL A   1      43.278  20.727  25.610  1.00  0.00    -0.166 F 
ATOM     38  F   UNL A   1      41.455  21.889  25.844  1.00  0.00    -0.166 F 
ATOM     39  F   UNL A   1      43.126  22.703  24.719  1.00  0.00    -0.166 F 
ENDBRANCH  35  36
ENDBRANCH  11  30
ENDBRANCH   6   8
ENDBRANCH   3   6
ENDBRANCH   1   2
BRANCH   1  40
ATOM     40  C   UNL A   1      45.652  23.748  37.995  1.00  0.00     0.042 C 
BRANCH  40  41
ATOM     41  C   UNL A   1      45.706  25.250  38.227  1.00  0.00     0.118 C 
BRANCH  41  42
ATOM     42  N   UNL A   1      46.895  25.857  37.651  1.00  0.00    -0.352 N 
ATOM     43  C   UNL A   1      47.065  26.632  36.530  1.00  0.00     0.251 C 
ATOM     44  H   UNL A   1      47.723  25.682  38.153  1.00  0.00     0.163 HD
ATOM     45  O   UNL A   1      48.210  26.866  36.149  1.00  0.00    -0.269 OA
BRANCH  43  46
ATOM     46  C   UNL A   1      45.919  27.185  35.764  1.00  0.00     0.039 A 
ATOM     47  C   UNL A   1      46.174  28.205  34.837  1.00  0.00     0.014 A 
ATOM     48  C   UNL A   1      44.598  26.794  35.997  1.00  0.00     0.014 A 
ATOM     49  C   UNL A   1      45.123  28.800  34.130  1.00  0.00     0.010 A 
ATOM     50  C   UNL A   1      43.560  27.326  35.231  1.00  0.00     0.010 A 
ATOM     51  C   UNL A   1      43.807  28.350  34.306  1.00  0.00    -0.014 A 
BRANCH  51  52
ATOM     52  C   UNL A   1      42.672  28.959  33.561  1.00  0.00     0.031 A 
ATOM     53  C   UNL A   1      41.776  29.960  34.233  1.00  0.00     0.074 A 
ATOM     54  C   UNL A   1      42.411  28.575  32.298  1.00  0.00     0.049 A 
ATOM     55  N   UNL A   1      40.699  30.546  33.775  1.00  0.00    -0.248 NA
ATOM     56  C   UNL A   1      42.126  30.341  35.610  1.00  0.00     0.031 C 
ATOM     57  C   UNL A   1      43.195  27.603  31.543  1.00  0.00     0.029 A 
ATOM     58  N   UNL A   1      41.413  28.942  31.430  1.00  0.00    -0.354 N 
ATOM     59  C   UNL A   1      40.246  31.359  34.803  1.00  0.00     0.074 A 
ATOM     60  C   UNL A   1      41.122  31.142  35.934  1.00  0.00     0.031 C 
ATOM     61  C   UNL A   1      42.657  27.449  30.323  1.00  0.00     0.029 A 
ATOM     62  C   UNL A   1      41.474  28.296  30.220  1.00  0.00     0.049 A 
ATOM     63  H   UNL A   1      40.721  29.605  31.654  1.00  0.00     0.167 HD
ATOM     64  C   UNL A   1      39.214  32.237  34.794  1.00  0.00     0.037 A 
ATOM     65  C   UNL A   1      40.670  28.376  29.144  1.00  0.00     0.037 A 
ATOM     66  C   UNL A   1      38.355  32.465  33.662  1.00  0.00     0.049 A 
ATOM     67  C   UNL A   1      39.508  29.327  29.164  1.00  0.00     0.074 A 
ATOM     68  C   UNL A   1      37.308  33.362  33.539  1.00  0.00     0.029 A 
ATOM     69  N   UNL A   1      38.446  31.790  32.452  1.00  0.00    -0.354 N 
ATOM     70  N   UNL A   1      39.115  30.124  30.128  1.00  0.00    -0.248 NA
ATOM     71  C   UNL A   1      38.688  29.402  27.948  1.00  0.00     0.031 C 
ATOM     72  C   UNL A   1      36.743  33.204  32.270  1.00  0.00     0.029 A 
ATOM     73  C   UNL A   1      37.464  32.240  31.584  1.00  0.00     0.049 A 
ATOM     74  H   UNL A   1      39.109  31.093  32.243  1.00  0.00     0.167 HD
ATOM     75  C   UNL A   1      38.025  30.819  29.626  1.00  0.00     0.074 A 
ATOM     76  C   UNL A   1      37.817  30.350  28.272  1.00  0.00     0.031 C 
ATOM     77  C   UNL A   1      37.272  31.766  30.236  1.00  0.00     0.037 A 
BRANCH  64  78
ATOM     78  C   UNL A   1      38.973  33.030  36.045  1.00  0.00     0.064 A 
ATOM     79  C   UNL A   1      39.473  34.335  36.176  1.00  0.00     0.173 A 
ATOM     80  C   UNL A   1      38.265  32.487  37.129  1.00  0.00     0.173 A 
ATOM     81  F   UNL A   1      40.159  34.900  35.172  1.00  0.00    -0.203 F 
ATOM     82  C   UNL A   1      39.274  35.063  37.345  1.00  0.00     0.198 A 
ATOM     83  C   UNL A   1      38.043  33.229  38.285  1.00  0.00     0.198 A 
ATOM     84  F   UNL A   1      37.755  31.249  37.049  1.00  0.00    -0.203 F 
ATOM     85  F   UNL A   1      39.777  36.301  37.456  1.00  0.00    -0.200 F 
ATOM     86  C   UNL A   1      38.553  34.515  38.396  1.00  0.00     0.200 A 
ATOM     87  F   UNL A   1      37.320  32.707  39.286  1.00  0.00    -0.200 F 
ATOM     88  F   UNL A   1      38.341  35.226  39.510  1.00  0.00    -0.200 F 
ENDBRANCH  64  78
BRANCH  65  89
ATOM     89  C   UNL A   1      40.989  27.566  27.941  1.00  0.00     0.064 A 
ATOM     90  C   UNL A   1      40.433  26.293  27.748  1.00  0.00     0.173 A 
ATOM     91  C   UNL A   1      41.920  28.023  27.000  1.00  0.00     0.173 A 
ATOM     92  F   UNL A   1      39.544  25.808  28.628  1.00  0.00    -0.203 F 
ATOM     93  C   UNL A   1      40.814  25.499  26.669  1.00  0.00     0.198 A 
ATOM     94  C   UNL A   1      42.286  27.237  25.910  1.00  0.00     0.198 A 
ATOM     95  F   UNL A   1      42.468  29.240  27.138  1.00  0.00    -0.203 F 
ATOM     96  F   UNL A   1      40.299  24.270  26.526  1.00  0.00    -0.200 F 
ATOM     97  C   UNL A   1      41.741  25.972  25.751  1.00  0.00     0.200 A 
ATOM     98  F   UNL A   1      43.171  27.702  25.019  1.00  0.00    -0.200 F 
ATOM     99  F   UNL A   1      42.112  25.206  24.716  1.00  0.00    -0.200 F 
ENDBRANCH  65  89
BRANCH  77 100
ATOM    100  C   UNL A   1      36.164  32.388  29.439  1.00  0.00     0.064 A 
ATOM    101  C   UNL A   1      36.195  33.757  29.132  1.00  0.00     0.173 A 
ATOM    102  C   UNL A   1      35.043  31.648  29.040  1.00  0.00     0.173 A 
ATOM    103  F   UNL A   1      37.245  34.508  29.499  1.00  0.00    -0.203 F 
ATOM    104  C   UNL A   1      35.136  34.367  28.467  1.00  0.00     0.198 A 
ATOM    105  C   UNL A   1      33.995  32.256  28.351  1.00  0.00     0.198 A 
ATOM    106  F   UNL A   1      34.975  30.334  29.297  1.00  0.00    -0.203 F 
ATOM    107  F   UNL A   1      35.173  35.682  28.212  1.00  0.00    -0.200 F 
ATOM    108  C   UNL A   1      34.038  33.615  28.074  1.00  0.00     0.200 A 
ATOM    109  F   UNL A   1      32.947  31.525  27.951  1.00  0.00    -0.200 F 
ATOM    110  F   UNL A   1      33.022  34.200  27.426  1.00  0.00    -0.200 F 
ENDBRANCH  77 100
ENDBRANCH  51  52
ENDBRANCH  43  46
ENDBRANCH  41  42
ENDBRANCH  40  41
ENDBRANCH   1  40
TORSDOF 16
ENDMDL
