MODEL 1
REMARK VINA RESULT:     -11.7      0.000      0.000
REMARK SMILES C[C@@H]1SC[C@H](C(=O)NCCCNC(=O)c2ccc(-c3c4nc(c(-c5c(F)c(F)c(F)c(F)c5F)c5ccc([nH]5)c(-c5c(F)c(F)c(F)c(F)c5F)c5nc(c(-c6c(F)c(F)c(F)c(F)c6F)c6ccc3[nH]6)C=C5)C=C4)cc2)N1C(=O)N(C)[C@@H](C)Cc1cccs1
REMARK SMILES IDX 6 1 7 2 8 3 5 5 1 6 2 7 3 8 78 9 4 10 79 11 80 12 81 13
REMARK SMILES IDX 82 14 83 15 84 16 85 17 86 18 87 19 90 20 88 21 89 22 9 23
REMARK SMILES IDX 10 24 11 25 12 26 13 27 14 29 15 30 16 31 77 32 17 33 76 34
REMARK SMILES IDX 18 35 19 36 20 37 70 38 21 39 75 40 69 41 71 42 22 43 74 44
REMARK SMILES IDX 68 45 67 46 23 48 55 49 35 50 54 51 36 52 39 53 53 54 72 55
REMARK SMILES IDX 37 56 38 57 52 59 73 60 40 61 24 62 25 63 33 64 26 65 27 66
REMARK SMILES IDX 31 67 34 68 28 69 29 70 32 71 30 72 56 73 57 74 65 75 58 76
REMARK SMILES IDX 59 77 63 78 66 79 60 80 61 81 64 82 62 83 41 84 42 85 50 86
REMARK SMILES IDX 43 87 44 88 48 89 51 90 45 91 46 92 49 93 47 94
REMARK H PARENT 8 4 12 28 71 47 39 58
REMARK Flexibility Score: inf
ROOT
ATOM      1  C   UNL A   1      32.010  29.352  24.573  1.00  0.00     0.243 C 
ATOM      2  O   UNL A   1      32.858  29.089  23.711  1.00  0.00    -0.273 OA
ATOM      3  N   UNL A   1      32.372  30.262  25.518  1.00  0.00    -0.354 N 
ATOM      4  H   UNL A   1      33.210  30.742  25.329  1.00  0.00     0.163 HD
ENDROOT
BRANCH   1   5
ATOM      5  C   UNL A   1      30.725  28.503  24.683  1.00  0.00     0.187 C 
ATOM      6  C   UNL A   1      30.333  25.068  23.644  1.00  0.00     0.043 C 
ATOM      7  C   UNL A   1      29.788  26.249  24.445  1.00  0.00     0.142 C 
ATOM      8  S   UNL A   1      28.818  27.313  23.327  1.00  0.00    -0.135 SA
ATOM      9  N   UNL A   1      30.807  27.076  25.087  1.00  0.00    -0.300 N 
ATOM     10  C   UNL A   1      30.060  28.605  23.313  1.00  0.00     0.107 C 
BRANCH   9  11
ATOM     11  C   UNL A   1      31.561  26.813  26.218  1.00  0.00     0.321 C 
ATOM     12  O   UNL A   1      31.070  27.078  27.321  1.00  0.00    -0.248 OA
BRANCH  11  13
ATOM     13  N   UNL A   1      32.869  26.373  26.161  1.00  0.00    -0.325 N 
ATOM     14  C   UNL A   1      34.090  27.151  26.325  1.00  0.00     0.149 C 
BRANCH  13  15
ATOM     15  C   UNL A   1      33.117  24.959  25.745  1.00  0.00     0.088 C 
ATOM     16  C   UNL A   1      34.600  24.689  25.452  1.00  0.00     0.031 C 
BRANCH  15  17
ATOM     17  C   UNL A   1      32.535  23.882  26.697  1.00  0.00     0.071 C 
BRANCH  17  18
ATOM     18  C   UNL A   1      32.611  22.488  26.137  1.00  0.00     0.007 A 
ATOM     19  C   UNL A   1      31.854  21.947  25.116  1.00  0.00     0.015 A 
ATOM     20  S   UNL A   1      33.721  21.344  26.767  1.00  0.00    -0.149 S 
ATOM     21  C   UNL A   1      32.262  20.623  24.784  1.00  0.00     0.012 A 
ATOM     22  C   UNL A   1      33.300  20.191  25.577  1.00  0.00     0.065 A 
ENDBRANCH  17  18
ENDBRANCH  15  17
ENDBRANCH  13  15
ENDBRANCH  11  13
ENDBRANCH   9  11
ENDBRANCH   1   5
BRANCH   3  23
ATOM     23  C   UNL A   1      31.726  30.639  26.757  1.00  0.00     0.117 C 
BRANCH  23  24
ATOM     24  C   UNL A   1      31.504  32.143  26.827  1.00  0.00     0.042 C 
BRANCH  24  25
ATOM     25  C   UNL A   1      32.767  32.942  27.123  1.00  0.00     0.118 C 
BRANCH  25  26
ATOM     26  N   UNL A   1      32.479  34.291  27.588  1.00  0.00    -0.352 N 
ATOM     27  C   UNL A   1      33.002  34.986  28.651  1.00  0.00     0.251 C 
ATOM     28  H   UNL A   1      31.808  34.781  27.061  1.00  0.00     0.163 HD
ATOM     29  O   UNL A   1      32.489  36.041  29.007  1.00  0.00    -0.269 OA
BRANCH  27  30
ATOM     30  C   UNL A   1      34.171  34.452  29.385  1.00  0.00     0.039 A 
ATOM     31  C   UNL A   1      33.960  33.779  30.591  1.00  0.00     0.014 A 
ATOM     32  C   UNL A   1      35.468  34.622  28.895  1.00  0.00     0.014 A 
ATOM     33  C   UNL A   1      35.045  33.219  31.269  1.00  0.00     0.010 A 
ATOM     34  C   UNL A   1      36.534  33.984  29.521  1.00  0.00     0.010 A 
ATOM     35  C   UNL A   1      36.335  33.282  30.720  1.00  0.00    -0.014 A 
BRANCH  35  36
ATOM     36  C   UNL A   1      37.491  32.628  31.386  1.00  0.00     0.031 A 
ATOM     37  C   UNL A   1      38.209  31.493  30.711  1.00  0.00     0.074 A 
ATOM     38  C   UNL A   1      37.854  33.018  32.623  1.00  0.00     0.049 A 
ATOM     39  N   UNL A   1      39.194  30.754  31.155  1.00  0.00    -0.248 NA
ATOM     40  C   UNL A   1      37.737  31.118  29.368  1.00  0.00     0.031 C 
ATOM     41  C   UNL A   1      37.209  34.076  33.401  1.00  0.00     0.029 A 
ATOM     42  N   UNL A   1      38.852  32.562  33.448  1.00  0.00    -0.354 N 
ATOM     43  C   UNL A   1      39.450  29.825  30.155  1.00  0.00     0.074 A 
ATOM     44  C   UNL A   1      38.476  30.049  29.109  1.00  0.00     0.031 C 
ATOM     45  C   UNL A   1      37.844  34.210  34.575  1.00  0.00     0.029 A 
ATOM     46  C   UNL A   1      38.913  33.219  34.653  1.00  0.00     0.049 A 
ATOM     47  H   UNL A   1      39.466  31.834  33.200  1.00  0.00     0.167 HD
ATOM     48  C   UNL A   1      40.426  28.887  30.101  1.00  0.00     0.037 A 
ATOM     49  C   UNL A   1      39.735  33.036  35.704  1.00  0.00     0.037 A 
ATOM     50  C   UNL A   1      41.404  28.678  31.137  1.00  0.00     0.049 A 
ATOM     51  C   UNL A   1      40.795  31.970  35.629  1.00  0.00     0.074 A 
ATOM     52  C   UNL A   1      42.464  27.790  31.156  1.00  0.00     0.029 A 
ATOM     53  N   UNL A   1      41.437  29.367  32.341  1.00  0.00    -0.354 N 
ATOM     54  N   UNL A   1      41.072  31.145  34.650  1.00  0.00    -0.248 NA
ATOM     55  C   UNL A   1      41.662  31.817  36.806  1.00  0.00     0.031 C 
ATOM     56  C   UNL A   1      43.107  27.904  32.394  1.00  0.00     0.029 A 
ATOM     57  C   UNL A   1      42.484  28.905  33.121  1.00  0.00     0.049 A 
ATOM     58  H   UNL A   1      40.808  30.079  32.602  1.00  0.00     0.167 HD
ATOM     59  C   UNL A   1      42.162  30.397  35.077  1.00  0.00     0.074 A 
ATOM     60  C   UNL A   1      42.505  30.880  36.398  1.00  0.00     0.031 C 
ATOM     61  C   UNL A   1      42.820  29.403  34.432  1.00  0.00     0.037 A 
BRANCH  48  62
ATOM     62  C   UNL A   1      40.483  28.016  28.877  1.00  0.00     0.064 A 
ATOM     63  C   UNL A   1      39.760  26.816  28.794  1.00  0.00     0.173 A 
ATOM     64  C   UNL A   1      41.249  28.397  27.765  1.00  0.00     0.173 A 
ATOM     65  F   UNL A   1      39.020  26.400  29.832  1.00  0.00    -0.203 F 
ATOM     66  C   UNL A   1      39.831  26.013  27.659  1.00  0.00     0.198 A 
ATOM     67  C   UNL A   1      41.290  27.608  26.618  1.00  0.00     0.198 A 
ATOM     68  F   UNL A   1      41.956  29.537  27.787  1.00  0.00    -0.203 F 
ATOM     69  F   UNL A   1      39.177  24.843  27.626  1.00  0.00    -0.200 F 
ATOM     70  C   UNL A   1      40.590  26.412  26.569  1.00  0.00     0.200 A 
ATOM     71  F   UNL A   1      42.013  28.003  25.561  1.00  0.00    -0.200 F 
ATOM     72  F   UNL A   1      40.653  25.641  25.475  1.00  0.00    -0.200 F 
ENDBRANCH  48  62
BRANCH  49  73
ATOM     73  C   UNL A   1      39.608  33.900  36.907  1.00  0.00     0.064 A 
ATOM     74  C   UNL A   1      40.258  35.141  36.972  1.00  0.00     0.173 A 
ATOM     75  C   UNL A   1      38.846  33.505  38.018  1.00  0.00     0.173 A 
ATOM     76  F   UNL A   1      41.014  35.556  35.944  1.00  0.00    -0.203 F 
ATOM     77  C   UNL A   1      40.170  35.943  38.109  1.00  0.00     0.198 A 
ATOM     78  C   UNL A   1      38.735  34.321  39.141  1.00  0.00     0.198 A 
ATOM     79  F   UNL A   1      38.200  32.330  38.005  1.00  0.00    -0.203 F 
ATOM     80  F   UNL A   1      40.843  37.101  38.163  1.00  0.00    -0.200 F 
ATOM     81  C   UNL A   1      39.405  35.534  39.190  1.00  0.00     0.200 A 
ATOM     82  F   UNL A   1      37.981  33.931  40.178  1.00  0.00    -0.200 F 
ATOM     83  F   UNL A   1      39.319  36.306  40.282  1.00  0.00    -0.200 F 
ENDBRANCH  49  73
BRANCH  61  84
ATOM     84  C   UNL A   1      44.005  28.797  35.128  1.00  0.00     0.064 A 
ATOM     85  C   UNL A   1      43.879  27.682  35.968  1.00  0.00     0.173 A 
ATOM     86  C   UNL A   1      45.290  29.321  34.922  1.00  0.00     0.173 A 
ATOM     87  F   UNL A   1      42.669  27.152  36.211  1.00  0.00    -0.203 F 
ATOM     88  C   UNL A   1      44.991  27.129  36.598  1.00  0.00     0.198 A 
ATOM     89  C   UNL A   1      46.405  28.747  35.526  1.00  0.00     0.198 A 
ATOM     90  F   UNL A   1      45.468  30.383  34.122  1.00  0.00    -0.203 F 
ATOM     91  F   UNL A   1      44.840  26.097  37.438  1.00  0.00    -0.200 F 
ATOM     92  C   UNL A   1      46.253  27.657  36.370  1.00  0.00     0.200 A 
ATOM     93  F   UNL A   1      47.626  29.248  35.292  1.00  0.00    -0.200 F 
ATOM     94  F   UNL A   1      47.324  27.121  36.971  1.00  0.00    -0.200 F 
ENDBRANCH  61  84
ENDBRANCH  35  36
ENDBRANCH  27  30
ENDBRANCH  25  26
ENDBRANCH  24  25
ENDBRANCH  23  24
ENDBRANCH   3  23
TORSDOF 15
ENDMDL
MODEL 2
REMARK VINA RESULT:     -11.6      0.450      2.027
REMARK SMILES C[C@@H]1SC[C@H](C(=O)NCCCNC(=O)c2ccc(-c3c4nc(c(-c5c(F)c(F)c(F)c(F)c5F)c5ccc([nH]5)c(-c5c(F)c(F)c(F)c(F)c5F)c5nc(c(-c6c(F)c(F)c(F)c(F)c6F)c6ccc3[nH]6)C=C5)C=C4)cc2)N1C(=O)N(C)[C@@H](C)Cc1cccs1
REMARK SMILES IDX 6 1 7 2 8 3 5 5 1 6 2 7 3 8 78 9 4 10 79 11 80 12 81 13
REMARK SMILES IDX 82 14 83 15 84 16 85 17 86 18 87 19 90 20 88 21 89 22 9 23
REMARK SMILES IDX 10 24 11 25 12 26 13 27 14 29 15 30 16 31 77 32 17 33 76 34
REMARK SMILES IDX 18 35 19 36 20 37 70 38 21 39 75 40 69 41 71 42 22 43 74 44
REMARK SMILES IDX 68 45 67 46 23 48 55 49 35 50 54 51 36 52 39 53 53 54 72 55
REMARK SMILES IDX 37 56 38 57 52 59 73 60 40 61 24 62 25 63 33 64 26 65 27 66
REMARK SMILES IDX 31 67 34 68 28 69 29 70 32 71 30 72 56 73 57 74 65 75 58 76
REMARK SMILES IDX 59 77 63 78 66 79 60 80 61 81 64 82 62 83 41 84 42 85 50 86
REMARK SMILES IDX 43 87 44 88 48 89 51 90 45 91 46 92 49 93 47 94
REMARK H PARENT 8 4 12 28 71 47 39 58
REMARK Flexibility Score: inf
ROOT
ATOM      1  C   UNL A   1      31.894  29.212  24.487  1.00  0.00     0.243 C 
ATOM      2  O   UNL A   1      32.728  28.952  23.611  1.00  0.00    -0.273 OA
ATOM      3  N   UNL A   1      32.215  30.215  25.348  1.00  0.00    -0.354 N 
ATOM      4  H   UNL A   1      33.003  30.743  25.089  1.00  0.00     0.163 HD
ENDROOT
BRANCH   1   5
ATOM      5  C   UNL A   1      30.687  28.275  24.712  1.00  0.00     0.187 C 
ATOM      6  C   UNL A   1      30.329  24.906  23.462  1.00  0.00     0.043 C 
ATOM      7  C   UNL A   1      29.847  25.988  24.427  1.00  0.00     0.142 C 
ATOM      8  S   UNL A   1      28.665  27.065  23.553  1.00  0.00    -0.135 SA
ATOM      9  N   UNL A   1      30.905  26.830  24.981  1.00  0.00    -0.300 N 
ATOM     10  C   UNL A   1      29.820  28.433  23.465  1.00  0.00     0.107 C 
BRANCH   9  11
ATOM     11  C   UNL A   1      31.832  26.535  25.965  1.00  0.00     0.321 C 
ATOM     12  O   UNL A   1      31.692  27.060  27.076  1.00  0.00    -0.248 OA
BRANCH  11  13
ATOM     13  N   UNL A   1      32.958  25.771  25.730  1.00  0.00    -0.325 N 
ATOM     14  C   UNL A   1      33.990  25.973  24.720  1.00  0.00     0.149 C 
BRANCH  13  15
ATOM     15  C   UNL A   1      33.108  24.489  26.484  1.00  0.00     0.088 C 
ATOM     16  C   UNL A   1      31.757  23.812  26.758  1.00  0.00     0.031 C 
BRANCH  15  17
ATOM     17  C   UNL A   1      34.119  23.483  25.873  1.00  0.00     0.071 C 
BRANCH  17  18
ATOM     18  C   UNL A   1      33.459  22.363  25.115  1.00  0.00     0.007 A 
ATOM     19  C   UNL A   1      32.897  22.415  23.855  1.00  0.00     0.015 A 
ATOM     20  S   UNL A   1      33.317  20.798  25.801  1.00  0.00    -0.149 S 
ATOM     21  C   UNL A   1      32.444  21.139  23.412  1.00  0.00     0.012 A 
ATOM     22  C   UNL A   1      32.655  20.162  24.358  1.00  0.00     0.065 A 
ENDBRANCH  17  18
ENDBRANCH  15  17
ENDBRANCH  13  15
ENDBRANCH  11  13
ENDBRANCH   9  11
ENDBRANCH   1   5
BRANCH   3  23
ATOM     23  C   UNL A   1      31.585  30.632  26.583  1.00  0.00     0.117 C 
BRANCH  23  24
ATOM     24  C   UNL A   1      31.472  32.148  26.659  1.00  0.00     0.042 C 
BRANCH  24  25
ATOM     25  C   UNL A   1      32.713  32.835  27.212  1.00  0.00     0.118 C 
BRANCH  25  26
ATOM     26  N   UNL A   1      32.456  34.207  27.625  1.00  0.00    -0.352 N 
ATOM     27  C   UNL A   1      33.007  34.936  28.650  1.00  0.00     0.251 C 
ATOM     28  H   UNL A   1      31.786  34.687  27.087  1.00  0.00     0.163 HD
ATOM     29  O   UNL A   1      32.518  36.014  28.969  1.00  0.00    -0.269 OA
BRANCH  27  30
ATOM     30  C   UNL A   1      34.176  34.410  29.390  1.00  0.00     0.039 A 
ATOM     31  C   UNL A   1      33.967  33.754  30.605  1.00  0.00     0.014 A 
ATOM     32  C   UNL A   1      35.473  34.574  28.896  1.00  0.00     0.014 A 
ATOM     33  C   UNL A   1      35.052  33.202  31.289  1.00  0.00     0.010 A 
ATOM     34  C   UNL A   1      36.539  33.944  29.529  1.00  0.00     0.010 A 
ATOM     35  C   UNL A   1      36.342  33.258  30.737  1.00  0.00    -0.014 A 
BRANCH  35  36
ATOM     36  C   UNL A   1      37.498  32.613  31.410  1.00  0.00     0.031 A 
ATOM     37  C   UNL A   1      38.225  31.478  30.742  1.00  0.00     0.074 A 
ATOM     38  C   UNL A   1      37.855  33.009  32.647  1.00  0.00     0.049 A 
ATOM     39  N   UNL A   1      39.212  30.746  31.193  1.00  0.00    -0.248 NA
ATOM     40  C   UNL A   1      37.760  31.095  29.399  1.00  0.00     0.031 C 
ATOM     41  C   UNL A   1      37.201  34.068  33.418  1.00  0.00     0.029 A 
ATOM     42  N   UNL A   1      38.852  32.562  33.477  1.00  0.00    -0.354 N 
ATOM     43  C   UNL A   1      39.476  29.814  30.198  1.00  0.00     0.074 A 
ATOM     44  C   UNL A   1      38.505  30.030  29.148  1.00  0.00     0.031 C 
ATOM     45  C   UNL A   1      37.832  34.209  34.594  1.00  0.00     0.029 A 
ATOM     46  C   UNL A   1      38.906  33.224  34.680  1.00  0.00     0.049 A 
ATOM     47  H   UNL A   1      39.471  31.836  33.235  1.00  0.00     0.167 HD
ATOM     48  C   UNL A   1      40.457  28.882  30.151  1.00  0.00     0.037 A 
ATOM     49  C   UNL A   1      39.724  33.050  35.735  1.00  0.00     0.037 A 
ATOM     50  C   UNL A   1      41.432  28.682  31.191  1.00  0.00     0.049 A 
ATOM     51  C   UNL A   1      40.790  31.989  35.668  1.00  0.00     0.074 A 
ATOM     52  C   UNL A   1      42.497  27.798  31.219  1.00  0.00     0.029 A 
ATOM     53  N   UNL A   1      41.457  29.375  32.393  1.00  0.00    -0.354 N 
ATOM     54  N   UNL A   1      41.075  31.161  34.693  1.00  0.00    -0.248 NA
ATOM     55  C   UNL A   1      41.653  31.845  36.848  1.00  0.00     0.031 C 
ATOM     56  C   UNL A   1      43.135  27.921  32.458  1.00  0.00     0.029 A 
ATOM     57  C   UNL A   1      42.504  28.922  33.179  1.00  0.00     0.049 A 
ATOM     58  H   UNL A   1      40.824  30.085  32.649  1.00  0.00     0.167 HD
ATOM     59  C   UNL A   1      42.167  30.420  35.127  1.00  0.00     0.074 A 
ATOM     60  C   UNL A   1      42.503  30.910  36.448  1.00  0.00     0.031 C 
ATOM     61  C   UNL A   1      42.832  29.427  34.489  1.00  0.00     0.037 A 
BRANCH  48  62
ATOM     62  C   UNL A   1      40.523  28.006  28.931  1.00  0.00     0.064 A 
ATOM     63  C   UNL A   1      41.311  28.348  27.821  1.00  0.00     0.173 A 
ATOM     64  C   UNL A   1      39.812  26.798  28.880  1.00  0.00     0.173 A 
ATOM     65  F   UNL A   1      42.003  29.497  27.812  1.00  0.00    -0.203 F 
ATOM     66  C   UNL A   1      41.354  27.533  26.693  1.00  0.00     0.198 A 
ATOM     67  C   UNL A   1      39.885  25.968  27.764  1.00  0.00     0.198 A 
ATOM     68  F   UNL A   1      39.048  26.417  29.915  1.00  0.00    -0.203 F 
ATOM     69  F   UNL A   1      42.067  27.911  25.622  1.00  0.00    -0.200 F 
ATOM     70  C   UNL A   1      40.647  26.341  26.668  1.00  0.00     0.200 A 
ATOM     71  F   UNL A   1      39.212  24.809  27.748  1.00  0.00    -0.200 F 
ATOM     72  F   UNL A   1      40.694  25.555  25.583  1.00  0.00    -0.200 F 
ENDBRANCH  48  62
BRANCH  49  73
ATOM     73  C   UNL A   1      39.589  33.918  36.934  1.00  0.00     0.064 A 
ATOM     74  C   UNL A   1      38.839  33.500  38.043  1.00  0.00     0.173 A 
ATOM     75  C   UNL A   1      40.194  35.182  36.997  1.00  0.00     0.173 A 
ATOM     76  F   UNL A   1      38.226  32.307  38.025  1.00  0.00    -0.203 F 
ATOM     77  C   UNL A   1      38.681  34.321  39.158  1.00  0.00     0.198 A 
ATOM     78  C   UNL A   1      40.060  35.989  38.124  1.00  0.00     0.198 A 
ATOM     79  F   UNL A   1      40.926  35.629  35.965  1.00  0.00    -0.203 F 
ATOM     80  F   UNL A   1      37.918  33.915  40.182  1.00  0.00    -0.200 F 
ATOM     81  C   UNL A   1      39.296  35.563  39.199  1.00  0.00     0.200 A 
ATOM     82  F   UNL A   1      40.669  37.182  38.167  1.00  0.00    -0.200 F 
ATOM     83  F   UNL A   1      39.146  36.351  40.272  1.00  0.00    -0.200 F 
ENDBRANCH  49  73
BRANCH  61  84
ATOM     84  C   UNL A   1      44.018  28.829  35.192  1.00  0.00     0.064 A 
ATOM     85  C   UNL A   1      45.314  29.332  35.012  1.00  0.00     0.173 A 
ATOM     86  C   UNL A   1      43.846  27.760  36.084  1.00  0.00     0.173 A 
ATOM     87  F   UNL A   1      45.535  30.344  34.158  1.00  0.00    -0.203 F 
ATOM     88  C   UNL A   1      46.400  28.769  35.679  1.00  0.00     0.198 A 
ATOM     89  C   UNL A   1      44.928  27.221  36.774  1.00  0.00     0.198 A 
ATOM     90  F   UNL A   1      42.626  27.246  36.297  1.00  0.00    -0.203 F 
ATOM     91  F   UNL A   1      47.637  29.231  35.452  1.00  0.00    -0.200 F 
ATOM     92  C   UNL A   1      46.205  27.720  36.564  1.00  0.00     0.200 A 
ATOM     93  F   UNL A   1      44.735  26.217  37.642  1.00  0.00    -0.200 F 
ATOM     94  F   UNL A   1      47.249  27.183  37.211  1.00  0.00    -0.200 F 
ENDBRANCH  61  84
ENDBRANCH  35  36
ENDBRANCH  27  30
ENDBRANCH  25  26
ENDBRANCH  24  25
ENDBRANCH  23  24
ENDBRANCH   3  23
TORSDOF 15
ENDMDL
MODEL 3
REMARK VINA RESULT:     -11.3      1.739      3.707
REMARK SMILES C[C@@H]1SC[C@H](C(=O)NCCCNC(=O)c2ccc(-c3c4nc(c(-c5c(F)c(F)c(F)c(F)c5F)c5ccc([nH]5)c(-c5c(F)c(F)c(F)c(F)c5F)c5nc(c(-c6c(F)c(F)c(F)c(F)c6F)c6ccc3[nH]6)C=C5)C=C4)cc2)N1C(=O)N(C)[C@@H](C)Cc1cccs1
REMARK SMILES IDX 6 1 7 2 8 3 5 5 1 6 2 7 3 8 78 9 4 10 79 11 80 12 81 13
REMARK SMILES IDX 82 14 83 15 84 16 85 17 86 18 87 19 90 20 88 21 89 22 9 23
REMARK SMILES IDX 10 24 11 25 12 26 13 27 14 29 15 30 16 31 77 32 17 33 76 34
REMARK SMILES IDX 18 35 19 36 20 37 70 38 21 39 75 40 69 41 71 42 22 43 74 44
REMARK SMILES IDX 68 45 67 46 23 48 55 49 35 50 54 51 36 52 39 53 53 54 72 55
REMARK SMILES IDX 37 56 38 57 52 59 73 60 40 61 24 62 25 63 33 64 26 65 27 66
REMARK SMILES IDX 31 67 34 68 28 69 29 70 32 71 30 72 56 73 57 74 65 75 58 76
REMARK SMILES IDX 59 77 63 78 66 79 60 80 61 81 64 82 62 83 41 84 42 85 50 86
REMARK SMILES IDX 43 87 44 88 48 89 51 90 45 91 46 92 49 93 47 94
REMARK H PARENT 8 4 12 28 71 47 39 58
REMARK Flexibility Score: inf
ROOT
ATOM      1  C   UNL A   1      33.288  29.252  25.689  1.00  0.00     0.243 C 
ATOM      2  O   UNL A   1      34.081  28.567  26.347  1.00  0.00    -0.273 OA
ATOM      3  N   UNL A   1      32.585  30.191  26.378  1.00  0.00    -0.354 N 
ATOM      4  H   UNL A   1      32.895  30.344  27.299  1.00  0.00     0.163 HD
ENDROOT
BRANCH   1   5
ATOM      5  C   UNL A   1      32.963  28.874  24.227  1.00  0.00     0.187 C 
ATOM      6  C   UNL A   1      32.961  25.548  22.825  1.00  0.00     0.043 C 
ATOM      7  C   UNL A   1      32.552  27.013  22.685  1.00  0.00     0.142 C 
ATOM      8  S   UNL A   1      33.952  27.943  21.980  1.00  0.00    -0.135 SA
ATOM      9  N   UNL A   1      32.158  27.661  23.932  1.00  0.00    -0.300 N 
ATOM     10  C   UNL A   1      34.317  28.766  23.531  1.00  0.00     0.107 C 
BRANCH   9  11
ATOM     11  C   UNL A   1      30.984  27.529  24.653  1.00  0.00     0.321 C 
ATOM     12  O   UNL A   1      31.051  27.554  25.888  1.00  0.00    -0.248 OA
BRANCH  11  13
ATOM     13  N   UNL A   1      29.765  27.264  24.060  1.00  0.00    -0.325 N 
ATOM     14  C   UNL A   1      29.024  26.009  24.045  1.00  0.00     0.149 C 
BRANCH  13  15
ATOM     15  C   UNL A   1      29.159  28.323  23.197  1.00  0.00     0.088 C 
ATOM     16  C   UNL A   1      27.624  28.262  23.191  1.00  0.00     0.031 C 
BRANCH  15  17
ATOM     17  C   UNL A   1      29.655  29.765  23.481  1.00  0.00     0.071 C 
BRANCH  17  18
ATOM     18  C   UNL A   1      29.069  30.790  22.548  1.00  0.00     0.007 A 
ATOM     19  C   UNL A   1      28.752  30.632  21.214  1.00  0.00     0.015 A 
ATOM     20  S   UNL A   1      28.722  32.379  23.091  1.00  0.00    -0.149 S 
ATOM     21  C   UNL A   1      28.127  31.789  20.666  1.00  0.00     0.012 A 
ATOM     22  C   UNL A   1      28.008  32.798  21.595  1.00  0.00     0.065 A 
ENDBRANCH  17  18
ENDBRANCH  15  17
ENDBRANCH  13  15
ENDBRANCH  11  13
ENDBRANCH   9  11
ENDBRANCH   1   5
BRANCH   3  23
ATOM     23  C   UNL A   1      31.455  31.002  25.977  1.00  0.00     0.117 C 
BRANCH  23  24
ATOM     24  C   UNL A   1      31.287  32.204  26.896  1.00  0.00     0.042 C 
BRANCH  24  25
ATOM     25  C   UNL A   1      32.596  32.891  27.263  1.00  0.00     0.118 C 
BRANCH  25  26
ATOM     26  N   UNL A   1      32.415  34.295  27.603  1.00  0.00    -0.352 N 
ATOM     27  C   UNL A   1      33.030  35.053  28.570  1.00  0.00     0.251 C 
ATOM     28  H   UNL A   1      31.751  34.775  27.058  1.00  0.00     0.163 HD
ATOM     29  O   UNL A   1      32.601  36.169  28.839  1.00  0.00    -0.269 OA
BRANCH  27  30
ATOM     30  C   UNL A   1      34.196  34.515  29.305  1.00  0.00     0.039 A 
ATOM     31  C   UNL A   1      33.988  33.896  30.539  1.00  0.00     0.014 A 
ATOM     32  C   UNL A   1      35.489  34.631  28.788  1.00  0.00     0.014 A 
ATOM     33  C   UNL A   1      35.069  33.332  31.222  1.00  0.00     0.010 A 
ATOM     34  C   UNL A   1      36.548  33.988  29.422  1.00  0.00     0.010 A 
ATOM     35  C   UNL A   1      36.351  33.339  30.650  1.00  0.00    -0.014 A 
BRANCH  35  36
ATOM     36  C   UNL A   1      37.500  32.680  31.322  1.00  0.00     0.031 A 
ATOM     37  C   UNL A   1      38.219  31.544  30.649  1.00  0.00     0.074 A 
ATOM     38  C   UNL A   1      37.855  33.066  32.563  1.00  0.00     0.049 A 
ATOM     39  N   UNL A   1      39.199  30.800  31.099  1.00  0.00    -0.248 NA
ATOM     40  C   UNL A   1      37.754  31.173  29.303  1.00  0.00     0.031 C 
ATOM     41  C   UNL A   1      37.208  34.124  33.339  1.00  0.00     0.029 A 
ATOM     42  N   UNL A   1      38.846  32.604  33.393  1.00  0.00    -0.354 N 
ATOM     43  C   UNL A   1      39.458  29.873  30.098  1.00  0.00     0.074 A 
ATOM     44  C   UNL A   1      38.492  30.103  29.046  1.00  0.00     0.031 C 
ATOM     45  C   UNL A   1      37.836  34.253  34.517  1.00  0.00     0.029 A 
ATOM     46  C   UNL A   1      38.901  33.258  34.600  1.00  0.00     0.049 A 
ATOM     47  H   UNL A   1      39.460  31.875  33.148  1.00  0.00     0.167 HD
ATOM     48  C   UNL A   1      40.431  28.933  30.048  1.00  0.00     0.037 A 
ATOM     49  C   UNL A   1      39.715  33.070  35.657  1.00  0.00     0.037 A 
ATOM     50  C   UNL A   1      41.402  28.718  31.090  1.00  0.00     0.049 A 
ATOM     51  C   UNL A   1      40.773  32.001  35.586  1.00  0.00     0.074 A 
ATOM     52  C   UNL A   1      42.459  27.826  31.115  1.00  0.00     0.029 A 
ATOM     53  N   UNL A   1      41.428  29.403  32.296  1.00  0.00    -0.354 N 
ATOM     54  N   UNL A   1      41.053  31.177  34.607  1.00  0.00    -0.248 NA
ATOM     55  C   UNL A   1      41.631  31.842  36.768  1.00  0.00     0.031 C 
ATOM     56  C   UNL A   1      43.094  27.935  32.357  1.00  0.00     0.029 A 
ATOM     57  C   UNL A   1      42.469  28.936  33.083  1.00  0.00     0.049 A 
ATOM     58  H   UNL A   1      40.800  30.117  32.555  1.00  0.00     0.167 HD
ATOM     59  C   UNL A   1      42.138  30.425  35.039  1.00  0.00     0.074 A 
ATOM     60  C   UNL A   1      42.474  30.904  36.364  1.00  0.00     0.031 C 
ATOM     61  C   UNL A   1      42.797  29.430  34.397  1.00  0.00     0.037 A 
BRANCH  48  62
ATOM     62  C   UNL A   1      40.494  28.064  28.822  1.00  0.00     0.064 A 
ATOM     63  C   UNL A   1      41.251  28.431  27.698  1.00  0.00     0.173 A 
ATOM     64  C   UNL A   1      39.811  26.840  28.780  1.00  0.00     0.173 A 
ATOM     65  F   UNL A   1      41.915  29.596  27.682  1.00  0.00    -0.203 F 
ATOM     66  C   UNL A   1      41.291  27.622  26.566  1.00  0.00     0.198 A 
ATOM     67  C   UNL A   1      39.882  26.016  27.659  1.00  0.00     0.198 A 
ATOM     68  F   UNL A   1      39.078  26.436  29.828  1.00  0.00    -0.203 F 
ATOM     69  F   UNL A   1      41.973  28.022  25.483  1.00  0.00    -0.200 F 
ATOM     70  C   UNL A   1      40.613  26.413  26.549  1.00  0.00     0.200 A 
ATOM     71  F   UNL A   1      39.238  24.842  27.650  1.00  0.00    -0.200 F 
ATOM     72  F   UNL A   1      40.657  25.633  25.460  1.00  0.00    -0.200 F 
ENDBRANCH  48  62
BRANCH  49  73
ATOM     73  C   UNL A   1      39.583  33.932  36.861  1.00  0.00     0.064 A 
ATOM     74  C   UNL A   1      40.215  35.182  36.923  1.00  0.00     0.173 A 
ATOM     75  C   UNL A   1      38.834  33.525  37.976  1.00  0.00     0.173 A 
ATOM     76  F   UNL A   1      40.958  35.608  35.890  1.00  0.00    -0.203 F 
ATOM     77  C   UNL A   1      40.122  35.982  38.060  1.00  0.00     0.198 A 
ATOM     78  C   UNL A   1      38.718  34.339  39.100  1.00  0.00     0.198 A 
ATOM     79  F   UNL A   1      38.205  32.341  37.967  1.00  0.00    -0.203 F 
ATOM     80  F   UNL A   1      40.778  37.150  38.110  1.00  0.00    -0.200 F 
ATOM     81  C   UNL A   1      39.370  35.562  39.146  1.00  0.00     0.200 A 
ATOM     82  F   UNL A   1      37.976  33.937  40.141  1.00  0.00    -0.200 F 
ATOM     83  F   UNL A   1      39.279  36.332  40.239  1.00  0.00    -0.200 F 
ENDBRANCH  49  73
BRANCH  61  84
ATOM     84  C   UNL A   1      43.976  28.818  35.099  1.00  0.00     0.064 A 
ATOM     85  C   UNL A   1      45.277  29.309  34.924  1.00  0.00     0.173 A 
ATOM     86  C   UNL A   1      43.792  27.747  35.987  1.00  0.00     0.173 A 
ATOM     87  F   UNL A   1      45.509  30.321  34.073  1.00  0.00    -0.203 F 
ATOM     88  C   UNL A   1      46.356  28.732  35.590  1.00  0.00     0.198 A 
ATOM     89  C   UNL A   1      44.867  27.195  36.677  1.00  0.00     0.198 A 
ATOM     90  F   UNL A   1      42.566  27.245  36.197  1.00  0.00    -0.203 F 
ATOM     91  F   UNL A   1      47.598  29.183  35.366  1.00  0.00    -0.200 F 
ATOM     92  C   UNL A   1      46.149  27.682  36.471  1.00  0.00     0.200 A 
ATOM     93  F   UNL A   1      44.662  26.191  37.541  1.00  0.00    -0.200 F 
ATOM     94  F   UNL A   1      47.186  27.132  37.118  1.00  0.00    -0.200 F 
ENDBRANCH  61  84
ENDBRANCH  35  36
ENDBRANCH  27  30
ENDBRANCH  25  26
ENDBRANCH  24  25
ENDBRANCH  23  24
ENDBRANCH   3  23
TORSDOF 15
ENDMDL
