MODEL 1
REMARK VINA RESULT:     -12.6      0.000      0.000
REMARK SMILES Cc1cc(C(=O)Nc2nc(CC(=O)NCCCNC(=O)c3ccc(-c4c5nc(c(-c6c(F)c(F)c(F)c(F)c6F)c6ccc([nH]6)c(-c6c(F)c(F)c(F)c(F)c6F)c6nc(c(-c7c(F)c(F)c(F)c(F)c7F)c7ccc4[nH]7)C=C6)C=C5)cc3)cs2)sc1C
REMARK SMILES IDX 15 1 14 2 12 3 13 4 11 6 10 7 8 8 9 9 85 10 84 11 7 12 5 13
REMARK SMILES IDX 6 14 4 16 1 17 2 18 3 19 87 20 86 21 88 22 16 23 17 24 18 25
REMARK SMILES IDX 19 26 20 28 21 29 22 30 83 31 23 32 82 33 24 34 25 35 26 36
REMARK SMILES IDX 76 37 27 38 81 39 75 40 77 41 28 42 80 43 74 44 73 45 29 47
REMARK SMILES IDX 61 48 41 49 60 50 42 51 45 52 59 53 78 54 43 55 44 56 58 58
REMARK SMILES IDX 79 59 46 60 30 61 31 62 39 63 32 64 33 65 37 66 40 67 34 68
REMARK SMILES IDX 35 69 38 70 36 71 62 72 63 73 71 74 64 75 65 76 69 77 72 78
REMARK SMILES IDX 66 79 67 80 70 81 68 82 47 83 48 84 56 85 49 86 50 87 54 88
REMARK SMILES IDX 57 89 51 90 52 91 55 92 53 93
REMARK H PARENT 14 5 7 15 18 27 77 46 45 57
REMARK Flexibility Score: inf
ROOT
ATOM      1  C   UNL A   1      31.462  30.889  25.904  1.00  0.00     0.117 C 
ENDROOT
BRANCH   1   2
ATOM      2  N   UNL A   1      32.691  30.252  26.348  1.00  0.00    -0.356 N 
ATOM      3  C   UNL A   1      32.849  29.087  27.042  1.00  0.00     0.226 C 
ATOM      4  O   UNL A   1      33.984  28.772  27.408  1.00  0.00    -0.275 OA
ATOM      5  H   UNL A   1      33.524  30.726  26.116  1.00  0.00     0.163 HD
BRANCH   3   6
ATOM      6  C   UNL A   1      31.656  28.201  27.322  1.00  0.00     0.157 C 
BRANCH   6   7
ATOM      7  C   UNL A   1      31.311  27.322  26.169  1.00  0.00     0.063 A 
ATOM      8  C   UNL A   1      31.576  26.689  24.075  1.00  0.00     0.189 A 
ATOM      9  N   UNL A   1      31.880  27.620  24.939  1.00  0.00    -0.224 NA
ATOM     10  S   UNL A   1      30.414  25.549  24.576  1.00  0.00    -0.105 S 
ATOM     11  C   UNL A   1      30.497  26.203  26.165  1.00  0.00     0.093 A 
BRANCH   8  12
ATOM     12  N   UNL A   1      32.064  26.507  22.818  1.00  0.00    -0.297 N 
ATOM     13  C   UNL A   1      33.215  25.835  22.468  1.00  0.00     0.267 C 
ATOM     14  O   UNL A   1      33.693  26.138  21.367  1.00  0.00    -0.268 OA
ATOM     15  H   UNL A   1      31.540  26.897  22.082  1.00  0.00     0.172 HD
BRANCH  13  16
ATOM     16  C   UNL A   1      33.799  24.756  23.270  1.00  0.00     0.093 A 
ATOM     17  C   UNL A   1      36.138  23.567  25.991  1.00  0.00     0.045 C 
ATOM     18  C   UNL A   1      35.125  23.667  24.900  1.00  0.00    -0.037 A 
ATOM     19  C   UNL A   1      34.718  24.908  24.298  1.00  0.00     0.029 A 
ATOM     20  C   UNL A   1      34.431  22.611  24.338  1.00  0.00     0.005 A 
ATOM     21  S   UNL A   1      33.643  23.090  22.904  1.00  0.00    -0.135 S 
ATOM     22  C   UNL A   1      34.362  21.182  24.762  1.00  0.00     0.056 C 
ENDBRANCH  13  16
ENDBRANCH   8  12
ENDBRANCH   6   7
ENDBRANCH   3   6
ENDBRANCH   1   2
BRANCH   1  23
ATOM     23  C   UNL A   1      31.239  32.242  26.578  1.00  0.00     0.042 C 
BRANCH  23  24
ATOM     24  C   UNL A   1      32.465  32.801  27.294  1.00  0.00     0.118 C 
BRANCH  24  25
ATOM     25  N   UNL A   1      32.314  34.203  27.654  1.00  0.00    -0.352 N 
ATOM     26  C   UNL A   1      32.983  34.956  28.582  1.00  0.00     0.251 C 
ATOM     27  H   UNL A   1      31.623  34.688  27.147  1.00  0.00     0.163 HD
ATOM     28  O   UNL A   1      32.575  36.088  28.849  1.00  0.00    -0.269 OA
BRANCH  26  29
ATOM     29  C   UNL A   1      34.171  34.429  29.288  1.00  0.00     0.039 A 
ATOM     30  C   UNL A   1      33.995  33.833  30.540  1.00  0.00     0.014 A 
ATOM     31  C   UNL A   1      35.456  34.548  28.750  1.00  0.00     0.014 A 
ATOM     32  C   UNL A   1      35.092  33.298  31.220  1.00  0.00     0.010 A 
ATOM     33  C   UNL A   1      36.541  33.958  29.398  1.00  0.00     0.010 A 
ATOM     34  C   UNL A   1      36.368  33.321  30.637  1.00  0.00    -0.014 A 
BRANCH  34  35
ATOM     35  C   UNL A   1      37.523  32.654  31.293  1.00  0.00     0.031 A 
ATOM     36  C   UNL A   1      38.206  31.487  30.639  1.00  0.00     0.074 A 
ATOM     37  C   UNL A   1      37.909  33.060  32.518  1.00  0.00     0.049 A 
ATOM     38  N   UNL A   1      39.179  30.737  31.095  1.00  0.00    -0.248 NA
ATOM     39  C   UNL A   1      37.718  31.094  29.309  1.00  0.00     0.031 C 
ATOM     40  C   UNL A   1      37.293  34.149  33.277  1.00  0.00     0.029 A 
ATOM     41  N   UNL A   1      38.898  32.593  33.347  1.00  0.00    -0.354 N 
ATOM     42  C   UNL A   1      39.408  29.777  30.117  1.00  0.00     0.074 A 
ATOM     43  C   UNL A   1      38.443  30.012  29.063  1.00  0.00     0.031 C 
ATOM     44  C   UNL A   1      37.925  34.276  34.455  1.00  0.00     0.029 A 
ATOM     45  C   UNL A   1      38.962  33.253  34.550  1.00  0.00     0.049 A 
ATOM     46  H   UNL A   1      39.503  31.856  33.104  1.00  0.00     0.167 HD
ATOM     47  C   UNL A   1      40.347  28.801  30.095  1.00  0.00     0.037 A 
ATOM     48  C   UNL A   1      39.758  33.049  35.618  1.00  0.00     0.037 A 
ATOM     49  C   UNL A   1      41.320  28.586  31.134  1.00  0.00     0.049 A 
ATOM     50  C   UNL A   1      40.788  31.955  35.570  1.00  0.00     0.074 A 
ATOM     51  C   UNL A   1      42.365  27.680  31.164  1.00  0.00     0.029 A 
ATOM     52  N   UNL A   1      41.361  29.281  32.335  1.00  0.00    -0.354 N 
ATOM     53  N   UNL A   1      41.047  31.106  34.606  1.00  0.00    -0.248 NA
ATOM     54  C   UNL A   1      41.637  31.792  36.759  1.00  0.00     0.031 C 
ATOM     55  C   UNL A   1      43.006  27.789  32.403  1.00  0.00     0.029 A 
ATOM     56  C   UNL A   1      42.392  28.799  33.126  1.00  0.00     0.049 A 
ATOM     57  H   UNL A   1      40.749  30.010  32.587  1.00  0.00     0.167 HD
ATOM     58  C   UNL A   1      42.096  30.319  35.062  1.00  0.00     0.074 A 
ATOM     59  C   UNL A   1      42.440  30.807  36.382  1.00  0.00     0.031 C 
ATOM     60  C   UNL A   1      42.717  29.286  34.442  1.00  0.00     0.037 A 
BRANCH  47  61
ATOM     61  C   UNL A   1      40.367  27.882  28.907  1.00  0.00     0.064 A 
ATOM     62  C   UNL A   1      41.108  28.183  27.755  1.00  0.00     0.173 A 
ATOM     63  C   UNL A   1      39.669  26.664  28.939  1.00  0.00     0.173 A 
ATOM     64  F   UNL A   1      41.786  29.337  27.670  1.00  0.00    -0.203 F 
ATOM     65  C   UNL A   1      41.125  27.314  26.666  1.00  0.00     0.198 A 
ATOM     66  C   UNL A   1      39.713  25.785  27.861  1.00  0.00     0.198 A 
ATOM     67  F   UNL A   1      38.951  26.324  30.020  1.00  0.00    -0.203 F 
ATOM     68  F   UNL A   1      41.801  27.645  25.557  1.00  0.00    -0.200 F 
ATOM     69  C   UNL A   1      40.433  26.113  26.723  1.00  0.00     0.200 A 
ATOM     70  F   UNL A   1      39.054  24.619  27.923  1.00  0.00    -0.200 F 
ATOM     71  F   UNL A   1      40.455  25.276  25.677  1.00  0.00    -0.200 F 
ENDBRANCH  47  61
BRANCH  48  72
ATOM     72  C   UNL A   1      39.612  33.911  36.819  1.00  0.00     0.064 A 
ATOM     73  C   UNL A   1      40.261  35.151  36.898  1.00  0.00     0.173 A 
ATOM     74  C   UNL A   1      38.814  33.520  37.903  1.00  0.00     0.173 A 
ATOM     75  F   UNL A   1      41.052  35.557  35.894  1.00  0.00    -0.203 F 
ATOM     76  C   UNL A   1      40.127  35.962  38.023  1.00  0.00     0.198 A 
ATOM     77  C   UNL A   1      38.659  34.345  39.016  1.00  0.00     0.198 A 
ATOM     78  F   UNL A   1      38.169  32.345  37.874  1.00  0.00    -0.203 F 
ATOM     79  F   UNL A   1      40.789  37.126  38.090  1.00  0.00    -0.200 F 
ATOM     80  C   UNL A   1      39.320  35.561  39.077  1.00  0.00     0.200 A 
ATOM     81  F   UNL A   1      37.866  33.960  40.026  1.00  0.00    -0.200 F 
ATOM     82  F   UNL A   1      39.185  36.346  40.156  1.00  0.00    -0.200 F 
ENDBRANCH  48  72
BRANCH  60  83
ATOM     83  C   UNL A   1      43.840  28.616  35.182  1.00  0.00     0.064 A 
ATOM     84  C   UNL A   1      45.161  29.071  35.075  1.00  0.00     0.173 A 
ATOM     85  C   UNL A   1      43.583  27.533  36.036  1.00  0.00     0.173 A 
ATOM     86  F   UNL A   1      45.460  30.093  34.258  1.00  0.00    -0.203 F 
ATOM     87  C   UNL A   1      46.190  28.453  35.781  1.00  0.00     0.198 A 
ATOM     88  C   UNL A   1      44.610  26.936  36.762  1.00  0.00     0.198 A 
ATOM     89  F   UNL A   1      42.335  27.063  36.177  1.00  0.00    -0.203 F 
ATOM     90  F   UNL A   1      47.453  28.877  35.629  1.00  0.00    -0.200 F 
ATOM     91  C   UNL A   1      45.913  27.392  36.629  1.00  0.00     0.200 A 
ATOM     92  F   UNL A   1      44.339  25.918  37.591  1.00  0.00    -0.200 F 
ATOM     93  F   UNL A   1      46.904  26.803  37.313  1.00  0.00    -0.200 F 
ENDBRANCH  60  83
ENDBRANCH  34  35
ENDBRANCH  26  29
ENDBRANCH  24  25
ENDBRANCH  23  24
ENDBRANCH   1  23
TORSDOF 13
ENDMDL
MODEL 2
REMARK VINA RESULT:     -12.5      5.731     11.152
REMARK SMILES Cc1cc(C(=O)Nc2nc(CC(=O)NCCCNC(=O)c3ccc(-c4c5nc(c(-c6c(F)c(F)c(F)c(F)c6F)c6ccc([nH]6)c(-c6c(F)c(F)c(F)c(F)c6F)c6nc(c(-c7c(F)c(F)c(F)c(F)c7F)c7ccc4[nH]7)C=C6)C=C5)cc3)cs2)sc1C
REMARK SMILES IDX 15 1 14 2 12 3 13 4 11 6 10 7 8 8 9 9 85 10 84 11 7 12 5 13
REMARK SMILES IDX 6 14 4 16 1 17 2 18 3 19 87 20 86 21 88 22 16 23 17 24 18 25
REMARK SMILES IDX 19 26 20 28 21 29 22 30 83 31 23 32 82 33 24 34 25 35 26 36
REMARK SMILES IDX 76 37 27 38 81 39 75 40 77 41 28 42 80 43 74 44 73 45 29 47
REMARK SMILES IDX 61 48 41 49 60 50 42 51 45 52 59 53 78 54 43 55 44 56 58 58
REMARK SMILES IDX 79 59 46 60 30 61 31 62 39 63 32 64 33 65 37 66 40 67 34 68
REMARK SMILES IDX 35 69 38 70 36 71 62 72 63 73 71 74 64 75 65 76 69 77 72 78
REMARK SMILES IDX 66 79 67 80 70 81 68 82 47 83 48 84 56 85 49 86 50 87 54 88
REMARK SMILES IDX 57 89 51 90 52 91 55 92 53 93
REMARK H PARENT 14 5 7 15 18 27 77 46 45 57
REMARK Flexibility Score: inf
ROOT
ATOM      1  C   UNL A   1      36.556  20.513  25.001  1.00  0.00     0.117 C 
ENDROOT
BRANCH   1   2
ATOM      2  N   UNL A   1      36.717  21.743  25.759  1.00  0.00    -0.356 N 
ATOM      3  C   UNL A   1      36.556  23.033  25.341  1.00  0.00     0.226 C 
ATOM      4  O   UNL A   1      36.839  23.943  26.125  1.00  0.00    -0.275 OA
ATOM      5  H   UNL A   1      36.977  21.631  26.703  1.00  0.00     0.163 HD
BRANCH   3   6
ATOM      6  C   UNL A   1      36.014  23.323  23.959  1.00  0.00     0.157 C 
BRANCH   6   7
ATOM      7  C   UNL A   1      34.551  23.064  23.851  1.00  0.00     0.063 A 
ATOM      8  C   UNL A   1      32.560  22.812  24.762  1.00  0.00     0.189 A 
ATOM      9  N   UNL A   1      33.835  22.907  25.029  1.00  0.00    -0.224 NA
ATOM     10  S   UNL A   1      32.147  22.653  23.118  1.00  0.00    -0.105 S 
ATOM     11  C   UNL A   1      33.783  22.981  22.702  1.00  0.00     0.093 A 
BRANCH   8  12
ATOM     12  N   UNL A   1      31.510  22.821  25.627  1.00  0.00    -0.297 N 
ATOM     13  C   UNL A   1      30.944  23.924  26.228  1.00  0.00     0.267 C 
ATOM     14  O   UNL A   1      30.310  23.696  27.267  1.00  0.00    -0.268 OA
ATOM     15  H   UNL A   1      31.113  21.947  25.846  1.00  0.00     0.172 HD
BRANCH  13  16
ATOM     16  C   UNL A   1      30.979  25.269  25.649  1.00  0.00     0.093 A 
ATOM     17  C   UNL A   1      29.756  27.805  23.126  1.00  0.00     0.045 C 
ATOM     18  C   UNL A   1      30.448  27.098  24.242  1.00  0.00    -0.037 A 
ATOM     19  C   UNL A   1      30.183  25.734  24.612  1.00  0.00     0.029 A 
ATOM     20  C   UNL A   1      31.405  27.643  25.079  1.00  0.00     0.005 A 
ATOM     21  S   UNL A   1      32.194  26.429  25.979  1.00  0.00    -0.135 S 
ATOM     22  C   UNL A   1      31.856  29.059  25.217  1.00  0.00     0.056 C 
ENDBRANCH  13  16
ENDBRANCH   8  12
ENDBRANCH   6   7
ENDBRANCH   3   6
ENDBRANCH   1   2
BRANCH   1  23
ATOM     23  C   UNL A   1      37.883  19.783  24.799  1.00  0.00     0.042 C 
BRANCH  23  24
ATOM     24  C   UNL A   1      38.992  20.213  25.756  1.00  0.00     0.118 C 
BRANCH  24  25
ATOM     25  N   UNL A   1      40.031  19.205  25.901  1.00  0.00    -0.352 N 
ATOM     26  C   UNL A   1      41.376  19.344  26.121  1.00  0.00     0.251 C 
ATOM     27  H   UNL A   1      39.717  18.274  25.831  1.00  0.00     0.163 HD
ATOM     28  O   UNL A   1      42.107  18.356  26.036  1.00  0.00    -0.269 OA
BRANCH  26  29
ATOM     29  C   UNL A   1      41.971  20.662  26.435  1.00  0.00     0.039 A 
ATOM     30  C   UNL A   1      42.347  21.494  25.376  1.00  0.00     0.014 A 
ATOM     31  C   UNL A   1      42.198  21.067  27.752  1.00  0.00     0.014 A 
ATOM     32  C   UNL A   1      42.885  22.757  25.638  1.00  0.00     0.010 A 
ATOM     33  C   UNL A   1      42.673  22.352  28.014  1.00  0.00     0.010 A 
ATOM     34  C   UNL A   1      43.016  23.212  26.959  1.00  0.00    -0.014 A 
BRANCH  34  35
ATOM     35  C   UNL A   1      43.476  24.595  27.252  1.00  0.00     0.031 A 
ATOM     36  C   UNL A   1      42.520  25.623  27.785  1.00  0.00     0.074 A 
ATOM     37  C   UNL A   1      44.745  24.941  26.964  1.00  0.00     0.049 A 
ATOM     38  N   UNL A   1      42.725  26.894  28.029  1.00  0.00    -0.248 NA
ATOM     39  C   UNL A   1      41.148  25.173  28.059  1.00  0.00     0.031 C 
ATOM     40  C   UNL A   1      45.755  24.045  26.397  1.00  0.00     0.029 A 
ATOM     41  N   UNL A   1      45.399  26.141  27.093  1.00  0.00    -0.354 N 
ATOM     42  C   UNL A   1      41.507  27.397  28.468  1.00  0.00     0.074 A 
ATOM     43  C   UNL A   1      40.557  26.304  28.417  1.00  0.00     0.031 C 
ATOM     44  C   UNL A   1      46.903  24.723  26.237  1.00  0.00     0.029 A 
ATOM     45  C   UNL A   1      46.700  26.107  26.653  1.00  0.00     0.049 A 
ATOM     46  H   UNL A   1      44.977  26.948  27.464  1.00  0.00     0.167 HD
ATOM     47  C   UNL A   1      41.213  28.650  28.892  1.00  0.00     0.037 A 
ATOM     48  C   UNL A   1      47.624  27.085  26.579  1.00  0.00     0.037 A 
ATOM     49  C   UNL A   1      42.165  29.727  28.966  1.00  0.00     0.049 A 
ATOM     50  C   UNL A   1      47.270  28.469  27.050  1.00  0.00     0.074 A 
ATOM     51  C   UNL A   1      41.985  31.006  29.461  1.00  0.00     0.029 A 
ATOM     52  N   UNL A   1      43.478  29.653  28.520  1.00  0.00    -0.354 N 
ATOM     53  N   UNL A   1      46.138  28.911  27.539  1.00  0.00    -0.248 NA
ATOM     54  C   UNL A   1      48.325  29.488  26.960  1.00  0.00     0.031 C 
ATOM     55  C   UNL A   1      43.172  31.723  29.268  1.00  0.00     0.029 A 
ATOM     56  C   UNL A   1      44.108  30.875  28.699  1.00  0.00     0.049 A 
ATOM     57  H   UNL A   1      43.900  28.850  28.136  1.00  0.00     0.167 HD
ATOM     58  C   UNL A   1      46.345  30.252  27.829  1.00  0.00     0.074 A 
ATOM     59  C   UNL A   1      47.720  30.546  27.481  1.00  0.00     0.031 C 
ATOM     60  C   UNL A   1      45.474  31.157  28.338  1.00  0.00     0.037 A 
BRANCH  47  61
ATOM     61  C   UNL A   1      39.797  28.929  29.307  1.00  0.00     0.064 A 
ATOM     62  C   UNL A   1      38.844  29.415  28.398  1.00  0.00     0.173 A 
ATOM     63  C   UNL A   1      39.377  28.669  30.621  1.00  0.00     0.173 A 
ATOM     64  F   UNL A   1      39.196  29.688  27.133  1.00  0.00    -0.203 F 
ATOM     65  C   UNL A   1      37.532  29.658  28.797  1.00  0.00     0.198 A 
ATOM     66  C   UNL A   1      38.057  28.886  31.007  1.00  0.00     0.198 A 
ATOM     67  F   UNL A   1      40.245  28.196  31.528  1.00  0.00    -0.203 F 
ATOM     68  F   UNL A   1      36.652  30.167  27.923  1.00  0.00    -0.200 F 
ATOM     69  C   UNL A   1      37.138  29.387  30.099  1.00  0.00     0.200 A 
ATOM     70  F   UNL A   1      37.675  28.611  32.263  1.00  0.00    -0.200 F 
ATOM     71  F   UNL A   1      35.874  29.617  30.479  1.00  0.00    -0.200 F 
ENDBRANCH  47  61
BRANCH  48  72
ATOM     72  C   UNL A   1      48.976  26.780  26.044  1.00  0.00     0.064 A 
ATOM     73  C   UNL A   1      49.282  26.999  24.695  1.00  0.00     0.173 A 
ATOM     74  C   UNL A   1      49.990  26.277  26.872  1.00  0.00     0.173 A 
ATOM     75  F   UNL A   1      48.338  27.458  23.860  1.00  0.00    -0.203 F 
ATOM     76  C   UNL A   1      50.549  26.714  24.190  1.00  0.00     0.198 A 
ATOM     77  C   UNL A   1      51.264  26.018  26.372  1.00  0.00     0.198 A 
ATOM     78  F   UNL A   1      49.748  26.055  28.172  1.00  0.00    -0.203 F 
ATOM     79  F   UNL A   1      50.805  26.896  22.887  1.00  0.00    -0.200 F 
ATOM     80  C   UNL A   1      51.540  26.231  25.031  1.00  0.00     0.200 A 
ATOM     81  F   UNL A   1      52.223  25.566  27.192  1.00  0.00    -0.200 F 
ATOM     82  F   UNL A   1      52.761  25.964  24.545  1.00  0.00    -0.200 F 
ENDBRANCH  48  72
BRANCH  60  83
ATOM     83  C   UNL A   1      45.983  32.553  28.556  1.00  0.00     0.064 A 
ATOM     84  C   UNL A   1      45.855  33.542  27.571  1.00  0.00     0.173 A 
ATOM     85  C   UNL A   1      46.570  32.914  29.778  1.00  0.00     0.173 A 
ATOM     86  F   UNL A   1      45.316  33.242  26.379  1.00  0.00    -0.203 F 
ATOM     87  C   UNL A   1      46.316  34.837  27.792  1.00  0.00     0.198 A 
ATOM     88  C   UNL A   1      47.003  34.218  30.007  1.00  0.00     0.198 A 
ATOM     89  F   UNL A   1      46.712  32.006  30.756  1.00  0.00    -0.203 F 
ATOM     90  F   UNL A   1      46.223  35.755  26.819  1.00  0.00    -0.200 F 
ATOM     91  C   UNL A   1      46.881  35.176  29.012  1.00  0.00     0.200 A 
ATOM     92  F   UNL A   1      47.539  34.547  31.191  1.00  0.00    -0.200 F 
ATOM     93  F   UNL A   1      47.317  36.425  29.226  1.00  0.00    -0.200 F 
ENDBRANCH  60  83
ENDBRANCH  34  35
ENDBRANCH  26  29
ENDBRANCH  24  25
ENDBRANCH  23  24
ENDBRANCH   1  23
TORSDOF 13
ENDMDL
MODEL 3
REMARK VINA RESULT:     -12.5      0.512      2.112
REMARK SMILES Cc1cc(C(=O)Nc2nc(CC(=O)NCCCNC(=O)c3ccc(-c4c5nc(c(-c6c(F)c(F)c(F)c(F)c6F)c6ccc([nH]6)c(-c6c(F)c(F)c(F)c(F)c6F)c6nc(c(-c7c(F)c(F)c(F)c(F)c7F)c7ccc4[nH]7)C=C6)C=C5)cc3)cs2)sc1C
REMARK SMILES IDX 15 1 14 2 12 3 13 4 11 6 10 7 8 8 9 9 85 10 84 11 7 12 5 13
REMARK SMILES IDX 6 14 4 16 1 17 2 18 3 19 87 20 86 21 88 22 16 23 17 24 18 25
REMARK SMILES IDX 19 26 20 28 21 29 22 30 83 31 23 32 82 33 24 34 25 35 26 36
REMARK SMILES IDX 76 37 27 38 81 39 75 40 77 41 28 42 80 43 74 44 73 45 29 47
REMARK SMILES IDX 61 48 41 49 60 50 42 51 45 52 59 53 78 54 43 55 44 56 58 58
REMARK SMILES IDX 79 59 46 60 30 61 31 62 39 63 32 64 33 65 37 66 40 67 34 68
REMARK SMILES IDX 35 69 38 70 36 71 62 72 63 73 71 74 64 75 65 76 69 77 72 78
REMARK SMILES IDX 66 79 67 80 70 81 68 82 47 83 48 84 56 85 49 86 50 87 54 88
REMARK SMILES IDX 57 89 51 90 52 91 55 92 53 93
REMARK H PARENT 14 5 7 15 18 27 77 46 45 57
REMARK Flexibility Score: inf
ROOT
ATOM      1  C   UNL A   1      31.403  30.795  26.054  1.00  0.00     0.117 C 
ENDROOT
BRANCH   1   2
ATOM      2  N   UNL A   1      32.786  30.348  26.097  1.00  0.00    -0.356 N 
ATOM      3  C   UNL A   1      33.292  29.179  26.589  1.00  0.00     0.226 C 
ATOM      4  O   UNL A   1      34.517  29.037  26.618  1.00  0.00    -0.275 OA
ATOM      5  H   UNL A   1      33.447  30.973  25.719  1.00  0.00     0.163 HD
BRANCH   3   6
ATOM      6  C   UNL A   1      32.360  28.083  27.055  1.00  0.00     0.157 C 
BRANCH   6   7
ATOM      7  C   UNL A   1      31.710  27.363  25.924  1.00  0.00     0.063 A 
ATOM      8  C   UNL A   1      31.618  26.783  23.800  1.00  0.00     0.189 A 
ATOM      9  N   UNL A   1      32.214  27.576  24.650  1.00  0.00    -0.224 NA
ATOM     10  S   UNL A   1      30.270  25.926  24.391  1.00  0.00    -0.105 S 
ATOM     11  C   UNL A   1      30.656  26.467  25.978  1.00  0.00     0.093 A 
BRANCH   8  12
ATOM     12  N   UNL A   1      31.928  26.550  22.496  1.00  0.00    -0.297 N 
ATOM     13  C   UNL A   1      32.847  25.643  22.015  1.00  0.00     0.267 C 
ATOM     14  O   UNL A   1      33.278  25.876  20.878  1.00  0.00    -0.268 OA
ATOM     15  H   UNL A   1      31.446  27.086  21.826  1.00  0.00     0.172 HD
BRANCH  13  16
ATOM     16  C   UNL A   1      33.229  24.421  22.728  1.00  0.00     0.093 A 
ATOM     17  C   UNL A   1      32.528  20.854  23.763  1.00  0.00     0.045 C 
ATOM     18  C   UNL A   1      33.128  22.203  23.547  1.00  0.00    -0.037 A 
ATOM     19  C   UNL A   1      32.516  23.231  22.750  1.00  0.00     0.029 A 
ATOM     20  C   UNL A   1      34.340  22.642  24.048  1.00  0.00     0.005 A 
ATOM     21  S   UNL A   1      34.497  24.331  23.875  1.00  0.00    -0.135 S 
ATOM     22  C   UNL A   1      35.414  21.880  24.749  1.00  0.00     0.056 C 
ENDBRANCH  13  16
ENDBRANCH   8  12
ENDBRANCH   6   7
ENDBRANCH   3   6
ENDBRANCH   1   2
BRANCH   1  23
ATOM     23  C   UNL A   1      31.254  32.248  26.501  1.00  0.00     0.042 C 
BRANCH  23  24
ATOM     24  C   UNL A   1      32.460  32.806  27.252  1.00  0.00     0.118 C 
BRANCH  24  25
ATOM     25  N   UNL A   1      32.297  34.204  27.618  1.00  0.00    -0.352 N 
ATOM     26  C   UNL A   1      32.947  34.954  28.563  1.00  0.00     0.251 C 
ATOM     27  H   UNL A   1      31.611  34.689  27.104  1.00  0.00     0.163 HD
ATOM     28  O   UNL A   1      32.528  36.082  28.830  1.00  0.00    -0.269 OA
BRANCH  26  29
ATOM     29  C   UNL A   1      34.125  34.427  29.284  1.00  0.00     0.039 A 
ATOM     30  C   UNL A   1      33.932  33.827  30.532  1.00  0.00     0.014 A 
ATOM     31  C   UNL A   1      35.417  34.553  28.767  1.00  0.00     0.014 A 
ATOM     32  C   UNL A   1      35.020  33.294  31.227  1.00  0.00     0.010 A 
ATOM     33  C   UNL A   1      36.494  33.963  29.429  1.00  0.00     0.010 A 
ATOM     34  C   UNL A   1      36.304  33.322  30.663  1.00  0.00    -0.014 A 
BRANCH  34  35
ATOM     35  C   UNL A   1      37.452  32.656  31.334  1.00  0.00     0.031 A 
ATOM     36  C   UNL A   1      38.150  31.495  30.686  1.00  0.00     0.074 A 
ATOM     37  C   UNL A   1      37.816  33.057  32.567  1.00  0.00     0.049 A 
ATOM     38  N   UNL A   1      39.118  30.746  31.153  1.00  0.00    -0.248 NA
ATOM     39  C   UNL A   1      37.684  31.107  29.346  1.00  0.00     0.031 C 
ATOM     40  C   UNL A   1      37.184  34.140  33.322  1.00  0.00     0.029 A 
ATOM     41  N   UNL A   1      38.793  32.590  33.410  1.00  0.00    -0.354 N 
ATOM     42  C   UNL A   1      39.366  29.792  30.175  1.00  0.00     0.074 A 
ATOM     43  C   UNL A   1      38.418  30.029  29.106  1.00  0.00     0.031 C 
ATOM     44  C   UNL A   1      37.796  34.263  34.510  1.00  0.00     0.029 A 
ATOM     45  C   UNL A   1      38.836  33.244  34.617  1.00  0.00     0.049 A 
ATOM     46  H   UNL A   1      39.405  31.857  33.173  1.00  0.00     0.167 HD
ATOM     47  C   UNL A   1      40.309  28.820  30.163  1.00  0.00     0.037 A 
ATOM     48  C   UNL A   1      39.615  33.038  35.696  1.00  0.00     0.037 A 
ATOM     49  C   UNL A   1      41.266  28.603  31.216  1.00  0.00     0.049 A 
ATOM     50  C   UNL A   1      40.650  31.947  35.659  1.00  0.00     0.074 A 
ATOM     51  C   UNL A   1      42.314  27.701  31.258  1.00  0.00     0.029 A 
ATOM     52  N   UNL A   1      41.285  29.292  32.421  1.00  0.00    -0.354 N 
ATOM     53  N   UNL A   1      40.928  31.104  34.696  1.00  0.00    -0.248 NA
ATOM     54  C   UNL A   1      41.481  31.782  36.861  1.00  0.00     0.031 C 
ATOM     55  C   UNL A   1      42.935  27.807  32.508  1.00  0.00     0.029 A 
ATOM     56  C   UNL A   1      42.306  28.810  33.226  1.00  0.00     0.049 A 
ATOM     57  H   UNL A   1      40.666  30.017  32.666  1.00  0.00     0.167 HD
ATOM     58  C   UNL A   1      41.973  30.320  35.165  1.00  0.00     0.074 A 
ATOM     59  C   UNL A   1      42.293  30.802  36.492  1.00  0.00     0.031 C 
ATOM     60  C   UNL A   1      42.607  29.292  34.549  1.00  0.00     0.037 A 
BRANCH  47  61
ATOM     61  C   UNL A   1      40.352  27.907  28.971  1.00  0.00     0.064 A 
ATOM     62  C   UNL A   1      39.625  26.708  28.934  1.00  0.00     0.173 A 
ATOM     63  C   UNL A   1      41.097  28.257  27.834  1.00  0.00     0.173 A 
ATOM     64  F   UNL A   1      38.903  26.322  29.997  1.00  0.00    -0.203 F 
ATOM     65  C   UNL A   1      39.666  25.877  27.816  1.00  0.00     0.198 A 
ATOM     66  C   UNL A   1      41.112  27.440  26.707  1.00  0.00     0.198 A 
ATOM     67  F   UNL A   1      41.804  29.397  27.813  1.00  0.00    -0.203 F 
ATOM     68  F   UNL A   1      39.002  24.713  27.823  1.00  0.00    -0.200 F 
ATOM     69  C   UNL A   1      40.405  26.248  26.701  1.00  0.00     0.200 A 
ATOM     70  F   UNL A   1      41.815  27.805  25.626  1.00  0.00    -0.200 F 
ATOM     71  F   UNL A   1      40.439  25.450  25.625  1.00  0.00    -0.200 F 
ENDBRANCH  47  61
BRANCH  48  72
ATOM     72  C   UNL A   1      39.447  33.894  36.899  1.00  0.00     0.064 A 
ATOM     73  C   UNL A   1      38.692  33.455  37.995  1.00  0.00     0.173 A 
ATOM     74  C   UNL A   1      40.045  35.159  36.981  1.00  0.00     0.173 A 
ATOM     75  F   UNL A   1      38.083  32.261  37.953  1.00  0.00    -0.203 F 
ATOM     76  C   UNL A   1      38.532  34.256  39.124  1.00  0.00     0.198 A 
ATOM     77  C   UNL A   1      39.907  35.947  38.121  1.00  0.00     0.198 A 
ATOM     78  F   UNL A   1      40.781  35.622  35.960  1.00  0.00    -0.203 F 
ATOM     79  F   UNL A   1      37.774  33.828  40.143  1.00  0.00    -0.200 F 
ATOM     80  C   UNL A   1      39.146  35.498  39.189  1.00  0.00     0.200 A 
ATOM     81  F   UNL A   1      40.514  37.140  38.186  1.00  0.00    -0.200 F 
ATOM     82  F   UNL A   1      38.997  36.264  40.279  1.00  0.00    -0.200 F 
ENDBRANCH  48  72
BRANCH  60  83
ATOM     83  C   UNL A   1      43.720  28.623  35.304  1.00  0.00     0.064 A 
ATOM     84  C   UNL A   1      43.480  27.525  36.143  1.00  0.00     0.173 A 
ATOM     85  C   UNL A   1      45.045  29.059  35.156  1.00  0.00     0.173 A 
ATOM     86  F   UNL A   1      42.227  27.081  36.331  1.00  0.00    -0.203 F 
ATOM     87  C   UNL A   1      44.523  26.902  36.823  1.00  0.00     0.198 A 
ATOM     88  C   UNL A   1      46.089  28.415  35.814  1.00  0.00     0.198 A 
ATOM     89  F   UNL A   1      45.329  30.102  34.361  1.00  0.00    -0.203 F 
ATOM     90  F   UNL A   1      44.264  25.882  37.654  1.00  0.00    -0.200 F 
ATOM     91  C   UNL A   1      45.827  27.342  36.652  1.00  0.00     0.200 A 
ATOM     92  F   UNL A   1      47.350  28.834  35.639  1.00  0.00    -0.200 F 
ATOM     93  F   UNL A   1      46.830  26.735  37.301  1.00  0.00    -0.200 F 
ENDBRANCH  60  83
ENDBRANCH  34  35
ENDBRANCH  26  29
ENDBRANCH  24  25
ENDBRANCH  23  24
ENDBRANCH   1  23
TORSDOF 13
ENDMDL
