MODEL 1
REMARK VINA RESULT:     -12.2      0.000      0.000
REMARK SMILES C[C@H](CNS(=O)(=O)c1ccc(C(=O)NCCCNC(=O)c2ccc(-c3c4nc(c(-c5c(F)c(F)c(F)c(F)c5F)c5ccc([nH]5)c(-c5c(F)c(F)c(F)c(F)c5F)c5nc(c(-c6c(F)c(F)c(F)c(F)c6F)c6ccc3[nH]6)C=C5)C=C4)cc2)o1)c1ccccc1
REMARK SMILES IDX 12 1 13 2 14 3 11 5 8 6 9 7 84 8 10 9 5 10 6 11 7 12 4 13
REMARK SMILES IDX 3 15 2 16 1 17 85 18 86 19 90 20 87 21 89 22 88 23 15 24
REMARK SMILES IDX 16 25 17 26 18 27 19 28 20 30 21 31 22 32 83 33 23 34 82 35
REMARK SMILES IDX 24 36 25 37 26 38 76 39 27 40 81 41 75 42 77 43 28 44 80 45
REMARK SMILES IDX 74 46 73 47 29 49 61 50 41 51 60 52 42 53 45 54 59 55 78 56
REMARK SMILES IDX 43 57 44 58 58 60 79 61 46 62 30 63 31 64 39 65 32 66 33 67
REMARK SMILES IDX 37 68 40 69 34 70 35 71 38 72 36 73 62 74 63 75 71 76 64 77
REMARK SMILES IDX 65 78 69 79 72 80 66 81 67 82 70 83 68 84 47 85 48 86 56 87
REMARK SMILES IDX 49 88 50 89 54 90 57 91 51 92 52 93 55 94 53 95
REMARK H PARENT 14 4 4 14 18 29 77 48 45 59
REMARK Flexibility Score: inf
ROOT
ATOM      1  C   UNL A   1      34.016  19.842  25.114  1.00  0.00     0.287 C 
ATOM      2  O   UNL A   1      33.198  19.098  24.567  1.00  0.00    -0.266 OA
ATOM      3  N   UNL A   1      35.338  19.605  24.811  1.00  0.00    -0.349 N 
ATOM      4  H   UNL A   1      35.502  18.774  24.308  1.00  0.00     0.163 HD
ENDROOT
BRANCH   1   5
ATOM      5  C   UNL A   1      33.623  20.923  25.999  1.00  0.00     0.193 A 
ATOM      6  C   UNL A   1      32.276  22.629  26.559  1.00  0.00     0.234 A 
ATOM      7  C   UNL A   1      33.267  22.536  27.527  1.00  0.00     0.065 A 
ATOM      8  O   UNL A   1      32.490  21.614  25.655  1.00  0.00    -0.438 OA
ATOM      9  C   UNL A   1      34.113  21.455  27.176  1.00  0.00     0.058 A 
BRANCH   6  10
ATOM     10  S   UNL A   1      30.947  23.820  26.371  1.00  0.00     0.274 S 
ATOM     11  O   UNL A   1      29.960  23.414  27.358  1.00  0.00    -0.204 OA
ATOM     12  O   UNL A   1      30.639  23.833  24.966  1.00  0.00    -0.204 OA
BRANCH  10  13
ATOM     13  N   UNL A   1      31.453  25.375  26.799  1.00  0.00    -0.208 NA
ATOM     14  H   UNL A   1      30.844  25.701  27.548  1.00  0.00     0.141 HD
BRANCH  13  15
ATOM     15  C   UNL A   1      31.442  26.405  25.735  1.00  0.00     0.107 C 
BRANCH  15  16
ATOM     16  C   UNL A   1      32.869  26.796  25.270  1.00  0.00     0.031 C 
ATOM     17  C   UNL A   1      33.557  27.650  26.354  1.00  0.00     0.014 C 
BRANCH  16  18
ATOM     18  C   UNL A   1      33.766  25.685  24.712  1.00  0.00    -0.044 A 
ATOM     19  C   UNL A   1      34.843  25.137  25.430  1.00  0.00     0.004 A 
ATOM     20  C   UNL A   1      33.431  25.065  23.492  1.00  0.00     0.004 A 
ATOM     21  C   UNL A   1      35.549  24.027  24.948  1.00  0.00     0.000 A 
ATOM     22  C   UNL A   1      34.141  23.964  23.006  1.00  0.00     0.000 A 
ATOM     23  C   UNL A   1      35.198  23.439  23.737  1.00  0.00     0.000 A 
ENDBRANCH  16  18
ENDBRANCH  15  16
ENDBRANCH  13  15
ENDBRANCH  10  13
ENDBRANCH   6  10
ENDBRANCH   1   5
BRANCH   3  24
ATOM     24  C   UNL A   1      36.528  20.376  25.109  1.00  0.00     0.118 C 
BRANCH  24  25
ATOM     25  C   UNL A   1      37.799  19.538  25.002  1.00  0.00     0.042 C 
BRANCH  25  26
ATOM     26  C   UNL A   1      39.003  20.140  25.727  1.00  0.00     0.118 C 
BRANCH  26  27
ATOM     27  N   UNL A   1      40.082  19.177  25.894  1.00  0.00    -0.352 N 
ATOM     28  C   UNL A   1      41.429  19.362  26.070  1.00  0.00     0.251 C 
ATOM     29  H   UNL A   1      39.795  18.235  25.879  1.00  0.00     0.163 HD
ATOM     30  O   UNL A   1      42.175  18.389  25.990  1.00  0.00    -0.269 OA
BRANCH  28  31
ATOM     31  C   UNL A   1      42.007  20.696  26.352  1.00  0.00     0.039 A 
ATOM     32  C   UNL A   1      42.226  21.055  27.688  1.00  0.00     0.014 A 
ATOM     33  C   UNL A   1      42.244  21.632  25.342  1.00  0.00     0.014 A 
ATOM     34  C   UNL A   1      42.700  22.330  28.008  1.00  0.00     0.010 A 
ATOM     35  C   UNL A   1      42.774  22.885  25.656  1.00  0.00     0.010 A 
ATOM     36  C   UNL A   1      42.988  23.253  26.992  1.00  0.00    -0.014 A 
BRANCH  36  37
ATOM     37  C   UNL A   1      43.469  24.621  27.318  1.00  0.00     0.031 A 
ATOM     38  C   UNL A   1      42.522  25.636  27.897  1.00  0.00     0.074 A 
ATOM     39  C   UNL A   1      44.745  24.964  27.057  1.00  0.00     0.049 A 
ATOM     40  N   UNL A   1      42.732  26.894  28.192  1.00  0.00    -0.248 NA
ATOM     41  C   UNL A   1      41.147  25.180  28.159  1.00  0.00     0.031 C 
ATOM     42  C   UNL A   1      45.752  24.085  26.464  1.00  0.00     0.029 A 
ATOM     43  N   UNL A   1      45.408  26.149  27.251  1.00  0.00    -0.354 N 
ATOM     44  C   UNL A   1      41.514  27.386  28.646  1.00  0.00     0.074 A 
ATOM     45  C   UNL A   1      40.561  26.301  28.557  1.00  0.00     0.031 C 
ATOM     46  C   UNL A   1      46.910  24.756  26.356  1.00  0.00     0.029 A 
ATOM     47  C   UNL A   1      46.721  26.118  26.848  1.00  0.00     0.049 A 
ATOM     48  H   UNL A   1      44.984  26.948  27.642  1.00  0.00     0.167 HD
ATOM     49  C   UNL A   1      41.222  28.625  29.111  1.00  0.00     0.037 A 
ATOM     50  C   UNL A   1      47.664  27.079  26.874  1.00  0.00     0.037 A 
ATOM     51  C   UNL A   1      42.178  29.692  29.238  1.00  0.00     0.049 A 
ATOM     52  C   UNL A   1      47.324  28.431  27.438  1.00  0.00     0.074 A 
ATOM     53  C   UNL A   1      41.988  30.969  29.737  1.00  0.00     0.029 A 
ATOM     54  N   UNL A   1      43.513  29.601  28.871  1.00  0.00    -0.354 N 
ATOM     55  N   UNL A   1      46.181  28.869  27.907  1.00  0.00    -0.248 NA
ATOM     56  C   UNL A   1      48.413  29.418  27.492  1.00  0.00     0.031 C 
ATOM     57  C   UNL A   1      43.203  31.660  29.651  1.00  0.00     0.029 A 
ATOM     58  C   UNL A   1      44.157  30.800  29.131  1.00  0.00     0.049 A 
ATOM     59  H   UNL A   1      43.939  28.804  28.482  1.00  0.00     0.167 HD
ATOM     60  C   UNL A   1      46.419  30.166  28.338  1.00  0.00     0.074 A 
ATOM     61  C   UNL A   1      47.817  30.443  28.085  1.00  0.00     0.031 C 
ATOM     62  C   UNL A   1      45.554  31.050  28.895  1.00  0.00     0.037 A 
BRANCH  49  63
ATOM     63  C   UNL A   1      39.804  28.891  29.523  1.00  0.00     0.064 A 
ATOM     64  C   UNL A   1      38.855  29.380  28.613  1.00  0.00     0.173 A 
ATOM     65  C   UNL A   1      39.381  28.625  30.834  1.00  0.00     0.173 A 
ATOM     66  F   UNL A   1      39.212  29.663  27.351  1.00  0.00    -0.203 F 
ATOM     67  C   UNL A   1      37.541  29.616  29.007  1.00  0.00     0.198 A 
ATOM     68  C   UNL A   1      38.061  28.839  31.218  1.00  0.00     0.198 A 
ATOM     69  F   UNL A   1      40.250  28.152  31.742  1.00  0.00    -0.203 F 
ATOM     70  F   UNL A   1      36.661  30.125  28.133  1.00  0.00    -0.200 F 
ATOM     71  C   UNL A   1      37.143  29.340  30.307  1.00  0.00     0.200 A 
ATOM     72  F   UNL A   1      37.675  28.562  32.472  1.00  0.00    -0.200 F 
ATOM     73  F   UNL A   1      35.876  29.565  30.684  1.00  0.00    -0.200 F 
ENDBRANCH  49  63
BRANCH  50  74
ATOM     74  C   UNL A   1      49.034  26.782  26.387  1.00  0.00     0.064 A 
ATOM     75  C   UNL A   1      49.397  27.055  25.060  1.00  0.00     0.173 A 
ATOM     76  C   UNL A   1      50.004  26.224  27.229  1.00  0.00     0.173 A 
ATOM     77  F   UNL A   1      48.495  27.572  24.213  1.00  0.00    -0.203 F 
ATOM     78  C   UNL A   1      50.675  26.762  24.590  1.00  0.00     0.198 A 
ATOM     79  C   UNL A   1      51.289  25.953  26.765  1.00  0.00     0.198 A 
ATOM     80  F   UNL A   1      49.707  25.950  28.508  1.00  0.00    -0.203 F 
ATOM     81  F   UNL A   1      50.983  26.995  23.307  1.00  0.00    -0.200 F 
ATOM     82  C   UNL A   1      51.621  26.215  25.444  1.00  0.00     0.200 A 
ATOM     83  F   UNL A   1      52.205  25.436  27.595  1.00  0.00    -0.200 F 
ATOM     84  F   UNL A   1      52.851  25.936  24.991  1.00  0.00    -0.200 F 
ENDBRANCH  50  74
BRANCH  62  85
ATOM     85  C   UNL A   1      46.108  32.379  29.315  1.00  0.00     0.064 A 
ATOM     86  C   UNL A   1      46.106  33.482  28.450  1.00  0.00     0.173 A 
ATOM     87  C   UNL A   1      46.617  32.555  30.610  1.00  0.00     0.173 A 
ATOM     88  F   UNL A   1      45.643  33.358  27.198  1.00  0.00    -0.203 F 
ATOM     89  C   UNL A   1      46.617  34.710  28.860  1.00  0.00     0.198 A 
ATOM     90  C   UNL A   1      47.106  33.790  31.024  1.00  0.00     0.198 A 
ATOM     91  F   UNL A   1      46.636  31.529  31.475  1.00  0.00    -0.203 F 
ATOM     92  F   UNL A   1      46.645  35.741  28.005  1.00  0.00    -0.200 F 
ATOM     93  C   UNL A   1      47.112  34.865  30.148  1.00  0.00     0.200 A 
ATOM     94  F   UNL A   1      47.575  33.940  32.270  1.00  0.00    -0.200 F 
ATOM     95  F   UNL A   1      47.602  36.048  30.540  1.00  0.00    -0.200 F 
ENDBRANCH  62  85
ENDBRANCH  36  37
ENDBRANCH  28  31
ENDBRANCH  26  27
ENDBRANCH  25  26
ENDBRANCH  24  25
ENDBRANCH   3  24
TORSDOF 15
ENDMDL
MODEL 2
REMARK VINA RESULT:     -12.1      1.828      2.692
REMARK SMILES C[C@H](CNS(=O)(=O)c1ccc(C(=O)NCCCNC(=O)c2ccc(-c3c4nc(c(-c5c(F)c(F)c(F)c(F)c5F)c5ccc([nH]5)c(-c5c(F)c(F)c(F)c(F)c5F)c5nc(c(-c6c(F)c(F)c(F)c(F)c6F)c6ccc3[nH]6)C=C5)C=C4)cc2)o1)c1ccccc1
REMARK SMILES IDX 12 1 13 2 14 3 11 5 8 6 9 7 84 8 10 9 5 10 6 11 7 12 4 13
REMARK SMILES IDX 3 15 2 16 1 17 85 18 86 19 90 20 87 21 89 22 88 23 15 24
REMARK SMILES IDX 16 25 17 26 18 27 19 28 20 30 21 31 22 32 83 33 23 34 82 35
REMARK SMILES IDX 24 36 25 37 26 38 76 39 27 40 81 41 75 42 77 43 28 44 80 45
REMARK SMILES IDX 74 46 73 47 29 49 61 50 41 51 60 52 42 53 45 54 59 55 78 56
REMARK SMILES IDX 43 57 44 58 58 60 79 61 46 62 30 63 31 64 39 65 32 66 33 67
REMARK SMILES IDX 37 68 40 69 34 70 35 71 38 72 36 73 62 74 63 75 71 76 64 77
REMARK SMILES IDX 65 78 69 79 72 80 66 81 67 82 70 83 68 84 47 85 48 86 56 87
REMARK SMILES IDX 49 88 50 89 54 90 57 91 51 92 52 93 55 94 53 95
REMARK H PARENT 14 4 4 14 18 29 77 48 45 59
REMARK Flexibility Score: inf
ROOT
ATOM      1  C   UNL A   1      37.232  23.563  25.467  1.00  0.00     0.287 C 
ATOM      2  O   UNL A   1      37.953  24.373  26.055  1.00  0.00    -0.266 OA
ATOM      3  N   UNL A   1      37.836  22.385  25.090  1.00  0.00    -0.349 N 
ATOM      4  H   UNL A   1      38.815  22.374  25.195  1.00  0.00     0.163 HD
ENDROOT
BRANCH   1   5
ATOM      5  C   UNL A   1      35.824  23.809  25.210  1.00  0.00     0.193 A 
ATOM      6  C   UNL A   1      34.117  24.262  23.825  1.00  0.00     0.234 A 
ATOM      7  C   UNL A   1      33.607  24.180  25.114  1.00  0.00     0.065 A 
ATOM      8  O   UNL A   1      35.466  23.997  23.901  1.00  0.00    -0.438 OA
ATOM      9  C   UNL A   1      34.684  23.888  25.986  1.00  0.00     0.058 A 
BRANCH   6  10
ATOM     10  S   UNL A   1      33.304  24.675  22.280  1.00  0.00     0.274 S 
ATOM     11  O   UNL A   1      33.406  23.461  21.486  1.00  0.00    -0.204 OA
ATOM     12  O   UNL A   1      33.908  25.905  21.844  1.00  0.00    -0.204 OA
BRANCH  10  13
ATOM     13  N   UNL A   1      31.656  24.967  22.514  1.00  0.00    -0.208 NA
ATOM     14  H   UNL A   1      31.161  24.604  21.700  1.00  0.00     0.141 HD
BRANCH  13  15
ATOM     15  C   UNL A   1      31.239  26.377  22.697  1.00  0.00     0.107 C 
BRANCH  15  16
ATOM     16  C   UNL A   1      30.741  26.667  24.137  1.00  0.00     0.031 C 
ATOM     17  C   UNL A   1      30.105  25.397  24.736  1.00  0.00     0.014 C 
BRANCH  16  18
ATOM     18  C   UNL A   1      31.704  27.374  25.096  1.00  0.00    -0.044 A 
ATOM     19  C   UNL A   1      31.449  27.515  26.471  1.00  0.00     0.004 A 
ATOM     20  C   UNL A   1      32.973  27.779  24.636  1.00  0.00     0.004 A 
ATOM     21  C   UNL A   1      32.417  28.038  27.340  1.00  0.00     0.000 A 
ATOM     22  C   UNL A   1      33.934  28.311  25.501  1.00  0.00     0.000 A 
ATOM     23  C   UNL A   1      33.659  28.435  26.856  1.00  0.00     0.000 A 
ENDBRANCH  16  18
ENDBRANCH  15  16
ENDBRANCH  13  15
ENDBRANCH  10  13
ENDBRANCH   6  10
ENDBRANCH   1   5
BRANCH   3  24
ATOM     24  C   UNL A   1      37.270  21.160  24.563  1.00  0.00     0.118 C 
BRANCH  24  25
ATOM     25  C   UNL A   1      38.141  19.944  24.869  1.00  0.00     0.042 C 
BRANCH  25  26
ATOM     26  C   UNL A   1      39.118  20.156  26.026  1.00  0.00     0.118 C 
BRANCH  26  27
ATOM     27  N   UNL A   1      40.262  19.260  25.950  1.00  0.00    -0.352 N 
ATOM     28  C   UNL A   1      41.607  19.516  26.019  1.00  0.00     0.251 C 
ATOM     29  H   UNL A   1      40.031  18.311  25.827  1.00  0.00     0.163 HD
ATOM     30  O   UNL A   1      42.397  18.620  25.730  1.00  0.00    -0.269 OA
BRANCH  28  31
ATOM     31  C   UNL A   1      42.133  20.838  26.432  1.00  0.00     0.039 A 
ATOM     32  C   UNL A   1      42.193  21.130  27.801  1.00  0.00     0.014 A 
ATOM     33  C   UNL A   1      42.473  21.825  25.504  1.00  0.00     0.014 A 
ATOM     34  C   UNL A   1      42.612  22.390  28.236  1.00  0.00     0.010 A 
ATOM     35  C   UNL A   1      42.949  23.064  25.938  1.00  0.00     0.010 A 
ATOM     36  C   UNL A   1      43.004  23.365  27.307  1.00  0.00    -0.014 A 
BRANCH  36  37
ATOM     37  C   UNL A   1      43.428  24.718  27.754  1.00  0.00     0.031 A 
ATOM     38  C   UNL A   1      42.395  25.755  28.102  1.00  0.00     0.074 A 
ATOM     39  C   UNL A   1      44.737  25.028  27.809  1.00  0.00     0.049 A 
ATOM     40  N   UNL A   1      42.561  27.006  28.453  1.00  0.00    -0.248 NA
ATOM     41  C   UNL A   1      40.987  25.336  28.024  1.00  0.00     0.031 C 
ATOM     42  C   UNL A   1      45.834  24.124  27.462  1.00  0.00     0.029 A 
ATOM     43  N   UNL A   1      45.365  26.193  28.169  1.00  0.00    -0.354 N 
ATOM     44  C   UNL A   1      41.283  27.528  28.610  1.00  0.00     0.074 A 
ATOM     45  C   UNL A   1      40.352  26.471  28.284  1.00  0.00     0.031 C 
ATOM     46  C   UNL A   1      47.001  24.763  27.640  1.00  0.00     0.029 A 
ATOM     47  C   UNL A   1      46.735  26.128  28.088  1.00  0.00     0.049 A 
ATOM     48  H   UNL A   1      44.880  27.001  28.456  1.00  0.00     0.167 HD
ATOM     49  C   UNL A   1      40.920  28.772  29.006  1.00  0.00     0.037 A 
ATOM     50  C   UNL A   1      47.668  27.062  28.350  1.00  0.00     0.037 A 
ATOM     51  C   UNL A   1      41.845  29.813  29.369  1.00  0.00     0.049 A 
ATOM     52  C   UNL A   1      47.238  28.421  28.832  1.00  0.00     0.074 A 
ATOM     53  C   UNL A   1      41.573  31.092  29.823  1.00  0.00     0.029 A 
ATOM     54  N   UNL A   1      43.226  29.687  29.329  1.00  0.00    -0.354 N 
ATOM     55  N   UNL A   1      46.028  28.887  29.020  1.00  0.00    -0.248 NA
ATOM     56  C   UNL A   1      48.307  29.378  29.155  1.00  0.00     0.031 C 
ATOM     57  C   UNL A   1      42.791  31.749  30.037  1.00  0.00     0.029 A 
ATOM     58  C   UNL A   1      43.820  30.867  29.750  1.00  0.00     0.049 A 
ATOM     59  H   UNL A   1      43.712  28.881  29.044  1.00  0.00     0.167 HD
ATOM     60  C   UNL A   1      46.189  30.175  29.511  1.00  0.00     0.074 A 
ATOM     61  C   UNL A   1      47.614  30.415  29.600  1.00  0.00     0.031 C 
ATOM     62  C   UNL A   1      45.239  31.079  29.855  1.00  0.00     0.037 A 
BRANCH  49  63
ATOM     63  C   UNL A   1      39.452  29.075  29.072  1.00  0.00     0.064 A 
ATOM     64  C   UNL A   1      38.721  29.415  27.924  1.00  0.00     0.173 A 
ATOM     65  C   UNL A   1      38.762  28.994  30.290  1.00  0.00     0.173 A 
ATOM     66  F   UNL A   1      39.337  29.519  26.737  1.00  0.00    -0.203 F 
ATOM     67  C   UNL A   1      37.357  29.687  27.998  1.00  0.00     0.198 A 
ATOM     68  C   UNL A   1      37.394  29.242  30.357  1.00  0.00     0.198 A 
ATOM     69  F   UNL A   1      39.414  28.668  31.417  1.00  0.00    -0.203 F 
ATOM     70  F   UNL A   1      36.687  30.053  26.896  1.00  0.00    -0.200 F 
ATOM     71  C   UNL A   1      36.694  29.594  29.212  1.00  0.00     0.200 A 
ATOM     72  F   UNL A   1      36.751  29.142  31.529  1.00  0.00    -0.200 F 
ATOM     73  F   UNL A   1      35.380  29.853  29.282  1.00  0.00    -0.200 F 
ENDBRANCH  49  63
BRANCH  50  74
ATOM     74  C   UNL A   1      49.107  26.731  28.199  1.00  0.00     0.064 A 
ATOM     75  C   UNL A   1      49.874  26.346  29.308  1.00  0.00     0.173 A 
ATOM     76  C   UNL A   1      49.744  26.792  26.953  1.00  0.00     0.173 A 
ATOM     77  F   UNL A   1      49.311  26.293  30.524  1.00  0.00    -0.203 F 
ATOM     78  C   UNL A   1      51.229  26.052  29.178  1.00  0.00     0.198 A 
ATOM     79  C   UNL A   1      51.094  26.475  26.819  1.00  0.00     0.198 A 
ATOM     80  F   UNL A   1      49.052  27.150  25.861  1.00  0.00    -0.203 F 
ATOM     81  F   UNL A   1      51.948  25.727  30.261  1.00  0.00    -0.200 F 
ATOM     82  C   UNL A   1      51.837  26.113  27.933  1.00  0.00     0.200 A 
ATOM     83  F   UNL A   1      51.676  26.522  25.613  1.00  0.00    -0.200 F 
ATOM     84  F   UNL A   1      53.140  25.827  27.808  1.00  0.00    -0.200 F 
ENDBRANCH  50  74
BRANCH  62  85
ATOM     85  C   UNL A   1      45.710  32.390  30.410  1.00  0.00     0.064 A 
ATOM     86  C   UNL A   1      45.951  33.495  29.581  1.00  0.00     0.173 A 
ATOM     87  C   UNL A   1      45.891  32.549  31.792  1.00  0.00     0.173 A 
ATOM     88  F   UNL A   1      45.805  33.388  28.253  1.00  0.00    -0.203 F 
ATOM     89  C   UNL A   1      46.381  34.707  30.115  1.00  0.00     0.198 A 
ATOM     90  C   UNL A   1      46.298  33.768  32.324  1.00  0.00     0.198 A 
ATOM     91  F   UNL A   1      45.669  31.521  32.626  1.00  0.00    -0.203 F 
ATOM     92  F   UNL A   1      46.646  35.738  29.302  1.00  0.00    -0.200 F 
ATOM     93  C   UNL A   1      46.549  34.844  31.486  1.00  0.00     0.200 A 
ATOM     94  F   UNL A   1      46.452  33.902  33.649  1.00  0.00    -0.200 F 
ATOM     95  F   UNL A   1      46.961  36.012  31.998  1.00  0.00    -0.200 F 
ENDBRANCH  62  85
ENDBRANCH  36  37
ENDBRANCH  28  31
ENDBRANCH  26  27
ENDBRANCH  25  26
ENDBRANCH  24  25
ENDBRANCH   3  24
TORSDOF 15
ENDMDL
MODEL 3
REMARK VINA RESULT:     -12.1      0.814      7.417
REMARK SMILES C[C@H](CNS(=O)(=O)c1ccc(C(=O)NCCCNC(=O)c2ccc(-c3c4nc(c(-c5c(F)c(F)c(F)c(F)c5F)c5ccc([nH]5)c(-c5c(F)c(F)c(F)c(F)c5F)c5nc(c(-c6c(F)c(F)c(F)c(F)c6F)c6ccc3[nH]6)C=C5)C=C4)cc2)o1)c1ccccc1
REMARK SMILES IDX 12 1 13 2 14 3 11 5 8 6 9 7 84 8 10 9 5 10 6 11 7 12 4 13
REMARK SMILES IDX 3 15 2 16 1 17 85 18 86 19 90 20 87 21 89 22 88 23 15 24
REMARK SMILES IDX 16 25 17 26 18 27 19 28 20 30 21 31 22 32 83 33 23 34 82 35
REMARK SMILES IDX 24 36 25 37 26 38 76 39 27 40 81 41 75 42 77 43 28 44 80 45
REMARK SMILES IDX 74 46 73 47 29 49 61 50 41 51 60 52 42 53 45 54 59 55 78 56
REMARK SMILES IDX 43 57 44 58 58 60 79 61 46 62 30 63 31 64 39 65 32 66 33 67
REMARK SMILES IDX 37 68 40 69 34 70 35 71 38 72 36 73 62 74 63 75 71 76 64 77
REMARK SMILES IDX 65 78 69 79 72 80 66 81 67 82 70 83 68 84 47 85 48 86 56 87
REMARK SMILES IDX 49 88 50 89 54 90 57 91 51 92 52 93 55 94 53 95
REMARK H PARENT 14 4 4 14 18 29 77 48 45 59
REMARK Flexibility Score: inf
ROOT
ATOM      1  C   UNL A   1      33.951  19.763  25.280  1.00  0.00     0.287 C 
ATOM      2  O   UNL A   1      33.098  18.972  24.869  1.00  0.00    -0.266 OA
ATOM      3  N   UNL A   1      35.244  19.514  24.876  1.00  0.00    -0.349 N 
ATOM      4  H   UNL A   1      35.374  18.648  24.425  1.00  0.00     0.163 HD
ENDROOT
BRANCH   1   5
ATOM      5  C   UNL A   1      33.625  20.907  26.111  1.00  0.00     0.193 A 
ATOM      6  C   UNL A   1      32.270  22.594  26.708  1.00  0.00     0.234 A 
ATOM      7  C   UNL A   1      33.394  22.644  27.522  1.00  0.00     0.065 A 
ATOM      8  O   UNL A   1      32.413  21.505  25.879  1.00  0.00    -0.438 OA
ATOM      9  C   UNL A   1      34.245  21.575  27.148  1.00  0.00     0.058 A 
BRANCH   6  10
ATOM     10  S   UNL A   1      30.857  23.696  26.614  1.00  0.00     0.274 S 
ATOM     11  O   UNL A   1      31.396  25.000  26.964  1.00  0.00    -0.204 OA
ATOM     12  O   UNL A   1      29.831  23.074  27.407  1.00  0.00    -0.204 OA
BRANCH  10  13
ATOM     13  N   UNL A   1      30.279  23.816  25.030  1.00  0.00    -0.208 NA
ATOM     14  H   UNL A   1      30.675  23.041  24.499  1.00  0.00     0.141 HD
BRANCH  13  15
ATOM     15  C   UNL A   1      30.584  25.064  24.293  1.00  0.00     0.107 C 
BRANCH  15  16
ATOM     16  C   UNL A   1      31.609  24.842  23.150  1.00  0.00     0.031 C 
ATOM     17  C   UNL A   1      31.488  25.975  22.111  1.00  0.00     0.014 C 
BRANCH  16  18
ATOM     18  C   UNL A   1      33.057  24.529  23.541  1.00  0.00    -0.044 A 
ATOM     19  C   UNL A   1      33.732  25.199  24.576  1.00  0.00     0.004 A 
ATOM     20  C   UNL A   1      33.715  23.429  22.956  1.00  0.00     0.004 A 
ATOM     21  C   UNL A   1      35.004  24.788  25.000  1.00  0.00     0.000 A 
ATOM     22  C   UNL A   1      34.988  23.025  23.372  1.00  0.00     0.000 A 
ATOM     23  C   UNL A   1      35.631  23.701  24.400  1.00  0.00     0.000 A 
ENDBRANCH  16  18
ENDBRANCH  15  16
ENDBRANCH  13  15
ENDBRANCH  10  13
ENDBRANCH   6  10
ENDBRANCH   1   5
BRANCH   3  24
ATOM     24  C   UNL A   1      36.445  20.315  25.003  1.00  0.00     0.118 C 
BRANCH  24  25
ATOM     25  C   UNL A   1      37.706  19.457  25.057  1.00  0.00     0.042 C 
BRANCH  25  26
ATOM     26  C   UNL A   1      38.918  20.172  25.656  1.00  0.00     0.118 C 
BRANCH  26  27
ATOM     27  N   UNL A   1      40.029  19.264  25.895  1.00  0.00    -0.352 N 
ATOM     28  C   UNL A   1      41.356  19.514  26.133  1.00  0.00     0.251 C 
ATOM     29  H   UNL A   1      39.787  18.309  25.884  1.00  0.00     0.163 HD
ATOM     30  O   UNL A   1      42.149  18.575  26.109  1.00  0.00    -0.269 OA
BRANCH  28  31
ATOM     31  C   UNL A   1      41.859  20.878  26.417  1.00  0.00     0.039 A 
ATOM     32  C   UNL A   1      42.011  21.264  27.755  1.00  0.00     0.014 A 
ATOM     33  C   UNL A   1      42.086  21.812  25.402  1.00  0.00     0.014 A 
ATOM     34  C   UNL A   1      42.411  22.565  28.073  1.00  0.00     0.010 A 
ATOM     35  C   UNL A   1      42.543  23.094  25.717  1.00  0.00     0.010 A 
ATOM     36  C   UNL A   1      42.690  23.488  27.055  1.00  0.00    -0.014 A 
BRANCH  36  37
ATOM     37  C   UNL A   1      43.092  24.882  27.379  1.00  0.00     0.031 A 
ATOM     38  C   UNL A   1      44.501  25.340  27.118  1.00  0.00     0.074 A 
ATOM     39  C   UNL A   1      42.205  25.723  27.942  1.00  0.00     0.049 A 
ATOM     40  N   UNL A   1      45.062  26.493  27.385  1.00  0.00    -0.248 NA
ATOM     41  C   UNL A   1      45.407  24.363  26.494  1.00  0.00     0.031 C 
ATOM     42  C   UNL A   1      40.821  25.391  28.279  1.00  0.00     0.029 A 
ATOM     43  N   UNL A   1      42.340  27.030  28.339  1.00  0.00    -0.354 N 
ATOM     44  C   UNL A   1      46.388  26.371  26.988  1.00  0.00     0.074 A 
ATOM     45  C   UNL A   1      46.558  25.022  26.493  1.00  0.00     0.031 C 
ATOM     46  C   UNL A   1      40.229  26.469  28.818  1.00  0.00     0.029 A 
ATOM     47  C   UNL A   1      41.198  27.559  28.888  1.00  0.00     0.049 A 
ATOM     48  H   UNL A   1      43.177  27.539  28.241  1.00  0.00     0.167 HD
ATOM     49  C   UNL A   1      47.369  27.304  27.018  1.00  0.00     0.037 A 
ATOM     50  C   UNL A   1      40.961  28.787  29.389  1.00  0.00     0.037 A 
ATOM     51  C   UNL A   1      47.191  28.657  27.473  1.00  0.00     0.049 A 
ATOM     52  C   UNL A   1      42.056  29.818  29.368  1.00  0.00     0.074 A 
ATOM     53  C   UNL A   1      48.115  29.689  27.502  1.00  0.00     0.029 A 
ATOM     54  N   UNL A   1      46.002  29.171  27.969  1.00  0.00    -0.354 N 
ATOM     55  N   UNL A   1      43.292  29.703  28.947  1.00  0.00    -0.248 NA
ATOM     56  C   UNL A   1      41.716  31.155  29.876  1.00  0.00     0.031 C 
ATOM     57  C   UNL A   1      47.490  30.822  28.037  1.00  0.00     0.029 A 
ATOM     58  C   UNL A   1      46.169  30.505  28.308  1.00  0.00     0.049 A 
ATOM     59  H   UNL A   1      45.164  28.664  28.066  1.00  0.00     0.167 HD
ATOM     60  C   UNL A   1      43.866  30.956  29.111  1.00  0.00     0.074 A 
ATOM     61  C   UNL A   1      42.842  31.819  29.660  1.00  0.00     0.031 C 
ATOM     62  C   UNL A   1      45.132  31.354  28.831  1.00  0.00     0.037 A 
BRANCH  49  63
ATOM     63  C   UNL A   1      48.730  26.891  26.540  1.00  0.00     0.064 A 
ATOM     64  C   UNL A   1      49.667  26.308  27.406  1.00  0.00     0.173 A 
ATOM     65  C   UNL A   1      49.090  27.050  25.193  1.00  0.00     0.173 A 
ATOM     66  F   UNL A   1      49.376  26.146  28.705  1.00  0.00    -0.203 F 
ATOM     67  C   UNL A   1      50.924  25.923  26.946  1.00  0.00     0.198 A 
ATOM     68  C   UNL A   1      50.338  26.641  24.732  1.00  0.00     0.198 A 
ATOM     69  F   UNL A   1      48.228  27.598  24.323  1.00  0.00    -0.203 F 
ATOM     70  F   UNL A   1      51.820  25.409  27.801  1.00  0.00    -0.200 F 
ATOM     71  C   UNL A   1      51.256  26.084  25.610  1.00  0.00     0.200 A 
ATOM     72  F   UNL A   1      50.655  26.788  23.438  1.00  0.00    -0.200 F 
ATOM     73  F   UNL A   1      52.466  25.710  25.169  1.00  0.00    -0.200 F 
ENDBRANCH  49  63
BRANCH  50  74
ATOM     74  C   UNL A   1      39.614  29.121  29.917  1.00  0.00     0.064 A 
ATOM     75  C   UNL A   1      38.626  29.652  29.076  1.00  0.00     0.173 A 
ATOM     76  C   UNL A   1      39.287  28.918  31.264  1.00  0.00     0.173 A 
ATOM     77  F   UNL A   1      38.901  29.881  27.783  1.00  0.00    -0.203 F 
ATOM     78  C   UNL A   1      37.367  29.986  29.567  1.00  0.00     0.198 A 
ATOM     79  C   UNL A   1      38.020  29.230  31.750  1.00  0.00     0.198 A 
ATOM     80  F   UNL A   1      40.197  28.407  32.107  1.00  0.00    -0.203 F 
ATOM     81  F   UNL A   1      36.455  30.530  28.751  1.00  0.00    -0.200 F 
ATOM     82  C   UNL A   1      37.063  29.771  30.904  1.00  0.00     0.200 A 
ATOM     83  F   UNL A   1      37.725  29.010  33.039  1.00  0.00    -0.200 F 
ATOM     84  F   UNL A   1      35.850  30.089  31.375  1.00  0.00    -0.200 F 
ENDBRANCH  50  74
BRANCH  62  85
ATOM     85  C   UNL A   1      45.463  32.798  29.064  1.00  0.00     0.064 A 
ATOM     86  C   UNL A   1      46.002  33.241  30.280  1.00  0.00     0.173 A 
ATOM     87  C   UNL A   1      45.266  33.742  28.045  1.00  0.00     0.173 A 
ATOM     88  F   UNL A   1      46.195  32.378  31.288  1.00  0.00    -0.203 F 
ATOM     89  C   UNL A   1      46.310  34.585  30.475  1.00  0.00     0.198 A 
ATOM     90  C   UNL A   1      45.597  35.080  28.236  1.00  0.00     0.198 A 
ATOM     91  F   UNL A   1      44.756  33.365  26.863  1.00  0.00    -0.203 F 
ATOM     92  F   UNL A   1      46.785  34.995  31.659  1.00  0.00    -0.200 F 
ATOM     93  C   UNL A   1      46.113  35.502  29.452  1.00  0.00     0.200 A 
ATOM     94  F   UNL A   1      45.413  35.963  27.245  1.00  0.00    -0.200 F 
ATOM     95  F   UNL A   1      46.411  36.794  29.643  1.00  0.00    -0.200 F 
ENDBRANCH  62  85
ENDBRANCH  36  37
ENDBRANCH  28  31
ENDBRANCH  26  27
ENDBRANCH  25  26
ENDBRANCH  24  25
ENDBRANCH   3  24
TORSDOF 15
ENDMDL
