MODEL 1
REMARK VINA RESULT:     -11.8      0.000      0.000
REMARK SMILES CCCC[C@H](C(=O)NCCCNC(=O)c1ccc(-c2c3nc(c(-c4c(F)c(F)c(F)c(F)c4F)c4ccc([nH]4)c(-c4c(F)c(F)c(F)c(F)c4F)c4nc(c(-c5c(F)c(F)c(F)c(F)c5F)c5ccc2[nH]5)C=C4)C=C3)cc1)[C@]1(O)CCc2ccc(OC)cc21
REMARK SMILES IDX 9 1 8 2 6 3 7 4 5 6 4 7 3 8 2 9 1 10 78 11 80 12 89 13 81 14
REMARK SMILES IDX 82 15 88 16 83 17 85 18 84 19 79 20 86 22 87 23 10 24 11 25
REMARK SMILES IDX 12 26 13 27 14 29 15 30 16 31 77 32 17 33 76 34 18 35 19 36
REMARK SMILES IDX 20 37 70 38 21 39 75 40 69 41 71 42 22 43 74 44 68 45 67 46
REMARK SMILES IDX 23 48 55 49 35 50 54 51 36 52 39 53 53 54 72 55 37 56 38 57
REMARK SMILES IDX 52 59 73 60 40 61 24 62 25 63 33 64 26 65 27 66 31 67 34 68
REMARK SMILES IDX 28 69 29 70 32 71 30 72 56 73 57 74 65 75 58 76 59 77 63 78
REMARK SMILES IDX 66 79 60 80 61 81 64 82 62 83 41 84 42 85 50 86 43 87 44 88
REMARK SMILES IDX 48 89 51 90 45 91 46 92 49 93 47 94
REMARK H PARENT 8 5 79 21 12 28 71 47 39 58
REMARK Flexibility Score: inf
ROOT
ATOM      1  C   UNL A   1      31.393  30.805  26.598  1.00  0.00     0.117 C 
ENDROOT
BRANCH   1   2
ATOM      2  N   UNL A   1      32.743  30.279  26.678  1.00  0.00    -0.356 N 
ATOM      3  C   UNL A   1      33.207  29.092  26.192  1.00  0.00     0.226 C 
ATOM      4  O   UNL A   1      34.048  28.506  26.870  1.00  0.00    -0.275 OA
ATOM      5  H   UNL A   1      33.403  30.846  27.139  1.00  0.00     0.163 HD
BRANCH   3   6
ATOM      6  C   UNL A   1      32.680  28.561  24.860  1.00  0.00     0.115 C 
BRANCH   6   7
ATOM      7  C   UNL A   1      33.871  28.047  23.947  1.00  0.00     0.017 C 
BRANCH   7   8
ATOM      8  C   UNL A   1      33.663  27.911  22.442  1.00  0.00     0.001 C 
BRANCH   8   9
ATOM      9  C   UNL A   1      33.585  26.442  21.986  1.00  0.00    -0.003 C 
ATOM     10  C   UNL A   1      32.295  26.027  21.278  1.00  0.00     0.004 C 
ENDBRANCH   8   9
ENDBRANCH   7   8
ENDBRANCH   6   7
BRANCH   6  11
ATOM     11  C   UNL A   1      31.711  27.376  25.072  1.00  0.00     0.102 C 
ATOM     12  C   UNL A   1      31.951  25.863  24.960  1.00  0.00     0.046 C 
ATOM     13  C   UNL A   1      30.481  27.411  24.185  1.00  0.00    -0.009 A 
ATOM     14  C   UNL A   1      30.488  25.281  25.156  1.00  0.00     0.039 C 
ATOM     15  C   UNL A   1      29.658  26.342  24.485  1.00  0.00    -0.042 A 
ATOM     16  C   UNL A   1      30.117  28.336  23.217  1.00  0.00     0.053 A 
ATOM     17  C   UNL A   1      28.312  26.447  24.191  1.00  0.00     0.008 A 
ATOM     18  C   UNL A   1      28.781  28.479  22.903  1.00  0.00     0.119 A 
ATOM     19  C   UNL A   1      27.870  27.564  23.448  1.00  0.00     0.047 A 
BRANCH  11  20
ATOM     20  O   UNL A   1      31.295  27.553  26.459  1.00  0.00    -0.384 OA
ATOM     21  H   UNL A   1      30.444  27.109  26.602  1.00  0.00     0.211 HD
ENDBRANCH  11  20
BRANCH  18  22
ATOM     22  O   UNL A   1      28.283  29.508  22.146  1.00  0.00    -0.497 OA
ATOM     23  C   UNL A   1      29.239  30.455  21.657  1.00  0.00     0.278 C 
ENDBRANCH  18  22
ENDBRANCH   6  11
ENDBRANCH   3   6
ENDBRANCH   1   2
BRANCH   1  24
ATOM     24  C   UNL A   1      31.432  32.328  26.548  1.00  0.00     0.042 C 
BRANCH  24  25
ATOM     25  C   UNL A   1      32.639  32.941  27.257  1.00  0.00     0.118 C 
BRANCH  25  26
ATOM     26  N   UNL A   1      32.407  34.313  27.682  1.00  0.00    -0.352 N 
ATOM     27  C   UNL A   1      33.010  35.045  28.675  1.00  0.00     0.251 C 
ATOM     28  H   UNL A   1      31.711  34.792  27.177  1.00  0.00     0.163 HD
ATOM     29  O   UNL A   1      32.551  36.135  28.990  1.00  0.00    -0.269 OA
BRANCH  27  30
ATOM     30  C   UNL A   1      34.191  34.511  29.385  1.00  0.00     0.039 A 
ATOM     31  C   UNL A   1      34.002  33.895  30.625  1.00  0.00     0.014 A 
ATOM     32  C   UNL A   1      35.479  34.633  28.855  1.00  0.00     0.014 A 
ATOM     33  C   UNL A   1      35.092  33.345  31.301  1.00  0.00     0.010 A 
ATOM     34  C   UNL A   1      36.554  34.016  29.492  1.00  0.00     0.010 A 
ATOM     35  C   UNL A   1      36.372  33.366  30.722  1.00  0.00    -0.014 A 
BRANCH  35  36
ATOM     36  C   UNL A   1      37.520  32.694  31.384  1.00  0.00     0.031 A 
ATOM     37  C   UNL A   1      38.204  31.526  30.731  1.00  0.00     0.074 A 
ATOM     38  C   UNL A   1      37.908  33.099  32.610  1.00  0.00     0.049 A 
ATOM     39  N   UNL A   1      39.183  30.781  31.180  1.00  0.00    -0.248 NA
ATOM     40  C   UNL A   1      37.702  31.121  29.408  1.00  0.00     0.031 C 
ATOM     41  C   UNL A   1      37.291  34.186  33.373  1.00  0.00     0.029 A 
ATOM     42  N   UNL A   1      38.902  32.637  33.435  1.00  0.00    -0.354 N 
ATOM     43  C   UNL A   1      39.404  29.816  30.206  1.00  0.00     0.074 A 
ATOM     44  C   UNL A   1      38.423  30.036  29.166  1.00  0.00     0.031 C 
ATOM     45  C   UNL A   1      37.930  34.319  34.545  1.00  0.00     0.029 A 
ATOM     46  C   UNL A   1      38.974  33.302  34.636  1.00  0.00     0.049 A 
ATOM     47  H   UNL A   1      39.508  31.901  33.190  1.00  0.00     0.167 HD
ATOM     48  C   UNL A   1      40.351  28.847  30.175  1.00  0.00     0.037 A 
ATOM     49  C   UNL A   1      39.778  33.105  35.698  1.00  0.00     0.037 A 
ATOM     50  C   UNL A   1      41.337  28.645  31.206  1.00  0.00     0.049 A 
ATOM     51  C   UNL A   1      40.820  32.022  35.639  1.00  0.00     0.074 A 
ATOM     52  C   UNL A   1      42.384  27.740  31.232  1.00  0.00     0.029 A 
ATOM     53  N   UNL A   1      41.390  29.350  32.400  1.00  0.00    -0.354 N 
ATOM     54  N   UNL A   1      41.075  31.170  34.676  1.00  0.00    -0.248 NA
ATOM     55  C   UNL A   1      41.693  31.878  36.814  1.00  0.00     0.031 C 
ATOM     56  C   UNL A   1      43.031  27.853  32.467  1.00  0.00     0.029 A 
ATOM     57  C   UNL A   1      42.431  28.876  33.184  1.00  0.00     0.049 A 
ATOM     58  H   UNL A   1      40.778  30.079  32.653  1.00  0.00     0.167 HD
ATOM     59  C   UNL A   1      42.150  30.407  35.114  1.00  0.00     0.074 A 
ATOM     60  C   UNL A   1      42.511  30.910  36.423  1.00  0.00     0.031 C 
ATOM     61  C   UNL A   1      42.780  29.383  34.488  1.00  0.00     0.037 A 
BRANCH  48  62
ATOM     62  C   UNL A   1      40.363  27.922  28.990  1.00  0.00     0.064 A 
ATOM     63  C   UNL A   1      41.118  28.199  27.841  1.00  0.00     0.173 A 
ATOM     64  C   UNL A   1      39.634  26.722  29.019  1.00  0.00     0.173 A 
ATOM     65  F   UNL A   1      41.828  29.335  27.756  1.00  0.00    -0.203 F 
ATOM     66  C   UNL A   1      41.115  27.330  26.753  1.00  0.00     0.198 A 
ATOM     67  C   UNL A   1      39.661  25.838  27.944  1.00  0.00     0.198 A 
ATOM     68  F   UNL A   1      38.900  26.402  30.097  1.00  0.00    -0.203 F 
ATOM     69  F   UNL A   1      41.800  27.644  25.644  1.00  0.00    -0.200 F 
ATOM     70  C   UNL A   1      40.393  26.147  26.808  1.00  0.00     0.200 A 
ATOM     71  F   UNL A   1      38.976  24.689  28.006  1.00  0.00    -0.200 F 
ATOM     72  F   UNL A   1      40.397  25.308  25.762  1.00  0.00    -0.200 F 
ENDBRANCH  48  62
BRANCH  49  73
ATOM     73  C   UNL A   1      39.635  33.965  36.902  1.00  0.00     0.064 A 
ATOM     74  C   UNL A   1      40.277  35.208  36.986  1.00  0.00     0.173 A 
ATOM     75  C   UNL A   1      38.845  33.564  37.991  1.00  0.00     0.173 A 
ATOM     76  F   UNL A   1      41.057  35.627  35.980  1.00  0.00    -0.203 F 
ATOM     77  C   UNL A   1      40.151  36.008  38.120  1.00  0.00     0.198 A 
ATOM     78  C   UNL A   1      38.695  34.380  39.111  1.00  0.00     0.198 A 
ATOM     79  F   UNL A   1      38.203  32.387  37.959  1.00  0.00    -0.203 F 
ATOM     80  F   UNL A   1      40.813  37.171  38.192  1.00  0.00    -0.200 F 
ATOM     81  C   UNL A   1      39.355  35.597  39.178  1.00  0.00     0.200 A 
ATOM     82  F   UNL A   1      37.909  33.987  40.123  1.00  0.00    -0.200 F 
ATOM     83  F   UNL A   1      39.228  36.371  40.264  1.00  0.00    -0.200 F 
ENDBRANCH  49  73
BRANCH  61  84
ATOM     84  C   UNL A   1      43.947  28.755  35.196  1.00  0.00     0.064 A 
ATOM     85  C   UNL A   1      43.786  27.659  36.058  1.00  0.00     0.173 A 
ATOM     86  C   UNL A   1      45.249  29.232  34.978  1.00  0.00     0.173 A 
ATOM     87  F   UNL A   1      42.561  27.173  36.312  1.00  0.00    -0.203 F 
ATOM     88  C   UNL A   1      44.881  27.085  36.698  1.00  0.00     0.198 A 
ATOM     89  C   UNL A   1      46.345  28.632  35.593  1.00  0.00     0.198 A 
ATOM     90  F   UNL A   1      45.461  30.272  34.159  1.00  0.00    -0.203 F 
ATOM     91  F   UNL A   1      44.697  26.074  37.558  1.00  0.00    -0.200 F 
ATOM     92  C   UNL A   1      46.160  27.565  36.458  1.00  0.00     0.200 A 
ATOM     93  F   UNL A   1      47.581  29.088  35.347  1.00  0.00    -0.200 F 
ATOM     94  F   UNL A   1      47.213  27.006  37.068  1.00  0.00    -0.200 F 
ENDBRANCH  61  84
ENDBRANCH  35  36
ENDBRANCH  27  30
ENDBRANCH  25  26
ENDBRANCH  24  25
ENDBRANCH   1  24
TORSDOF 16
ENDMDL
MODEL 2
REMARK VINA RESULT:     -11.7      6.349     11.472
REMARK SMILES CCCC[C@H](C(=O)NCCCNC(=O)c1ccc(-c2c3nc(c(-c4c(F)c(F)c(F)c(F)c4F)c4ccc([nH]4)c(-c4c(F)c(F)c(F)c(F)c4F)c4nc(c(-c5c(F)c(F)c(F)c(F)c5F)c5ccc2[nH]5)C=C4)C=C3)cc1)[C@]1(O)CCc2ccc(OC)cc21
REMARK SMILES IDX 9 1 8 2 6 3 7 4 5 6 4 7 3 8 2 9 1 10 78 11 80 12 89 13 81 14
REMARK SMILES IDX 82 15 88 16 83 17 85 18 84 19 79 20 86 22 87 23 10 24 11 25
REMARK SMILES IDX 12 26 13 27 14 29 15 30 16 31 77 32 17 33 76 34 18 35 19 36
REMARK SMILES IDX 20 37 70 38 21 39 75 40 69 41 71 42 22 43 74 44 68 45 67 46
REMARK SMILES IDX 23 48 55 49 35 50 54 51 36 52 39 53 53 54 72 55 37 56 38 57
REMARK SMILES IDX 52 59 73 60 40 61 24 62 25 63 33 64 26 65 27 66 31 67 34 68
REMARK SMILES IDX 28 69 29 70 32 71 30 72 56 73 57 74 65 75 58 76 59 77 63 78
REMARK SMILES IDX 66 79 60 80 61 81 64 82 62 83 41 84 42 85 50 86 43 87 44 88
REMARK SMILES IDX 48 89 51 90 45 91 46 92 49 93 47 94
REMARK H PARENT 8 5 79 21 12 28 71 47 39 58
REMARK Flexibility Score: inf
ROOT
ATOM      1  C   UNL A   1      37.095  20.281  24.878  1.00  0.00     0.117 C 
ENDROOT
BRANCH   1   2
ATOM      2  N   UNL A   1      37.286  21.522  25.607  1.00  0.00    -0.356 N 
ATOM      3  C   UNL A   1      36.419  22.569  25.714  1.00  0.00     0.226 C 
ATOM      4  O   UNL A   1      36.910  23.697  25.725  1.00  0.00    -0.275 OA
ATOM      5  H   UNL A   1      38.143  21.619  26.082  1.00  0.00     0.163 HD
BRANCH   3   6
ATOM      6  C   UNL A   1      34.918  22.304  25.817  1.00  0.00     0.115 C 
BRANCH   6   7
ATOM      7  C   UNL A   1      34.262  23.211  26.940  1.00  0.00     0.017 C 
BRANCH   7   8
ATOM      8  C   UNL A   1      32.955  22.774  27.596  1.00  0.00     0.001 C 
BRANCH   8   9
ATOM      9  C   UNL A   1      31.750  23.611  27.130  1.00  0.00    -0.003 C 
ATOM     10  C   UNL A   1      30.631  22.842  26.427  1.00  0.00     0.004 C 
ENDBRANCH   8   9
ENDBRANCH   7   8
ENDBRANCH   6   7
BRANCH   6  11
ATOM     11  C   UNL A   1      34.199  22.618  24.485  1.00  0.00     0.102 C 
ATOM     12  C   UNL A   1      33.360  23.836  24.072  1.00  0.00     0.046 C 
ATOM     13  C   UNL A   1      33.185  21.572  24.064  1.00  0.00    -0.009 A 
ATOM     14  C   UNL A   1      32.823  23.397  22.645  1.00  0.00     0.039 C 
ATOM     15  C   UNL A   1      32.637  21.917  22.843  1.00  0.00    -0.042 A 
ATOM     16  C   UNL A   1      32.809  20.399  24.702  1.00  0.00     0.053 A 
ATOM     17  C   UNL A   1      32.106  20.915  22.055  1.00  0.00     0.008 A 
ATOM     18  C   UNL A   1      32.286  19.369  23.948  1.00  0.00     0.119 A 
ATOM     19  C   UNL A   1      31.994  19.617  22.600  1.00  0.00     0.047 A 
BRANCH  11  20
ATOM     20  O   UNL A   1      35.299  22.620  23.526  1.00  0.00    -0.384 OA
ATOM     21  H   UNL A   1      35.072  22.054  22.772  1.00  0.00     0.211 HD
ENDBRANCH  11  20
BRANCH  18  22
ATOM     22  O   UNL A   1      32.101  18.095  24.422  1.00  0.00    -0.497 OA
ATOM     23  C   UNL A   1      32.707  17.795  25.684  1.00  0.00     0.278 C 
ENDBRANCH  18  22
ENDBRANCH   6  11
ENDBRANCH   3   6
ENDBRANCH   1   2
BRANCH   1  24
ATOM     24  C   UNL A   1      38.426  19.551  24.742  1.00  0.00     0.042 C 
BRANCH  24  25
ATOM     25  C   UNL A   1      39.434  19.888  25.839  1.00  0.00     0.118 C 
BRANCH  25  26
ATOM     26  N   UNL A   1      40.498  18.901  25.951  1.00  0.00    -0.352 N 
ATOM     27  C   UNL A   1      41.845  19.073  26.158  1.00  0.00     0.251 C 
ATOM     28  H   UNL A   1      40.207  17.965  25.866  1.00  0.00     0.163 HD
ATOM     29  O   UNL A   1      42.603  18.118  26.048  1.00  0.00    -0.269 OA
BRANCH  27  30
ATOM     30  C   UNL A   1      42.386  20.410  26.483  1.00  0.00     0.039 A 
ATOM     31  C   UNL A   1      42.994  21.149  25.464  1.00  0.00     0.014 A 
ATOM     32  C   UNL A   1      42.323  20.928  27.779  1.00  0.00     0.014 A 
ATOM     33  C   UNL A   1      43.479  22.430  25.729  1.00  0.00     0.010 A 
ATOM     34  C   UNL A   1      42.737  22.236  28.025  1.00  0.00     0.010 A 
ATOM     35  C   UNL A   1      43.320  23.001  27.004  1.00  0.00    -0.014 A 
BRANCH  35  36
ATOM     36  C   UNL A   1      43.739  24.401  27.271  1.00  0.00     0.031 A 
ATOM     37  C   UNL A   1      42.741  25.423  27.739  1.00  0.00     0.074 A 
ATOM     38  C   UNL A   1      45.013  24.768  27.029  1.00  0.00     0.049 A 
ATOM     39  N   UNL A   1      42.910  26.700  27.971  1.00  0.00    -0.248 NA
ATOM     40  C   UNL A   1      41.363  24.953  27.948  1.00  0.00     0.031 C 
ATOM     41  C   UNL A   1      46.064  23.884  26.523  1.00  0.00     0.029 A 
ATOM     42  N   UNL A   1      45.638  25.983  27.163  1.00  0.00    -0.354 N 
ATOM     43  C   UNL A   1      41.662  27.188  28.337  1.00  0.00     0.074 A 
ATOM     44  C   UNL A   1      40.735  26.081  28.247  1.00  0.00     0.031 C 
ATOM     45  C   UNL A   1      47.205  24.579  26.405  1.00  0.00     0.029 A 
ATOM     46  C   UNL A   1      46.959  25.966  26.787  1.00  0.00     0.049 A 
ATOM     47  H   UNL A   1      45.183  26.789  27.499  1.00  0.00     0.167 HD
ATOM     48  C   UNL A   1      41.325  28.440  28.730  1.00  0.00     0.037 A 
ATOM     49  C   UNL A   1      47.868  26.959  26.740  1.00  0.00     0.037 A 
ATOM     50  C   UNL A   1      42.258  29.535  28.836  1.00  0.00     0.049 A 
ATOM     51  C   UNL A   1      47.469  28.341  27.181  1.00  0.00     0.074 A 
ATOM     52  C   UNL A   1      42.030  30.819  29.296  1.00  0.00     0.029 A 
ATOM     53  N   UNL A   1      43.593  29.475  28.464  1.00  0.00    -0.354 N 
ATOM     54  N   UNL A   1      46.306  28.770  27.606  1.00  0.00    -0.248 NA
ATOM     55  C   UNL A   1      48.513  29.376  27.142  1.00  0.00     0.031 C 
ATOM     56  C   UNL A   1      43.210  31.555  29.143  1.00  0.00     0.029 A 
ATOM     57  C   UNL A   1      44.193  30.711  28.651  1.00  0.00     0.049 A 
ATOM     58  H   UNL A   1      44.048  28.673  28.117  1.00  0.00     0.167 HD
ATOM     59  C   UNL A   1      46.482  30.114  27.910  1.00  0.00     0.074 A 
ATOM     60  C   UNL A   1      47.870  30.424  27.637  1.00  0.00     0.031 C 
ATOM     61  C   UNL A   1      45.576  31.009  28.373  1.00  0.00     0.037 A 
BRANCH  48  62
ATOM     62  C   UNL A   1      39.884  28.701  29.069  1.00  0.00     0.064 A 
ATOM     63  C   UNL A   1      39.380  28.503  30.363  1.00  0.00     0.173 A 
ATOM     64  C   UNL A   1      39.003  29.190  28.092  1.00  0.00     0.173 A 
ATOM     65  F   UNL A   1      40.175  28.029  31.334  1.00  0.00    -0.203 F 
ATOM     66  C   UNL A   1      38.040  28.748  30.657  1.00  0.00     0.198 A 
ATOM     67  C   UNL A   1      37.673  29.469  28.398  1.00  0.00     0.198 A 
ATOM     68  F   UNL A   1      39.433  29.407  26.839  1.00  0.00    -0.203 F 
ATOM     69  F   UNL A   1      37.569  28.497  31.886  1.00  0.00    -0.200 F 
ATOM     70  C   UNL A   1      37.190  29.238  29.677  1.00  0.00     0.200 A 
ATOM     71  F   UNL A   1      36.858  29.957  27.453  1.00  0.00    -0.200 F 
ATOM     72  F   UNL A   1      35.904  29.481  29.963  1.00  0.00    -0.200 F 
ENDBRANCH  48  62
BRANCH  49  73
ATOM     73  C   UNL A   1      49.249  26.675  26.268  1.00  0.00     0.064 A 
ATOM     74  C   UNL A   1      50.227  26.183  27.143  1.00  0.00     0.173 A 
ATOM     75  C   UNL A   1      49.616  26.881  24.929  1.00  0.00     0.173 A 
ATOM     76  F   UNL A   1      49.931  25.988  28.436  1.00  0.00    -0.203 F 
ATOM     77  C   UNL A   1      51.525  25.928  26.703  1.00  0.00     0.198 A 
ATOM     78  C   UNL A   1      50.904  26.595  24.483  1.00  0.00     0.198 A 
ATOM     79  F   UNL A   1      48.716  27.342  24.049  1.00  0.00    -0.203 F 
ATOM     80  F   UNL A   1      52.452  25.502  27.571  1.00  0.00    -0.200 F 
ATOM     81  C   UNL A   1      51.860  26.126  25.372  1.00  0.00     0.200 A 
ATOM     82  F   UNL A   1      51.219  26.771  23.192  1.00  0.00    -0.200 F 
ATOM     83  F   UNL A   1      53.105  25.873  24.948  1.00  0.00    -0.200 F 
ENDBRANCH  49  73
BRANCH  61  84
ATOM     84  C   UNL A   1      46.061  32.405  28.645  1.00  0.00     0.064 A 
ATOM     85  C   UNL A   1      46.605  32.771  29.885  1.00  0.00     0.173 A 
ATOM     86  C   UNL A   1      46.016  33.380  27.636  1.00  0.00     0.173 A 
ATOM     87  F   UNL A   1      46.658  31.881  30.888  1.00  0.00    -0.203 F 
ATOM     88  C   UNL A   1      47.057  34.068  30.115  1.00  0.00     0.198 A 
ATOM     89  C   UNL A   1      46.501  34.667  27.859  1.00  0.00     0.198 A 
ATOM     90  F   UNL A   1      45.512  33.083  26.429  1.00  0.00    -0.203 F 
ATOM     91  F   UNL A   1      47.524  34.407  31.324  1.00  0.00    -0.200 F 
ATOM     92  C   UNL A   1      47.014  35.011  29.099  1.00  0.00     0.200 A 
ATOM     93  F   UNL A   1      46.473  35.572  26.871  1.00  0.00    -0.200 F 
ATOM     94  F   UNL A   1      47.458  36.256  29.319  1.00  0.00    -0.200 F 
ENDBRANCH  61  84
ENDBRANCH  35  36
ENDBRANCH  27  30
ENDBRANCH  25  26
ENDBRANCH  24  25
ENDBRANCH   1  24
TORSDOF 16
ENDMDL
MODEL 3
REMARK VINA RESULT:     -11.5      0.582      7.416
REMARK SMILES CCCC[C@H](C(=O)NCCCNC(=O)c1ccc(-c2c3nc(c(-c4c(F)c(F)c(F)c(F)c4F)c4ccc([nH]4)c(-c4c(F)c(F)c(F)c(F)c4F)c4nc(c(-c5c(F)c(F)c(F)c(F)c5F)c5ccc2[nH]5)C=C4)C=C3)cc1)[C@]1(O)CCc2ccc(OC)cc21
REMARK SMILES IDX 9 1 8 2 6 3 7 4 5 6 4 7 3 8 2 9 1 10 78 11 80 12 89 13 81 14
REMARK SMILES IDX 82 15 88 16 83 17 85 18 84 19 79 20 86 22 87 23 10 24 11 25
REMARK SMILES IDX 12 26 13 27 14 29 15 30 16 31 77 32 17 33 76 34 18 35 19 36
REMARK SMILES IDX 20 37 70 38 21 39 75 40 69 41 71 42 22 43 74 44 68 45 67 46
REMARK SMILES IDX 23 48 55 49 35 50 54 51 36 52 39 53 53 54 72 55 37 56 38 57
REMARK SMILES IDX 52 59 73 60 40 61 24 62 25 63 33 64 26 65 27 66 31 67 34 68
REMARK SMILES IDX 28 69 29 70 32 71 30 72 56 73 57 74 65 75 58 76 59 77 63 78
REMARK SMILES IDX 66 79 60 80 61 81 64 82 62 83 41 84 42 85 50 86 43 87 44 88
REMARK SMILES IDX 48 89 51 90 45 91 46 92 49 93 47 94
REMARK H PARENT 8 5 79 21 12 28 71 47 39 58
REMARK Flexibility Score: inf
ROOT
ATOM      1  C   UNL A   1      31.289  31.051  26.458  1.00  0.00     0.117 C 
ENDROOT
BRANCH   1   2
ATOM      2  N   UNL A   1      32.563  30.470  26.839  1.00  0.00    -0.356 N 
ATOM      3  C   UNL A   1      33.022  29.215  26.571  1.00  0.00     0.226 C 
ATOM      4  O   UNL A   1      33.688  28.668  27.449  1.00  0.00    -0.275 OA
ATOM      5  H   UNL A   1      33.169  31.052  27.351  1.00  0.00     0.163 HD
BRANCH   3   6
ATOM      6  C   UNL A   1      32.703  28.561  25.227  1.00  0.00     0.115 C 
BRANCH   6   7
ATOM      7  C   UNL A   1      34.025  28.031  24.530  1.00  0.00     0.017 C 
BRANCH   7   8
ATOM      8  C   UNL A   1      34.448  28.601  23.180  1.00  0.00     0.001 C 
BRANCH   8   9
ATOM      9  C   UNL A   1      33.683  27.966  22.004  1.00  0.00    -0.003 C 
ATOM     10  C   UNL A   1      33.480  26.452  22.076  1.00  0.00     0.004 C 
ENDBRANCH   8   9
ENDBRANCH   7   8
ENDBRANCH   6   7
BRANCH   6  11
ATOM     11  C   UNL A   1      31.752  27.355  25.401  1.00  0.00     0.102 C 
ATOM     12  C   UNL A   1      32.040  25.847  25.355  1.00  0.00     0.046 C 
ATOM     13  C   UNL A   1      30.594  27.330  24.421  1.00  0.00    -0.009 A 
ATOM     14  C   UNL A   1      30.582  25.230  25.455  1.00  0.00     0.039 C 
ATOM     15  C   UNL A   1      29.778  26.247  24.689  1.00  0.00    -0.042 A 
ATOM     16  C   UNL A   1      30.283  28.216  23.399  1.00  0.00     0.053 A 
ATOM     17  C   UNL A   1      28.458  26.305  24.289  1.00  0.00     0.008 A 
ATOM     18  C   UNL A   1      28.972  28.312  22.979  1.00  0.00     0.119 A 
ATOM     19  C   UNL A   1      28.046  27.387  23.480  1.00  0.00     0.047 A 
BRANCH  11  20
ATOM     20  O   UNL A   1      31.225  27.561  26.746  1.00  0.00    -0.384 OA
ATOM     21  H   UNL A   1      31.959  27.700  27.364  1.00  0.00     0.211 HD
ENDBRANCH  11  20
BRANCH  18  22
ATOM     22  O   UNL A   1      28.508  29.304  22.154  1.00  0.00    -0.497 OA
ATOM     23  C   UNL A   1      29.386  30.415  21.943  1.00  0.00     0.278 C 
ENDBRANCH  18  22
ENDBRANCH   6  11
ENDBRANCH   3   6
ENDBRANCH   1   2
BRANCH   1  24
ATOM     24  C   UNL A   1      31.369  32.571  26.530  1.00  0.00     0.042 C 
BRANCH  24  25
ATOM     25  C   UNL A   1      32.613  33.093  27.246  1.00  0.00     0.118 C 
BRANCH  25  26
ATOM     26  N   UNL A   1      32.448  34.448  27.752  1.00  0.00    -0.352 N 
ATOM     27  C   UNL A   1      33.092  35.093  28.778  1.00  0.00     0.251 C 
ATOM     28  H   UNL A   1      31.769  34.985  27.285  1.00  0.00     0.163 HD
ATOM     29  O   UNL A   1      32.685  36.182  29.161  1.00  0.00    -0.269 OA
BRANCH  27  30
ATOM     30  C   UNL A   1      34.256  34.467  29.441  1.00  0.00     0.039 A 
ATOM     31  C   UNL A   1      34.035  33.693  30.584  1.00  0.00     0.014 A 
ATOM     32  C   UNL A   1      35.556  34.656  28.966  1.00  0.00     0.014 A 
ATOM     33  C   UNL A   1      35.108  33.055  31.209  1.00  0.00     0.010 A 
ATOM     34  C   UNL A   1      36.615  33.958  29.544  1.00  0.00     0.010 A 
ATOM     35  C   UNL A   1      36.403  33.150  30.671  1.00  0.00    -0.014 A 
BRANCH  35  36
ATOM     36  C   UNL A   1      37.535  32.395  31.267  1.00  0.00     0.031 A 
ATOM     37  C   UNL A   1      38.067  32.759  32.625  1.00  0.00     0.074 A 
ATOM     38  C   UNL A   1      38.127  31.417  30.554  1.00  0.00     0.049 A 
ATOM     39  N   UNL A   1      39.080  32.250  33.281  1.00  0.00    -0.248 NA
ATOM     40  C   UNL A   1      37.390  33.859  33.328  1.00  0.00     0.031 C 
ATOM     41  C   UNL A   1      37.738  31.005  29.203  1.00  0.00     0.029 A 
ATOM     42  N   UNL A   1      39.189  30.601  30.856  1.00  0.00    -0.354 N 
ATOM     43  C   UNL A   1      39.170  32.975  34.462  1.00  0.00     0.074 A 
ATOM     44  C   UNL A   1      38.142  33.992  34.411  1.00  0.00     0.031 C 
ATOM     45  C   UNL A   1      38.537  30.005  28.801  1.00  0.00     0.029 A 
ATOM     46  C   UNL A   1      39.520  29.732  29.845  1.00  0.00     0.049 A 
ATOM     47  H   UNL A   1      39.667  30.635  31.716  1.00  0.00     0.167 HD
ATOM     48  C   UNL A   1      40.019  32.796  35.503  1.00  0.00     0.037 A 
ATOM     49  C   UNL A   1      40.513  28.826  29.761  1.00  0.00     0.037 A 
ATOM     50  C   UNL A   1      41.029  31.768  35.556  1.00  0.00     0.049 A 
ATOM     51  C   UNL A   1      41.445  28.647  30.929  1.00  0.00     0.074 A 
ATOM     52  C   UNL A   1      41.888  31.457  36.595  1.00  0.00     0.029 A 
ATOM     53  N   UNL A   1      41.323  30.893  34.521  1.00  0.00    -0.354 N 
ATOM     54  N   UNL A   1      41.465  29.282  32.076  1.00  0.00    -0.248 NA
ATOM     55  C   UNL A   1      42.487  27.619  30.794  1.00  0.00     0.031 C 
ATOM     56  C   UNL A   1      42.744  30.438  36.167  1.00  0.00     0.029 A 
ATOM     57  C   UNL A   1      42.374  30.065  34.884  1.00  0.00     0.049 A 
ATOM     58  H   UNL A   1      40.854  30.865  33.655  1.00  0.00     0.167 HD
ATOM     59  C   UNL A   1      42.501  28.716  32.808  1.00  0.00     0.074 A 
ATOM     60  C   UNL A   1      43.073  27.673  31.982  1.00  0.00     0.031 C 
ATOM     61  C   UNL A   1      42.938  29.031  34.052  1.00  0.00     0.037 A 
BRANCH  48  62
ATOM     62  C   UNL A   1      39.902  33.737  36.669  1.00  0.00     0.064 A 
ATOM     63  C   UNL A   1      40.655  34.918  36.746  1.00  0.00     0.173 A 
ATOM     64  C   UNL A   1      38.997  33.470  37.708  1.00  0.00     0.173 A 
ATOM     65  F   UNL A   1      41.542  35.219  35.784  1.00  0.00    -0.203 F 
ATOM     66  C   UNL A   1      40.534  35.777  37.836  1.00  0.00     0.198 A 
ATOM     67  C   UNL A   1      38.852  34.349  38.779  1.00  0.00     0.198 A 
ATOM     68  F   UNL A   1      38.244  32.359  37.682  1.00  0.00    -0.203 F 
ATOM     69  F   UNL A   1      41.306  36.870  37.914  1.00  0.00    -0.200 F 
ATOM     70  C   UNL A   1      39.628  35.496  38.848  1.00  0.00     0.200 A 
ATOM     71  F   UNL A   1      37.964  34.083  39.746  1.00  0.00    -0.200 F 
ATOM     72  F   UNL A   1      39.507  36.327  39.892  1.00  0.00    -0.200 F 
ENDBRANCH  48  62
BRANCH  49  73
ATOM     73  C   UNL A   1      40.668  28.011  28.527  1.00  0.00     0.064 A 
ATOM     74  C   UNL A   1      40.040  26.765  28.399  1.00  0.00     0.173 A 
ATOM     75  C   UNL A   1      41.439  28.468  27.447  1.00  0.00     0.173 A 
ATOM     76  F   UNL A   1      39.308  26.277  29.410  1.00  0.00    -0.203 F 
ATOM     77  C   UNL A   1      40.195  25.996  27.246  1.00  0.00     0.198 A 
ATOM     78  C   UNL A   1      41.567  27.712  26.284  1.00  0.00     0.198 A 
ATOM     79  F   UNL A   1      42.055  29.656  27.516  1.00  0.00    -0.203 F 
ATOM     80  F   UNL A   1      39.620  24.788  27.169  1.00  0.00    -0.200 F 
ATOM     81  C   UNL A   1      40.951  26.474  26.187  1.00  0.00     0.200 A 
ATOM     82  F   UNL A   1      42.284  28.186  25.255  1.00  0.00    -0.200 F 
ATOM     83  F   UNL A   1      41.092  25.738  25.077  1.00  0.00    -0.200 F 
ENDBRANCH  49  73
BRANCH  61  84
ATOM     84  C   UNL A   1      44.072  28.221  34.611  1.00  0.00     0.064 A 
ATOM     85  C   UNL A   1      45.408  28.631  34.482  1.00  0.00     0.173 A 
ATOM     86  C   UNL A   1      43.816  27.036  35.320  1.00  0.00     0.173 A 
ATOM     87  F   UNL A   1      45.710  29.747  33.802  1.00  0.00    -0.203 F 
ATOM     88  C   UNL A   1      46.445  27.870  35.016  1.00  0.00     0.198 A 
ATOM     89  C   UNL A   1      44.854  26.297  35.882  1.00  0.00     0.198 A 
ATOM     90  F   UNL A   1      42.557  26.602  35.479  1.00  0.00    -0.203 F 
ATOM     91  F   UNL A   1      47.717  28.254  34.834  1.00  0.00    -0.200 F 
ATOM     92  C   UNL A   1      46.167  26.710  35.723  1.00  0.00     0.200 A 
ATOM     93  F   UNL A   1      44.581  25.185  36.578  1.00  0.00    -0.200 F 
ATOM     94  F   UNL A   1      47.166  25.984  36.243  1.00  0.00    -0.200 F 
ENDBRANCH  61  84
ENDBRANCH  35  36
ENDBRANCH  27  30
ENDBRANCH  25  26
ENDBRANCH  24  25
ENDBRANCH   1  24
TORSDOF 16
ENDMDL
