MODEL 1
REMARK VINA RESULT:     -12.9      0.000      0.000
REMARK SMILES C[C@H](Oc1ccc(C(=O)NCc2ccccc2)cc1)C(=O)NCCCNC(=O)c1ccc(-c2c3nc(c(-c4c(F)c(F)c(F)c(F)c4F)c4ccc([nH]4)c(-c4c(F)c(F)c(F)c(F)c4F)c4nc(c(-c5c(F)c(F)c(F)c(F)c5F)c5ccc2[nH]5)C=C4)C=C3)cc1
REMARK SMILES IDX 20 1 21 2 22 3 2 5 1 6 3 7 4 8 5 9 19 10 6 11 18 12 7 13
REMARK SMILES IDX 8 14 9 15 10 16 11 18 12 19 13 20 17 21 14 22 16 23 15 24
REMARK SMILES IDX 23 25 24 26 25 27 26 28 27 29 28 31 29 32 30 33 91 34 31 35
REMARK SMILES IDX 90 36 32 37 33 38 34 39 84 40 35 41 89 42 83 43 85 44 36 45
REMARK SMILES IDX 88 46 82 47 81 48 37 50 69 51 49 52 68 53 50 54 53 55 67 56
REMARK SMILES IDX 86 57 51 58 52 59 66 61 87 62 54 63 38 64 39 65 47 66 40 67
REMARK SMILES IDX 41 68 45 69 48 70 42 71 43 72 46 73 44 74 70 75 71 76 79 77
REMARK SMILES IDX 72 78 73 79 77 80 80 81 74 82 75 83 78 84 76 85 55 86 56 87
REMARK SMILES IDX 64 88 57 89 58 90 62 91 65 92 59 93 60 94 63 95 61 96
REMARK H PARENT 22 4 10 17 26 30 85 49 53 60
REMARK Flexibility Score: inf
ROOT
ATOM      1  C   UNL A   1      34.291  20.955  25.568  1.00  0.00     0.260 C 
ATOM      2  O   UNL A   1      33.284  20.243  25.537  1.00  0.00    -0.271 OA
ATOM      3  N   UNL A   1      35.480  20.397  25.178  1.00  0.00    -0.353 N 
ATOM      4  H   UNL A   1      35.431  19.454  24.903  1.00  0.00     0.163 HD
ENDROOT
BRANCH   1   5
ATOM      5  C   UNL A   1      34.215  22.435  25.972  1.00  0.00     0.258 C 
ATOM      6  C   UNL A   1      33.958  22.514  27.480  1.00  0.00     0.064 C 
BRANCH   5   7
ATOM      7  O   UNL A   1      33.204  22.993  25.131  1.00  0.00    -0.481 OA
BRANCH   7   8
ATOM      8  C   UNL A   1      33.382  24.186  24.508  1.00  0.00     0.120 A 
ATOM      9  C   UNL A   1      34.033  25.300  25.017  1.00  0.00     0.047 A 
ATOM     10  C   UNL A   1      32.809  24.251  23.235  1.00  0.00     0.047 A 
ATOM     11  C   UNL A   1      34.053  26.489  24.277  1.00  0.00     0.017 A 
ATOM     12  C   UNL A   1      32.820  25.439  22.498  1.00  0.00     0.017 A 
ATOM     13  C   UNL A   1      33.451  26.572  23.009  1.00  0.00     0.040 A 
BRANCH  13  14
ATOM     14  C   UNL A   1      33.450  27.907  22.352  1.00  0.00     0.251 C 
ATOM     15  O   UNL A   1      34.400  28.204  21.625  1.00  0.00    -0.269 OA
ATOM     16  N   UNL A   1      32.455  28.832  22.498  1.00  0.00    -0.348 N 
ATOM     17  H   UNL A   1      32.634  29.675  22.022  1.00  0.00     0.164 HD
BRANCH  16  18
ATOM     18  C   UNL A   1      31.192  28.831  23.206  1.00  0.00     0.152 C 
BRANCH  18  19
ATOM     19  C   UNL A   1      31.364  28.593  24.691  1.00  0.00    -0.029 A 
ATOM     20  C   UNL A   1      31.964  29.585  25.483  1.00  0.00     0.005 A 
ATOM     21  C   UNL A   1      30.925  27.416  25.322  1.00  0.00     0.005 A 
ATOM     22  C   UNL A   1      32.153  29.389  26.854  1.00  0.00     0.000 A 
ATOM     23  C   UNL A   1      31.112  27.222  26.692  1.00  0.00     0.000 A 
ATOM     24  C   UNL A   1      31.732  28.206  27.456  1.00  0.00     0.000 A 
ENDBRANCH  18  19
ENDBRANCH  16  18
ENDBRANCH  13  14
ENDBRANCH   7   8
ENDBRANCH   5   7
ENDBRANCH   1   5
BRANCH   3  25
ATOM     25  C   UNL A   1      36.805  20.995  25.111  1.00  0.00     0.118 C 
BRANCH  25  26
ATOM     26  C   UNL A   1      37.911  19.956  24.986  1.00  0.00     0.042 C 
BRANCH  26  27
ATOM     27  C   UNL A   1      39.176  20.311  25.753  1.00  0.00     0.118 C 
BRANCH  27  28
ATOM     28  N   UNL A   1      40.118  19.201  25.841  1.00  0.00    -0.352 N 
ATOM     29  C   UNL A   1      41.478  19.204  26.050  1.00  0.00     0.251 C 
ATOM     30  H   UNL A   1      39.718  18.308  25.732  1.00  0.00     0.163 HD
ATOM     31  O   UNL A   1      42.121  18.171  25.931  1.00  0.00    -0.269 OA
BRANCH  29  32
ATOM     32  C   UNL A   1      42.166  20.467  26.392  1.00  0.00     0.039 A 
ATOM     33  C   UNL A   1      42.789  21.196  25.375  1.00  0.00     0.014 A 
ATOM     34  C   UNL A   1      42.184  20.937  27.706  1.00  0.00     0.014 A 
ATOM     35  C   UNL A   1      43.347  22.444  25.662  1.00  0.00     0.010 A 
ATOM     36  C   UNL A   1      42.663  22.213  27.973  1.00  0.00     0.010 A 
ATOM     37  C   UNL A   1      43.241  22.985  26.953  1.00  0.00    -0.014 A 
BRANCH  37  38
ATOM     38  C   UNL A   1      43.711  24.357  27.273  1.00  0.00     0.031 A 
ATOM     39  C   UNL A   1      42.733  25.384  27.768  1.00  0.00     0.074 A 
ATOM     40  C   UNL A   1      44.986  24.705  27.010  1.00  0.00     0.049 A 
ATOM     41  N   UNL A   1      42.898  26.671  27.938  1.00  0.00    -0.248 NA
ATOM     42  C   UNL A   1      41.379  24.904  28.082  1.00  0.00     0.031 C 
ATOM     43  C   UNL A   1      46.020  23.809  26.493  1.00  0.00     0.029 A 
ATOM     44  N   UNL A   1      45.622  25.917  27.120  1.00  0.00    -0.354 N 
ATOM     45  C   UNL A   1      41.664  27.157  28.349  1.00  0.00     0.074 A 
ATOM     46  C   UNL A   1      40.749  26.035  28.362  1.00  0.00     0.031 C 
ATOM     47  C   UNL A   1      47.163  24.497  26.338  1.00  0.00     0.029 A 
ATOM     48  C   UNL A   1      46.930  25.892  26.698  1.00  0.00     0.049 A 
ATOM     49  H   UNL A   1      45.183  26.727  27.467  1.00  0.00     0.167 HD
ATOM     50  C   UNL A   1      41.330  28.421  28.702  1.00  0.00     0.037 A 
ATOM     51  C   UNL A   1      47.833  26.886  26.595  1.00  0.00     0.037 A 
ATOM     52  C   UNL A   1      42.253  29.525  28.719  1.00  0.00     0.049 A 
ATOM     53  C   UNL A   1      47.436  28.283  26.990  1.00  0.00     0.074 A 
ATOM     54  C   UNL A   1      42.027  30.830  29.117  1.00  0.00     0.029 A 
ATOM     55  N   UNL A   1      43.580  29.450  28.324  1.00  0.00    -0.354 N 
ATOM     56  N   UNL A   1      46.280  28.722  27.426  1.00  0.00    -0.248 NA
ATOM     57  C   UNL A   1      48.468  29.324  26.879  1.00  0.00     0.031 C 
ATOM     58  C   UNL A   1      43.206  31.556  28.924  1.00  0.00     0.029 A 
ATOM     59  C   UNL A   1      44.181  30.691  28.453  1.00  0.00     0.049 A 
ATOM     60  H   UNL A   1      44.028  28.635  28.000  1.00  0.00     0.167 HD
ATOM     61  C   UNL A   1      46.456  30.076  27.677  1.00  0.00     0.074 A 
ATOM     62  C   UNL A   1      47.830  30.388  27.345  1.00  0.00     0.031 C 
ATOM     63  C   UNL A   1      45.558  30.978  28.142  1.00  0.00     0.037 A 
BRANCH  50  64
ATOM     64  C   UNL A   1      39.905  28.679  29.098  1.00  0.00     0.064 A 
ATOM     65  C   UNL A   1      38.946  29.099  28.164  1.00  0.00     0.173 A 
ATOM     66  C   UNL A   1      39.485  28.466  30.420  1.00  0.00     0.173 A 
ATOM     67  F   UNL A   1      39.298  29.327  26.890  1.00  0.00    -0.203 F 
ATOM     68  C   UNL A   1      37.626  29.325  28.546  1.00  0.00     0.198 A 
ATOM     69  C   UNL A   1      38.158  28.663  30.790  1.00  0.00     0.198 A 
ATOM     70  F   UNL A   1      40.361  28.058  31.351  1.00  0.00    -0.203 F 
ATOM     71  F   UNL A   1      36.740  29.774  27.647  1.00  0.00    -0.200 F 
ATOM     72  C   UNL A   1      37.232  29.100  29.856  1.00  0.00     0.200 A 
ATOM     73  F   UNL A   1      37.776  28.432  32.054  1.00  0.00    -0.200 F 
ATOM     74  F   UNL A   1      35.959  29.310  30.219  1.00  0.00    -0.200 F 
ENDBRANCH  50  64
BRANCH  51  75
ATOM     75  C   UNL A   1      49.208  26.592  26.113  1.00  0.00     0.064 A 
ATOM     76  C   UNL A   1      50.181  26.088  26.988  1.00  0.00     0.173 A 
ATOM     77  C   UNL A   1      49.579  26.805  24.778  1.00  0.00     0.173 A 
ATOM     78  F   UNL A   1      49.879  25.886  28.279  1.00  0.00    -0.203 F 
ATOM     79  C   UNL A   1      51.476  25.824  26.549  1.00  0.00     0.198 A 
ATOM     80  C   UNL A   1      50.868  26.515  24.334  1.00  0.00     0.198 A 
ATOM     81  F   UNL A   1      48.684  27.282  23.899  1.00  0.00    -0.203 F 
ATOM     82  F   UNL A   1      52.398  25.383  27.416  1.00  0.00    -0.200 F 
ATOM     83  C   UNL A   1      51.818  26.032  25.221  1.00  0.00     0.200 A 
ATOM     84  F   UNL A   1      51.190  26.704  23.046  1.00  0.00    -0.200 F 
ATOM     85  F   UNL A   1      53.062  25.774  24.798  1.00  0.00    -0.200 F 
ENDBRANCH  51  75
BRANCH  63  86
ATOM     86  C   UNL A   1      46.040  32.379  28.378  1.00  0.00     0.064 A 
ATOM     87  C   UNL A   1      45.952  33.366  27.387  1.00  0.00     0.173 A 
ATOM     88  C   UNL A   1      46.534  32.751  29.638  1.00  0.00     0.173 A 
ATOM     89  F   UNL A   1      45.502  33.056  26.163  1.00  0.00    -0.203 F 
ATOM     90  C   UNL A   1      46.354  34.674  27.646  1.00  0.00     0.198 A 
ATOM     91  C   UNL A   1      46.909  34.065  29.902  1.00  0.00     0.198 A 
ATOM     92  F   UNL A   1      46.632  31.842  30.621  1.00  0.00    -0.203 F 
ATOM     93  F   UNL A   1      46.294  35.596  26.676  1.00  0.00    -0.200 F 
ATOM     94  C   UNL A   1      46.822  35.024  28.905  1.00  0.00     0.200 A 
ATOM     95  F   UNL A   1      47.347  34.403  31.123  1.00  0.00    -0.200 F 
ATOM     96  F   UNL A   1      47.193  36.287  29.156  1.00  0.00    -0.200 F 
ENDBRANCH  63  86
ENDBRANCH  37  38
ENDBRANCH  29  32
ENDBRANCH  27  28
ENDBRANCH  26  27
ENDBRANCH  25  26
ENDBRANCH   3  25
TORSDOF 15
ENDMDL
MODEL 2
REMARK VINA RESULT:     -12.8      5.421     11.149
REMARK SMILES C[C@H](Oc1ccc(C(=O)NCc2ccccc2)cc1)C(=O)NCCCNC(=O)c1ccc(-c2c3nc(c(-c4c(F)c(F)c(F)c(F)c4F)c4ccc([nH]4)c(-c4c(F)c(F)c(F)c(F)c4F)c4nc(c(-c5c(F)c(F)c(F)c(F)c5F)c5ccc2[nH]5)C=C4)C=C3)cc1
REMARK SMILES IDX 20 1 21 2 22 3 2 5 1 6 3 7 4 8 5 9 19 10 6 11 18 12 7 13
REMARK SMILES IDX 8 14 9 15 10 16 11 18 12 19 13 20 17 21 14 22 16 23 15 24
REMARK SMILES IDX 23 25 24 26 25 27 26 28 27 29 28 31 29 32 30 33 91 34 31 35
REMARK SMILES IDX 90 36 32 37 33 38 34 39 84 40 35 41 89 42 83 43 85 44 36 45
REMARK SMILES IDX 88 46 82 47 81 48 37 50 69 51 49 52 68 53 50 54 53 55 67 56
REMARK SMILES IDX 86 57 51 58 52 59 66 61 87 62 54 63 38 64 39 65 47 66 40 67
REMARK SMILES IDX 41 68 45 69 48 70 42 71 43 72 46 73 44 74 70 75 71 76 79 77
REMARK SMILES IDX 72 78 73 79 77 80 80 81 74 82 75 83 78 84 76 85 55 86 56 87
REMARK SMILES IDX 64 88 57 89 58 90 62 91 65 92 59 93 60 94 63 95 61 96
REMARK H PARENT 22 4 10 17 26 30 85 49 53 60
REMARK Flexibility Score: inf
ROOT
ATOM      1  C   UNL A   1      31.565  29.223  23.840  1.00  0.00     0.260 C 
ATOM      2  O   UNL A   1      30.855  29.252  22.832  1.00  0.00    -0.271 OA
ATOM      3  N   UNL A   1      31.323  30.149  24.820  1.00  0.00    -0.353 N 
ATOM      4  H   UNL A   1      30.588  30.776  24.633  1.00  0.00     0.163 HD
ENDROOT
BRANCH   1   5
ATOM      5  C   UNL A   1      32.650  28.150  24.026  1.00  0.00     0.258 C 
ATOM      6  C   UNL A   1      33.738  28.373  22.971  1.00  0.00     0.064 C 
BRANCH   5   7
ATOM      7  O   UNL A   1      31.950  26.906  23.956  1.00  0.00    -0.481 OA
BRANCH   7   8
ATOM      8  C   UNL A   1      32.218  25.897  24.824  1.00  0.00     0.120 A 
ATOM      9  C   UNL A   1      33.375  25.725  25.567  1.00  0.00     0.047 A 
ATOM     10  C   UNL A   1      31.195  24.949  24.920  1.00  0.00     0.047 A 
ATOM     11  C   UNL A   1      33.530  24.575  26.353  1.00  0.00     0.017 A 
ATOM     12  C   UNL A   1      31.350  23.797  25.697  1.00  0.00     0.017 A 
ATOM     13  C   UNL A   1      32.519  23.601  26.431  1.00  0.00     0.040 A 
BRANCH  13  14
ATOM     14  C   UNL A   1      32.825  22.377  27.220  1.00  0.00     0.251 C 
ATOM     15  O   UNL A   1      32.709  22.425  28.446  1.00  0.00    -0.269 OA
ATOM     16  N   UNL A   1      33.225  21.192  26.671  1.00  0.00    -0.348 N 
ATOM     17  H   UNL A   1      33.420  20.498  27.342  1.00  0.00     0.164 HD
BRANCH  16  18
ATOM     18  C   UNL A   1      33.421  20.742  25.308  1.00  0.00     0.152 C 
BRANCH  18  19
ATOM     19  C   UNL A   1      34.532  21.496  24.607  1.00  0.00    -0.029 A 
ATOM     20  C   UNL A   1      35.868  21.213  24.932  1.00  0.00     0.005 A 
ATOM     21  C   UNL A   1      34.280  22.462  23.619  1.00  0.00     0.005 A 
ATOM     22  C   UNL A   1      36.916  21.902  24.316  1.00  0.00     0.000 A 
ATOM     23  C   UNL A   1      35.327  23.150  23.002  1.00  0.00     0.000 A 
ATOM     24  C   UNL A   1      36.645  22.874  23.355  1.00  0.00     0.000 A 
ENDBRANCH  18  19
ENDBRANCH  16  18
ENDBRANCH  13  14
ENDBRANCH   7   8
ENDBRANCH   5   7
ENDBRANCH   1   5
BRANCH   3  25
ATOM     25  C   UNL A   1      31.992  30.341  26.099  1.00  0.00     0.118 C 
BRANCH  25  26
ATOM     26  C   UNL A   1      31.614  31.655  26.766  1.00  0.00     0.042 C 
BRANCH  26  27
ATOM     27  C   UNL A   1      32.808  32.467  27.246  1.00  0.00     0.118 C 
BRANCH  27  28
ATOM     28  N   UNL A   1      32.470  33.853  27.548  1.00  0.00    -0.352 N 
ATOM     29  C   UNL A   1      33.001  34.712  28.483  1.00  0.00     0.251 C 
ATOM     30  H   UNL A   1      31.747  34.233  26.999  1.00  0.00     0.163 HD
ATOM     31  O   UNL A   1      32.470  35.793  28.694  1.00  0.00    -0.269 OA
BRANCH  29  32
ATOM     32  C   UNL A   1      34.198  34.314  29.253  1.00  0.00     0.039 A 
ATOM     33  C   UNL A   1      34.032  33.613  30.451  1.00  0.00     0.014 A 
ATOM     34  C   UNL A   1      35.479  34.617  28.788  1.00  0.00     0.014 A 
ATOM     35  C   UNL A   1      35.152  33.133  31.132  1.00  0.00     0.010 A 
ATOM     36  C   UNL A   1      36.587  34.069  29.420  1.00  0.00     0.010 A 
ATOM     37  C   UNL A   1      36.436  33.313  30.594  1.00  0.00    -0.014 A 
BRANCH  37  38
ATOM     38  C   UNL A   1      37.643  32.716  31.220  1.00  0.00     0.031 A 
ATOM     39  C   UNL A   1      38.346  31.572  30.546  1.00  0.00     0.074 A 
ATOM     40  C   UNL A   1      38.035  33.126  32.442  1.00  0.00     0.049 A 
ATOM     41  N   UNL A   1      39.301  30.802  31.001  1.00  0.00    -0.248 NA
ATOM     42  C   UNL A   1      37.889  31.228  29.191  1.00  0.00     0.031 C 
ATOM     43  C   UNL A   1      37.411  34.201  33.216  1.00  0.00     0.029 A 
ATOM     44  N   UNL A   1      39.038  32.669  33.260  1.00  0.00    -0.354 N 
ATOM     45  C   UNL A   1      39.539  29.868  30.002  1.00  0.00     0.074 A 
ATOM     46  C   UNL A   1      38.598  30.139  28.935  1.00  0.00     0.031 C 
ATOM     47  C   UNL A   1      38.050  34.327  34.390  1.00  0.00     0.029 A 
ATOM     48  C   UNL A   1      39.095  33.311  34.474  1.00  0.00     0.049 A 
ATOM     49  H   UNL A   1      39.657  31.948  33.002  1.00  0.00     0.167 HD
ATOM     50  C   UNL A   1      40.468  28.883  29.971  1.00  0.00     0.037 A 
ATOM     51  C   UNL A   1      39.887  33.093  35.541  1.00  0.00     0.037 A 
ATOM     52  C   UNL A   1      41.422  28.641  31.020  1.00  0.00     0.049 A 
ATOM     53  C   UNL A   1      40.910  31.991  35.483  1.00  0.00     0.074 A 
ATOM     54  C   UNL A   1      42.443  27.707  31.058  1.00  0.00     0.029 A 
ATOM     55  N   UNL A   1      41.473  29.340  32.217  1.00  0.00    -0.354 N 
ATOM     56  N   UNL A   1      41.160  31.145  34.513  1.00  0.00    -0.248 NA
ATOM     57  C   UNL A   1      41.763  31.812  36.667  1.00  0.00     0.031 C 
ATOM     58  C   UNL A   1      43.086  27.814  32.295  1.00  0.00     0.029 A 
ATOM     59  C   UNL A   1      42.498  28.848  33.007  1.00  0.00     0.049 A 
ATOM     60  H   UNL A   1      40.871  30.078  32.467  1.00  0.00     0.167 HD
ATOM     61  C   UNL A   1      42.219  30.362  34.952  1.00  0.00     0.074 A 
ATOM     62  C   UNL A   1      42.566  30.833  36.277  1.00  0.00     0.031 C 
ATOM     63  C   UNL A   1      42.847  29.346  34.313  1.00  0.00     0.037 A 
BRANCH  50  64
ATOM     64  C   UNL A   1      40.500  27.995  28.762  1.00  0.00     0.064 A 
ATOM     65  C   UNL A   1      41.257  28.322  27.627  1.00  0.00     0.173 A 
ATOM     66  C   UNL A   1      39.794  26.782  28.752  1.00  0.00     0.173 A 
ATOM     67  F   UNL A   1      41.941  29.476  27.582  1.00  0.00    -0.203 F 
ATOM     68  C   UNL A   1      41.284  27.483  26.517  1.00  0.00     0.198 A 
ATOM     69  C   UNL A   1      39.848  25.931  27.652  1.00  0.00     0.198 A 
ATOM     70  F   UNL A   1      39.059  26.418  29.814  1.00  0.00    -0.203 F 
ATOM     71  F   UNL A   1      41.974  27.842  25.426  1.00  0.00    -0.200 F 
ATOM     72  C   UNL A   1      40.585  26.285  26.533  1.00  0.00     0.200 A 
ATOM     73  F   UNL A   1      39.183  24.767  27.674  1.00  0.00    -0.200 F 
ATOM     74  F   UNL A   1      40.619  25.475  25.466  1.00  0.00    -0.200 F 
ENDBRANCH  50  64
BRANCH  51  75
ATOM     75  C   UNL A   1      39.756  33.948  36.750  1.00  0.00     0.064 A 
ATOM     76  C   UNL A   1      38.938  33.555  37.819  1.00  0.00     0.173 A 
ATOM     77  C   UNL A   1      40.439  35.166  36.864  1.00  0.00     0.173 A 
ATOM     78  F   UNL A   1      38.248  32.407  37.748  1.00  0.00    -0.203 F 
ATOM     79  C   UNL A   1      38.796  34.357  38.949  1.00  0.00     0.198 A 
ATOM     80  C   UNL A   1      40.318  35.955  38.008  1.00  0.00     0.198 A 
ATOM     81  F   UNL A   1      41.238  35.585  35.872  1.00  0.00    -0.203 F 
ATOM     82  F   UNL A   1      37.975  33.979  39.938  1.00  0.00    -0.200 F 
ATOM     83  C   UNL A   1      39.491  35.554  39.046  1.00  0.00     0.200 A 
ATOM     84  F   UNL A   1      41.003  37.104  38.103  1.00  0.00    -0.200 F 
ATOM     85  F   UNL A   1      39.359  36.322  40.135  1.00  0.00    -0.200 F 
ENDBRANCH  51  75
BRANCH  63  86
ATOM     86  C   UNL A   1      44.013  28.705  35.007  1.00  0.00     0.064 A 
ATOM     87  C   UNL A   1      45.316  29.203  34.874  1.00  0.00     0.173 A 
ATOM     88  C   UNL A   1      43.807  27.619  35.871  1.00  0.00     0.173 A 
ATOM     89  F   UNL A   1      45.566  30.230  34.048  1.00  0.00    -0.203 F 
ATOM     90  C   UNL A   1      46.375  28.627  35.572  1.00  0.00     0.198 A 
ATOM     91  C   UNL A   1      44.862  27.063  36.589  1.00  0.00     0.198 A 
ATOM     92  F   UNL A   1      42.576  27.110  36.037  1.00  0.00    -0.203 F 
ATOM     93  F   UNL A   1      47.618  29.096  35.405  1.00  0.00    -0.200 F 
ATOM     94  C   UNL A   1      46.146  27.565  36.435  1.00  0.00     0.200 A 
ATOM     95  F   UNL A   1      44.636  26.047  37.432  1.00  0.00    -0.200 F 
ATOM     96  F   UNL A   1      47.163  27.023  37.118  1.00  0.00    -0.200 F 
ENDBRANCH  63  86
ENDBRANCH  37  38
ENDBRANCH  29  32
ENDBRANCH  27  28
ENDBRANCH  26  27
ENDBRANCH  25  26
ENDBRANCH   3  25
TORSDOF 15
ENDMDL
MODEL 3
REMARK VINA RESULT:     -12.8      5.538     11.380
REMARK SMILES C[C@H](Oc1ccc(C(=O)NCc2ccccc2)cc1)C(=O)NCCCNC(=O)c1ccc(-c2c3nc(c(-c4c(F)c(F)c(F)c(F)c4F)c4ccc([nH]4)c(-c4c(F)c(F)c(F)c(F)c4F)c4nc(c(-c5c(F)c(F)c(F)c(F)c5F)c5ccc2[nH]5)C=C4)C=C3)cc1
REMARK SMILES IDX 20 1 21 2 22 3 2 5 1 6 3 7 4 8 5 9 19 10 6 11 18 12 7 13
REMARK SMILES IDX 8 14 9 15 10 16 11 18 12 19 13 20 17 21 14 22 16 23 15 24
REMARK SMILES IDX 23 25 24 26 25 27 26 28 27 29 28 31 29 32 30 33 91 34 31 35
REMARK SMILES IDX 90 36 32 37 33 38 34 39 84 40 35 41 89 42 83 43 85 44 36 45
REMARK SMILES IDX 88 46 82 47 81 48 37 50 69 51 49 52 68 53 50 54 53 55 67 56
REMARK SMILES IDX 86 57 51 58 52 59 66 61 87 62 54 63 38 64 39 65 47 66 40 67
REMARK SMILES IDX 41 68 45 69 48 70 42 71 43 72 46 73 44 74 70 75 71 76 79 77
REMARK SMILES IDX 72 78 73 79 77 80 80 81 74 82 75 83 78 84 76 85 55 86 56 87
REMARK SMILES IDX 64 88 57 89 58 90 62 91 65 92 59 93 60 94 63 95 61 96
REMARK H PARENT 22 4 10 17 26 30 85 49 53 60
REMARK Flexibility Score: inf
ROOT
ATOM      1  C   UNL A   1      31.477  29.208  23.934  1.00  0.00     0.260 C 
ATOM      2  O   UNL A   1      30.636  29.071  23.042  1.00  0.00    -0.271 OA
ATOM      3  N   UNL A   1      31.208  30.105  24.934  1.00  0.00    -0.353 N 
ATOM      4  H   UNL A   1      30.349  30.578  24.854  1.00  0.00     0.163 HD
ENDROOT
BRANCH   1   5
ATOM      5  C   UNL A   1      32.759  28.361  23.964  1.00  0.00     0.258 C 
ATOM      6  C   UNL A   1      33.722  28.901  22.902  1.00  0.00     0.064 C 
BRANCH   5   7
ATOM      7  O   UNL A   1      32.314  27.016  23.785  1.00  0.00    -0.481 OA
BRANCH   7   8
ATOM      8  C   UNL A   1      33.127  25.962  24.054  1.00  0.00     0.120 A 
ATOM      9  C   UNL A   1      33.919  25.790  25.178  1.00  0.00     0.047 A 
ATOM     10  C   UNL A   1      33.146  24.992  23.047  1.00  0.00     0.047 A 
ATOM     11  C   UNL A   1      34.773  24.681  25.261  1.00  0.00     0.017 A 
ATOM     12  C   UNL A   1      34.003  23.890  23.124  1.00  0.00     0.017 A 
ATOM     13  C   UNL A   1      34.822  23.717  24.239  1.00  0.00     0.040 A 
BRANCH  13  14
ATOM     14  C   UNL A   1      35.829  22.632  24.386  1.00  0.00     0.251 C 
ATOM     15  O   UNL A   1      36.993  22.864  24.054  1.00  0.00    -0.269 OA
ATOM     16  N   UNL A   1      35.548  21.386  24.872  1.00  0.00    -0.348 N 
ATOM     17  H   UNL A   1      36.325  20.782  24.864  1.00  0.00     0.164 HD
BRANCH  16  18
ATOM     18  C   UNL A   1      34.346  20.770  25.395  1.00  0.00     0.152 C 
BRANCH  18  19
ATOM     19  C   UNL A   1      33.901  19.582  24.569  1.00  0.00    -0.029 A 
ATOM     20  C   UNL A   1      34.696  18.425  24.543  1.00  0.00     0.005 A 
ATOM     21  C   UNL A   1      32.702  19.581  23.837  1.00  0.00     0.005 A 
ATOM     22  C   UNL A   1      34.321  17.317  23.778  1.00  0.00     0.000 A 
ATOM     23  C   UNL A   1      32.327  18.473  23.073  1.00  0.00     0.000 A 
ATOM     24  C   UNL A   1      33.140  17.344  23.039  1.00  0.00     0.000 A 
ENDBRANCH  18  19
ENDBRANCH  16  18
ENDBRANCH  13  14
ENDBRANCH   7   8
ENDBRANCH   5   7
ENDBRANCH   1   5
BRANCH   3  25
ATOM     25  C   UNL A   1      32.006  30.460  26.098  1.00  0.00     0.118 C 
BRANCH  25  26
ATOM     26  C   UNL A   1      31.607  31.802  26.694  1.00  0.00     0.042 C 
BRANCH  26  27
ATOM     27  C   UNL A   1      32.762  32.562  27.328  1.00  0.00     0.118 C 
BRANCH  27  28
ATOM     28  N   UNL A   1      32.442  33.957  27.608  1.00  0.00    -0.352 N 
ATOM     29  C   UNL A   1      32.986  34.826  28.525  1.00  0.00     0.251 C 
ATOM     30  H   UNL A   1      31.722  34.336  27.054  1.00  0.00     0.163 HD
ATOM     31  O   UNL A   1      32.469  35.917  28.719  1.00  0.00    -0.269 OA
BRANCH  29  32
ATOM     32  C   UNL A   1      34.180  34.427  29.299  1.00  0.00     0.039 A 
ATOM     33  C   UNL A   1      34.009  33.824  30.549  1.00  0.00     0.014 A 
ATOM     34  C   UNL A   1      35.463  34.631  28.788  1.00  0.00     0.014 A 
ATOM     35  C   UNL A   1      35.121  33.341  31.242  1.00  0.00     0.010 A 
ATOM     36  C   UNL A   1      36.558  34.076  29.437  1.00  0.00     0.010 A 
ATOM     37  C   UNL A   1      36.399  33.417  30.666  1.00  0.00    -0.014 A 
BRANCH  37  38
ATOM     38  C   UNL A   1      37.591  32.809  31.311  1.00  0.00     0.031 A 
ATOM     39  C   UNL A   1      38.293  31.660  30.647  1.00  0.00     0.074 A 
ATOM     40  C   UNL A   1      37.966  33.215  32.540  1.00  0.00     0.049 A 
ATOM     41  N   UNL A   1      39.235  30.881  31.117  1.00  0.00    -0.248 NA
ATOM     42  C   UNL A   1      37.855  31.321  29.285  1.00  0.00     0.031 C 
ATOM     43  C   UNL A   1      37.340  34.295  33.304  1.00  0.00     0.029 A 
ATOM     44  N   UNL A   1      38.952  32.748  33.374  1.00  0.00    -0.354 N 
ATOM     45  C   UNL A   1      39.479  29.945  30.121  1.00  0.00     0.074 A 
ATOM     46  C   UNL A   1      38.559  30.225  29.040  1.00  0.00     0.031 C 
ATOM     47  C   UNL A   1      37.961  34.414  34.489  1.00  0.00     0.029 A 
ATOM     48  C   UNL A   1      38.995  33.389  34.588  1.00  0.00     0.049 A 
ATOM     49  H   UNL A   1      39.568  32.022  33.125  1.00  0.00     0.167 HD
ATOM     50  C   UNL A   1      40.400  28.952  30.104  1.00  0.00     0.037 A 
ATOM     51  C   UNL A   1      39.768  33.162  35.668  1.00  0.00     0.037 A 
ATOM     52  C   UNL A   1      41.335  28.700  31.168  1.00  0.00     0.049 A 
ATOM     53  C   UNL A   1      40.782  32.052  35.625  1.00  0.00     0.074 A 
ATOM     54  C   UNL A   1      42.346  27.757  31.222  1.00  0.00     0.029 A 
ATOM     55  N   UNL A   1      41.373  29.398  32.366  1.00  0.00    -0.354 N 
ATOM     56  N   UNL A   1      41.040  31.204  34.659  1.00  0.00    -0.248 NA
ATOM     57  C   UNL A   1      41.614  31.864  36.823  1.00  0.00     0.031 C 
ATOM     58  C   UNL A   1      42.971  27.857  32.469  1.00  0.00     0.029 A 
ATOM     59  C   UNL A   1      42.381  28.896  33.173  1.00  0.00     0.049 A 
ATOM     60  H   UNL A   1      40.774  30.141  32.607  1.00  0.00     0.167 HD
ATOM     61  C   UNL A   1      42.084  30.411  35.114  1.00  0.00     0.074 A 
ATOM     62  C   UNL A   1      42.415  30.878  36.444  1.00  0.00     0.031 C 
ATOM     63  C   UNL A   1      42.714  29.390  34.484  1.00  0.00     0.037 A 
BRANCH  50  64
ATOM     64  C   UNL A   1      40.443  28.064  28.895  1.00  0.00     0.064 A 
ATOM     65  C   UNL A   1      39.708  26.871  28.831  1.00  0.00     0.173 A 
ATOM     66  C   UNL A   1      41.199  28.430  27.770  1.00  0.00     0.173 A 
ATOM     67  F   UNL A   1      38.979  26.470  29.884  1.00  0.00    -0.203 F 
ATOM     68  C   UNL A   1      39.751  26.062  27.699  1.00  0.00     0.198 A 
ATOM     69  C   UNL A   1      41.214  27.635  26.628  1.00  0.00     0.198 A 
ATOM     70  F   UNL A   1      41.915  29.565  27.776  1.00  0.00    -0.203 F 
ATOM     71  F   UNL A   1      39.081  24.902  27.681  1.00  0.00    -0.200 F 
ATOM     72  C   UNL A   1      40.498  26.448  26.596  1.00  0.00     0.200 A 
ATOM     73  F   UNL A   1      41.926  28.016  25.558  1.00  0.00    -0.200 F 
ATOM     74  F   UNL A   1      40.531  25.672  25.504  1.00  0.00    -0.200 F 
ENDBRANCH  50  64
BRANCH  51  75
ATOM     75  C   UNL A   1      39.625  34.018  36.875  1.00  0.00     0.064 A 
ATOM     76  C   UNL A   1      38.820  33.612  37.949  1.00  0.00     0.173 A 
ATOM     77  C   UNL A   1      40.286  35.249  36.984  1.00  0.00     0.173 A 
ATOM     78  F   UNL A   1      38.152  32.451  37.883  1.00  0.00    -0.203 F 
ATOM     79  C   UNL A   1      38.667  34.414  39.078  1.00  0.00     0.198 A 
ATOM     80  C   UNL A   1      40.154  36.038  38.126  1.00  0.00     0.198 A 
ATOM     81  F   UNL A   1      41.072  35.682  35.987  1.00  0.00    -0.203 F 
ATOM     82  F   UNL A   1      37.857  34.022  40.071  1.00  0.00    -0.200 F 
ATOM     83  C   UNL A   1      39.339  35.624  39.168  1.00  0.00     0.200 A 
ATOM     84  F   UNL A   1      40.816  37.201  38.216  1.00  0.00    -0.200 F 
ATOM     85  F   UNL A   1      39.196  36.392  40.256  1.00  0.00    -0.200 F 
ENDBRANCH  51  75
BRANCH  63  86
ATOM     86  C   UNL A   1      43.862  28.738  35.196  1.00  0.00     0.064 A 
ATOM     87  C   UNL A   1      45.177  29.204  35.057  1.00  0.00     0.173 A 
ATOM     88  C   UNL A   1      43.629  27.675  36.083  1.00  0.00     0.173 A 
ATOM     89  F   UNL A   1      45.452  30.206  34.210  1.00  0.00    -0.203 F 
ATOM     90  C   UNL A   1      46.220  28.619  35.771  1.00  0.00     0.198 A 
ATOM     91  C   UNL A   1      44.669  27.112  36.816  1.00  0.00     0.198 A 
ATOM     92  F   UNL A   1      42.386  27.198  36.255  1.00  0.00    -0.203 F 
ATOM     93  F   UNL A   1      47.474  29.056  35.599  1.00  0.00    -0.200 F 
ATOM     94  C   UNL A   1      45.964  27.581  36.657  1.00  0.00     0.200 A 
ATOM     95  F   UNL A   1      44.417  26.120  37.680  1.00  0.00    -0.200 F 
ATOM     96  F   UNL A   1      46.966  27.031  37.354  1.00  0.00    -0.200 F 
ENDBRANCH  63  86
ENDBRANCH  37  38
ENDBRANCH  29  32
ENDBRANCH  27  28
ENDBRANCH  26  27
ENDBRANCH  25  26
ENDBRANCH   3  25
TORSDOF 15
ENDMDL
