MODEL 1
REMARK VINA RESULT:     -12.7      0.000      0.000
REMARK SMILES CSc1ncc(Cl)c(C(=O)Nc2ccsc2C(=O)NCCCNC(=O)c2ccc(-c3c4nc(c(-c5c(F)c(F)c(F)c(F)c5F)c5ccc([nH]5)c(-c5c(F)c(F)c(F)c(F)c5F)c5nc(c(-c6c(F)c(F)c(F)c(F)c6F)c6ccc3[nH]6)C=C5)C=C4)cc2)n1
REMARK SMILES IDX 20 1 19 2 17 3 18 4 16 6 12 7 13 8 14 9 15 10 11 11 9 12
REMARK SMILES IDX 10 13 8 15 3 16 4 17 89 18 5 19 6 20 7 21 2 22 1 23 21 24
REMARK SMILES IDX 22 25 23 26 24 27 25 29 26 30 27 31 88 32 28 33 87 34 29 35
REMARK SMILES IDX 30 36 31 37 81 38 32 39 86 40 80 41 82 42 33 43 85 44 79 45
REMARK SMILES IDX 78 46 34 48 66 49 46 50 65 51 47 52 50 53 64 54 83 55 48 56
REMARK SMILES IDX 49 57 63 59 84 60 51 61 35 62 36 63 44 64 37 65 38 66 42 67
REMARK SMILES IDX 45 68 39 69 40 70 43 71 41 72 67 73 68 74 76 75 69 76 70 77
REMARK SMILES IDX 74 78 77 79 71 80 72 81 75 82 73 83 52 84 53 85 61 86 54 87
REMARK SMILES IDX 55 88 59 89 62 90 56 91 57 92 60 93 58 94
REMARK H PARENT 19 5 11 14 23 28 82 47 50 58
REMARK Flexibility Score: inf
ROOT
ATOM      1  C   UNL A   1      31.488  30.900  26.038  1.00  0.00     0.118 C 
ENDROOT
BRANCH   1   2
ATOM      2  N   UNL A   1      32.218  29.842  26.685  1.00  0.00    -0.351 N 
ATOM      3  C   UNL A   1      32.219  28.474  26.473  1.00  0.00     0.263 C 
ATOM      4  O   UNL A   1      33.043  27.883  27.184  1.00  0.00    -0.268 OA
ATOM      5  H   UNL A   1      32.821  30.143  27.402  1.00  0.00     0.163 HD
BRANCH   3   6
ATOM      6  C   UNL A   1      31.310  27.758  25.553  1.00  0.00     0.115 A 
ATOM      7  C   UNL A   1      30.731  26.488  25.471  1.00  0.00     0.065 A 
ATOM      8  C   UNL A   1      30.019  26.268  24.249  1.00  0.00     0.038 A 
ATOM      9  C   UNL A   1      30.049  27.358  23.420  1.00  0.00     0.068 A 
ATOM     10  S   UNL A   1      30.899  28.656  24.112  1.00  0.00    -0.137 S 
BRANCH   7  11
ATOM     11  N   UNL A   1      30.799  25.523  26.451  1.00  0.00    -0.319 N 
ATOM     12  C   UNL A   1      31.504  24.330  26.463  1.00  0.00     0.276 C 
ATOM     13  O   UNL A   1      31.500  23.714  27.535  1.00  0.00    -0.267 OA
ATOM     14  H   UNL A   1      30.268  25.707  27.260  1.00  0.00     0.170 HD
BRANCH  12  15
ATOM     15  C   UNL A   1      32.321  23.778  25.327  1.00  0.00     0.151 A 
ATOM     16  C   UNL A   1      32.607  21.854  24.078  1.00  0.00     0.188 A 
ATOM     17  N   UNL A   1      33.539  22.415  23.298  1.00  0.00    -0.230 NA
ATOM     18  N   UNL A   1      31.933  22.509  25.025  1.00  0.00    -0.216 NA
ATOM     19  C   UNL A   1      33.921  23.659  23.638  1.00  0.00     0.137 A 
ATOM     20  C   UNL A   1      33.420  24.356  24.718  1.00  0.00     0.090 A 
ATOM     21  Cl  UNL A   1      34.366  25.671  25.282  1.00  0.00    -0.080 Cl
BRANCH  16  22
ATOM     22  S   UNL A   1      32.454  20.090  24.069  1.00  0.00    -0.090 SA
ATOM     23  C   UNL A   1      34.052  19.644  24.770  1.00  0.00     0.094 C 
ENDBRANCH  16  22
ENDBRANCH  12  15
ENDBRANCH   7  11
ENDBRANCH   3   6
ENDBRANCH   1   2
BRANCH   1  24
ATOM     24  C   UNL A   1      31.307  32.205  26.783  1.00  0.00     0.042 C 
BRANCH  24  25
ATOM     25  C   UNL A   1      32.575  32.891  27.241  1.00  0.00     0.118 C 
BRANCH  25  26
ATOM     26  N   UNL A   1      32.385  34.271  27.670  1.00  0.00    -0.352 N 
ATOM     27  C   UNL A   1      33.028  35.035  28.617  1.00  0.00     0.251 C 
ATOM     28  H   UNL A   1      31.664  34.743  27.195  1.00  0.00     0.163 HD
ATOM     29  O   UNL A   1      32.605  36.166  28.859  1.00  0.00    -0.269 OA
BRANCH  27  30
ATOM     30  C   UNL A   1      34.192  34.520  29.376  1.00  0.00     0.039 A 
ATOM     31  C   UNL A   1      33.981  33.910  30.618  1.00  0.00     0.014 A 
ATOM     32  C   UNL A   1      35.493  34.646  28.896  1.00  0.00     0.014 A 
ATOM     33  C   UNL A   1      35.057  33.355  31.320  1.00  0.00     0.010 A 
ATOM     34  C   UNL A   1      36.538  33.973  29.520  1.00  0.00     0.010 A 
ATOM     35  C   UNL A   1      36.340  33.335  30.752  1.00  0.00    -0.014 A 
BRANCH  35  36
ATOM     36  C   UNL A   1      37.499  32.695  31.433  1.00  0.00     0.031 A 
ATOM     37  C   UNL A   1      38.214  31.541  30.774  1.00  0.00     0.074 A 
ATOM     38  C   UNL A   1      37.858  33.091  32.671  1.00  0.00     0.049 A 
ATOM     39  N   UNL A   1      39.167  30.777  31.246  1.00  0.00    -0.248 NA
ATOM     40  C   UNL A   1      37.774  31.172  29.417  1.00  0.00     0.031 C 
ATOM     41  C   UNL A   1      37.213  34.155  33.443  1.00  0.00     0.029 A 
ATOM     42  N   UNL A   1      38.849  32.633  33.506  1.00  0.00    -0.354 N 
ATOM     43  C   UNL A   1      39.413  29.828  30.260  1.00  0.00     0.074 A 
ATOM     44  C   UNL A   1      38.470  30.069  29.192  1.00  0.00     0.031 C 
ATOM     45  C   UNL A   1      37.841  34.287  34.622  1.00  0.00     0.029 A 
ATOM     46  C   UNL A   1      38.901  33.289  34.713  1.00  0.00     0.049 A 
ATOM     47  H   UNL A   1      39.465  31.905  33.261  1.00  0.00     0.167 HD
ATOM     48  C   UNL A   1      40.361  28.861  30.233  1.00  0.00     0.037 A 
ATOM     49  C   UNL A   1      39.706  33.097  35.776  1.00  0.00     0.037 A 
ATOM     50  C   UNL A   1      41.330  28.654  31.275  1.00  0.00     0.049 A 
ATOM     51  C   UNL A   1      40.757  32.020  35.713  1.00  0.00     0.074 A 
ATOM     52  C   UNL A   1      42.378  27.752  31.309  1.00  0.00     0.029 A 
ATOM     53  N   UNL A   1      41.373  29.365  32.465  1.00  0.00    -0.354 N 
ATOM     54  N   UNL A   1      41.028  31.180  34.743  1.00  0.00    -0.248 NA
ATOM     55  C   UNL A   1      41.624  31.870  36.892  1.00  0.00     0.031 C 
ATOM     56  C   UNL A   1      43.022  27.877  32.543  1.00  0.00     0.029 A 
ATOM     57  C   UNL A   1      42.417  28.904  33.250  1.00  0.00     0.049 A 
ATOM     58  H   UNL A   1      40.755  30.089  32.714  1.00  0.00     0.167 HD
ATOM     59  C   UNL A   1      42.116  30.432  35.178  1.00  0.00     0.074 A 
ATOM     60  C   UNL A   1      42.464  30.927  36.491  1.00  0.00     0.031 C 
ATOM     61  C   UNL A   1      42.766  29.425  34.546  1.00  0.00     0.037 A 
BRANCH  48  62
ATOM     62  C   UNL A   1      40.412  27.957  29.034  1.00  0.00     0.064 A 
ATOM     63  C   UNL A   1      39.663  26.772  28.970  1.00  0.00     0.173 A 
ATOM     64  C   UNL A   1      41.169  28.315  27.908  1.00  0.00     0.173 A 
ATOM     65  F   UNL A   1      38.932  26.376  30.023  1.00  0.00    -0.203 F 
ATOM     66  C   UNL A   1      39.687  25.969  27.833  1.00  0.00     0.198 A 
ATOM     67  C   UNL A   1      41.164  27.527  26.759  1.00  0.00     0.198 A 
ATOM     68  F   UNL A   1      41.900  29.440  27.913  1.00  0.00    -0.203 F 
ATOM     69  F   UNL A   1      38.998  24.819  27.812  1.00  0.00    -0.200 F 
ATOM     70  C   UNL A   1      40.428  26.353  26.725  1.00  0.00     0.200 A 
ATOM     71  F   UNL A   1      41.868  27.906  25.685  1.00  0.00    -0.200 F 
ATOM     72  F   UNL A   1      40.435  25.587  25.625  1.00  0.00    -0.200 F 
ENDBRANCH  48  62
BRANCH  49  73
ATOM     73  C   UNL A   1      39.567  33.948  36.990  1.00  0.00     0.064 A 
ATOM     74  C   UNL A   1      38.797  33.525  38.084  1.00  0.00     0.173 A 
ATOM     75  C   UNL A   1      40.164  35.214  37.069  1.00  0.00     0.173 A 
ATOM     76  F   UNL A   1      38.188  32.330  38.051  1.00  0.00    -0.203 F 
ATOM     77  C   UNL A   1      38.597  34.350  39.189  1.00  0.00     0.198 A 
ATOM     78  C   UNL A   1      39.992  36.024  38.189  1.00  0.00     0.198 A 
ATOM     79  F   UNL A   1      40.914  35.668  36.054  1.00  0.00    -0.203 F 
ATOM     80  F   UNL A   1      37.797  33.948  40.187  1.00  0.00    -0.200 F 
ATOM     81  C   UNL A   1      39.197  35.598  39.242  1.00  0.00     0.200 A 
ATOM     82  F   UNL A   1      40.585  37.226  38.243  1.00  0.00    -0.200 F 
ATOM     83  F   UNL A   1      38.997  36.396  40.300  1.00  0.00    -0.200 F 
ENDBRANCH  49  73
BRANCH  61  84
ATOM     84  C   UNL A   1      43.959  28.831  35.237  1.00  0.00     0.064 A 
ATOM     85  C   UNL A   1      45.258  29.315  35.024  1.00  0.00     0.173 A 
ATOM     86  C   UNL A   1      43.791  27.788  36.162  1.00  0.00     0.173 A 
ATOM     87  F   UNL A   1      45.474  30.303  34.141  1.00  0.00    -0.203 F 
ATOM     88  C   UNL A   1      46.348  28.757  35.686  1.00  0.00     0.198 A 
ATOM     89  C   UNL A   1      44.879  27.257  36.850  1.00  0.00     0.198 A 
ATOM     90  F   UNL A   1      42.569  27.295  36.413  1.00  0.00    -0.203 F 
ATOM     91  F   UNL A   1      47.586  29.198  35.425  1.00  0.00    -0.200 F 
ATOM     92  C   UNL A   1      46.156  27.735  36.605  1.00  0.00     0.200 A 
ATOM     93  F   UNL A   1      44.689  26.284  37.751  1.00  0.00    -0.200 F 
ATOM     94  F   UNL A   1      47.206  27.206  37.247  1.00  0.00    -0.200 F 
ENDBRANCH  61  84
ENDBRANCH  35  36
ENDBRANCH  27  30
ENDBRANCH  25  26
ENDBRANCH  24  25
ENDBRANCH   1  24
TORSDOF 13
ENDMDL
MODEL 2
REMARK VINA RESULT:     -12.6      1.168      1.654
REMARK SMILES CSc1ncc(Cl)c(C(=O)Nc2ccsc2C(=O)NCCCNC(=O)c2ccc(-c3c4nc(c(-c5c(F)c(F)c(F)c(F)c5F)c5ccc([nH]5)c(-c5c(F)c(F)c(F)c(F)c5F)c5nc(c(-c6c(F)c(F)c(F)c(F)c6F)c6ccc3[nH]6)C=C5)C=C4)cc2)n1
REMARK SMILES IDX 20 1 19 2 17 3 18 4 16 6 12 7 13 8 14 9 15 10 11 11 9 12
REMARK SMILES IDX 10 13 8 15 3 16 4 17 89 18 5 19 6 20 7 21 2 22 1 23 21 24
REMARK SMILES IDX 22 25 23 26 24 27 25 29 26 30 27 31 88 32 28 33 87 34 29 35
REMARK SMILES IDX 30 36 31 37 81 38 32 39 86 40 80 41 82 42 33 43 85 44 79 45
REMARK SMILES IDX 78 46 34 48 66 49 46 50 65 51 47 52 50 53 64 54 83 55 48 56
REMARK SMILES IDX 49 57 63 59 84 60 51 61 35 62 36 63 44 64 37 65 38 66 42 67
REMARK SMILES IDX 45 68 39 69 40 70 43 71 41 72 67 73 68 74 76 75 69 76 70 77
REMARK SMILES IDX 74 78 77 79 71 80 72 81 75 82 73 83 52 84 53 85 61 86 54 87
REMARK SMILES IDX 55 88 59 89 62 90 56 91 57 92 60 93 58 94
REMARK H PARENT 19 5 11 14 23 28 82 47 50 58
REMARK Flexibility Score: inf
ROOT
ATOM      1  C   UNL A   1      31.553  30.723  26.247  1.00  0.00     0.118 C 
ENDROOT
BRANCH   1   2
ATOM      2  N   UNL A   1      32.734  30.038  26.703  1.00  0.00    -0.351 N 
ATOM      3  C   UNL A   1      33.410  28.946  26.186  1.00  0.00     0.263 C 
ATOM      4  O   UNL A   1      34.440  28.682  26.819  1.00  0.00    -0.268 OA
ATOM      5  H   UNL A   1      33.128  30.409  27.524  1.00  0.00     0.163 HD
BRANCH   3   6
ATOM      6  C   UNL A   1      32.951  28.127  25.045  1.00  0.00     0.115 A 
ATOM      7  C   UNL A   1      32.271  26.919  24.860  1.00  0.00     0.065 A 
ATOM      8  C   UNL A   1      32.214  26.504  23.492  1.00  0.00     0.038 A 
ATOM      9  C   UNL A   1      32.834  27.389  22.649  1.00  0.00     0.068 A 
ATOM     10  S   UNL A   1      33.456  28.730  23.484  1.00  0.00    -0.137 S 
BRANCH   7  11
ATOM     11  N   UNL A   1      31.684  26.181  25.864  1.00  0.00    -0.319 N 
ATOM     12  C   UNL A   1      31.875  24.852  26.204  1.00  0.00     0.276 C 
ATOM     13  O   UNL A   1      31.321  24.478  27.244  1.00  0.00    -0.267 OA
ATOM     14  H   UNL A   1      31.032  26.669  26.419  1.00  0.00     0.170 HD
BRANCH  12  15
ATOM     15  C   UNL A   1      32.747  23.870  25.469  1.00  0.00     0.151 A 
ATOM     16  C   UNL A   1      34.952  23.202  25.282  1.00  0.00     0.188 A 
ATOM     17  N   UNL A   1      34.659  22.238  24.402  1.00  0.00    -0.230 NA
ATOM     18  N   UNL A   1      34.039  23.965  25.886  1.00  0.00    -0.216 NA
ATOM     19  C   UNL A   1      33.379  22.187  23.988  1.00  0.00     0.137 A 
ATOM     20  C   UNL A   1      32.393  23.055  24.410  1.00  0.00     0.090 A 
ATOM     21  Cl  UNL A   1      30.998  23.162  23.418  1.00  0.00    -0.080 Cl
BRANCH  16  22
ATOM     22  S   UNL A   1      36.642  23.703  25.448  1.00  0.00    -0.090 SA
ATOM     23  C   UNL A   1      37.442  22.090  25.407  1.00  0.00     0.094 C 
ENDBRANCH  16  22
ENDBRANCH  12  15
ENDBRANCH   7  11
ENDBRANCH   3   6
ENDBRANCH   1   2
BRANCH   1  24
ATOM     24  C   UNL A   1      31.421  32.201  26.550  1.00  0.00     0.042 C 
BRANCH  24  25
ATOM     25  C   UNL A   1      32.631  32.865  27.166  1.00  0.00     0.118 C 
BRANCH  25  26
ATOM     26  N   UNL A   1      32.387  34.216  27.654  1.00  0.00    -0.352 N 
ATOM     27  C   UNL A   1      32.984  34.955  28.650  1.00  0.00     0.251 C 
ATOM     28  H   UNL A   1      31.660  34.687  27.186  1.00  0.00     0.163 HD
ATOM     29  O   UNL A   1      32.518  36.060  28.935  1.00  0.00    -0.269 OA
BRANCH  27  30
ATOM     30  C   UNL A   1      34.147  34.443  29.411  1.00  0.00     0.039 A 
ATOM     31  C   UNL A   1      33.936  33.829  30.650  1.00  0.00     0.014 A 
ATOM     32  C   UNL A   1      35.450  34.575  28.935  1.00  0.00     0.014 A 
ATOM     33  C   UNL A   1      35.012  33.277  31.354  1.00  0.00     0.010 A 
ATOM     34  C   UNL A   1      36.495  33.905  29.560  1.00  0.00     0.010 A 
ATOM     35  C   UNL A   1      36.296  33.263  30.790  1.00  0.00    -0.014 A 
BRANCH  35  36
ATOM     36  C   UNL A   1      37.455  32.626  31.473  1.00  0.00     0.031 A 
ATOM     37  C   UNL A   1      38.176  31.475  30.814  1.00  0.00     0.074 A 
ATOM     38  C   UNL A   1      37.811  33.021  32.712  1.00  0.00     0.049 A 
ATOM     39  N   UNL A   1      39.130  30.713  31.286  1.00  0.00    -0.248 NA
ATOM     40  C   UNL A   1      37.739  31.106  29.455  1.00  0.00     0.031 C 
ATOM     41  C   UNL A   1      37.162  34.082  33.483  1.00  0.00     0.029 A 
ATOM     42  N   UNL A   1      38.802  32.566  33.548  1.00  0.00    -0.354 N 
ATOM     43  C   UNL A   1      39.381  29.766  30.300  1.00  0.00     0.074 A 
ATOM     44  C   UNL A   1      38.440  30.005  29.230  1.00  0.00     0.031 C 
ATOM     45  C   UNL A   1      37.787  34.215  34.664  1.00  0.00     0.029 A 
ATOM     46  C   UNL A   1      38.850  33.220  34.756  1.00  0.00     0.049 A 
ATOM     47  H   UNL A   1      39.420  31.839  33.304  1.00  0.00     0.167 HD
ATOM     48  C   UNL A   1      40.332  28.802  30.274  1.00  0.00     0.037 A 
ATOM     49  C   UNL A   1      39.653  33.030  35.820  1.00  0.00     0.037 A 
ATOM     50  C   UNL A   1      41.300  28.597  31.317  1.00  0.00     0.049 A 
ATOM     51  C   UNL A   1      40.708  31.956  35.758  1.00  0.00     0.074 A 
ATOM     52  C   UNL A   1      42.351  27.698  31.352  1.00  0.00     0.029 A 
ATOM     53  N   UNL A   1      41.339  29.306  32.508  1.00  0.00    -0.354 N 
ATOM     54  N   UNL A   1      40.983  31.118  34.788  1.00  0.00    -0.248 NA
ATOM     55  C   UNL A   1      41.572  31.807  36.938  1.00  0.00     0.031 C 
ATOM     56  C   UNL A   1      42.992  27.823  32.588  1.00  0.00     0.029 A 
ATOM     57  C   UNL A   1      42.382  28.847  33.295  1.00  0.00     0.049 A 
ATOM     58  H   UNL A   1      40.717  30.029  32.757  1.00  0.00     0.167 HD
ATOM     59  C   UNL A   1      42.072  30.373  35.224  1.00  0.00     0.074 A 
ATOM     60  C   UNL A   1      42.416  30.867  36.539  1.00  0.00     0.031 C 
ATOM     61  C   UNL A   1      42.726  29.368  34.592  1.00  0.00     0.037 A 
BRANCH  48  62
ATOM     62  C   UNL A   1      40.388  27.900  29.074  1.00  0.00     0.064 A 
ATOM     63  C   UNL A   1      39.638  26.716  29.004  1.00  0.00     0.173 A 
ATOM     64  C   UNL A   1      41.151  28.258  27.952  1.00  0.00     0.173 A 
ATOM     65  F   UNL A   1      38.902  26.319  30.053  1.00  0.00    -0.203 F 
ATOM     66  C   UNL A   1      39.668  25.914  27.866  1.00  0.00     0.198 A 
ATOM     67  C   UNL A   1      41.152  27.471  26.802  1.00  0.00     0.198 A 
ATOM     68  F   UNL A   1      41.884  29.382  27.962  1.00  0.00    -0.203 F 
ATOM     69  F   UNL A   1      38.978  24.765  27.840  1.00  0.00    -0.200 F 
ATOM     70  C   UNL A   1      40.415  26.298  26.763  1.00  0.00     0.200 A 
ATOM     71  F   UNL A   1      41.862  27.852  25.732  1.00  0.00    -0.200 F 
ATOM     72  F   UNL A   1      40.427  25.534  25.662  1.00  0.00    -0.200 F 
ENDBRANCH  48  62
BRANCH  49  73
ATOM     73  C   UNL A   1      39.509  33.878  37.035  1.00  0.00     0.064 A 
ATOM     74  C   UNL A   1      38.752  33.444  38.133  1.00  0.00     0.173 A 
ATOM     75  C   UNL A   1      40.088  35.153  37.110  1.00  0.00     0.173 A 
ATOM     76  F   UNL A   1      38.159  32.241  38.105  1.00  0.00    -0.203 F 
ATOM     77  C   UNL A   1      38.546  34.267  39.239  1.00  0.00     0.198 A 
ATOM     78  C   UNL A   1      39.911  35.961  38.231  1.00  0.00     0.198 A 
ATOM     79  F   UNL A   1      40.826  35.618  36.091  1.00  0.00    -0.203 F 
ATOM     80  F   UNL A   1      37.757  33.854  40.242  1.00  0.00    -0.200 F 
ATOM     81  C   UNL A   1      39.128  35.523  39.290  1.00  0.00     0.200 A 
ATOM     82  F   UNL A   1      40.487  37.170  38.282  1.00  0.00    -0.200 F 
ATOM     83  F   UNL A   1      38.923  36.318  40.349  1.00  0.00    -0.200 F 
ENDBRANCH  49  73
BRANCH  61  84
ATOM     84  C   UNL A   1      43.920  28.777  35.285  1.00  0.00     0.064 A 
ATOM     85  C   UNL A   1      43.811  27.662  36.129  1.00  0.00     0.173 A 
ATOM     86  C   UNL A   1      45.200  29.310  35.065  1.00  0.00     0.173 A 
ATOM     87  F   UNL A   1      42.609  27.121  36.382  1.00  0.00    -0.203 F 
ATOM     88  C   UNL A   1      44.934  27.123  36.752  1.00  0.00     0.198 A 
ATOM     89  C   UNL A   1      46.324  28.746  35.659  1.00  0.00     0.198 A 
ATOM     90  F   UNL A   1      45.362  30.369  34.258  1.00  0.00    -0.203 F 
ATOM     91  F   UNL A   1      44.799  26.092  37.597  1.00  0.00    -0.200 F 
ATOM     92  C   UNL A   1      46.190  27.660  36.509  1.00  0.00     0.200 A 
ATOM     93  F   UNL A   1      47.539  29.254  35.408  1.00  0.00    -0.200 F 
ATOM     94  F   UNL A   1      47.270  27.133  37.102  1.00  0.00    -0.200 F 
ENDBRANCH  61  84
ENDBRANCH  35  36
ENDBRANCH  27  30
ENDBRANCH  25  26
ENDBRANCH  24  25
ENDBRANCH   1  24
TORSDOF 13
ENDMDL
MODEL 3
REMARK VINA RESULT:     -12.6      2.045      7.723
REMARK SMILES CSc1ncc(Cl)c(C(=O)Nc2ccsc2C(=O)NCCCNC(=O)c2ccc(-c3c4nc(c(-c5c(F)c(F)c(F)c(F)c5F)c5ccc([nH]5)c(-c5c(F)c(F)c(F)c(F)c5F)c5nc(c(-c6c(F)c(F)c(F)c(F)c6F)c6ccc3[nH]6)C=C5)C=C4)cc2)n1
REMARK SMILES IDX 20 1 19 2 17 3 18 4 16 6 12 7 13 8 14 9 15 10 11 11 9 12
REMARK SMILES IDX 10 13 8 15 3 16 4 17 89 18 5 19 6 20 7 21 2 22 1 23 21 24
REMARK SMILES IDX 22 25 23 26 24 27 25 29 26 30 27 31 88 32 28 33 87 34 29 35
REMARK SMILES IDX 30 36 31 37 81 38 32 39 86 40 80 41 82 42 33 43 85 44 79 45
REMARK SMILES IDX 78 46 34 48 66 49 46 50 65 51 47 52 50 53 64 54 83 55 48 56
REMARK SMILES IDX 49 57 63 59 84 60 51 61 35 62 36 63 44 64 37 65 38 66 42 67
REMARK SMILES IDX 45 68 39 69 40 70 43 71 41 72 67 73 68 74 76 75 69 76 70 77
REMARK SMILES IDX 74 78 77 79 71 80 72 81 75 82 73 83 52 84 53 85 61 86 54 87
REMARK SMILES IDX 55 88 59 89 62 90 56 91 57 92 60 93 58 94
REMARK H PARENT 19 5 11 14 23 28 82 47 50 58
REMARK Flexibility Score: inf
ROOT
ATOM      1  C   UNL A   1      31.994  27.599  26.732  1.00  0.00     0.118 C 
ENDROOT
BRANCH   1   2
ATOM      2  N   UNL A   1      33.146  26.763  26.523  1.00  0.00    -0.351 N 
ATOM      3  C   UNL A   1      33.458  25.880  25.503  1.00  0.00     0.263 C 
ATOM      4  O   UNL A   1      34.587  25.387  25.629  1.00  0.00    -0.268 OA
ATOM      5  H   UNL A   1      33.831  26.829  27.227  1.00  0.00     0.163 HD
BRANCH   3   6
ATOM      6  C   UNL A   1      32.548  25.499  24.403  1.00  0.00     0.115 A 
ATOM      7  C   UNL A   1      31.438  24.665  24.237  1.00  0.00     0.065 A 
ATOM      8  C   UNL A   1      31.012  24.553  22.876  1.00  0.00     0.038 A 
ATOM      9  C   UNL A   1      31.781  25.298  22.021  1.00  0.00     0.068 A 
ATOM     10  S   UNL A   1      32.992  26.156  22.847  1.00  0.00    -0.137 S 
BRANCH   7  11
ATOM     11  N   UNL A   1      30.778  24.014  25.256  1.00  0.00    -0.319 N 
ATOM     12  C   UNL A   1      31.139  22.867  25.944  1.00  0.00     0.276 C 
ATOM     13  O   UNL A   1      30.430  22.576  26.915  1.00  0.00    -0.267 OA
ATOM     14  H   UNL A   1      29.926  24.422  25.535  1.00  0.00     0.170 HD
BRANCH  12  15
ATOM     15  C   UNL A   1      32.343  22.010  25.661  1.00  0.00     0.151 A 
ATOM     16  C   UNL A   1      32.996  20.162  24.436  1.00  0.00     0.188 A 
ATOM     17  N   UNL A   1      34.267  20.252  24.845  1.00  0.00    -0.230 NA
ATOM     18  N   UNL A   1      32.047  21.046  24.747  1.00  0.00    -0.216 NA
ATOM     19  C   UNL A   1      34.524  21.196  25.768  1.00  0.00     0.137 A 
ATOM     20  C   UNL A   1      33.571  22.041  26.298  1.00  0.00     0.090 A 
ATOM     21  Cl  UNL A   1      33.966  22.799  27.785  1.00  0.00    -0.080 Cl
BRANCH  16  22
ATOM     22  S   UNL A   1      32.458  18.649  23.689  1.00  0.00    -0.090 SA
ATOM     23  C   UNL A   1      32.460  17.579  25.137  1.00  0.00     0.094 C 
ENDBRANCH  16  22
ENDBRANCH  12  15
ENDBRANCH   7  11
ENDBRANCH   3   6
ENDBRANCH   1   2
BRANCH   1  24
ATOM     24  C   UNL A   1      31.759  28.748  25.775  1.00  0.00     0.042 C 
BRANCH  24  25
ATOM     25  C   UNL A   1      32.900  29.728  25.619  1.00  0.00     0.118 C 
BRANCH  25  26
ATOM     26  N   UNL A   1      32.642  31.041  26.195  1.00  0.00    -0.352 N 
ATOM     27  C   UNL A   1      33.296  31.761  27.168  1.00  0.00     0.251 C 
ATOM     28  H   UNL A   1      31.855  31.496  25.819  1.00  0.00     0.163 HD
ATOM     29  O   UNL A   1      32.810  32.827  27.550  1.00  0.00    -0.269 OA
BRANCH  27  30
ATOM     30  C   UNL A   1      34.547  31.272  27.794  1.00  0.00     0.039 A 
ATOM     31  C   UNL A   1      35.609  32.163  27.983  1.00  0.00     0.014 A 
ATOM     32  C   UNL A   1      34.702  29.943  28.180  1.00  0.00     0.014 A 
ATOM     33  C   UNL A   1      36.774  31.741  28.634  1.00  0.00     0.010 A 
ATOM     34  C   UNL A   1      35.795  29.560  28.949  1.00  0.00     0.010 A 
ATOM     35  C   UNL A   1      36.857  30.447  29.171  1.00  0.00    -0.014 A 
BRANCH  35  36
ATOM     36  C   UNL A   1      38.049  29.978  29.929  1.00  0.00     0.031 A 
ATOM     37  C   UNL A   1      38.287  30.474  31.335  1.00  0.00     0.074 A 
ATOM     38  C   UNL A   1      38.957  29.178  29.335  1.00  0.00     0.049 A 
ATOM     39  N   UNL A   1      39.316  30.279  32.121  1.00  0.00    -0.248 NA
ATOM     40  C   UNL A   1      37.246  31.337  31.923  1.00  0.00     0.031 C 
ATOM     41  C   UNL A   1      38.876  28.675  27.963  1.00  0.00     0.029 A 
ATOM     42  N   UNL A   1      40.137  28.657  29.808  1.00  0.00    -0.354 N 
ATOM     43  C   UNL A   1      39.057  31.013  33.273  1.00  0.00     0.074 A 
ATOM     44  C   UNL A   1      37.808  31.710  33.061  1.00  0.00     0.031 C 
ATOM     45  C   UNL A   1      39.941  27.896  27.715  1.00  0.00     0.029 A 
ATOM     46  C   UNL A   1      40.806  27.882  28.890  1.00  0.00     0.049 A 
ATOM     47  H   UNL A   1      40.471  28.822  30.719  1.00  0.00     0.167 HD
ATOM     48  C   UNL A   1      39.780  31.078  34.416  1.00  0.00     0.037 A 
ATOM     49  C   UNL A   1      41.988  27.243  28.984  1.00  0.00     0.037 A 
ATOM     50  C   UNL A   1      40.996  30.346  34.643  1.00  0.00     0.049 A 
ATOM     51  C   UNL A   1      42.765  27.326  30.272  1.00  0.00     0.074 A 
ATOM     52  C   UNL A   1      41.762  30.284  35.794  1.00  0.00     0.029 A 
ATOM     53  N   UNL A   1      41.620  29.542  33.701  1.00  0.00    -0.354 N 
ATOM     54  N   UNL A   1      42.470  27.964  31.379  1.00  0.00    -0.248 NA
ATOM     55  C   UNL A   1      44.037  26.591  30.327  1.00  0.00     0.031 C 
ATOM     56  C   UNL A   1      42.880  29.488  35.531  1.00  0.00     0.029 A 
ATOM     57  C   UNL A   1      42.775  28.999  34.239  1.00  0.00     0.049 A 
ATOM     58  H   UNL A   1      41.290  29.381  32.788  1.00  0.00     0.167 HD
ATOM     59  C   UNL A   1      43.496  27.675  32.271  1.00  0.00     0.074 A 
ATOM     60  C   UNL A   1      44.412  26.794  31.581  1.00  0.00     0.031 C 
ATOM     61  C   UNL A   1      43.664  28.103  33.546  1.00  0.00     0.037 A 
BRANCH  48  62
ATOM     62  C   UNL A   1      39.271  31.960  35.522  1.00  0.00     0.064 A 
ATOM     63  C   UNL A   1      38.421  31.469  36.525  1.00  0.00     0.173 A 
ATOM     64  C   UNL A   1      39.691  33.295  35.615  1.00  0.00     0.173 A 
ATOM     65  F   UNL A   1      37.978  30.204  36.477  1.00  0.00    -0.203 F 
ATOM     66  C   UNL A   1      37.994  32.288  37.567  1.00  0.00     0.198 A 
ATOM     67  C   UNL A   1      39.290  34.102  36.677  1.00  0.00     0.198 A 
ATOM     68  F   UNL A   1      40.508  33.814  34.686  1.00  0.00    -0.203 F 
ATOM     69  F   UNL A   1      37.148  31.809  38.489  1.00  0.00    -0.200 F 
ATOM     70  C   UNL A   1      38.438  33.599  37.648  1.00  0.00     0.200 A 
ATOM     71  F   UNL A   1      39.732  35.364  36.763  1.00  0.00    -0.200 F 
ATOM     72  F   UNL A   1      38.041  34.381  38.663  1.00  0.00    -0.200 F 
ENDBRANCH  48  62
BRANCH  49  73
ATOM     73  C   UNL A   1      42.513  26.455  27.834  1.00  0.00     0.064 A 
ATOM     74  C   UNL A   1      43.410  27.024  26.919  1.00  0.00     0.173 A 
ATOM     75  C   UNL A   1      42.099  25.136  27.602  1.00  0.00     0.173 A 
ATOM     76  F   UNL A   1      43.821  28.291  27.083  1.00  0.00    -0.203 F 
ATOM     77  C   UNL A   1      43.841  26.319  25.797  1.00  0.00     0.198 A 
ATOM     78  C   UNL A   1      42.558  24.419  26.499  1.00  0.00     0.198 A 
ATOM     79  F   UNL A   1      41.245  24.540  28.448  1.00  0.00    -0.203 F 
ATOM     80  F   UNL A   1      44.642  26.914  24.901  1.00  0.00    -0.200 F 
ATOM     81  C   UNL A   1      43.418  25.016  25.589  1.00  0.00     0.200 A 
ATOM     82  F   UNL A   1      42.157  23.154  26.309  1.00  0.00    -0.200 F 
ATOM     83  F   UNL A   1      43.825  24.341  24.505  1.00  0.00    -0.200 F 
ENDBRANCH  49  73
BRANCH  61  84
ATOM     84  C   UNL A   1      44.851  27.577  34.301  1.00  0.00     0.064 A 
ATOM     85  C   UNL A   1      46.071  28.267  34.339  1.00  0.00     0.173 A 
ATOM     86  C   UNL A   1      44.747  26.385  35.035  1.00  0.00     0.173 A 
ATOM     87  F   UNL A   1      46.226  29.406  33.646  1.00  0.00    -0.203 F 
ATOM     88  C   UNL A   1      47.154  27.765  35.057  1.00  0.00     0.198 A 
ATOM     89  C   UNL A   1      45.820  25.906  35.781  1.00  0.00     0.198 A 
ATOM     90  F   UNL A   1      43.599  25.692  35.042  1.00  0.00    -0.203 F 
ATOM     91  F   UNL A   1      48.328  28.412  35.033  1.00  0.00    -0.200 F 
ATOM     92  C   UNL A   1      47.025  26.591  35.784  1.00  0.00     0.200 A 
ATOM     93  F   UNL A   1      45.687  24.783  36.498  1.00  0.00    -0.200 F 
ATOM     94  F   UNL A   1      48.066  26.116  36.481  1.00  0.00    -0.200 F 
ENDBRANCH  61  84
ENDBRANCH  35  36
ENDBRANCH  27  30
ENDBRANCH  25  26
ENDBRANCH  24  25
ENDBRANCH   1  24
TORSDOF 13
ENDMDL
