MODEL 1
REMARK VINA RESULT:     -12.9      0.000      0.000
REMARK SMILES C#Cc1ccc2c(c1)C=C(C(=O)NCCCNC(=O)c1ccc(-c3c4nc(c(-c5c(F)c(F)c(F)c(F)c5F)c5ccc([nH]5)c(-c5c(F)c(F)c(F)c(F)c5F)c5nc(c(-c6c(F)c(F)c(F)c(F)c6F)c6ccc3[nH]6)C=C5)C=C4)cc1)[C@@H](C(F)(F)F)O2
REMARK SMILES IDX 15 1 14 2 13 3 11 4 12 5 10 7 3 8 4 9 8 10 5 11 7 12 6 13
REMARK SMILES IDX 9 14 88 15 83 16 2 17 1 18 84 19 85 20 86 21 87 22 16 23
REMARK SMILES IDX 17 24 18 25 19 27 20 28 21 29 82 30 22 31 81 32 23 33 24 34
REMARK SMILES IDX 25 35 75 36 26 37 80 38 74 39 76 40 27 41 79 42 73 43 72 44
REMARK SMILES IDX 28 46 60 47 40 48 59 49 41 50 44 51 58 52 77 53 42 54 43 55
REMARK SMILES IDX 57 57 78 58 45 59 29 60 30 61 38 62 31 63 32 64 36 65 39 66
REMARK SMILES IDX 33 67 34 68 37 69 35 70 61 71 62 72 70 73 63 74 64 75 68 76
REMARK SMILES IDX 71 77 65 78 66 79 69 80 67 81 46 82 47 83 55 84 48 85 49 86
REMARK SMILES IDX 53 87 56 88 50 89 51 90 54 91 52 92
REMARK H PARENT 13 6 17 26 76 45 44 56
REMARK Flexibility Score: inf
ROOT
ATOM      1  C   UNL A   1      33.032  29.147  24.882  1.00  0.00     0.042 C 
ENDROOT
BRANCH   1   2
ATOM      2  C   UNL A   1      31.824  28.865  24.011  1.00  0.00     0.118 C 
BRANCH   2   3
ATOM      3  N   UNL A   1      30.979  27.822  24.576  1.00  0.00    -0.352 N 
ATOM      4  C   UNL A   1      31.040  26.479  24.742  1.00  0.00     0.251 C 
ATOM      5  O   UNL A   1      30.070  25.973  25.313  1.00  0.00    -0.270 OA
ATOM      6  H   UNL A   1      30.140  28.192  24.932  1.00  0.00     0.163 HD
BRANCH   4   7
ATOM      7  C   UNL A   1      32.168  25.618  24.284  1.00  0.00     0.067 C 
ATOM      8  C   UNL A   1      36.551  23.745  25.082  1.00  0.00     0.025 A 
ATOM      9  C   UNL A   1      36.411  22.942  23.947  1.00  0.00     0.021 A 
ATOM     10  C   UNL A   1      35.512  24.598  25.475  1.00  0.00     0.029 A 
ATOM     11  C   UNL A   1      35.235  22.986  23.205  1.00  0.00     0.048 A 
ATOM     12  C   UNL A   1      34.331  24.648  24.729  1.00  0.00     0.018 A 
ATOM     13  C   UNL A   1      34.209  23.841  23.596  1.00  0.00     0.128 A 
ATOM     14  C   UNL A   1      33.206  25.487  25.131  1.00  0.00     0.025 C 
ATOM     15  O   UNL A   1      33.079  23.798  22.835  1.00  0.00    -0.475 OA
ATOM     16  C   UNL A   1      32.190  24.934  22.949  1.00  0.00     0.314 C 
BRANCH   8  17
ATOM     17  C   UNL A   1      37.757  23.672  25.844  1.00  0.00    -0.070 C 
ATOM     18  C   UNL A   1      38.753  23.606  26.514  1.00  0.00     0.010 C 
ENDBRANCH   8  17
BRANCH  16  19
ATOM     19  C   UNL A   1      32.466  25.913  21.789  1.00  0.00     0.429 C 
ATOM     20  F   UNL A   1      33.467  26.766  22.125  1.00  0.00    -0.167 F 
ATOM     21  F   UNL A   1      32.866  25.286  20.656  1.00  0.00    -0.167 F 
ATOM     22  F   UNL A   1      31.387  26.656  21.461  1.00  0.00    -0.167 F 
ENDBRANCH  16  19
ENDBRANCH   4   7
ENDBRANCH   2   3
ENDBRANCH   1   2
BRANCH   1  23
ATOM     23  C   UNL A   1      32.628  29.422  26.319  1.00  0.00     0.118 C 
BRANCH  23  24
ATOM     24  N   UNL A   1      32.434  30.852  26.575  1.00  0.00    -0.352 N 
ATOM     25  C   UNL A   1      33.204  31.748  27.276  1.00  0.00     0.251 C 
ATOM     26  H   UNL A   1      31.617  31.234  26.179  1.00  0.00     0.163 HD
ATOM     27  O   UNL A   1      32.759  32.852  27.569  1.00  0.00    -0.269 OA
BRANCH  25  28
ATOM     28  C   UNL A   1      34.559  31.354  27.699  1.00  0.00     0.039 A 
ATOM     29  C   UNL A   1      34.823  30.020  27.999  1.00  0.00     0.014 A 
ATOM     30  C   UNL A   1      35.550  32.323  27.861  1.00  0.00     0.014 A 
ATOM     31  C   UNL A   1      35.961  29.702  28.716  1.00  0.00     0.010 A 
ATOM     32  C   UNL A   1      36.769  31.965  28.441  1.00  0.00     0.010 A 
ATOM     33  C   UNL A   1      36.954  30.668  28.943  1.00  0.00    -0.014 A 
BRANCH  33  34
ATOM     34  C   UNL A   1      38.161  30.282  29.717  1.00  0.00     0.031 A 
ATOM     35  C   UNL A   1      38.344  30.736  31.140  1.00  0.00     0.074 A 
ATOM     36  C   UNL A   1      39.056  29.447  29.152  1.00  0.00     0.049 A 
ATOM     37  N   UNL A   1      39.323  30.469  31.968  1.00  0.00    -0.248 NA
ATOM     38  C   UNL A   1      37.305  31.608  31.711  1.00  0.00     0.031 C 
ATOM     39  C   UNL A   1      38.971  28.925  27.785  1.00  0.00     0.029 A 
ATOM     40  N   UNL A   1      40.188  28.863  29.657  1.00  0.00    -0.354 N 
ATOM     41  C   UNL A   1      39.028  31.152  33.142  1.00  0.00     0.074 A 
ATOM     42  C   UNL A   1      37.801  31.881  32.909  1.00  0.00     0.031 C 
ATOM     43  C   UNL A   1      39.962  28.048  27.585  1.00  0.00     0.029 A 
ATOM     44  C   UNL A   1      40.808  28.016  28.771  1.00  0.00     0.049 A 
ATOM     45  H   UNL A   1      40.524  29.033  30.567  1.00  0.00     0.167 HD
ATOM     46  C   UNL A   1      39.710  31.152  34.311  1.00  0.00     0.037 A 
ATOM     47  C   UNL A   1      41.948  27.309  28.887  1.00  0.00     0.037 A 
ATOM     48  C   UNL A   1      40.918  30.401  34.540  1.00  0.00     0.049 A 
ATOM     49  C   UNL A   1      42.720  27.384  30.172  1.00  0.00     0.074 A 
ATOM     50  C   UNL A   1      41.669  30.316  35.699  1.00  0.00     0.029 A 
ATOM     51  N   UNL A   1      41.551  29.609  33.593  1.00  0.00    -0.354 N 
ATOM     52  N   UNL A   1      42.415  28.013  31.281  1.00  0.00    -0.248 NA
ATOM     53  C   UNL A   1      43.995  26.659  30.222  1.00  0.00     0.031 C 
ATOM     54  C   UNL A   1      42.792  29.531  35.434  1.00  0.00     0.029 A 
ATOM     55  C   UNL A   1      42.706  29.064  34.132  1.00  0.00     0.049 A 
ATOM     56  H   UNL A   1      41.228  29.457  32.675  1.00  0.00     0.167 HD
ATOM     57  C   UNL A   1      43.451  27.749  32.166  1.00  0.00     0.074 A 
ATOM     58  C   UNL A   1      44.380  26.880  31.471  1.00  0.00     0.031 C 
ATOM     59  C   UNL A   1      43.618  28.193  33.434  1.00  0.00     0.037 A 
BRANCH  46  60
ATOM     60  C   UNL A   1      39.182  31.990  35.441  1.00  0.00     0.064 A 
ATOM     61  C   UNL A   1      38.391  31.442  36.461  1.00  0.00     0.173 A 
ATOM     62  C   UNL A   1      39.543  33.343  35.550  1.00  0.00     0.173 A 
ATOM     63  F   UNL A   1      38.007  30.158  36.402  1.00  0.00    -0.203 F 
ATOM     64  C   UNL A   1      37.969  32.219  37.538  1.00  0.00     0.198 A 
ATOM     65  C   UNL A   1      39.149  34.108  36.645  1.00  0.00     0.198 A 
ATOM     66  F   UNL A   1      40.305  33.918  34.607  1.00  0.00    -0.203 F 
ATOM     67  F   UNL A   1      37.182  31.681  38.481  1.00  0.00    -0.200 F 
ATOM     68  C   UNL A   1      38.358  33.546  37.636  1.00  0.00     0.200 A 
ATOM     69  F   UNL A   1      39.543  35.384  36.748  1.00  0.00    -0.200 F 
ATOM     70  F   UNL A   1      37.970  34.285  38.684  1.00  0.00    -0.200 F 
ENDBRANCH  46  60
BRANCH  47  71
ATOM     71  C   UNL A   1      42.415  26.483  27.743  1.00  0.00     0.064 A 
ATOM     72  C   UNL A   1      43.289  27.010  26.783  1.00  0.00     0.173 A 
ATOM     73  C   UNL A   1      42.029  25.140  27.606  1.00  0.00     0.173 A 
ATOM     74  F   UNL A   1      43.674  28.292  26.860  1.00  0.00    -0.203 F 
ATOM     75  C   UNL A   1      43.753  26.228  25.727  1.00  0.00     0.198 A 
ATOM     76  C   UNL A   1      42.524  24.349  26.573  1.00  0.00     0.198 A 
ATOM     77  F   UNL A   1      41.200  24.584  28.502  1.00  0.00    -0.203 F 
ATOM     78  F   UNL A   1      44.559  26.767  24.803  1.00  0.00    -0.200 F 
ATOM     79  C   UNL A   1      43.380  24.896  25.630  1.00  0.00     0.200 A 
ATOM     80  F   UNL A   1      42.179  23.055  26.498  1.00  0.00    -0.200 F 
ATOM     81  F   UNL A   1      43.843  24.139  24.626  1.00  0.00    -0.200 F 
ENDBRANCH  47  71
BRANCH  59  82
ATOM     82  C   UNL A   1      44.844  27.745  34.176  1.00  0.00     0.064 A 
ATOM     83  C   UNL A   1      44.860  26.551  34.911  1.00  0.00     0.173 A 
ATOM     84  C   UNL A   1      46.044  28.466  34.066  1.00  0.00     0.173 A 
ATOM     85  F   UNL A   1      43.736  25.833  35.056  1.00  0.00    -0.203 F 
ATOM     86  C   UNL A   1      46.030  26.097  35.513  1.00  0.00     0.198 A 
ATOM     87  C   UNL A   1      47.219  27.991  34.640  1.00  0.00     0.198 A 
ATOM     88  F   UNL A   1      46.085  29.610  33.368  1.00  0.00    -0.203 F 
ATOM     89  F   UNL A   1      46.014  24.969  36.236  1.00  0.00    -0.200 F 
ATOM     90  C   UNL A   1      47.210  26.809  35.365  1.00  0.00     0.200 A 
ATOM     91  F   UNL A   1      48.364  28.669  34.477  1.00  0.00    -0.200 F 
ATOM     92  F   UNL A   1      48.342  26.355  35.921  1.00  0.00    -0.200 F 
ENDBRANCH  59  82
ENDBRANCH  33  34
ENDBRANCH  25  28
ENDBRANCH  23  24
ENDBRANCH   1  23
TORSDOF 12
ENDMDL
MODEL 2
REMARK VINA RESULT:     -12.8      1.987      3.270
REMARK SMILES C#Cc1ccc2c(c1)C=C(C(=O)NCCCNC(=O)c1ccc(-c3c4nc(c(-c5c(F)c(F)c(F)c(F)c5F)c5ccc([nH]5)c(-c5c(F)c(F)c(F)c(F)c5F)c5nc(c(-c6c(F)c(F)c(F)c(F)c6F)c6ccc3[nH]6)C=C5)C=C4)cc1)[C@@H](C(F)(F)F)O2
REMARK SMILES IDX 15 1 14 2 13 3 11 4 12 5 10 7 3 8 4 9 8 10 5 11 7 12 6 13
REMARK SMILES IDX 9 14 88 15 83 16 2 17 1 18 84 19 85 20 86 21 87 22 16 23
REMARK SMILES IDX 17 24 18 25 19 27 20 28 21 29 82 30 22 31 81 32 23 33 24 34
REMARK SMILES IDX 25 35 75 36 26 37 80 38 74 39 76 40 27 41 79 42 73 43 72 44
REMARK SMILES IDX 28 46 60 47 40 48 59 49 41 50 44 51 58 52 77 53 42 54 43 55
REMARK SMILES IDX 57 57 78 58 45 59 29 60 30 61 38 62 31 63 32 64 36 65 39 66
REMARK SMILES IDX 33 67 34 68 37 69 35 70 61 71 62 72 70 73 63 74 64 75 68 76
REMARK SMILES IDX 71 77 65 78 66 79 69 80 67 81 46 82 47 83 55 84 48 85 49 86
REMARK SMILES IDX 53 87 56 88 50 89 51 90 54 91 52 92
REMARK H PARENT 13 6 17 26 76 45 44 56
REMARK Flexibility Score: inf
ROOT
ATOM      1  C   UNL A   1      31.668  31.921  26.847  1.00  0.00     0.042 C 
ENDROOT
BRANCH   1   2
ATOM      2  C   UNL A   1      31.986  30.448  26.687  1.00  0.00     0.118 C 
BRANCH   2   3
ATOM      3  N   UNL A   1      32.421  30.130  25.334  1.00  0.00    -0.352 N 
ATOM      4  C   UNL A   1      32.656  29.012  24.606  1.00  0.00     0.251 C 
ATOM      5  O   UNL A   1      33.009  29.206  23.439  1.00  0.00    -0.270 OA
ATOM      6  H   UNL A   1      32.588  30.944  24.809  1.00  0.00     0.163 HD
BRANCH   4   7
ATOM      7  C   UNL A   1      32.523  27.619  25.123  1.00  0.00     0.067 C 
ATOM      8  C   UNL A   1      34.508  23.293  25.958  1.00  0.00     0.025 A 
ATOM      9  C   UNL A   1      33.362  22.906  26.656  1.00  0.00     0.021 A 
ATOM     10  C   UNL A   1      34.605  24.584  25.422  1.00  0.00     0.029 A 
ATOM     11  C   UNL A   1      32.313  23.803  26.823  1.00  0.00     0.048 A 
ATOM     12  C   UNL A   1      33.551  25.487  25.584  1.00  0.00     0.018 A 
ATOM     13  C   UNL A   1      32.411  25.082  26.282  1.00  0.00     0.128 A 
ATOM     14  C   UNL A   1      33.630  26.855  25.083  1.00  0.00     0.025 C 
ATOM     15  O   UNL A   1      31.354  25.909  26.520  1.00  0.00    -0.475 OA
ATOM     16  C   UNL A   1      31.235  27.057  25.648  1.00  0.00     0.314 C 
BRANCH   8  17
ATOM     17  C   UNL A   1      35.585  22.366  25.814  1.00  0.00    -0.070 C 
ATOM     18  C   UNL A   1      36.474  21.571  25.667  1.00  0.00     0.010 C 
ENDBRANCH   8  17
BRANCH  16  19
ATOM     19  C   UNL A   1      30.229  26.737  24.522  1.00  0.00     0.429 C 
ATOM     20  F   UNL A   1      29.213  25.977  25.004  1.00  0.00    -0.167 F 
ATOM     21  F   UNL A   1      29.656  27.848  23.998  1.00  0.00    -0.167 F 
ATOM     22  F   UNL A   1      30.789  26.066  23.493  1.00  0.00    -0.167 F 
ENDBRANCH  16  19
ENDBRANCH   4   7
ENDBRANCH   2   3
ENDBRANCH   1   2
BRANCH   1  23
ATOM     23  C   UNL A   1      32.854  32.687  27.403  1.00  0.00     0.118 C 
BRANCH  23  24
ATOM     24  N   UNL A   1      32.532  34.093  27.661  1.00  0.00    -0.352 N 
ATOM     25  C   UNL A   1      33.016  34.961  28.610  1.00  0.00     0.251 C 
ATOM     26  H   UNL A   1      31.859  34.479  27.055  1.00  0.00     0.163 HD
ATOM     27  O   UNL A   1      32.457  36.035  28.811  1.00  0.00    -0.269 OA
BRANCH  25  28
ATOM     28  C   UNL A   1      34.193  34.573  29.407  1.00  0.00     0.039 A 
ATOM     29  C   UNL A   1      35.466  34.710  28.861  1.00  0.00     0.014 A 
ATOM     30  C   UNL A   1      34.024  34.011  30.673  1.00  0.00     0.014 A 
ATOM     31  C   UNL A   1      36.525  34.040  29.443  1.00  0.00     0.010 A 
ATOM     32  C   UNL A   1      35.131  33.476  31.337  1.00  0.00     0.010 A 
ATOM     33  C   UNL A   1      36.375  33.418  30.692  1.00  0.00    -0.014 A 
BRANCH  33  34
ATOM     34  C   UNL A   1      37.541  32.711  31.281  1.00  0.00     0.031 A 
ATOM     35  C   UNL A   1      38.026  33.042  32.668  1.00  0.00     0.074 A 
ATOM     36  C   UNL A   1      38.111  31.707  30.586  1.00  0.00     0.049 A 
ATOM     37  N   UNL A   1      39.011  32.505  33.343  1.00  0.00    -0.248 NA
ATOM     38  C   UNL A   1      37.328  34.117  33.390  1.00  0.00     0.031 C 
ATOM     39  C   UNL A   1      37.711  31.284  29.241  1.00  0.00     0.029 A 
ATOM     40  N   UNL A   1      39.118  30.839  30.918  1.00  0.00    -0.354 N 
ATOM     41  C   UNL A   1      39.060  33.186  34.553  1.00  0.00     0.074 A 
ATOM     42  C   UNL A   1      38.036  34.206  34.506  1.00  0.00     0.031 C 
ATOM     43  C   UNL A   1      38.413  30.199  28.893  1.00  0.00     0.029 A 
ATOM     44  C   UNL A   1      39.378  29.906  29.945  1.00  0.00     0.049 A 
ATOM     45  H   UNL A   1      39.608  30.880  31.771  1.00  0.00     0.167 HD
ATOM     46  C   UNL A   1      39.874  32.965  35.612  1.00  0.00     0.037 A 
ATOM     47  C   UNL A   1      40.308  28.934  29.889  1.00  0.00     0.037 A 
ATOM     48  C   UNL A   1      40.873  31.929  35.659  1.00  0.00     0.049 A 
ATOM     49  C   UNL A   1      41.243  28.758  31.049  1.00  0.00     0.074 A 
ATOM     50  C   UNL A   1      41.730  31.609  36.697  1.00  0.00     0.029 A 
ATOM     51  N   UNL A   1      41.151  31.048  34.623  1.00  0.00    -0.354 N 
ATOM     52  N   UNL A   1      41.261  29.393  32.197  1.00  0.00    -0.248 NA
ATOM     53  C   UNL A   1      42.290  27.739  30.909  1.00  0.00     0.031 C 
ATOM     54  C   UNL A   1      42.573  30.583  36.266  1.00  0.00     0.029 A 
ATOM     55  C   UNL A   1      42.195  30.210  34.986  1.00  0.00     0.049 A 
ATOM     56  H   UNL A   1      40.678  31.021  33.760  1.00  0.00     0.167 HD
ATOM     57  C   UNL A   1      42.308  28.841  32.921  1.00  0.00     0.074 A 
ATOM     58  C   UNL A   1      42.885  27.802  32.092  1.00  0.00     0.031 C 
ATOM     59  C   UNL A   1      42.754  29.173  34.156  1.00  0.00     0.037 A 
BRANCH  46  60
ATOM     60  C   UNL A   1      39.733  33.856  36.814  1.00  0.00     0.064 A 
ATOM     61  C   UNL A   1      40.345  35.116  36.875  1.00  0.00     0.173 A 
ATOM     62  C   UNL A   1      38.905  33.479  37.884  1.00  0.00     0.173 A 
ATOM     63  F   UNL A   1      41.154  35.524  35.886  1.00  0.00    -0.203 F 
ATOM     64  C   UNL A   1      40.145  35.959  37.968  1.00  0.00     0.198 A 
ATOM     65  C   UNL A   1      38.680  34.337  38.957  1.00  0.00     0.198 A 
ATOM     66  F   UNL A   1      38.288  32.288  37.875  1.00  0.00    -0.203 F 
ATOM     67  F   UNL A   1      40.771  37.143  38.020  1.00  0.00    -0.200 F 
ATOM     68  C   UNL A   1      39.305  35.574  39.001  1.00  0.00     0.200 A 
ATOM     69  F   UNL A   1      37.850  33.971  39.944  1.00  0.00    -0.200 F 
ATOM     70  F   UNL A   1      39.096  36.395  40.039  1.00  0.00    -0.200 F 
ENDBRANCH  46  60
BRANCH  47  71
ATOM     71  C   UNL A   1      40.392  28.070  28.682  1.00  0.00     0.064 A 
ATOM     72  C   UNL A   1      41.156  28.453  27.573  1.00  0.00     0.173 A 
ATOM     73  C   UNL A   1      39.741  26.827  28.627  1.00  0.00     0.173 A 
ATOM     74  F   UNL A   1      41.784  29.638  27.569  1.00  0.00    -0.203 F 
ATOM     75  C   UNL A   1      41.261  27.630  26.453  1.00  0.00     0.198 A 
ATOM     76  C   UNL A   1      39.877  25.989  27.524  1.00  0.00     0.198 A 
ATOM     77  F   UNL A   1      39.002  26.409  29.666  1.00  0.00    -0.203 F 
ATOM     78  F   UNL A   1      41.970  28.037  25.391  1.00  0.00    -0.200 F 
ATOM     79  C   UNL A   1      40.632  26.395  26.435  1.00  0.00     0.200 A 
ATOM     80  F   UNL A   1      39.287  24.785  27.522  1.00  0.00    -0.200 F 
ATOM     81  F   UNL A   1      40.750  25.595  25.365  1.00  0.00    -0.200 F 
ENDBRANCH  47  71
BRANCH  59  82
ATOM     82  C   UNL A   1      43.918  28.403  34.709  1.00  0.00     0.064 A 
ATOM     83  C   UNL A   1      45.233  28.875  34.587  1.00  0.00     0.173 A 
ATOM     84  C   UNL A   1      43.705  27.235  35.458  1.00  0.00     0.173 A 
ATOM     85  F   UNL A   1      45.490  29.979  33.870  1.00  0.00    -0.203 F 
ATOM     86  C   UNL A   1      46.293  28.202  35.188  1.00  0.00     0.198 A 
ATOM     87  C   UNL A   1      44.763  26.585  36.087  1.00  0.00     0.198 A 
ATOM     88  F   UNL A   1      42.466  26.746  35.613  1.00  0.00    -0.203 F 
ATOM     89  F   UNL A   1      47.545  28.654  35.031  1.00  0.00    -0.200 F 
ATOM     90  C   UNL A   1      46.055  27.067  35.949  1.00  0.00     0.200 A 
ATOM     91  F   UNL A   1      44.528  25.501  36.841  1.00  0.00    -0.200 F 
ATOM     92  F   UNL A   1      47.074  26.438  36.552  1.00  0.00    -0.200 F 
ENDBRANCH  59  82
ENDBRANCH  33  34
ENDBRANCH  25  28
ENDBRANCH  23  24
ENDBRANCH   1  23
TORSDOF 12
ENDMDL
MODEL 3
REMARK VINA RESULT:     -12.8      0.217      7.451
REMARK SMILES C#Cc1ccc2c(c1)C=C(C(=O)NCCCNC(=O)c1ccc(-c3c4nc(c(-c5c(F)c(F)c(F)c(F)c5F)c5ccc([nH]5)c(-c5c(F)c(F)c(F)c(F)c5F)c5nc(c(-c6c(F)c(F)c(F)c(F)c6F)c6ccc3[nH]6)C=C5)C=C4)cc1)[C@@H](C(F)(F)F)O2
REMARK SMILES IDX 15 1 14 2 13 3 11 4 12 5 10 7 3 8 4 9 8 10 5 11 7 12 6 13
REMARK SMILES IDX 9 14 88 15 83 16 2 17 1 18 84 19 85 20 86 21 87 22 16 23
REMARK SMILES IDX 17 24 18 25 19 27 20 28 21 29 82 30 22 31 81 32 23 33 24 34
REMARK SMILES IDX 25 35 75 36 26 37 80 38 74 39 76 40 27 41 79 42 73 43 72 44
REMARK SMILES IDX 28 46 60 47 40 48 59 49 41 50 44 51 58 52 77 53 42 54 43 55
REMARK SMILES IDX 57 57 78 58 45 59 29 60 30 61 38 62 31 63 32 64 36 65 39 66
REMARK SMILES IDX 33 67 34 68 37 69 35 70 61 71 62 72 70 73 63 74 64 75 68 76
REMARK SMILES IDX 71 77 65 78 66 79 69 80 67 81 46 82 47 83 55 84 48 85 49 86
REMARK SMILES IDX 53 87 56 88 50 89 51 90 54 91 52 92
REMARK H PARENT 13 6 17 26 76 45 44 56
REMARK Flexibility Score: inf
ROOT
ATOM      1  C   UNL A   1      33.039  29.290  24.942  1.00  0.00     0.042 C 
ENDROOT
BRANCH   1   2
ATOM      2  C   UNL A   1      31.917  28.933  23.989  1.00  0.00     0.118 C 
BRANCH   2   3
ATOM      3  N   UNL A   1      31.035  27.915  24.544  1.00  0.00    -0.352 N 
ATOM      4  C   UNL A   1      31.057  26.571  24.714  1.00  0.00     0.251 C 
ATOM      5  O   UNL A   1      30.065  26.094  25.272  1.00  0.00    -0.270 OA
ATOM      6  H   UNL A   1      30.203  28.309  24.888  1.00  0.00     0.163 HD
BRANCH   4   7
ATOM      7  C   UNL A   1      32.167  25.678  24.273  1.00  0.00     0.067 C 
ATOM      8  C   UNL A   1      36.530  23.766  25.088  1.00  0.00     0.025 A 
ATOM      9  C   UNL A   1      36.366  22.928  23.982  1.00  0.00     0.021 A 
ATOM     10  C   UNL A   1      35.508  24.647  25.463  1.00  0.00     0.029 A 
ATOM     11  C   UNL A   1      35.183  22.966  23.251  1.00  0.00     0.048 A 
ATOM     12  C   UNL A   1      34.320  24.691  24.728  1.00  0.00     0.018 A 
ATOM     13  C   UNL A   1      34.173  23.849  23.624  1.00  0.00     0.128 A 
ATOM     14  C   UNL A   1      33.212  25.560  25.113  1.00  0.00     0.025 C 
ATOM     15  O   UNL A   1      33.035  23.797  22.876  1.00  0.00    -0.475 OA
ATOM     16  C   UNL A   1      32.164  24.950  22.961  1.00  0.00     0.314 C 
BRANCH   8  17
ATOM     17  C   UNL A   1      37.742  23.700  25.840  1.00  0.00    -0.070 C 
ATOM     18  C   UNL A   1      38.745  23.640  26.501  1.00  0.00     0.010 C 
ENDBRANCH   8  17
BRANCH  16  19
ATOM     19  C   UNL A   1      32.442  25.886  21.767  1.00  0.00     0.429 C 
ATOM     20  F   UNL A   1      33.444  26.750  22.072  1.00  0.00    -0.167 F 
ATOM     21  F   UNL A   1      32.843  25.218  20.658  1.00  0.00    -0.167 F 
ATOM     22  F   UNL A   1      31.365  26.618  21.411  1.00  0.00    -0.167 F 
ENDBRANCH  16  19
ENDBRANCH   4   7
ENDBRANCH   2   3
ENDBRANCH   1   2
BRANCH   1  23
ATOM     23  C   UNL A   1      32.510  29.604  26.330  1.00  0.00     0.118 C 
BRANCH  23  24
ATOM     24  N   UNL A   1      32.400  31.046  26.566  1.00  0.00    -0.352 N 
ATOM     25  C   UNL A   1      33.205  31.899  27.282  1.00  0.00     0.251 C 
ATOM     26  H   UNL A   1      31.621  31.475  26.142  1.00  0.00     0.163 HD
ATOM     27  O   UNL A   1      32.823  33.033  27.552  1.00  0.00    -0.269 OA
BRANCH  25  28
ATOM     28  C   UNL A   1      34.519  31.424  27.750  1.00  0.00     0.039 A 
ATOM     29  C   UNL A   1      34.693  30.076  28.054  1.00  0.00     0.014 A 
ATOM     30  C   UNL A   1      35.559  32.333  27.951  1.00  0.00     0.014 A 
ATOM     31  C   UNL A   1      35.784  29.690  28.809  1.00  0.00     0.010 A 
ATOM     32  C   UNL A   1      36.734  31.901  28.570  1.00  0.00     0.010 A 
ATOM     33  C   UNL A   1      36.824  30.595  29.073  1.00  0.00    -0.014 A 
BRANCH  33  34
ATOM     34  C   UNL A   1      37.979  30.136  29.887  1.00  0.00     0.031 A 
ATOM     35  C   UNL A   1      39.034  29.241  29.295  1.00  0.00     0.074 A 
ATOM     36  C   UNL A   1      38.112  30.600  31.145  1.00  0.00     0.049 A 
ATOM     37  N   UNL A   1      40.120  28.769  29.855  1.00  0.00    -0.248 NA
ATOM     38  C   UNL A   1      38.851  28.809  27.900  1.00  0.00     0.031 C 
ATOM     39  C   UNL A   1      37.161  31.490  31.817  1.00  0.00     0.029 A 
ATOM     40  N   UNL A   1      39.107  30.423  32.071  1.00  0.00    -0.354 N 
ATOM     41  C   UNL A   1      40.733  27.976  28.893  1.00  0.00     0.074 A 
ATOM     42  C   UNL A   1      39.880  27.992  27.726  1.00  0.00     0.031 C 
ATOM     43  C   UNL A   1      37.650  31.836  33.014  1.00  0.00     0.029 A 
ATOM     44  C   UNL A   1      38.900  31.119  33.236  1.00  0.00     0.049 A 
ATOM     45  H   UNL A   1      39.894  29.852  31.916  1.00  0.00     0.167 HD
ATOM     46  C   UNL A   1      41.910  27.312  28.973  1.00  0.00     0.037 A 
ATOM     47  C   UNL A   1      39.621  31.159  34.372  1.00  0.00     0.037 A 
ATOM     48  C   UNL A   1      42.765  27.324  30.132  1.00  0.00     0.049 A 
ATOM     49  C   UNL A   1      40.886  30.357  34.457  1.00  0.00     0.074 A 
ATOM     50  C   UNL A   1      43.990  26.703  30.301  1.00  0.00     0.029 A 
ATOM     51  N   UNL A   1      42.485  27.987  31.318  1.00  0.00    -0.354 N 
ATOM     52  N   UNL A   1      41.466  29.632  33.531  1.00  0.00    -0.248 NA
ATOM     53  C   UNL A   1      41.595  30.370  35.742  1.00  0.00     0.031 C 
ATOM     54  C   UNL A   1      44.417  26.932  31.610  1.00  0.00     0.029 A 
ATOM     55  C   UNL A   1      43.497  27.756  32.237  1.00  0.00     0.049 A 
ATOM     56  H   UNL A   1      41.686  28.539  31.483  1.00  0.00     0.167 HD
ATOM     57  C   UNL A   1      42.614  29.116  34.114  1.00  0.00     0.074 A 
ATOM     58  C   UNL A   1      42.661  29.632  35.467  1.00  0.00     0.031 C 
ATOM     59  C   UNL A   1      43.537  28.284  33.578  1.00  0.00     0.037 A 
BRANCH  46  60
ATOM     60  C   UNL A   1      42.354  26.508  27.784  1.00  0.00     0.064 A 
ATOM     61  C   UNL A   1      43.212  27.039  26.811  1.00  0.00     0.173 A 
ATOM     62  C   UNL A   1      41.982  25.159  27.662  1.00  0.00     0.173 A 
ATOM     63  F   UNL A   1      43.590  28.325  26.872  1.00  0.00    -0.203 F 
ATOM     64  C   UNL A   1      43.669  26.256  25.753  1.00  0.00     0.198 A 
ATOM     65  C   UNL A   1      42.469  24.369  26.623  1.00  0.00     0.198 A 
ATOM     66  F   UNL A   1      41.169  24.596  28.568  1.00  0.00    -0.203 F 
ATOM     67  F   UNL A   1      44.460  26.798  24.814  1.00  0.00    -0.200 F 
ATOM     68  C   UNL A   1      43.308  24.920  25.666  1.00  0.00     0.200 A 
ATOM     69  F   UNL A   1      42.135  23.074  26.553  1.00  0.00    -0.200 F 
ATOM     70  F   UNL A   1      43.768  24.163  24.661  1.00  0.00    -0.200 F 
ENDBRANCH  46  60
BRANCH  47  71
ATOM     71  C   UNL A   1      39.143  31.986  35.512  1.00  0.00     0.064 A 
ATOM     72  C   UNL A   1      38.362  31.426  36.531  1.00  0.00     0.173 A 
ATOM     73  C   UNL A   1      39.490  33.342  35.627  1.00  0.00     0.173 A 
ATOM     74  F   UNL A   1      37.990  30.140  36.460  1.00  0.00    -0.203 F 
ATOM     75  C   UNL A   1      37.939  32.192  37.616  1.00  0.00     0.198 A 
ATOM     76  C   UNL A   1      39.100  34.095  36.730  1.00  0.00     0.198 A 
ATOM     77  F   UNL A   1      40.243  33.925  34.683  1.00  0.00    -0.203 F 
ATOM     78  F   UNL A   1      37.163  31.640  38.559  1.00  0.00    -0.200 F 
ATOM     79  C   UNL A   1      38.319  33.521  37.721  1.00  0.00     0.200 A 
ATOM     80  F   UNL A   1      39.490  35.373  36.838  1.00  0.00    -0.200 F 
ATOM     81  F   UNL A   1      37.930  34.251  38.776  1.00  0.00    -0.200 F 
ENDBRANCH  47  71
BRANCH  59  82
ATOM     82  C   UNL A   1      44.697  27.878  34.440  1.00  0.00     0.064 A 
ATOM     83  C   UNL A   1      44.673  26.692  35.190  1.00  0.00     0.173 A 
ATOM     84  C   UNL A   1      45.883  28.630  34.437  1.00  0.00     0.173 A 
ATOM     85  F   UNL A   1      43.560  25.945  35.236  1.00  0.00    -0.203 F 
ATOM     86  C   UNL A   1      45.791  26.278  35.909  1.00  0.00     0.198 A 
ATOM     87  C   UNL A   1      47.009  28.194  35.129  1.00  0.00     0.198 A 
ATOM     88  F   UNL A   1      45.961  29.767  33.731  1.00  0.00    -0.203 F 
ATOM     89  F   UNL A   1      45.735  25.158  36.642  1.00  0.00    -0.200 F 
ATOM     90  C   UNL A   1      46.961  27.021  35.865  1.00  0.00     0.200 A 
ATOM     91  F   UNL A   1      48.146  28.902  35.067  1.00  0.00    -0.200 F 
ATOM     92  F   UNL A   1      48.046  26.604  36.534  1.00  0.00    -0.200 F 
ENDBRANCH  59  82
ENDBRANCH  33  34
ENDBRANCH  25  28
ENDBRANCH  23  24
ENDBRANCH   1  23
TORSDOF 12
ENDMDL
