MODEL 1
REMARK VINA RESULT:     -12.7      0.000      0.000
REMARK SMILES Cc1[nH]c2ccccc2c1[C@@H](C(=O)NCCCNC(=O)c1ccc(-c2c3nc(c(-c4c(F)c(F)c(F)c(F)c4F)c4ccc([nH]4)c(-c4c(F)c(F)c(F)c(F)c4F)c4nc(c(-c5c(F)c(F)c(F)c(F)c5F)c5ccc2[nH]5)C=C4)C=C3)cc1)[NH+]1CCCC1
REMARK SMILES IDX 16 1 15 2 14 3 12 4 13 5 11 7 10 8 1 9 2 10 3 11 4 12 9 14
REMARK SMILES IDX 5 15 8 16 6 17 7 18 84 19 85 20 88 21 86 23 87 24 17 25
REMARK SMILES IDX 18 26 19 27 20 29 21 30 22 31 83 32 23 33 82 34 24 35 25 36
REMARK SMILES IDX 26 37 76 38 27 39 81 40 75 41 77 42 28 43 80 44 74 45 73 46
REMARK SMILES IDX 29 48 61 49 41 50 60 51 42 52 45 53 59 54 78 55 43 56 44 57
REMARK SMILES IDX 58 59 79 60 46 61 30 62 31 63 39 64 32 65 33 66 37 67 40 68
REMARK SMILES IDX 34 69 35 70 38 71 36 72 62 73 63 74 71 75 64 76 65 77 69 78
REMARK SMILES IDX 72 79 66 80 67 81 70 82 68 83 47 84 48 85 56 86 49 87 50 88
REMARK SMILES IDX 54 89 57 90 51 91 52 92 55 93 53 94
REMARK H PARENT 14 6 3 13 84 22 18 28 77 47 45 58
REMARK Flexibility Score: inf
ROOT
ATOM      1  C   UNL A   1      33.904  27.839  26.185  1.00  0.00     0.042 C 
ENDROOT
BRANCH   1   2
ATOM      2  C   UNL A   1      33.571  26.356  26.056  1.00  0.00     0.118 C 
BRANCH   2   3
ATOM      3  N   UNL A   1      32.143  26.108  26.095  1.00  0.00    -0.351 N 
ATOM      4  C   UNL A   1      31.228  26.135  25.069  1.00  0.00     0.283 C 
ATOM      5  O   UNL A   1      30.049  25.950  25.389  1.00  0.00    -0.268 OA
ATOM      6  H   UNL A   1      31.776  25.890  26.983  1.00  0.00     0.163 HD
BRANCH   4   7
ATOM      7  C   UNL A   1      31.729  26.351  23.609  1.00  0.00     0.307 C 
BRANCH   7   8
ATOM      8  C   UNL A   1      31.365  27.717  23.055  1.00  0.00     0.047 A 
ATOM      9  C   UNL A   1      33.755  28.721  22.566  1.00  0.00     0.065 C 
ATOM     10  C   UNL A   1      32.267  28.678  22.596  1.00  0.00     0.022 A 
ATOM     11  N   UNL A   1      31.543  29.727  22.090  1.00  0.00    -0.358 N 
ATOM     12  C   UNL A   1      30.198  29.504  22.234  1.00  0.00     0.046 A 
ATOM     13  H   UNL A   1      31.935  30.530  21.678  1.00  0.00     0.166 HD
ATOM     14  C   UNL A   1      30.051  28.292  22.909  1.00  0.00     0.009 A 
ATOM     15  C   UNL A   1      29.113  30.283  21.816  1.00  0.00     0.027 A 
ATOM     16  C   UNL A   1      28.742  27.889  23.252  1.00  0.00     0.011 A 
ATOM     17  C   UNL A   1      27.830  29.821  22.110  1.00  0.00     0.002 A 
ATOM     18  C   UNL A   1      27.643  28.649  22.833  1.00  0.00     0.001 A 
ENDBRANCH   7   8
BRANCH   7  19
ATOM     19  N   UNL A   1      31.411  25.212  22.705  1.00  0.00    -0.321 N 
ATOM     20  C   UNL A   1      31.044  23.968  23.384  1.00  0.00     0.263 C 
ATOM     21  C   UNL A   1      32.407  24.833  21.704  1.00  0.00     0.263 C 
ATOM     22  H   UNL A   1      30.616  25.637  22.227  1.00  0.00     0.349 HD
ATOM     23  C   UNL A   1      32.299  23.112  23.406  1.00  0.00     0.067 C 
ATOM     24  C   UNL A   1      33.098  23.569  22.199  1.00  0.00     0.067 C 
ENDBRANCH   7  19
ENDBRANCH   4   7
ENDBRANCH   2   3
ENDBRANCH   1   2
BRANCH   1  25
ATOM     25  C   UNL A   1      33.311  28.493  27.426  1.00  0.00     0.118 C 
BRANCH  25  26
ATOM     26  N   UNL A   1      33.388  29.947  27.379  1.00  0.00    -0.352 N 
ATOM     27  C   UNL A   1      34.378  30.793  27.812  1.00  0.00     0.251 C 
ATOM     28  H   UNL A   1      32.609  30.393  26.972  1.00  0.00     0.163 HD
ATOM     29  O   UNL A   1      34.171  32.001  27.861  1.00  0.00    -0.269 OA
BRANCH  27  30
ATOM     30  C   UNL A   1      35.687  30.253  28.238  1.00  0.00     0.039 A 
ATOM     31  C   UNL A   1      36.744  30.246  27.323  1.00  0.00     0.014 A 
ATOM     32  C   UNL A   1      35.870  29.727  29.519  1.00  0.00     0.014 A 
ATOM     33  C   UNL A   1      37.999  29.771  27.714  1.00  0.00     0.010 A 
ATOM     34  C   UNL A   1      37.138  29.328  29.932  1.00  0.00     0.010 A 
ATOM     35  C   UNL A   1      38.215  29.340  29.032  1.00  0.00    -0.014 A 
BRANCH  35  36
ATOM     36  C   UNL A   1      39.547  28.871  29.491  1.00  0.00     0.031 A 
ATOM     37  C   UNL A   1      40.350  29.719  30.439  1.00  0.00     0.074 A 
ATOM     38  C   UNL A   1      40.058  27.721  29.009  1.00  0.00     0.049 A 
ATOM     39  N   UNL A   1      41.581  29.558  30.856  1.00  0.00    -0.248 NA
ATOM     40  C   UNL A   1      39.692  30.924  30.968  1.00  0.00     0.031 C 
ATOM     41  C   UNL A   1      39.387  26.822  28.068  1.00  0.00     0.029 A 
ATOM     42  N   UNL A   1      41.272  27.119  29.231  1.00  0.00    -0.354 N 
ATOM     43  C   UNL A   1      41.842  30.639  31.688  1.00  0.00     0.074 A 
ATOM     44  C   UNL A   1      40.668  31.482  31.668  1.00  0.00     0.031 C 
ATOM     45  C   UNL A   1      40.191  25.780  27.806  1.00  0.00     0.029 A 
ATOM     46  C   UNL A   1      41.452  25.958  28.518  1.00  0.00     0.049 A 
ATOM     47  H   UNL A   1      41.950  27.485  29.845  1.00  0.00     0.167 HD
ATOM     48  C   UNL A   1      42.950  30.891  32.424  1.00  0.00     0.037 A 
ATOM     49  C   UNL A   1      42.521  25.143  28.436  1.00  0.00     0.037 A 
ATOM     50  C   UNL A   1      44.112  30.042  32.454  1.00  0.00     0.049 A 
ATOM     51  C   UNL A   1      43.758  25.476  29.231  1.00  0.00     0.074 A 
ATOM     52  C   UNL A   1      45.281  30.205  33.175  1.00  0.00     0.029 A 
ATOM     53  N   UNL A   1      44.245  28.864  31.734  1.00  0.00    -0.354 N 
ATOM     54  N   UNL A   1      43.978  26.480  30.044  1.00  0.00    -0.248 NA
ATOM     55  C   UNL A   1      44.897  24.554  29.101  1.00  0.00     0.031 C 
ATOM     56  C   UNL A   1      46.138  29.144  32.865  1.00  0.00     0.029 A 
ATOM     57  C   UNL A   1      45.481  28.293  31.992  1.00  0.00     0.049 A 
ATOM     58  H   UNL A   1      43.564  28.489  31.131  1.00  0.00     0.167 HD
ATOM     59  C   UNL A   1      45.254  26.286  30.555  1.00  0.00     0.074 A 
ATOM     60  C   UNL A   1      45.758  25.064  29.969  1.00  0.00     0.031 C 
ATOM     61  C   UNL A   1      45.948  27.053  31.431  1.00  0.00     0.037 A 
BRANCH  48  62
ATOM     62  C   UNL A   1      42.955  32.124  33.278  1.00  0.00     0.064 A 
ATOM     63  C   UNL A   1      42.489  32.096  34.603  1.00  0.00     0.173 A 
ATOM     64  C   UNL A   1      43.486  33.330  32.796  1.00  0.00     0.173 A 
ATOM     65  F   UNL A   1      41.961  30.970  35.107  1.00  0.00    -0.203 F 
ATOM     66  C   UNL A   1      42.538  33.231  35.405  1.00  0.00     0.198 A 
ATOM     67  C   UNL A   1      43.562  34.456  33.612  1.00  0.00     0.198 A 
ATOM     68  F   UNL A   1      43.951  33.411  31.541  1.00  0.00    -0.203 F 
ATOM     69  F   UNL A   1      42.052  33.189  36.653  1.00  0.00    -0.200 F 
ATOM     70  C   UNL A   1      43.083  34.407  34.913  1.00  0.00     0.200 A 
ATOM     71  F   UNL A   1      44.103  35.588  33.141  1.00  0.00    -0.200 F 
ATOM     72  F   UNL A   1      43.146  35.496  35.693  1.00  0.00    -0.200 F 
ENDBRANCH  48  62
BRANCH  49  73
ATOM     73  C   UNL A   1      42.485  23.929  27.575  1.00  0.00     0.064 A 
ATOM     74  C   UNL A   1      42.136  22.680  28.109  1.00  0.00     0.173 A 
ATOM     75  C   UNL A   1      42.853  23.979  26.223  1.00  0.00     0.173 A 
ATOM     76  F   UNL A   1      41.794  22.576  29.402  1.00  0.00    -0.203 F 
ATOM     77  C   UNL A   1      42.199  21.522  27.335  1.00  0.00     0.198 A 
ATOM     78  C   UNL A   1      42.882  22.825  25.442  1.00  0.00     0.198 A 
ATOM     79  F   UNL A   1      43.190  25.148  25.659  1.00  0.00    -0.203 F 
ATOM     80  F   UNL A   1      41.932  20.332  27.891  1.00  0.00    -0.200 F 
ATOM     81  C   UNL A   1      42.570  21.596  26.002  1.00  0.00     0.200 A 
ATOM     82  F   UNL A   1      43.225  22.904  24.148  1.00  0.00    -0.200 F 
ATOM     83  F   UNL A   1      42.642  20.481  25.261  1.00  0.00    -0.200 F 
ENDBRANCH  49  73
BRANCH  61  84
ATOM     84  C   UNL A   1      47.294  26.556  31.871  1.00  0.00     0.064 A 
ATOM     85  C   UNL A   1      47.447  25.707  32.977  1.00  0.00     0.173 A 
ATOM     86  C   UNL A   1      48.443  26.897  31.140  1.00  0.00     0.173 A 
ATOM     87  F   UNL A   1      46.383  25.363  33.717  1.00  0.00    -0.203 F 
ATOM     88  C   UNL A   1      48.704  25.238  33.349  1.00  0.00     0.198 A 
ATOM     89  C   UNL A   1      49.693  26.400  31.495  1.00  0.00     0.198 A 
ATOM     90  F   UNL A   1      48.350  27.700  30.069  1.00  0.00    -0.203 F 
ATOM     91  F   UNL A   1      48.834  24.467  34.437  1.00  0.00    -0.200 F 
ATOM     92  C   UNL A   1      49.824  25.577  32.604  1.00  0.00     0.200 A 
ATOM     93  F   UNL A   1      50.771  26.716  30.764  1.00  0.00    -0.200 F 
ATOM     94  F   UNL A   1      51.031  25.114  32.957  1.00  0.00    -0.200 F 
ENDBRANCH  61  84
ENDBRANCH  35  36
ENDBRANCH  27  30
ENDBRANCH  25  26
ENDBRANCH   1  25
TORSDOF 12
ENDMDL
MODEL 2
REMARK VINA RESULT:     -12.7      2.248      3.470
REMARK SMILES Cc1[nH]c2ccccc2c1[C@@H](C(=O)NCCCNC(=O)c1ccc(-c2c3nc(c(-c4c(F)c(F)c(F)c(F)c4F)c4ccc([nH]4)c(-c4c(F)c(F)c(F)c(F)c4F)c4nc(c(-c5c(F)c(F)c(F)c(F)c5F)c5ccc2[nH]5)C=C4)C=C3)cc1)[NH+]1CCCC1
REMARK SMILES IDX 16 1 15 2 14 3 12 4 13 5 11 7 10 8 1 9 2 10 3 11 4 12 9 14
REMARK SMILES IDX 5 15 8 16 6 17 7 18 84 19 85 20 88 21 86 23 87 24 17 25
REMARK SMILES IDX 18 26 19 27 20 29 21 30 22 31 83 32 23 33 82 34 24 35 25 36
REMARK SMILES IDX 26 37 76 38 27 39 81 40 75 41 77 42 28 43 80 44 74 45 73 46
REMARK SMILES IDX 29 48 61 49 41 50 60 51 42 52 45 53 59 54 78 55 43 56 44 57
REMARK SMILES IDX 58 59 79 60 46 61 30 62 31 63 39 64 32 65 33 66 37 67 40 68
REMARK SMILES IDX 34 69 35 70 38 71 36 72 62 73 63 74 71 75 64 76 65 77 69 78
REMARK SMILES IDX 72 79 66 80 67 81 70 82 68 83 47 84 48 85 56 86 49 87 50 88
REMARK SMILES IDX 54 89 57 90 51 91 52 92 55 93 53 94
REMARK H PARENT 14 6 3 13 84 22 18 28 77 47 45 58
REMARK Flexibility Score: inf
ROOT
ATOM      1  C   UNL A   1      31.946  29.036  26.800  1.00  0.00     0.042 C 
ENDROOT
BRANCH   1   2
ATOM      2  C   UNL A   1      32.187  27.533  26.712  1.00  0.00     0.118 C 
BRANCH   2   3
ATOM      3  N   UNL A   1      30.968  26.797  26.440  1.00  0.00    -0.351 N 
ATOM      4  C   UNL A   1      30.481  26.336  25.238  1.00  0.00     0.283 C 
ATOM      5  O   UNL A   1      29.374  25.790  25.276  1.00  0.00    -0.268 OA
ATOM      6  H   UNL A   1      30.409  26.598  27.226  1.00  0.00     0.163 HD
BRANCH   4   7
ATOM      7  C   UNL A   1      31.351  26.493  23.954  1.00  0.00     0.307 C 
BRANCH   7   8
ATOM      8  C   UNL A   1      31.133  27.822  23.253  1.00  0.00     0.047 A 
ATOM      9  C   UNL A   1      33.621  28.568  22.790  1.00  0.00     0.065 C 
ATOM     10  C   UNL A   1      32.135  28.653  22.749  1.00  0.00     0.022 A 
ATOM     11  N   UNL A   1      31.528  29.702  22.107  1.00  0.00    -0.358 N 
ATOM     12  C   UNL A   1      30.164  29.608  22.204  1.00  0.00     0.046 A 
ATOM     13  H   UNL A   1      32.008  30.424  21.640  1.00  0.00     0.166 HD
ATOM     14  C   UNL A   1      29.882  28.488  22.985  1.00  0.00     0.009 A 
ATOM     15  C   UNL A   1      29.172  30.430  21.658  1.00  0.00     0.027 A 
ATOM     16  C   UNL A   1      28.530  28.233  23.299  1.00  0.00     0.011 A 
ATOM     17  C   UNL A   1      27.841  30.110  21.930  1.00  0.00     0.002 A 
ATOM     18  C   UNL A   1      27.521  29.036  22.753  1.00  0.00     0.001 A 
ENDBRANCH   7   8
BRANCH   7  19
ATOM     19  N   UNL A   1      31.298  25.305  23.061  1.00  0.00    -0.321 N 
ATOM     20  C   UNL A   1      31.965  24.110  23.581  1.00  0.00     0.263 C 
ATOM     21  C   UNL A   1      31.779  25.458  21.688  1.00  0.00     0.263 C 
ATOM     22  H   UNL A   1      30.283  25.199  23.038  1.00  0.00     0.349 HD
ATOM     23  C   UNL A   1      33.336  24.072  22.927  1.00  0.00     0.067 C 
ATOM     24  C   UNL A   1      33.154  24.806  21.610  1.00  0.00     0.067 C 
ENDBRANCH   7  19
ENDBRANCH   4   7
ENDBRANCH   2   3
ENDBRANCH   1   2
BRANCH   1  25
ATOM     25  C   UNL A   1      33.036  29.871  26.142  1.00  0.00     0.118 C 
BRANCH  25  26
ATOM     26  N   UNL A   1      32.924  31.287  26.464  1.00  0.00    -0.352 N 
ATOM     27  C   UNL A   1      33.628  32.044  27.368  1.00  0.00     0.251 C 
ATOM     28  H   UNL A   1      32.239  31.777  25.955  1.00  0.00     0.163 HD
ATOM     29  O   UNL A   1      33.253  33.181  27.633  1.00  0.00    -0.269 OA
BRANCH  27  30
ATOM     30  C   UNL A   1      34.825  31.489  28.035  1.00  0.00     0.039 A 
ATOM     31  C   UNL A   1      35.958  32.297  28.169  1.00  0.00     0.014 A 
ATOM     32  C   UNL A   1      34.847  30.173  28.500  1.00  0.00     0.014 A 
ATOM     33  C   UNL A   1      37.089  31.805  28.825  1.00  0.00     0.010 A 
ATOM     34  C   UNL A   1      35.944  29.710  29.223  1.00  0.00     0.010 A 
ATOM     35  C   UNL A   1      37.079  30.519  29.387  1.00  0.00    -0.014 A 
BRANCH  35  36
ATOM     36  C   UNL A   1      38.248  29.982  30.129  1.00  0.00     0.031 A 
ATOM     37  C   UNL A   1      38.544  30.481  31.517  1.00  0.00     0.074 A 
ATOM     38  C   UNL A   1      39.076  29.101  29.534  1.00  0.00     0.049 A 
ATOM     39  N   UNL A   1      39.580  30.242  32.282  1.00  0.00    -0.248 NA
ATOM     40  C   UNL A   1      37.555  31.391  32.118  1.00  0.00     0.031 C 
ATOM     41  C   UNL A   1      38.910  28.558  28.185  1.00  0.00     0.029 A 
ATOM     42  N   UNL A   1      40.234  28.518  29.984  1.00  0.00    -0.354 N 
ATOM     43  C   UNL A   1      39.369  30.973  33.443  1.00  0.00     0.074 A 
ATOM     44  C   UNL A   1      38.140  31.713  33.261  1.00  0.00     0.031 C 
ATOM     45  C   UNL A   1      39.920  27.714  27.922  1.00  0.00     0.029 A 
ATOM     46  C   UNL A   1      40.831  27.690  29.062  1.00  0.00     0.049 A 
ATOM     47  H   UNL A   1      40.603  28.677  30.883  1.00  0.00     0.167 HD
ATOM     48  C   UNL A   1      40.117  31.004  34.571  1.00  0.00     0.037 A 
ATOM     49  C   UNL A   1      41.990  27.008  29.125  1.00  0.00     0.037 A 
ATOM     50  C   UNL A   1      41.332  30.254  34.756  1.00  0.00     0.049 A 
ATOM     51  C   UNL A   1      42.826  27.099  30.377  1.00  0.00     0.074 A 
ATOM     52  C   UNL A   1      42.158  30.209  35.865  1.00  0.00     0.029 A 
ATOM     53  N   UNL A   1      41.890  29.412  33.806  1.00  0.00    -0.354 N 
ATOM     54  N   UNL A   1      42.595  27.763  31.483  1.00  0.00    -0.248 NA
ATOM     55  C   UNL A   1      44.084  26.337  30.390  1.00  0.00     0.031 C 
ATOM     56  C   UNL A   1      43.235  29.367  35.575  1.00  0.00     0.029 A 
ATOM     57  C   UNL A   1      43.052  28.847  34.304  1.00  0.00     0.049 A 
ATOM     58  H   UNL A   1      41.516  29.241  32.912  1.00  0.00     0.167 HD
ATOM     59  C   UNL A   1      43.649  27.463  32.336  1.00  0.00     0.074 A 
ATOM     60  C   UNL A   1      44.516  26.550  31.624  1.00  0.00     0.031 C 
ATOM     61  C   UNL A   1      43.879  27.905  33.596  1.00  0.00     0.037 A 
BRANCH  48  62
ATOM     62  C   UNL A   1      39.634  31.857  35.706  1.00  0.00     0.064 A 
ATOM     63  C   UNL A   1      40.110  33.166  35.888  1.00  0.00     0.173 A 
ATOM     64  C   UNL A   1      38.643  31.392  36.583  1.00  0.00     0.173 A 
ATOM     65  F   UNL A   1      41.066  33.653  35.083  1.00  0.00    -0.203 F 
ATOM     66  C   UNL A   1      39.625  33.969  36.916  1.00  0.00     0.198 A 
ATOM     67  C   UNL A   1      38.138  32.209  37.592  1.00  0.00     0.198 A 
ATOM     68  F   UNL A   1      38.149  30.152  36.450  1.00  0.00    -0.203 F 
ATOM     69  F   UNL A   1      40.122  35.200  37.093  1.00  0.00    -0.200 F 
ATOM     70  C   UNL A   1      38.633  33.494  37.760  1.00  0.00     0.200 A 
ATOM     71  F   UNL A   1      37.168  31.756  38.397  1.00  0.00    -0.200 F 
ATOM     72  F   UNL A   1      38.153  34.275  38.738  1.00  0.00    -0.200 F 
ENDBRANCH  48  62
BRANCH  49  73
ATOM     73  C   UNL A   1      42.442  26.173  27.979  1.00  0.00     0.064 A 
ATOM     74  C   UNL A   1      43.312  26.693  27.009  1.00  0.00     0.173 A 
ATOM     75  C   UNL A   1      41.972  24.865  27.796  1.00  0.00     0.173 A 
ATOM     76  F   UNL A   1      43.775  27.946  27.128  1.00  0.00    -0.203 F 
ATOM     77  C   UNL A   1      43.657  25.953  25.879  1.00  0.00     0.198 A 
ATOM     78  C   UNL A   1      42.346  24.113  26.684  1.00  0.00     0.198 A 
ATOM     79  F   UNL A   1      41.143  24.315  28.696  1.00  0.00    -0.203 F 
ATOM     80  F   UNL A   1      44.430  26.503  24.932  1.00  0.00    -0.200 F 
ATOM     81  C   UNL A   1      43.176  24.664  25.719  1.00  0.00     0.200 A 
ATOM     82  F   UNL A   1      41.891  22.860  26.541  1.00  0.00    -0.200 F 
ATOM     83  F   UNL A   1      43.499  23.956  24.627  1.00  0.00    -0.200 F 
ENDBRANCH  49  73
BRANCH  61  84
ATOM     84  C   UNL A   1      45.073  27.350  34.318  1.00  0.00     0.064 A 
ATOM     85  C   UNL A   1      46.321  27.988  34.289  1.00  0.00     0.173 A 
ATOM     86  C   UNL A   1      44.946  26.187  35.093  1.00  0.00     0.173 A 
ATOM     87  F   UNL A   1      46.497  29.094  33.551  1.00  0.00    -0.203 F 
ATOM     88  C   UNL A   1      47.406  27.467  34.990  1.00  0.00     0.198 A 
ATOM     89  C   UNL A   1      46.024  25.687  35.818  1.00  0.00     0.198 A 
ATOM     90  F   UNL A   1      43.771  25.542  35.161  1.00  0.00    -0.203 F 
ATOM     91  F   UNL A   1      48.602  28.066  34.909  1.00  0.00    -0.200 F 
ATOM     92  C   UNL A   1      47.254  26.324  35.760  1.00  0.00     0.200 A 
ATOM     93  F   UNL A   1      45.871  24.592  36.575  1.00  0.00    -0.200 F 
ATOM     94  F   UNL A   1      48.298  25.832  36.443  1.00  0.00    -0.200 F 
ENDBRANCH  61  84
ENDBRANCH  35  36
ENDBRANCH  27  30
ENDBRANCH  25  26
ENDBRANCH   1  25
TORSDOF 12
ENDMDL
MODEL 3
REMARK VINA RESULT:     -12.6      2.523      7.778
REMARK SMILES Cc1[nH]c2ccccc2c1[C@@H](C(=O)NCCCNC(=O)c1ccc(-c2c3nc(c(-c4c(F)c(F)c(F)c(F)c4F)c4ccc([nH]4)c(-c4c(F)c(F)c(F)c(F)c4F)c4nc(c(-c5c(F)c(F)c(F)c(F)c5F)c5ccc2[nH]5)C=C4)C=C3)cc1)[NH+]1CCCC1
REMARK SMILES IDX 16 1 15 2 14 3 12 4 13 5 11 7 10 8 1 9 2 10 3 11 4 12 9 14
REMARK SMILES IDX 5 15 8 16 6 17 7 18 84 19 85 20 88 21 86 23 87 24 17 25
REMARK SMILES IDX 18 26 19 27 20 29 21 30 22 31 83 32 23 33 82 34 24 35 25 36
REMARK SMILES IDX 26 37 76 38 27 39 81 40 75 41 77 42 28 43 80 44 74 45 73 46
REMARK SMILES IDX 29 48 61 49 41 50 60 51 42 52 45 53 59 54 78 55 43 56 44 57
REMARK SMILES IDX 58 59 79 60 46 61 30 62 31 63 39 64 32 65 33 66 37 67 40 68
REMARK SMILES IDX 34 69 35 70 38 71 36 72 62 73 63 74 71 75 64 76 65 77 69 78
REMARK SMILES IDX 72 79 66 80 67 81 70 82 68 83 47 84 48 85 56 86 49 87 50 88
REMARK SMILES IDX 54 89 57 90 51 91 52 92 55 93 53 94
REMARK H PARENT 14 6 3 13 84 22 18 28 77 47 45 58
REMARK Flexibility Score: inf
ROOT
ATOM      1  C   UNL A   1      31.779  29.296  26.916  1.00  0.00     0.042 C 
ENDROOT
BRANCH   1   2
ATOM      2  C   UNL A   1      32.169  27.824  26.994  1.00  0.00     0.118 C 
BRANCH   2   3
ATOM      3  N   UNL A   1      31.030  26.944  26.819  1.00  0.00    -0.351 N 
ATOM      4  C   UNL A   1      30.612  26.276  25.690  1.00  0.00     0.283 C 
ATOM      5  O   UNL A   1      29.561  25.638  25.796  1.00  0.00    -0.268 OA
ATOM      6  H   UNL A   1      30.475  26.805  27.620  1.00  0.00     0.163 HD
BRANCH   4   7
ATOM      7  C   UNL A   1      31.491  26.335  24.404  1.00  0.00     0.307 C 
BRANCH   7   8
ATOM      8  C   UNL A   1      31.289  27.612  23.609  1.00  0.00     0.047 A 
ATOM      9  C   UNL A   1      33.785  28.372  23.220  1.00  0.00     0.065 C 
ATOM     10  C   UNL A   1      32.302  28.428  23.101  1.00  0.00     0.022 A 
ATOM     11  N   UNL A   1      31.712  29.422  22.364  1.00  0.00    -0.358 N 
ATOM     12  C   UNL A   1      30.346  29.310  22.401  1.00  0.00     0.046 A 
ATOM     13  H   UNL A   1      32.203  30.122  21.875  1.00  0.00     0.166 HD
ATOM     14  C   UNL A   1      30.043  28.236  23.238  1.00  0.00     0.009 A 
ATOM     15  C   UNL A   1      29.370  30.077  21.755  1.00  0.00     0.027 A 
ATOM     16  C   UNL A   1      28.681  27.978  23.501  1.00  0.00     0.011 A 
ATOM     17  C   UNL A   1      28.032  29.750  21.982  1.00  0.00     0.002 A 
ATOM     18  C   UNL A   1      27.688  28.726  22.856  1.00  0.00     0.001 A 
ENDBRANCH   7   8
BRANCH   7  19
ATOM     19  N   UNL A   1      31.433  25.087  23.596  1.00  0.00    -0.321 N 
ATOM     20  C   UNL A   1      32.220  23.971  24.126  1.00  0.00     0.263 C 
ATOM     21  C   UNL A   1      31.778  25.171  22.178  1.00  0.00     0.263 C 
ATOM     22  H   UNL A   1      30.430  24.920  23.677  1.00  0.00     0.349 HD
ATOM     23  C   UNL A   1      33.525  23.967  23.349  1.00  0.00     0.067 C 
ATOM     24  C   UNL A   1      33.179  24.596  22.011  1.00  0.00     0.067 C 
ENDBRANCH   7  19
ENDBRANCH   4   7
ENDBRANCH   2   3
ENDBRANCH   1   2
BRANCH   1  25
ATOM     25  C   UNL A   1      32.829  30.172  26.246  1.00  0.00     0.118 C 
BRANCH  25  26
ATOM     26  N   UNL A   1      32.630  31.589  26.521  1.00  0.00    -0.352 N 
ATOM     27  C   UNL A   1      33.284  32.417  27.399  1.00  0.00     0.251 C 
ATOM     28  H   UNL A   1      31.916  32.019  25.996  1.00  0.00     0.163 HD
ATOM     29  O   UNL A   1      32.840  33.537  27.626  1.00  0.00    -0.269 OA
BRANCH  27  30
ATOM     30  C   UNL A   1      34.512  31.959  28.084  1.00  0.00     0.039 A 
ATOM     31  C   UNL A   1      35.631  32.797  28.094  1.00  0.00     0.014 A 
ATOM     32  C   UNL A   1      34.576  30.701  28.687  1.00  0.00     0.014 A 
ATOM     33  C   UNL A   1      36.791  32.399  28.763  1.00  0.00     0.010 A 
ATOM     34  C   UNL A   1      35.703  30.339  29.420  1.00  0.00     0.010 A 
ATOM     35  C   UNL A   1      36.825  31.181  29.460  1.00  0.00    -0.014 A 
BRANCH  35  36
ATOM     36  C   UNL A   1      38.027  30.749  30.218  1.00  0.00     0.031 A 
ATOM     37  C   UNL A   1      38.984  29.765  29.602  1.00  0.00     0.074 A 
ATOM     38  C   UNL A   1      38.222  31.188  31.477  1.00  0.00     0.049 A 
ATOM     39  N   UNL A   1      40.015  29.163  30.139  1.00  0.00    -0.248 NA
ATOM     40  C   UNL A   1      38.733  29.388  28.201  1.00  0.00     0.031 C 
ATOM     41  C   UNL A   1      37.355  32.125  32.194  1.00  0.00     0.029 A 
ATOM     42  N   UNL A   1      39.207  30.890  32.386  1.00  0.00    -0.354 N 
ATOM     43  C   UNL A   1      40.528  28.337  29.148  1.00  0.00     0.074 A 
ATOM     44  C   UNL A   1      39.661  28.465  27.998  1.00  0.00     0.031 C 
ATOM     45  C   UNL A   1      37.853  32.334  33.423  1.00  0.00     0.029 A 
ATOM     46  C   UNL A   1      39.045  31.511  33.601  1.00  0.00     0.049 A 
ATOM     47  H   UNL A   1      39.960  30.287  32.185  1.00  0.00     0.167 HD
ATOM     48  C   UNL A   1      41.638  27.562  29.184  1.00  0.00     0.037 A 
ATOM     49  C   UNL A   1      39.766  31.411  34.734  1.00  0.00     0.037 A 
ATOM     50  C   UNL A   1      42.508  27.448  30.325  1.00  0.00     0.049 A 
ATOM     51  C   UNL A   1      40.970  30.504  34.758  1.00  0.00     0.074 A 
ATOM     52  C   UNL A   1      43.662  26.697  30.457  1.00  0.00     0.029 A 
ATOM     53  N   UNL A   1      42.320  28.111  31.528  1.00  0.00    -0.354 N 
ATOM     54  N   UNL A   1      41.467  29.759  33.802  1.00  0.00    -0.248 NA
ATOM     55  C   UNL A   1      41.719  30.431  36.022  1.00  0.00     0.031 C 
ATOM     56  C   UNL A   1      44.155  26.878  31.753  1.00  0.00     0.029 A 
ATOM     57  C   UNL A   1      43.336  27.781  32.410  1.00  0.00     0.049 A 
ATOM     58  H   UNL A   1      41.576  28.724  31.726  1.00  0.00     0.167 HD
ATOM     59  C   UNL A   1      42.606  29.168  34.330  1.00  0.00     0.074 A 
ATOM     60  C   UNL A   1      42.734  29.647  35.689  1.00  0.00     0.031 C 
ATOM     61  C   UNL A   1      43.470  28.303  33.744  1.00  0.00     0.037 A 
BRANCH  48  62
ATOM     62  C   UNL A   1      41.992  26.793  27.946  1.00  0.00     0.064 A 
ATOM     63  C   UNL A   1      42.869  27.321  26.985  1.00  0.00     0.173 A 
ATOM     64  C   UNL A   1      41.505  25.492  27.744  1.00  0.00     0.173 A 
ATOM     65  F   UNL A   1      43.354  28.564  27.126  1.00  0.00    -0.203 F 
ATOM     66  C   UNL A   1      43.230  26.584  25.861  1.00  0.00     0.198 A 
ATOM     67  C   UNL A   1      41.893  24.746  26.634  1.00  0.00     0.198 A 
ATOM     68  F   UNL A   1      40.669  24.938  28.634  1.00  0.00    -0.203 F 
ATOM     69  F   UNL A   1      44.038  27.125  24.939  1.00  0.00    -0.200 F 
ATOM     70  C   UNL A   1      42.750  25.295  25.691  1.00  0.00     0.200 A 
ATOM     71  F   UNL A   1      41.440  23.494  26.478  1.00  0.00    -0.200 F 
ATOM     72  F   UNL A   1      43.112  24.579  24.617  1.00  0.00    -0.200 F 
ENDBRANCH  48  62
BRANCH  49  73
ATOM     73  C   UNL A   1      39.385  32.186  35.946  1.00  0.00     0.064 A 
ATOM     74  C   UNL A   1      38.417  31.699  36.837  1.00  0.00     0.173 A 
ATOM     75  C   UNL A   1      39.932  33.451  36.209  1.00  0.00     0.173 A 
ATOM     76  F   UNL A   1      37.849  30.503  36.620  1.00  0.00    -0.203 F 
ATOM     77  C   UNL A   1      37.980  32.464  37.917  1.00  0.00     0.198 A 
ATOM     78  C   UNL A   1      39.520  34.199  37.309  1.00  0.00     0.198 A 
ATOM     79  F   UNL A   1      40.866  33.963  35.394  1.00  0.00    -0.203 F 
ATOM     80  F   UNL A   1      37.002  32.004  38.708  1.00  0.00    -0.200 F 
ATOM     81  C   UNL A   1      38.534  33.712  38.154  1.00  0.00     0.200 A 
ATOM     82  F   UNL A   1      40.070  35.400  37.544  1.00  0.00    -0.200 F 
ATOM     83  F   UNL A   1      38.106  34.453  39.185  1.00  0.00    -0.200 F 
ENDBRANCH  49  73
BRANCH  61  84
ATOM     84  C   UNL A   1      44.672  27.879  34.537  1.00  0.00     0.064 A 
ATOM     85  C   UNL A   1      45.864  28.617  34.530  1.00  0.00     0.173 A 
ATOM     86  C   UNL A   1      44.607  26.742  35.358  1.00  0.00     0.173 A 
ATOM     87  F   UNL A   1      45.981  29.703  33.752  1.00  0.00    -0.203 F 
ATOM     88  C   UNL A   1      46.956  28.217  35.296  1.00  0.00     0.198 A 
ATOM     89  C   UNL A   1      45.689  26.364  36.147  1.00  0.00     0.198 A 
ATOM     90  F   UNL A   1      43.487  26.005  35.407  1.00  0.00    -0.203 F 
ATOM     91  F   UNL A   1      48.102  28.910  35.237  1.00  0.00    -0.200 F 
ATOM     92  C   UNL A   1      46.865  27.098  36.110  1.00  0.00     0.200 A 
ATOM     93  F   UNL A   1      45.593  25.291  36.945  1.00  0.00    -0.200 F 
ATOM     94  F   UNL A   1      47.914  26.723  36.855  1.00  0.00    -0.200 F 
ENDBRANCH  61  84
ENDBRANCH  35  36
ENDBRANCH  27  30
ENDBRANCH  25  26
ENDBRANCH   1  25
TORSDOF 12
ENDMDL
