MODEL 1
REMARK VINA RESULT:     -11.5      0.000      0.000
REMARK SMILES COc1ccc(COc2cncc(C(=O)NCCCNC(=O)c3ccc(-c4c5nc(c(-c6c(F)c(F)c(F)c(F)c6F)c6ccc([nH]6)c(-c6c(F)c(F)c(F)c(F)c6F)c6nc(c(-c7c(F)c(F)c(F)c(F)c7F)c7ccc4[nH]7)C=C6)C=C5)cc3)n2)cc1
REMARK SMILES IDX 17 1 16 2 14 3 15 4 13 6 9 7 10 8 86 9 11 10 12 11 8 12 7 13
REMARK SMILES IDX 6 14 3 15 4 16 88 17 5 18 87 19 2 20 1 21 18 22 19 23 20 24
REMARK SMILES IDX 21 25 22 27 23 28 24 29 85 30 25 31 84 32 26 33 27 34 28 35
REMARK SMILES IDX 78 36 29 37 83 38 77 39 79 40 30 41 82 42 76 43 75 44 31 46
REMARK SMILES IDX 63 47 43 48 62 49 44 50 47 51 61 52 80 53 45 54 46 55 60 57
REMARK SMILES IDX 81 58 48 59 32 60 33 61 41 62 34 63 35 64 39 65 42 66 36 67
REMARK SMILES IDX 37 68 40 69 38 70 64 71 65 72 73 73 66 74 67 75 71 76 74 77
REMARK SMILES IDX 68 78 69 79 72 80 70 81 49 82 50 83 58 84 51 85 52 86 56 87
REMARK SMILES IDX 59 88 53 89 54 90 57 91 55 92
REMARK H PARENT 16 5 20 26 79 45 47 56
REMARK Flexibility Score: inf
ROOT
ATOM      1  C   UNL A   1      42.182  20.424  27.628  1.00  0.00     0.118 C 
ENDROOT
BRANCH   1   2
ATOM      2  N   UNL A   1      42.067  19.093  27.054  1.00  0.00    -0.351 N 
ATOM      3  C   UNL A   1      42.783  18.468  26.059  1.00  0.00     0.271 C 
ATOM      4  O   UNL A   1      42.450  17.322  25.751  1.00  0.00    -0.267 OA
ATOM      5  H   UNL A   1      41.350  18.543  27.445  1.00  0.00     0.163 HD
BRANCH   3   6
ATOM      6  C   UNL A   1      43.954  19.094  25.385  1.00  0.00     0.150 A 
ATOM      7  C   UNL A   1      44.926  20.802  24.210  1.00  0.00     0.233 A 
ATOM      8  C   UNL A   1      46.181  20.255  24.466  1.00  0.00     0.179 A 
ATOM      9  N   UNL A   1      43.790  20.228  24.656  1.00  0.00    -0.205 NA
ATOM     10  N   UNL A   1      46.349  19.085  25.127  1.00  0.00    -0.257 NA
ATOM     11  C   UNL A   1      45.206  18.524  25.590  1.00  0.00     0.145 A 
BRANCH   7  12
ATOM     12  O   UNL A   1      44.762  22.038  23.645  1.00  0.00    -0.472 OA
BRANCH  12  13
ATOM     13  C   UNL A   1      44.004  22.925  24.477  1.00  0.00     0.267 C 
BRANCH  13  14
ATOM     14  C   UNL A   1      44.906  23.644  25.451  1.00  0.00    -0.010 A 
ATOM     15  C   UNL A   1      46.748  24.701  27.291  1.00  0.00     0.118 A 
ATOM     16  C   UNL A   1      45.582  24.081  27.737  1.00  0.00     0.047 A 
ATOM     17  C   UNL A   1      46.974  24.827  25.919  1.00  0.00     0.047 A 
ATOM     18  C   UNL A   1      44.656  23.568  26.828  1.00  0.00     0.011 A 
ATOM     19  C   UNL A   1      46.054  24.306  25.003  1.00  0.00     0.011 A 
BRANCH  15  20
ATOM     20  O   UNL A   1      47.594  25.107  28.285  1.00  0.00    -0.497 OA
ATOM     21  C   UNL A   1      48.986  25.066  28.000  1.00  0.00     0.278 C 
ENDBRANCH  15  20
ENDBRANCH  13  14
ENDBRANCH  12  13
ENDBRANCH   7  12
ENDBRANCH   3   6
ENDBRANCH   1   2
BRANCH   1  22
ATOM     22  C   UNL A   1      40.890  21.215  27.459  1.00  0.00     0.042 C 
BRANCH  22  23
ATOM     23  C   UNL A   1      40.819  21.982  26.137  1.00  0.00     0.118 C 
BRANCH  23  24
ATOM     24  N   UNL A   1      39.448  22.300  25.752  1.00  0.00    -0.352 N 
ATOM     25  C   UNL A   1      38.647  23.353  26.104  1.00  0.00     0.251 C 
ATOM     26  H   UNL A   1      39.032  21.653  25.139  1.00  0.00     0.163 HD
ATOM     27  O   UNL A   1      37.448  23.324  25.827  1.00  0.00    -0.269 OA
BRANCH  25  28
ATOM     28  C   UNL A   1      39.199  24.519  26.822  1.00  0.00     0.039 A 
ATOM     29  C   UNL A   1      40.023  25.408  26.126  1.00  0.00     0.014 A 
ATOM     30  C   UNL A   1      38.944  24.719  28.182  1.00  0.00     0.014 A 
ATOM     31  C   UNL A   1      40.538  26.532  26.774  1.00  0.00     0.010 A 
ATOM     32  C   UNL A   1      39.404  25.874  28.811  1.00  0.00     0.010 A 
ATOM     33  C   UNL A   1      40.201  26.794  28.112  1.00  0.00    -0.014 A 
BRANCH  33  34
ATOM     34  C   UNL A   1      40.652  28.035  28.787  1.00  0.00     0.031 A 
ATOM     35  C   UNL A   1      42.071  28.177  29.256  1.00  0.00     0.074 A 
ATOM     36  C   UNL A   1      39.755  29.007  29.043  1.00  0.00     0.049 A 
ATOM     37  N   UNL A   1      42.626  29.151  29.933  1.00  0.00    -0.248 NA
ATOM     38  C   UNL A   1      42.984  27.068  28.942  1.00  0.00     0.031 C 
ATOM     39  C   UNL A   1      38.337  28.965  28.678  1.00  0.00     0.029 A 
ATOM     40  N   UNL A   1      39.898  30.214  29.682  1.00  0.00    -0.354 N 
ATOM     41  C   UNL A   1      43.944  28.766  30.140  1.00  0.00     0.074 A 
ATOM     42  C   UNL A   1      44.095  27.450  29.556  1.00  0.00     0.031 C 
ATOM     43  C   UNL A   1      37.745  30.100  29.084  1.00  0.00     0.029 A 
ATOM     44  C   UNL A   1      38.730  30.930  29.770  1.00  0.00     0.049 A 
ATOM     45  H   UNL A   1      40.756  30.535  30.041  1.00  0.00     0.167 HD
ATOM     46  C   UNL A   1      44.939  29.456  30.745  1.00  0.00     0.037 A 
ATOM     47  C   UNL A   1      38.477  32.119  30.350  1.00  0.00     0.037 A 
ATOM     48  C   UNL A   1      44.789  30.775  31.304  1.00  0.00     0.049 A 
ATOM     49  C   UNL A   1      39.600  32.860  31.022  1.00  0.00     0.074 A 
ATOM     50  C   UNL A   1      45.754  31.586  31.873  1.00  0.00     0.029 A 
ATOM     51  N   UNL A   1      43.592  31.475  31.365  1.00  0.00    -0.354 N 
ATOM     52  N   UNL A   1      40.858  32.517  31.150  1.00  0.00    -0.248 NA
ATOM     53  C   UNL A   1      39.266  34.157  31.628  1.00  0.00     0.031 C 
ATOM     54  C   UNL A   1      45.134  32.757  32.321  1.00  0.00     0.029 A 
ATOM     55  C   UNL A   1      43.790  32.697  31.988  1.00  0.00     0.049 A 
ATOM     56  H   UNL A   1      42.730  31.150  31.018  1.00  0.00     0.167 HD
ATOM     57  C   UNL A   1      41.469  33.559  31.832  1.00  0.00     0.074 A 
ATOM     58  C   UNL A   1      40.448  34.557  32.075  1.00  0.00     0.031 C 
ATOM     59  C   UNL A   1      42.762  33.677  32.225  1.00  0.00     0.037 A 
BRANCH  46  60
ATOM     60  C   UNL A   1      46.285  28.799  30.835  1.00  0.00     0.064 A 
ATOM     61  C   UNL A   1      46.641  28.001  31.932  1.00  0.00     0.173 A 
ATOM     62  C   UNL A   1      47.214  28.932  29.791  1.00  0.00     0.173 A 
ATOM     63  F   UNL A   1      45.792  27.849  32.960  1.00  0.00    -0.203 F 
ATOM     64  C   UNL A   1      47.887  27.382  31.995  1.00  0.00     0.198 A 
ATOM     65  C   UNL A   1      48.449  28.289  29.845  1.00  0.00     0.198 A 
ATOM     66  F   UNL A   1      46.922  29.678  28.716  1.00  0.00    -0.203 F 
ATOM     67  F   UNL A   1      48.222  26.661  33.074  1.00  0.00    -0.200 F 
ATOM     68  C   UNL A   1      48.788  27.522  30.949  1.00  0.00     0.200 A 
ATOM     69  F   UNL A   1      49.313  28.415  28.828  1.00  0.00    -0.200 F 
ATOM     70  F   UNL A   1      49.983  26.920  31.008  1.00  0.00    -0.200 F 
ENDBRANCH  46  60
BRANCH  47  71
ATOM     71  C   UNL A   1      37.107  32.688  30.303  1.00  0.00     0.064 A 
ATOM     72  C   UNL A   1      36.690  33.469  29.217  1.00  0.00     0.173 A 
ATOM     73  C   UNL A   1      36.186  32.462  31.337  1.00  0.00     0.173 A 
ATOM     74  F   UNL A   1      37.542  33.729  28.214  1.00  0.00    -0.203 F 
ATOM     75  C   UNL A   1      35.409  34.016  29.174  1.00  0.00     0.198 A 
ATOM     76  C   UNL A   1      34.898  32.987  31.281  1.00  0.00     0.198 A 
ATOM     77  F   UNL A   1      36.536  31.717  32.397  1.00  0.00    -0.203 F 
ATOM     78  F   UNL A   1      35.050  34.792  28.143  1.00  0.00    -0.200 F 
ATOM     79  C   UNL A   1      34.512  33.770  30.202  1.00  0.00     0.200 A 
ATOM     80  F   UNL A   1      34.029  32.736  32.269  1.00  0.00    -0.200 F 
ATOM     81  F   UNL A   1      33.279  34.292  30.158  1.00  0.00    -0.200 F 
ENDBRANCH  47  71
BRANCH  59  82
ATOM     82  C   UNL A   1      43.147  34.937  32.942  1.00  0.00     0.064 A 
ATOM     83  C   UNL A   1      43.166  35.006  34.343  1.00  0.00     0.173 A 
ATOM     84  C   UNL A   1      43.534  36.077  32.222  1.00  0.00     0.173 A 
ATOM     85  F   UNL A   1      42.788  33.947  35.076  1.00  0.00    -0.203 F 
ATOM     86  C   UNL A   1      43.537  36.177  34.997  1.00  0.00     0.198 A 
ATOM     87  C   UNL A   1      43.931  37.238  32.879  1.00  0.00     0.198 A 
ATOM     88  F   UNL A   1      43.537  36.061  30.881  1.00  0.00    -0.203 F 
ATOM     89  F   UNL A   1      43.505  36.235  36.335  1.00  0.00    -0.200 F 
ATOM     90  C   UNL A   1      43.926  37.290  34.264  1.00  0.00     0.200 A 
ATOM     91  F   UNL A   1      44.318  38.308  32.171  1.00  0.00    -0.200 F 
ATOM     92  F   UNL A   1      44.290  38.415  34.896  1.00  0.00    -0.200 F 
ENDBRANCH  59  82
ENDBRANCH  33  34
ENDBRANCH  25  28
ENDBRANCH  23  24
ENDBRANCH  22  23
ENDBRANCH   1  22
TORSDOF 14
ENDMDL
MODEL 2
REMARK VINA RESULT:     -11.5      4.178     11.946
REMARK SMILES COc1ccc(COc2cncc(C(=O)NCCCNC(=O)c3ccc(-c4c5nc(c(-c6c(F)c(F)c(F)c(F)c6F)c6ccc([nH]6)c(-c6c(F)c(F)c(F)c(F)c6F)c6nc(c(-c7c(F)c(F)c(F)c(F)c7F)c7ccc4[nH]7)C=C6)C=C5)cc3)n2)cc1
REMARK SMILES IDX 17 1 16 2 14 3 15 4 13 6 9 7 10 8 86 9 11 10 12 11 8 12 7 13
REMARK SMILES IDX 6 14 3 15 4 16 88 17 5 18 87 19 2 20 1 21 18 22 19 23 20 24
REMARK SMILES IDX 21 25 22 27 23 28 24 29 85 30 25 31 84 32 26 33 27 34 28 35
REMARK SMILES IDX 78 36 29 37 83 38 77 39 79 40 30 41 82 42 76 43 75 44 31 46
REMARK SMILES IDX 63 47 43 48 62 49 44 50 47 51 61 52 80 53 45 54 46 55 60 57
REMARK SMILES IDX 81 58 48 59 32 60 33 61 41 62 34 63 35 64 39 65 42 66 36 67
REMARK SMILES IDX 37 68 40 69 38 70 64 71 65 72 73 73 66 74 67 75 71 76 74 77
REMARK SMILES IDX 68 78 69 79 72 80 70 81 49 82 50 83 58 84 51 85 52 86 56 87
REMARK SMILES IDX 59 88 53 89 54 90 57 91 55 92
REMARK H PARENT 16 5 20 26 79 45 47 56
REMARK Flexibility Score: inf
ROOT
ATOM      1  C   UNL A   1      35.249  34.653  28.746  1.00  0.00     0.118 C 
ENDROOT
BRANCH   1   2
ATOM      2  N   UNL A   1      33.992  35.321  28.452  1.00  0.00    -0.351 N 
ATOM      3  C   UNL A   1      33.081  35.942  29.275  1.00  0.00     0.271 C 
ATOM      4  O   UNL A   1      32.069  36.413  28.752  1.00  0.00    -0.267 OA
ATOM      5  H   UNL A   1      33.750  35.329  27.499  1.00  0.00     0.163 HD
BRANCH   3   6
ATOM      6  C   UNL A   1      33.287  36.106  30.740  1.00  0.00     0.150 A 
ATOM      7  C   UNL A   1      33.824  35.272  32.804  1.00  0.00     0.233 A 
ATOM      8  C   UNL A   1      33.917  36.571  33.298  1.00  0.00     0.179 A 
ATOM      9  N   UNL A   1      33.500  35.015  31.521  1.00  0.00    -0.205 NA
ATOM     10  N   UNL A   1      33.634  37.662  32.546  1.00  0.00    -0.257 NA
ATOM     11  C   UNL A   1      33.327  37.398  31.253  1.00  0.00     0.145 A 
BRANCH   7  12
ATOM     12  O   UNL A   1      34.221  34.179  33.527  1.00  0.00    -0.472 OA
BRANCH  12  13
ATOM     13  C   UNL A   1      34.590  33.074  32.692  1.00  0.00     0.267 C 
BRANCH  13  14
ATOM     14  C   UNL A   1      36.016  32.657  32.958  1.00  0.00    -0.010 A 
ATOM     15  C   UNL A   1      38.572  31.800  33.751  1.00  0.00     0.118 A 
ATOM     16  C   UNL A   1      38.173  33.120  33.962  1.00  0.00     0.047 A 
ATOM     17  C   UNL A   1      37.704  30.917  33.107  1.00  0.00     0.047 A 
ATOM     18  C   UNL A   1      36.911  33.555  33.556  1.00  0.00     0.011 A 
ATOM     19  C   UNL A   1      36.434  31.346  32.707  1.00  0.00     0.011 A 
BRANCH  15  20
ATOM     20  O   UNL A   1      39.808  31.494  34.247  1.00  0.00    -0.497 OA
ATOM     21  C   UNL A   1      39.911  30.307  35.024  1.00  0.00     0.278 C 
ENDBRANCH  15  20
ENDBRANCH  13  14
ENDBRANCH  12  13
ENDBRANCH   7  12
ENDBRANCH   3   6
ENDBRANCH   1   2
BRANCH   1  22
ATOM     22  C   UNL A   1      35.263  33.229  28.200  1.00  0.00     0.042 C 
BRANCH  22  23
ATOM     23  C   UNL A   1      34.543  32.229  29.105  1.00  0.00     0.118 C 
BRANCH  23  24
ATOM     24  N   UNL A   1      34.065  31.061  28.372  1.00  0.00    -0.352 N 
ATOM     25  C   UNL A   1      34.745  29.978  27.883  1.00  0.00     0.251 C 
ATOM     26  H   UNL A   1      33.096  31.051  28.201  1.00  0.00     0.163 HD
ATOM     27  O   UNL A   1      34.179  29.201  27.114  1.00  0.00    -0.269 OA
BRANCH  25  28
ATOM     28  C   UNL A   1      36.152  29.733  28.257  1.00  0.00     0.039 A 
ATOM     29  C   UNL A   1      36.431  29.237  29.534  1.00  0.00     0.014 A 
ATOM     30  C   UNL A   1      37.197  30.028  27.378  1.00  0.00     0.014 A 
ATOM     31  C   UNL A   1      37.749  28.973  29.905  1.00  0.00     0.010 A 
ATOM     32  C   UNL A   1      38.507  29.704  27.724  1.00  0.00     0.010 A 
ATOM     33  C   UNL A   1      38.795  29.169  28.989  1.00  0.00    -0.014 A 
BRANCH  33  34
ATOM     34  C   UNL A   1      40.191  28.797  29.327  1.00  0.00     0.031 A 
ATOM     35  C   UNL A   1      41.059  29.730  30.122  1.00  0.00     0.074 A 
ATOM     36  C   UNL A   1      40.698  27.645  28.849  1.00  0.00     0.049 A 
ATOM     37  N   UNL A   1      42.322  29.612  30.444  1.00  0.00    -0.248 NA
ATOM     38  C   UNL A   1      40.429  30.970  30.601  1.00  0.00     0.031 C 
ATOM     39  C   UNL A   1      39.968  26.678  28.025  1.00  0.00     0.029 A 
ATOM     40  N   UNL A   1      41.950  27.095  28.974  1.00  0.00    -0.354 N 
ATOM     41  C   UNL A   1      42.643  30.766  31.146  1.00  0.00     0.074 A 
ATOM     42  C   UNL A   1      41.454  31.592  31.166  1.00  0.00     0.031 C 
ATOM     43  C   UNL A   1      40.779  25.649  27.733  1.00  0.00     0.029 A 
ATOM     44  C   UNL A   1      42.094  25.900  28.314  1.00  0.00     0.049 A 
ATOM     45  H   UNL A   1      42.675  27.519  29.488  1.00  0.00     0.167 HD
ATOM     46  C   UNL A   1      43.816  31.096  31.737  1.00  0.00     0.037 A 
ATOM     47  C   UNL A   1      43.170  25.101  28.181  1.00  0.00     0.037 A 
ATOM     48  C   UNL A   1      44.989  30.260  31.735  1.00  0.00     0.049 A 
ATOM     49  C   UNL A   1      44.462  25.496  28.840  1.00  0.00     0.074 A 
ATOM     50  C   UNL A   1      46.202  30.473  32.365  1.00  0.00     0.029 A 
ATOM     51  N   UNL A   1      45.094  29.049  31.065  1.00  0.00    -0.354 N 
ATOM     52  N   UNL A   1      44.734  26.556  29.561  1.00  0.00    -0.248 NA
ATOM     53  C   UNL A   1      45.598  24.579  28.669  1.00  0.00     0.031 C 
ATOM     54  C   UNL A   1      47.057  29.415  32.040  1.00  0.00     0.029 A 
ATOM     55  C   UNL A   1      46.362  28.518  31.245  1.00  0.00     0.049 A 
ATOM     56  H   UNL A   1      44.375  28.631  30.539  1.00  0.00     0.167 HD
ATOM     57  C   UNL A   1      46.060  26.427  29.945  1.00  0.00     0.074 A 
ATOM     58  C   UNL A   1      46.536  25.175  29.393  1.00  0.00     0.031 C 
ATOM     59  C   UNL A   1      46.819  27.272  30.685  1.00  0.00     0.037 A 
BRANCH  46  60
ATOM     60  C   UNL A   1      43.892  32.421  32.439  1.00  0.00     0.064 A 
ATOM     61  C   UNL A   1      44.324  33.579  31.776  1.00  0.00     0.173 A 
ATOM     62  C   UNL A   1      43.488  32.542  33.777  1.00  0.00     0.173 A 
ATOM     63  F   UNL A   1      44.730  33.514  30.498  1.00  0.00    -0.203 F 
ATOM     64  C   UNL A   1      44.373  34.805  32.434  1.00  0.00     0.198 A 
ATOM     65  C   UNL A   1      43.513  33.776  34.424  1.00  0.00     0.198 A 
ATOM     66  F   UNL A   1      43.061  31.467  34.455  1.00  0.00    -0.203 F 
ATOM     67  F   UNL A   1      44.832  35.890  31.793  1.00  0.00    -0.200 F 
ATOM     68  C   UNL A   1      43.963  34.904  33.755  1.00  0.00     0.200 A 
ATOM     69  F   UNL A   1      43.104  33.872  35.696  1.00  0.00    -0.200 F 
ATOM     70  F   UNL A   1      44.005  36.086  34.384  1.00  0.00    -0.200 F 
ENDBRANCH  46  60
BRANCH  47  71
ATOM     71  C   UNL A   1      43.062  23.839  27.407  1.00  0.00     0.064 A 
ATOM     72  C   UNL A   1      42.577  22.668  28.004  1.00  0.00     0.173 A 
ATOM     73  C   UNL A   1      43.437  23.777  26.056  1.00  0.00     0.173 A 
ATOM     74  F   UNL A   1      42.226  22.674  29.299  1.00  0.00    -0.203 F 
ATOM     75  C   UNL A   1      42.486  21.478  27.285  1.00  0.00     0.198 A 
ATOM     76  C   UNL A   1      43.320  22.593  25.331  1.00  0.00     0.198 A 
ATOM     77  F   UNL A   1      43.903  24.872  25.437  1.00  0.00    -0.203 F 
ATOM     78  F   UNL A   1      42.057  20.363  27.892  1.00  0.00    -0.200 F 
ATOM     79  C   UNL A   1      42.851  21.443  25.949  1.00  0.00     0.200 A 
ATOM     80  F   UNL A   1      43.661  22.567  24.036  1.00  0.00    -0.200 F 
ATOM     81  F   UNL A   1      42.758  20.300  25.256  1.00  0.00    -0.200 F 
ENDBRANCH  47  71
BRANCH  59  82
ATOM     82  C   UNL A   1      48.236  26.860  30.957  1.00  0.00     0.064 A 
ATOM     83  C   UNL A   1      49.295  27.312  30.156  1.00  0.00     0.173 A 
ATOM     84  C   UNL A   1      48.542  26.035  32.048  1.00  0.00     0.173 A 
ATOM     85  F   UNL A   1      49.052  28.091  29.091  1.00  0.00    -0.203 F 
ATOM     86  C   UNL A   1      50.607  26.934  30.426  1.00  0.00     0.198 A 
ATOM     87  C   UNL A   1      49.857  25.680  32.331  1.00  0.00     0.198 A 
ATOM     88  F   UNL A   1      47.564  25.580  32.846  1.00  0.00    -0.203 F 
ATOM     89  F   UNL A   1      51.599  27.341  29.622  1.00  0.00    -0.200 F 
ATOM     90  C   UNL A   1      50.888  26.124  31.518  1.00  0.00     0.200 A 
ATOM     91  F   UNL A   1      50.129  24.908  33.392  1.00  0.00    -0.200 F 
ATOM     92  F   UNL A   1      52.153  25.766  31.779  1.00  0.00    -0.200 F 
ENDBRANCH  59  82
ENDBRANCH  33  34
ENDBRANCH  25  28
ENDBRANCH  23  24
ENDBRANCH  22  23
ENDBRANCH   1  22
TORSDOF 14
ENDMDL
MODEL 3
REMARK VINA RESULT:     -11.3      4.158     11.773
REMARK SMILES COc1ccc(COc2cncc(C(=O)NCCCNC(=O)c3ccc(-c4c5nc(c(-c6c(F)c(F)c(F)c(F)c6F)c6ccc([nH]6)c(-c6c(F)c(F)c(F)c(F)c6F)c6nc(c(-c7c(F)c(F)c(F)c(F)c7F)c7ccc4[nH]7)C=C6)C=C5)cc3)n2)cc1
REMARK SMILES IDX 17 1 16 2 14 3 15 4 13 6 9 7 10 8 86 9 11 10 12 11 8 12 7 13
REMARK SMILES IDX 6 14 3 15 4 16 88 17 5 18 87 19 2 20 1 21 18 22 19 23 20 24
REMARK SMILES IDX 21 25 22 27 23 28 24 29 85 30 25 31 84 32 26 33 27 34 28 35
REMARK SMILES IDX 78 36 29 37 83 38 77 39 79 40 30 41 82 42 76 43 75 44 31 46
REMARK SMILES IDX 63 47 43 48 62 49 44 50 47 51 61 52 80 53 45 54 46 55 60 57
REMARK SMILES IDX 81 58 48 59 32 60 33 61 41 62 34 63 35 64 39 65 42 66 36 67
REMARK SMILES IDX 37 68 40 69 38 70 64 71 65 72 73 73 66 74 67 75 71 76 74 77
REMARK SMILES IDX 68 78 69 79 72 80 70 81 49 82 50 83 58 84 51 85 52 86 56 87
REMARK SMILES IDX 59 88 53 89 54 90 57 91 55 92
REMARK H PARENT 16 5 20 26 79 45 47 56
REMARK Flexibility Score: inf
ROOT
ATOM      1  C   UNL A   1      35.440  34.927  28.807  1.00  0.00     0.118 C 
ENDROOT
BRANCH   1   2
ATOM      2  N   UNL A   1      34.130  35.454  28.462  1.00  0.00    -0.351 N 
ATOM      3  C   UNL A   1      33.125  35.971  29.246  1.00  0.00     0.271 C 
ATOM      4  O   UNL A   1      32.089  36.329  28.682  1.00  0.00    -0.267 OA
ATOM      5  H   UNL A   1      33.926  35.436  27.499  1.00  0.00     0.163 HD
BRANCH   3   6
ATOM      6  C   UNL A   1      33.254  36.155  30.717  1.00  0.00     0.150 A 
ATOM      7  C   UNL A   1      33.727  35.362  32.813  1.00  0.00     0.233 A 
ATOM      8  C   UNL A   1      33.742  36.668  33.297  1.00  0.00     0.179 A 
ATOM      9  N   UNL A   1      33.475  35.081  31.519  1.00  0.00    -0.205 NA
ATOM     10  N   UNL A   1      33.449  37.739  32.522  1.00  0.00    -0.257 NA
ATOM     11  C   UNL A   1      33.216  37.453  31.218  1.00  0.00     0.145 A 
BRANCH   7  12
ATOM     12  O   UNL A   1      34.134  34.293  33.565  1.00  0.00    -0.472 OA
BRANCH  12  13
ATOM     13  C   UNL A   1      34.481  33.158  32.762  1.00  0.00     0.267 C 
BRANCH  13  14
ATOM     14  C   UNL A   1      35.788  32.558  33.223  1.00  0.00    -0.010 A 
ATOM     15  C   UNL A   1      38.364  31.635  33.862  1.00  0.00     0.118 A 
ATOM     16  C   UNL A   1      37.621  31.015  32.857  1.00  0.00     0.047 A 
ATOM     17  C   UNL A   1      37.801  32.694  34.575  1.00  0.00     0.047 A 
ATOM     18  C   UNL A   1      36.335  31.459  32.546  1.00  0.00     0.011 A 
ATOM     19  C   UNL A   1      36.517  33.150  34.260  1.00  0.00     0.011 A 
BRANCH  15  20
ATOM     20  O   UNL A   1      39.626  31.137  34.024  1.00  0.00    -0.497 OA
ATOM     21  C   UNL A   1      39.800  29.743  33.805  1.00  0.00     0.278 C 
ENDBRANCH  15  20
ENDBRANCH  13  14
ENDBRANCH  12  13
ENDBRANCH   7  12
ENDBRANCH   3   6
ENDBRANCH   1   2
BRANCH   1  22
ATOM     22  C   UNL A   1      35.568  33.458  28.421  1.00  0.00     0.042 C 
BRANCH  22  23
ATOM     23  C   UNL A   1      34.681  32.534  29.256  1.00  0.00     0.118 C 
BRANCH  23  24
ATOM     24  N   UNL A   1      34.049  31.494  28.451  1.00  0.00    -0.352 N 
ATOM     25  C   UNL A   1      34.578  30.373  27.871  1.00  0.00     0.251 C 
ATOM     26  H   UNL A   1      33.084  31.619  28.301  1.00  0.00     0.163 HD
ATOM     27  O   UNL A   1      33.908  29.733  27.060  1.00  0.00    -0.269 OA
BRANCH  25  28
ATOM     28  C   UNL A   1      35.947  29.925  28.196  1.00  0.00     0.039 A 
ATOM     29  C   UNL A   1      36.945  30.055  27.225  1.00  0.00     0.014 A 
ATOM     30  C   UNL A   1      36.244  29.341  29.430  1.00  0.00     0.014 A 
ATOM     31  C   UNL A   1      38.251  29.663  27.514  1.00  0.00     0.010 A 
ATOM     32  C   UNL A   1      37.561  29.009  29.742  1.00  0.00     0.010 A 
ATOM     33  C   UNL A   1      38.578  29.171  28.788  1.00  0.00    -0.014 A 
BRANCH  33  34
ATOM     34  C   UNL A   1      39.979  28.847  29.150  1.00  0.00     0.031 A 
ATOM     35  C   UNL A   1      40.813  29.824  29.927  1.00  0.00     0.074 A 
ATOM     36  C   UNL A   1      40.522  27.695  28.710  1.00  0.00     0.049 A 
ATOM     37  N   UNL A   1      42.076  29.751  30.265  1.00  0.00    -0.248 NA
ATOM     38  C   UNL A   1      40.146  31.060  30.364  1.00  0.00     0.031 C 
ATOM     39  C   UNL A   1      39.827  26.687  27.907  1.00  0.00     0.029 A 
ATOM     40  N   UNL A   1      41.787  27.184  28.863  1.00  0.00    -0.354 N 
ATOM     41  C   UNL A   1      42.358  30.932  30.937  1.00  0.00     0.074 A 
ATOM     42  C   UNL A   1      41.148  31.726  30.922  1.00  0.00     0.031 C 
ATOM     43  C   UNL A   1      40.669  25.672  27.652  1.00  0.00     0.029 A 
ATOM     44  C   UNL A   1      41.970  25.975  28.239  1.00  0.00     0.049 A 
ATOM     45  H   UNL A   1      42.495  27.641  29.372  1.00  0.00     0.167 HD
ATOM     46  C   UNL A   1      43.516  31.310  31.529  1.00  0.00     0.037 A 
ATOM     47  C   UNL A   1      43.068  25.202  28.139  1.00  0.00     0.037 A 
ATOM     48  C   UNL A   1      44.710  30.507  31.562  1.00  0.00     0.049 A 
ATOM     49  C   UNL A   1      44.343  25.650  28.800  1.00  0.00     0.074 A 
ATOM     50  C   UNL A   1      45.911  30.770  32.198  1.00  0.00     0.029 A 
ATOM     51  N   UNL A   1      44.855  29.281  30.928  1.00  0.00    -0.354 N 
ATOM     52  N   UNL A   1      44.578  26.737  29.492  1.00  0.00    -0.248 NA
ATOM     53  C   UNL A   1      45.504  24.760  28.665  1.00  0.00     0.031 C 
ATOM     54  C   UNL A   1      46.797  29.727  31.911  1.00  0.00     0.029 A 
ATOM     55  C   UNL A   1      46.135  28.789  31.135  1.00  0.00     0.049 A 
ATOM     56  H   UNL A   1      44.153  28.828  30.408  1.00  0.00     0.167 HD
ATOM     57  C   UNL A   1      45.903  26.655  29.892  1.00  0.00     0.074 A 
ATOM     58  C   UNL A   1      46.418  25.401  29.381  1.00  0.00     0.031 C 
ATOM     59  C   UNL A   1      46.631  27.541  30.616  1.00  0.00     0.037 A 
BRANCH  46  60
ATOM     60  C   UNL A   1      43.549  32.655  32.194  1.00  0.00     0.064 A 
ATOM     61  C   UNL A   1      43.204  32.816  33.544  1.00  0.00     0.173 A 
ATOM     62  C   UNL A   1      43.972  33.790  31.485  1.00  0.00     0.173 A 
ATOM     63  F   UNL A   1      42.784  31.764  34.263  1.00  0.00    -0.203 F 
ATOM     64  C   UNL A   1      43.256  34.068  34.153  1.00  0.00     0.198 A 
ATOM     65  C   UNL A   1      44.049  35.035  32.104  1.00  0.00     0.198 A 
ATOM     66  F   UNL A   1      44.319  33.691  30.193  1.00  0.00    -0.203 F 
ATOM     67  F   UNL A   1      42.878  34.205  35.431  1.00  0.00    -0.200 F 
ATOM     68  C   UNL A   1      43.683  35.175  33.435  1.00  0.00     0.200 A 
ATOM     69  F   UNL A   1      44.474  36.101  31.413  1.00  0.00    -0.200 F 
ATOM     70  F   UNL A   1      43.739  36.376  34.024  1.00  0.00    -0.200 F 
ENDBRANCH  46  60
BRANCH  47  71
ATOM     71  C   UNL A   1      43.003  23.916  27.400  1.00  0.00     0.064 A 
ATOM     72  C   UNL A   1      43.356  23.847  26.045  1.00  0.00     0.173 A 
ATOM     73  C   UNL A   1      42.592  22.732  28.029  1.00  0.00     0.173 A 
ATOM     74  F   UNL A   1      43.736  24.958  25.397  1.00  0.00    -0.203 F 
ATOM     75  C   UNL A   1      43.285  22.646  25.343  1.00  0.00     0.198 A 
ATOM     76  C   UNL A   1      42.547  21.526  27.333  1.00  0.00     0.198 A 
ATOM     77  F   UNL A   1      42.248  22.744  29.326  1.00  0.00    -0.203 F 
ATOM     78  F   UNL A   1      43.590  22.617  24.039  1.00  0.00    -0.200 F 
ATOM     79  C   UNL A   1      42.887  21.486  25.988  1.00  0.00     0.200 A 
ATOM     80  F   UNL A   1      42.175  20.404  27.963  1.00  0.00    -0.200 F 
ATOM     81  F   UNL A   1      42.824  20.330  25.315  1.00  0.00    -0.200 F 
ENDBRANCH  47  71
BRANCH  59  82
ATOM     82  C   UNL A   1      48.056  27.176  30.913  1.00  0.00     0.064 A 
ATOM     83  C   UNL A   1      48.390  26.362  32.006  1.00  0.00     0.173 A 
ATOM     84  C   UNL A   1      49.093  27.614  30.077  1.00  0.00     0.173 A 
ATOM     85  F   UNL A   1      47.434  25.931  32.843  1.00  0.00    -0.203 F 
ATOM     86  C   UNL A   1      49.714  26.019  32.263  1.00  0.00     0.198 A 
ATOM     87  C   UNL A   1      50.413  27.248  30.322  1.00  0.00     0.198 A 
ATOM     88  F   UNL A   1      48.825  28.391  29.017  1.00  0.00    -0.203 F 
ATOM     89  F   UNL A   1      50.016  25.278  33.338  1.00  0.00    -0.200 F 
ATOM     90  C   UNL A   1      50.724  26.456  31.417  1.00  0.00     0.200 A 
ATOM     91  F   UNL A   1      51.386  27.660  29.498  1.00  0.00    -0.200 F 
ATOM     92  F   UNL A   1      51.998  26.120  31.663  1.00  0.00    -0.200 F 
ENDBRANCH  59  82
ENDBRANCH  33  34
ENDBRANCH  25  28
ENDBRANCH  23  24
ENDBRANCH  22  23
ENDBRANCH   1  22
TORSDOF 14
ENDMDL
