MODEL 1
REMARK VINA RESULT:     -12.4      0.000      0.000
REMARK SMILES Nc1ccc2[nH]cc(C(=O)NCCCNC(=O)c3ccc(-c4c5nc(c(-c6c(F)c(F)c(F)c(F)c6F)c6ccc([nH]6)c(-c6c(F)c(F)c(F)c(F)c6F)c6nc(c(-c7c(F)c(F)c(F)c(F)c7F)c7ccc4[nH]7)C=C6)C=C5)cc3)c2c1
REMARK SMILES IDX 13 1 12 2 11 3 9 4 10 5 8 7 2 8 3 9 82 10 4 11 81 12 5 13
REMARK SMILES IDX 6 14 7 15 1 17 14 20 15 21 16 22 17 24 18 25 19 26 80 27
REMARK SMILES IDX 20 28 79 29 21 30 22 31 23 32 73 33 24 34 78 35 72 36 74 37
REMARK SMILES IDX 25 38 77 39 71 40 70 41 26 43 58 44 38 45 57 46 39 47 42 48
REMARK SMILES IDX 56 49 75 50 40 51 41 52 55 54 76 55 43 56 27 57 28 58 36 59
REMARK SMILES IDX 29 60 30 61 34 62 37 63 31 64 32 65 35 66 33 67 59 68 60 69
REMARK SMILES IDX 68 70 61 71 62 72 66 73 69 74 63 75 64 76 67 77 65 78 44 79
REMARK SMILES IDX 45 80 53 81 46 82 47 83 51 84 54 85 48 86 49 87 52 88 50 89
REMARK H PARENT 11 6 6 16 1 18 1 19 15 23 74 42 42 53
REMARK Flexibility Score: inf
ROOT
ATOM      1  C   UNL A   1      36.123  32.155  28.766  1.00  0.00     0.042 C 
ENDROOT
BRANCH   1   2
ATOM      2  C   UNL A   1      35.675  33.485  28.147  1.00  0.00     0.118 C 
BRANCH   2   3
ATOM      3  N   UNL A   1      34.252  33.554  27.963  1.00  0.00    -0.352 N 
ATOM      4  C   UNL A   1      33.284  34.437  28.356  1.00  0.00     0.253 C 
ATOM      5  O   UNL A   1      32.204  34.248  27.796  1.00  0.00    -0.269 OA
ATOM      6  H   UNL A   1      33.895  32.799  27.442  1.00  0.00     0.163 HD
BRANCH   4   7
ATOM      7  C   UNL A   1      33.422  35.513  29.357  1.00  0.00     0.065 A 
ATOM      8  C   UNL A   1      34.169  35.339  33.193  1.00  0.00     0.032 A 
ATOM      9  C   UNL A   1      34.016  36.698  33.418  1.00  0.00     0.027 A 
ATOM     10  C   UNL A   1      33.998  34.837  31.890  1.00  0.00     0.036 A 
ATOM     11  C   UNL A   1      33.718  37.568  32.372  1.00  0.00     0.029 A 
ATOM     12  C   UNL A   1      33.688  35.666  30.781  1.00  0.00     0.014 A 
ATOM     13  C   UNL A   1      33.574  37.034  31.084  1.00  0.00     0.046 A 
ATOM     14  N   UNL A   1      33.302  37.699  29.921  1.00  0.00    -0.360 N 
ATOM     15  C   UNL A   1      33.218  36.816  28.896  1.00  0.00     0.097 A 
ATOM     16  H   UNL A   1      33.186  38.673  29.840  1.00  0.00     0.166 HD
BRANCH   8  17
ATOM     17  N   UNL A   1      34.493  34.486  34.233  1.00  0.00    -0.399 N 
ATOM     18  H   UNL A   1      33.948  34.481  35.053  1.00  0.00     0.156 HD
ATOM     19  H   UNL A   1      35.268  33.883  34.153  1.00  0.00     0.156 HD
ENDBRANCH   8  17
ENDBRANCH   4   7
ENDBRANCH   2   3
ENDBRANCH   1   2
BRANCH   1  20
ATOM     20  C   UNL A   1      35.065  31.547  29.694  1.00  0.00     0.118 C 
BRANCH  20  21
ATOM     21  N   UNL A   1      35.272  31.897  31.088  1.00  0.00    -0.352 N 
ATOM     22  C   UNL A   1      36.221  31.668  32.041  1.00  0.00     0.251 C 
ATOM     23  H   UNL A   1      34.532  32.445  31.439  1.00  0.00     0.163 HD
ATOM     24  O   UNL A   1      35.986  32.159  33.150  1.00  0.00    -0.269 OA
BRANCH  22  25
ATOM     25  C   UNL A   1      37.462  30.867  31.875  1.00  0.00     0.039 A 
ATOM     26  C   UNL A   1      38.752  31.373  31.728  1.00  0.00     0.014 A 
ATOM     27  C   UNL A   1      37.279  29.468  31.820  1.00  0.00     0.014 A 
ATOM     28  C   UNL A   1      39.811  30.507  31.452  1.00  0.00     0.010 A 
ATOM     29  C   UNL A   1      38.334  28.600  31.556  1.00  0.00     0.010 A 
ATOM     30  C   UNL A   1      39.597  29.125  31.328  1.00  0.00    -0.014 A 
BRANCH  30  31
ATOM     31  C   UNL A   1      40.757  28.266  31.086  1.00  0.00     0.031 A 
ATOM     32  C   UNL A   1      41.568  28.004  32.307  1.00  0.00     0.074 A 
ATOM     33  C   UNL A   1      41.064  27.688  29.904  1.00  0.00     0.049 A 
ATOM     34  N   UNL A   1      42.772  28.404  32.547  1.00  0.00    -0.248 NA
ATOM     35  C   UNL A   1      40.924  27.334  33.447  1.00  0.00     0.031 C 
ATOM     36  C   UNL A   1      40.231  27.605  28.702  1.00  0.00     0.029 A 
ATOM     37  N   UNL A   1      42.181  26.979  29.547  1.00  0.00    -0.354 N 
ATOM     38  C   UNL A   1      43.111  27.882  33.794  1.00  0.00     0.074 A 
ATOM     39  C   UNL A   1      41.898  27.354  34.359  1.00  0.00     0.031 C 
ATOM     40  C   UNL A   1      40.769  26.713  27.837  1.00  0.00     0.029 A 
ATOM     41  C   UNL A   1      42.061  26.285  28.347  1.00  0.00     0.049 A 
ATOM     42  H   UNL A   1      43.001  26.962  30.094  1.00  0.00     0.167 HD
ATOM     43  C   UNL A   1      44.417  27.710  34.138  1.00  0.00     0.037 A 
ATOM     44  C   UNL A   1      42.955  25.410  27.821  1.00  0.00     0.037 A 
ATOM     45  C   UNL A   1      45.283  28.451  33.261  1.00  0.00     0.049 A 
ATOM     46  C   UNL A   1      44.279  25.719  28.401  1.00  0.00     0.074 A 
ATOM     47  C   UNL A   1      45.729  29.747  33.138  1.00  0.00     0.029 A 
ATOM     48  N   UNL A   1      45.527  27.820  32.074  1.00  0.00    -0.354 N 
ATOM     49  N   UNL A   1      44.947  26.805  28.139  1.00  0.00    -0.248 NA
ATOM     50  C   UNL A   1      44.771  24.931  29.527  1.00  0.00     0.031 C 
ATOM     51  C   UNL A   1      46.123  29.909  31.775  1.00  0.00     0.029 A 
ATOM     52  C   UNL A   1      45.938  28.699  31.113  1.00  0.00     0.049 A 
ATOM     53  H   UNL A   1      45.418  26.852  31.930  1.00  0.00     0.167 HD
ATOM     54  C   UNL A   1      45.649  27.051  29.298  1.00  0.00     0.074 A 
ATOM     55  C   UNL A   1      45.658  25.792  30.029  1.00  0.00     0.031 C 
ATOM     56  C   UNL A   1      45.860  28.328  29.720  1.00  0.00     0.037 A 
BRANCH  43  57
ATOM     57  C   UNL A   1      44.952  26.525  34.915  1.00  0.00     0.064 A 
ATOM     58  C   UNL A   1      44.769  25.222  34.402  1.00  0.00     0.173 A 
ATOM     59  C   UNL A   1      45.328  26.591  36.274  1.00  0.00     0.173 A 
ATOM     60  F   UNL A   1      44.381  25.036  33.132  1.00  0.00    -0.203 F 
ATOM     61  C   UNL A   1      44.895  24.084  35.206  1.00  0.00     0.198 A 
ATOM     62  C   UNL A   1      45.499  25.451  37.060  1.00  0.00     0.198 A 
ATOM     63  F   UNL A   1      45.427  27.754  36.927  1.00  0.00    -0.203 F 
ATOM     64  F   UNL A   1      44.601  22.876  34.704  1.00  0.00    -0.200 F 
ATOM     65  C   UNL A   1      45.257  24.200  36.535  1.00  0.00     0.200 A 
ATOM     66  F   UNL A   1      45.822  25.586  38.355  1.00  0.00    -0.200 F 
ATOM     67  F   UNL A   1      45.325  23.118  37.321  1.00  0.00    -0.200 F 
ENDBRANCH  43  57
BRANCH  44  68
ATOM     68  C   UNL A   1      42.748  24.167  27.035  1.00  0.00     0.064 A 
ATOM     69  C   UNL A   1      43.234  24.065  25.718  1.00  0.00     0.173 A 
ATOM     70  C   UNL A   1      42.405  22.961  27.671  1.00  0.00     0.173 A 
ATOM     71  F   UNL A   1      43.599  25.166  25.044  1.00  0.00    -0.203 F 
ATOM     72  C   UNL A   1      43.446  22.826  25.106  1.00  0.00     0.198 A 
ATOM     73  C   UNL A   1      42.611  21.724  27.055  1.00  0.00     0.198 A 
ATOM     74  F   UNL A   1      41.970  22.955  28.938  1.00  0.00    -0.203 F 
ATOM     75  F   UNL A   1      44.005  22.768  23.888  1.00  0.00    -0.200 F 
ATOM     76  C   UNL A   1      43.156  21.656  25.784  1.00  0.00     0.200 A 
ATOM     77  F   UNL A   1      42.355  20.595  27.730  1.00  0.00    -0.200 F 
ATOM     78  F   UNL A   1      43.445  20.467  25.237  1.00  0.00    -0.200 F 
ENDBRANCH  44  68
BRANCH  56  79
ATOM     79  C   UNL A   1      45.830  29.408  28.692  1.00  0.00     0.064 A 
ATOM     80  C   UNL A   1      44.672  30.093  28.292  1.00  0.00     0.173 A 
ATOM     81  C   UNL A   1      47.051  29.813  28.142  1.00  0.00     0.173 A 
ATOM     82  F   UNL A   1      43.477  29.803  28.826  1.00  0.00    -0.203 F 
ATOM     83  C   UNL A   1      44.739  31.126  27.357  1.00  0.00     0.198 A 
ATOM     84  C   UNL A   1      47.121  30.864  27.235  1.00  0.00     0.198 A 
ATOM     85  F   UNL A   1      48.190  29.209  28.518  1.00  0.00    -0.203 F 
ATOM     86  F   UNL A   1      43.624  31.768  26.981  1.00  0.00    -0.200 F 
ATOM     87  C   UNL A   1      45.964  31.515  26.838  1.00  0.00     0.200 A 
ATOM     88  F   UNL A   1      48.312  31.261  26.768  1.00  0.00    -0.200 F 
ATOM     89  F   UNL A   1      46.035  32.535  25.971  1.00  0.00    -0.200 F 
ENDBRANCH  56  79
ENDBRANCH  30  31
ENDBRANCH  22  25
ENDBRANCH  20  21
ENDBRANCH   1  20
TORSDOF 11
ENDMDL
MODEL 2
REMARK VINA RESULT:     -12.4      4.114     11.416
REMARK SMILES Nc1ccc2[nH]cc(C(=O)NCCCNC(=O)c3ccc(-c4c5nc(c(-c6c(F)c(F)c(F)c(F)c6F)c6ccc([nH]6)c(-c6c(F)c(F)c(F)c(F)c6F)c6nc(c(-c7c(F)c(F)c(F)c(F)c7F)c7ccc4[nH]7)C=C6)C=C5)cc3)c2c1
REMARK SMILES IDX 13 1 12 2 11 3 9 4 10 5 8 7 2 8 3 9 82 10 4 11 81 12 5 13
REMARK SMILES IDX 6 14 7 15 1 17 14 20 15 21 16 22 17 24 18 25 19 26 80 27
REMARK SMILES IDX 20 28 79 29 21 30 22 31 23 32 73 33 24 34 78 35 72 36 74 37
REMARK SMILES IDX 25 38 77 39 71 40 70 41 26 43 58 44 38 45 57 46 39 47 42 48
REMARK SMILES IDX 56 49 75 50 40 51 41 52 55 54 76 55 43 56 27 57 28 58 36 59
REMARK SMILES IDX 29 60 30 61 34 62 37 63 31 64 32 65 35 66 33 67 59 68 60 69
REMARK SMILES IDX 68 70 61 71 62 72 66 73 69 74 63 75 64 76 67 77 65 78 44 79
REMARK SMILES IDX 45 80 53 81 46 82 47 83 51 84 54 85 48 86 49 87 52 88 50 89
REMARK H PARENT 11 6 6 16 1 18 1 19 15 23 74 42 42 53
REMARK Flexibility Score: inf
ROOT
ATOM      1  C   UNL A   1      42.484  19.456  27.055  1.00  0.00     0.042 C 
ENDROOT
BRANCH   1   2
ATOM      2  C   UNL A   1      42.905  19.398  25.581  1.00  0.00     0.118 C 
BRANCH   2   3
ATOM      3  N   UNL A   1      44.331  19.449  25.415  1.00  0.00    -0.352 N 
ATOM      4  C   UNL A   1      45.258  20.455  25.445  1.00  0.00     0.253 C 
ATOM      5  O   UNL A   1      46.417  20.042  25.479  1.00  0.00    -0.269 OA
ATOM      6  H   UNL A   1      44.729  18.566  25.239  1.00  0.00     0.163 HD
BRANCH   4   7
ATOM      7  C   UNL A   1      44.988  21.906  25.416  1.00  0.00     0.065 A 
ATOM      8  C   UNL A   1      45.208  24.594  28.249  1.00  0.00     0.032 A 
ATOM      9  C   UNL A   1      44.700  25.632  27.485  1.00  0.00     0.027 A 
ATOM     10  C   UNL A   1      45.349  23.320  27.668  1.00  0.00     0.036 A 
ATOM     11  C   UNL A   1      44.350  25.435  26.151  1.00  0.00     0.029 A 
ATOM     12  C   UNL A   1      45.007  23.049  26.318  1.00  0.00     0.014 A 
ATOM     13  C   UNL A   1      44.523  24.157  25.601  1.00  0.00     0.046 A 
ATOM     14  N   UNL A   1      44.264  23.748  24.322  1.00  0.00    -0.360 N 
ATOM     15  C   UNL A   1      44.541  22.426  24.198  1.00  0.00     0.097 A 
ATOM     16  H   UNL A   1      43.928  24.326  23.600  1.00  0.00     0.166 HD
BRANCH   8  17
ATOM     17  N   UNL A   1      45.580  24.806  29.565  1.00  0.00    -0.399 N 
ATOM     18  H   UNL A   1      46.303  24.272  29.964  1.00  0.00     0.156 HD
ATOM     19  H   UNL A   1      45.120  25.493  30.102  1.00  0.00     0.156 HD
ENDBRANCH   8  17
ENDBRANCH   4   7
ENDBRANCH   2   3
ENDBRANCH   1   2
BRANCH   1  20
ATOM     20  C   UNL A   1      41.986  20.844  27.474  1.00  0.00     0.118 C 
BRANCH  20  21
ATOM     21  N   UNL A   1      40.680  21.163  26.923  1.00  0.00    -0.352 N 
ATOM     22  C   UNL A   1      39.907  22.277  26.780  1.00  0.00     0.251 C 
ATOM     23  H   UNL A   1      40.237  20.364  26.555  1.00  0.00     0.163 HD
ATOM     24  O   UNL A   1      38.808  22.092  26.245  1.00  0.00    -0.269 OA
BRANCH  22  25
ATOM     25  C   UNL A   1      40.244  23.651  27.236  1.00  0.00     0.039 A 
ATOM     26  C   UNL A   1      41.318  24.005  28.048  1.00  0.00     0.014 A 
ATOM     27  C   UNL A   1      39.347  24.663  26.829  1.00  0.00     0.014 A 
ATOM     28  C   UNL A   1      41.442  25.318  28.504  1.00  0.00     0.010 A 
ATOM     29  C   UNL A   1      39.473  25.976  27.272  1.00  0.00     0.010 A 
ATOM     30  C   UNL A   1      40.499  26.296  28.149  1.00  0.00    -0.014 A 
BRANCH  30  31
ATOM     31  C   UNL A   1      40.713  27.664  28.620  1.00  0.00     0.031 A 
ATOM     32  C   UNL A   1      41.952  28.291  28.083  1.00  0.00     0.074 A 
ATOM     33  C   UNL A   1      39.863  28.357  29.410  1.00  0.00     0.049 A 
ATOM     34  N   UNL A   1      43.009  28.627  28.745  1.00  0.00    -0.248 NA
ATOM     35  C   UNL A   1      42.087  28.447  26.627  1.00  0.00     0.031 C 
ATOM     36  C   UNL A   1      38.490  28.001  29.780  1.00  0.00     0.029 A 
ATOM     37  N   UNL A   1      40.027  29.581  30.001  1.00  0.00    -0.354 N 
ATOM     38  C   UNL A   1      43.877  29.204  27.820  1.00  0.00     0.074 A 
ATOM     39  C   UNL A   1      43.321  28.942  26.520  1.00  0.00     0.031 C 
ATOM     40  C   UNL A   1      37.879  29.072  30.341  1.00  0.00     0.029 A 
ATOM     41  C   UNL A   1      38.858  30.131  30.519  1.00  0.00     0.049 A 
ATOM     42  H   UNL A   1      40.901  30.034  30.057  1.00  0.00     0.167 HD
ATOM     43  C   UNL A   1      44.848  30.065  28.231  1.00  0.00     0.037 A 
ATOM     44  C   UNL A   1      38.706  31.374  31.040  1.00  0.00     0.037 A 
ATOM     45  C   UNL A   1      45.058  29.968  29.650  1.00  0.00     0.049 A 
ATOM     46  C   UNL A   1      40.037  31.839  31.486  1.00  0.00     0.074 A 
ATOM     47  C   UNL A   1      45.745  29.149  30.516  1.00  0.00     0.029 A 
ATOM     48  N   UNL A   1      44.146  30.668  30.386  1.00  0.00    -0.354 N 
ATOM     49  N   UNL A   1      40.683  31.323  32.492  1.00  0.00    -0.248 NA
ATOM     50  C   UNL A   1      40.812  32.727  30.625  1.00  0.00     0.031 C 
ATOM     51  C   UNL A   1      45.108  29.283  31.787  1.00  0.00     0.029 A 
ATOM     52  C   UNL A   1      44.072  30.204  31.669  1.00  0.00     0.049 A 
ATOM     53  H   UNL A   1      43.607  31.415  30.034  1.00  0.00     0.167 HD
ATOM     54  C   UNL A   1      42.008  31.471  32.147  1.00  0.00     0.074 A 
ATOM     55  C   UNL A   1      42.034  32.493  31.109  1.00  0.00     0.031 C 
ATOM     56  C   UNL A   1      42.919  30.518  32.480  1.00  0.00     0.037 A 
BRANCH  43  57
ATOM     57  C   UNL A   1      45.257  31.319  27.484  1.00  0.00     0.064 A 
ATOM     58  C   UNL A   1      46.584  31.442  27.016  1.00  0.00     0.173 A 
ATOM     59  C   UNL A   1      44.512  32.517  27.507  1.00  0.00     0.173 A 
ATOM     60  F   UNL A   1      47.397  30.376  26.978  1.00  0.00    -0.203 F 
ATOM     61  C   UNL A   1      47.132  32.678  26.656  1.00  0.00     0.198 A 
ATOM     62  C   UNL A   1      45.046  33.740  27.103  1.00  0.00     0.198 A 
ATOM     63  F   UNL A   1      43.282  32.577  28.030  1.00  0.00    -0.203 F 
ATOM     64  F   UNL A   1      48.427  32.764  26.326  1.00  0.00    -0.200 F 
ATOM     65  C   UNL A   1      46.363  33.827  26.704  1.00  0.00     0.200 A 
ATOM     66  F   UNL A   1      44.294  34.847  27.184  1.00  0.00    -0.200 F 
ATOM     67  F   UNL A   1      46.899  35.019  26.414  1.00  0.00    -0.200 F 
ENDBRANCH  43  57
BRANCH  44  68
ATOM     68  C   UNL A   1      37.559  32.315  30.986  1.00  0.00     0.064 A 
ATOM     69  C   UNL A   1      37.249  32.996  29.793  1.00  0.00     0.173 A 
ATOM     70  C   UNL A   1      36.554  32.285  31.968  1.00  0.00     0.173 A 
ATOM     71  F   UNL A   1      38.146  33.060  28.798  1.00  0.00    -0.203 F 
ATOM     72  C   UNL A   1      35.981  33.538  29.562  1.00  0.00     0.198 A 
ATOM     73  C   UNL A   1      35.289  32.833  31.739  1.00  0.00     0.198 A 
ATOM     74  F   UNL A   1      36.742  31.629  33.121  1.00  0.00    -0.203 F 
ATOM     75  F   UNL A   1      35.695  34.090  28.374  1.00  0.00    -0.200 F 
ATOM     76  C   UNL A   1      34.995  33.435  30.528  1.00  0.00     0.200 A 
ATOM     77  F   UNL A   1      34.331  32.704  32.667  1.00  0.00    -0.200 F 
ATOM     78  F   UNL A   1      33.753  33.870  30.274  1.00  0.00    -0.200 F 
ENDBRANCH  44  68
BRANCH  56  79
ATOM     79  C   UNL A   1      42.606  29.642  33.647  1.00  0.00     0.064 A 
ATOM     80  C   UNL A   1      41.963  28.398  33.558  1.00  0.00     0.173 A 
ATOM     81  C   UNL A   1      43.050  30.061  34.907  1.00  0.00     0.173 A 
ATOM     82  F   UNL A   1      41.571  27.905  32.375  1.00  0.00    -0.203 F 
ATOM     83  C   UNL A   1      41.752  27.620  34.696  1.00  0.00     0.198 A 
ATOM     84  C   UNL A   1      42.868  29.269  36.034  1.00  0.00     0.198 A 
ATOM     85  F   UNL A   1      43.698  31.229  35.037  1.00  0.00    -0.203 F 
ATOM     86  F   UNL A   1      41.131  26.435  34.596  1.00  0.00    -0.200 F 
ATOM     87  C   UNL A   1      42.213  28.053  35.930  1.00  0.00     0.200 A 
ATOM     88  F   UNL A   1      43.351  29.675  37.217  1.00  0.00    -0.200 F 
ATOM     89  F   UNL A   1      42.048  27.286  37.017  1.00  0.00    -0.200 F 
ENDBRANCH  56  79
ENDBRANCH  30  31
ENDBRANCH  22  25
ENDBRANCH  20  21
ENDBRANCH   1  20
TORSDOF 11
ENDMDL
MODEL 3
REMARK VINA RESULT:     -12.3      4.101     11.108
REMARK SMILES Nc1ccc2[nH]cc(C(=O)NCCCNC(=O)c3ccc(-c4c5nc(c(-c6c(F)c(F)c(F)c(F)c6F)c6ccc([nH]6)c(-c6c(F)c(F)c(F)c(F)c6F)c6nc(c(-c7c(F)c(F)c(F)c(F)c7F)c7ccc4[nH]7)C=C6)C=C5)cc3)c2c1
REMARK SMILES IDX 13 1 12 2 11 3 9 4 10 5 8 7 2 8 3 9 82 10 4 11 81 12 5 13
REMARK SMILES IDX 6 14 7 15 1 17 14 20 15 21 16 22 17 24 18 25 19 26 80 27
REMARK SMILES IDX 20 28 79 29 21 30 22 31 23 32 73 33 24 34 78 35 72 36 74 37
REMARK SMILES IDX 25 38 77 39 71 40 70 41 26 43 58 44 38 45 57 46 39 47 42 48
REMARK SMILES IDX 56 49 75 50 40 51 41 52 55 54 76 55 43 56 27 57 28 58 36 59
REMARK SMILES IDX 29 60 30 61 34 62 37 63 31 64 32 65 35 66 33 67 59 68 60 69
REMARK SMILES IDX 68 70 61 71 62 72 66 73 69 74 63 75 64 76 67 77 65 78 44 79
REMARK SMILES IDX 45 80 53 81 46 82 47 83 51 84 54 85 48 86 49 87 52 88 50 89
REMARK H PARENT 11 6 6 16 1 18 1 19 15 23 74 42 42 53
REMARK Flexibility Score: inf
ROOT
ATOM      1  C   UNL A   1      43.807  21.965  25.002  1.00  0.00     0.042 C 
ENDROOT
BRANCH   1   2
ATOM      2  C   UNL A   1      44.437  23.354  24.830  1.00  0.00     0.118 C 
BRANCH   2   3
ATOM      3  N   UNL A   1      43.460  24.407  24.864  1.00  0.00    -0.352 N 
ATOM      4  C   UNL A   1      43.512  25.742  25.157  1.00  0.00     0.253 C 
ATOM      5  O   UNL A   1      42.483  26.344  24.848  1.00  0.00    -0.269 OA
ATOM      6  H   UNL A   1      42.556  24.100  24.627  1.00  0.00     0.163 HD
BRANCH   4   7
ATOM      7  C   UNL A   1      44.628  26.464  25.801  1.00  0.00     0.065 A 
ATOM      8  C   UNL A   1      45.957  26.337  29.477  1.00  0.00     0.032 A 
ATOM      9  C   UNL A   1      46.891  27.347  29.314  1.00  0.00     0.027 A 
ATOM     10  C   UNL A   1      45.156  25.960  28.383  1.00  0.00     0.036 A 
ATOM     11  C   UNL A   1      47.058  27.976  28.082  1.00  0.00     0.029 A 
ATOM     12  C   UNL A   1      45.270  26.563  27.103  1.00  0.00     0.014 A 
ATOM     13  C   UNL A   1      46.256  27.561  27.011  1.00  0.00     0.046 A 
ATOM     14  N   UNL A   1      46.263  28.023  25.724  1.00  0.00    -0.360 N 
ATOM     15  C   UNL A   1      45.315  27.380  24.999  1.00  0.00     0.097 A 
ATOM     16  H   UNL A   1      46.867  28.718  25.375  1.00  0.00     0.166 HD
BRANCH   8  17
ATOM     17  N   UNL A   1      45.817  25.699  30.697  1.00  0.00    -0.399 N 
ATOM     18  H   UNL A   1      44.993  25.201  30.901  1.00  0.00     0.156 HD
ATOM     19  H   UNL A   1      46.544  25.742  31.361  1.00  0.00     0.156 HD
ENDBRANCH   8  17
ENDBRANCH   4   7
ENDBRANCH   2   3
ENDBRANCH   1   2
BRANCH   1  20
ATOM     20  C   UNL A   1      43.211  21.754  26.399  1.00  0.00     0.118 C 
BRANCH  20  21
ATOM     21  N   UNL A   1      41.760  21.688  26.386  1.00  0.00    -0.352 N 
ATOM     22  C   UNL A   1      40.724  22.526  26.676  1.00  0.00     0.251 C 
ATOM     23  H   UNL A   1      41.440  20.805  26.089  1.00  0.00     0.163 HD
ATOM     24  O   UNL A   1      39.596  22.040  26.536  1.00  0.00    -0.269 OA
BRANCH  22  25
ATOM     25  C   UNL A   1      40.830  23.924  27.170  1.00  0.00     0.039 A 
ATOM     26  C   UNL A   1      41.720  24.386  28.137  1.00  0.00     0.014 A 
ATOM     27  C   UNL A   1      39.899  24.834  26.624  1.00  0.00     0.014 A 
ATOM     28  C   UNL A   1      41.623  25.699  28.600  1.00  0.00     0.010 A 
ATOM     29  C   UNL A   1      39.807  26.147  27.074  1.00  0.00     0.010 A 
ATOM     30  C   UNL A   1      40.643  26.569  28.097  1.00  0.00    -0.014 A 
BRANCH  30  31
ATOM     31  C   UNL A   1      40.626  27.948  28.588  1.00  0.00     0.031 A 
ATOM     32  C   UNL A   1      41.748  28.777  28.069  1.00  0.00     0.074 A 
ATOM     33  C   UNL A   1      39.669  28.480  29.379  1.00  0.00     0.049 A 
ATOM     34  N   UNL A   1      42.732  29.272  28.744  1.00  0.00    -0.248 NA
ATOM     35  C   UNL A   1      41.864  28.973  26.617  1.00  0.00     0.031 C 
ATOM     36  C   UNL A   1      38.371  27.898  29.734  1.00  0.00     0.029 A 
ATOM     37  N   UNL A   1      39.627  29.706  29.989  1.00  0.00    -0.354 N 
ATOM     38  C   UNL A   1      43.498  29.998  27.834  1.00  0.00     0.074 A 
ATOM     39  C   UNL A   1      43.000  29.666  26.526  1.00  0.00     0.031 C 
ATOM     40  C   UNL A   1      37.589  28.846  30.304  1.00  0.00     0.029 A 
ATOM     41  C   UNL A   1      38.379  30.049  30.504  1.00  0.00     0.049 A 
ATOM     42  H   UNL A   1      40.413  30.296  30.058  1.00  0.00     0.167 HD
ATOM     43  C   UNL A   1      44.312  31.000  28.264  1.00  0.00     0.037 A 
ATOM     44  C   UNL A   1      38.022  31.243  31.040  1.00  0.00     0.037 A 
ATOM     45  C   UNL A   1      44.527  30.919  29.683  1.00  0.00     0.049 A 
ATOM     46  C   UNL A   1      39.256  31.914  31.503  1.00  0.00     0.074 A 
ATOM     47  C   UNL A   1      45.335  30.211  30.544  1.00  0.00     0.029 A 
ATOM     48  N   UNL A   1      43.508  31.449  30.421  1.00  0.00    -0.354 N 
ATOM     49  N   UNL A   1      39.973  31.496  32.507  1.00  0.00    -0.248 NA
ATOM     50  C   UNL A   1      39.880  32.929  30.660  1.00  0.00     0.031 C 
ATOM     51  C   UNL A   1      44.676  30.221  31.812  1.00  0.00     0.029 A 
ATOM     52  C   UNL A   1      43.504  30.961  31.697  1.00  0.00     0.049 A 
ATOM     53  H   UNL A   1      42.856  32.102  30.075  1.00  0.00     0.167 HD
ATOM     54  C   UNL A   1      41.257  31.865  32.174  1.00  0.00     0.074 A 
ATOM     55  C   UNL A   1      41.121  32.891  31.150  1.00  0.00     0.031 C 
ATOM     56  C   UNL A   1      42.311  31.069  32.502  1.00  0.00     0.037 A 
BRANCH  43  57
ATOM     57  C   UNL A   1      44.514  32.314  27.537  1.00  0.00     0.064 A 
ATOM     58  C   UNL A   1      45.685  32.507  26.770  1.00  0.00     0.173 A 
ATOM     59  C   UNL A   1      43.786  33.487  27.831  1.00  0.00     0.173 A 
ATOM     60  F   UNL A   1      46.475  31.470  26.456  1.00  0.00    -0.203 F 
ATOM     61  C   UNL A   1      46.116  33.781  26.383  1.00  0.00     0.198 A 
ATOM     62  C   UNL A   1      44.194  34.750  27.402  1.00  0.00     0.198 A 
ATOM     63  F   UNL A   1      42.721  33.476  28.641  1.00  0.00    -0.203 F 
ATOM     64  F   UNL A   1      47.291  33.925  25.755  1.00  0.00    -0.200 F 
ATOM     65  C   UNL A   1      45.372  34.901  26.703  1.00  0.00     0.200 A 
ATOM     66  F   UNL A   1      43.474  35.827  27.748  1.00  0.00    -0.200 F 
ATOM     67  F   UNL A   1      45.809  36.125  26.382  1.00  0.00    -0.200 F 
ENDBRANCH  43  57
BRANCH  44  68
ATOM     68  C   UNL A   1      36.737  31.984  30.988  1.00  0.00     0.064 A 
ATOM     69  C   UNL A   1      35.987  32.197  32.161  1.00  0.00     0.173 A 
ATOM     70  C   UNL A   1      36.413  32.790  29.883  1.00  0.00     0.173 A 
ATOM     71  F   UNL A   1      36.241  31.481  33.266  1.00  0.00    -0.203 F 
ATOM     72  C   UNL A   1      35.032  33.214  32.249  1.00  0.00     0.198 A 
ATOM     73  C   UNL A   1      35.454  33.802  29.971  1.00  0.00     0.198 A 
ATOM     74  F   UNL A   1      37.098  32.686  28.736  1.00  0.00    -0.203 F 
ATOM     75  F   UNL A   1      34.411  33.450  33.413  1.00  0.00    -0.200 F 
ATOM     76  C   UNL A   1      34.783  34.031  31.160  1.00  0.00     0.200 A 
ATOM     77  F   UNL A   1      35.240  34.607  28.921  1.00  0.00    -0.200 F 
ATOM     78  F   UNL A   1      33.937  35.064  31.269  1.00  0.00    -0.200 F 
ENDBRANCH  44  68
BRANCH  56  79
ATOM     79  C   UNL A   1      42.139  30.138  33.656  1.00  0.00     0.064 A 
ATOM     80  C   UNL A   1      41.704  28.808  33.546  1.00  0.00     0.173 A 
ATOM     81  C   UNL A   1      42.507  30.603  34.923  1.00  0.00     0.173 A 
ATOM     82  F   UNL A   1      41.399  28.277  32.354  1.00  0.00    -0.203 F 
ATOM     83  C   UNL A   1      41.617  27.989  34.671  1.00  0.00     0.198 A 
ATOM     84  C   UNL A   1      42.451  29.775  36.038  1.00  0.00     0.198 A 
ATOM     85  F   UNL A   1      42.959  31.858  35.073  1.00  0.00    -0.203 F 
ATOM     86  F   UNL A   1      41.194  26.723  34.551  1.00  0.00    -0.200 F 
ATOM     87  C   UNL A   1      41.999  28.472  35.913  1.00  0.00     0.200 A 
ATOM     88  F   UNL A   1      42.860  30.236  37.229  1.00  0.00    -0.200 F 
ATOM     89  F   UNL A   1      41.957  27.673  36.988  1.00  0.00    -0.200 F 
ENDBRANCH  56  79
ENDBRANCH  30  31
ENDBRANCH  22  25
ENDBRANCH  20  21
ENDBRANCH   1  20
TORSDOF 11
ENDMDL
