MODEL 1
REMARK VINA RESULT:     -13.8      0.000      0.000
REMARK SMILES Cc1nn([C@H]2CCS(=O)(=O)C2)c(C)c1/C=C(\CC(=O)NCCCNC(=O)c1ccc(-c2c3nc(c(-c4c(F)c(F)c(F)c(F)c4F)c4ccc([nH]4)c(-c4c(F)c(F)c(F)c(F)c4F)c4nc(c(-c5c(F)c(F)c(F)c(F)c5F)c5ccc2[nH]5)C=C4)C=C3)cc1)c1nc2ccccc2s1
REMARK SMILES IDX 21 1 20 2 18 3 19 4 17 6 16 7 15 8 14 9 1 10 2 11 3 12 4 13
REMARK SMILES IDX 12 14 13 15 5 16 6 17 11 18 7 19 8 20 9 21 10 22 90 23 91 24
REMARK SMILES IDX 98 25 92 26 97 27 93 28 96 29 94 30 95 31 22 32 23 33 24 34
REMARK SMILES IDX 25 35 26 37 27 38 28 39 89 40 29 41 88 42 30 43 31 44 32 45
REMARK SMILES IDX 82 46 33 47 87 48 81 49 83 50 34 51 86 52 80 53 79 54 35 56
REMARK SMILES IDX 67 57 47 58 66 59 48 60 51 61 65 62 84 63 49 64 50 65 64 67
REMARK SMILES IDX 85 68 52 69 36 70 37 71 45 72 38 73 39 74 43 75 46 76 40 77
REMARK SMILES IDX 41 78 44 79 42 80 68 81 69 82 77 83 70 84 71 85 75 86 78 87
REMARK SMILES IDX 72 88 73 89 76 90 74 91 53 92 54 93 62 94 55 95 56 96 60 97
REMARK SMILES IDX 63 98 57 99 58 100 61 101 59 102
REMARK H PARENT 20 5 24 36 83 55 51 66
REMARK Flexibility Score: inf
ROOT
ATOM      1  C   UNL A   1      36.541  21.040  24.839  1.00  0.00     0.117 C 
ENDROOT
BRANCH   1   2
ATOM      2  N   UNL A   1      36.824  22.134  25.750  1.00  0.00    -0.356 N 
ATOM      3  C   UNL A   1      36.513  23.458  25.610  1.00  0.00     0.224 C 
ATOM      4  O   UNL A   1      36.969  24.264  26.423  1.00  0.00    -0.275 OA
ATOM      5  H   UNL A   1      37.301  21.891  26.576  1.00  0.00     0.163 HD
BRANCH   3   6
ATOM      6  C   UNL A   1      35.485  23.869  24.567  1.00  0.00     0.138 C 
BRANCH   6   7
ATOM      7  C   UNL A   1      34.198  24.516  25.050  1.00  0.00    -0.002 C 
ATOM      8  C   UNL A   1      33.065  23.835  25.366  1.00  0.00     0.019 C 
BRANCH   8   9
ATOM      9  C   UNL A   1      32.807  22.432  25.178  1.00  0.00     0.019 A 
ATOM     10  C   UNL A   1      31.351  22.453  22.984  1.00  0.00     0.069 C 
ATOM     11  C   UNL A   1      32.148  21.828  24.072  1.00  0.00     0.067 A 
ATOM     12  N   UNL A   1      32.316  20.500  24.077  1.00  0.00    -0.177 NA
ATOM     13  N   UNL A   1      33.021  20.249  25.197  1.00  0.00    -0.265 N 
ATOM     14  C   UNL A   1      33.093  21.360  26.015  1.00  0.00     0.043 A 
ATOM     15  C   UNL A   1      33.415  21.307  27.468  1.00  0.00     0.067 C 
BRANCH  13  16
ATOM     16  C   UNL A   1      33.542  18.897  25.391  1.00  0.00     0.123 C 
ATOM     17  C   UNL A   1      32.433  17.850  25.670  1.00  0.00     0.044 C 
ATOM     18  C   UNL A   1      34.287  18.320  24.190  1.00  0.00     0.164 C 
ATOM     19  C   UNL A   1      33.085  16.471  25.662  1.00  0.00     0.139 C 
ATOM     20  S   UNL A   1      34.446  16.590  24.526  1.00  0.00     0.152 S 
ATOM     21  O   UNL A   1      35.683  16.399  25.266  1.00  0.00    -0.229 OA
ATOM     22  O   UNL A   1      34.144  15.859  23.322  1.00  0.00    -0.229 OA
ENDBRANCH  13  16
ENDBRANCH   8   9
BRANCH   7  23
ATOM     23  C   UNL A   1      34.175  25.952  25.142  1.00  0.00     0.121 A 
ATOM     24  N   UNL A   1      34.297  26.617  26.273  1.00  0.00    -0.236 NA
ATOM     25  S   UNL A   1      33.681  26.921  23.802  1.00  0.00    -0.114 S 
ATOM     26  C   UNL A   1      33.608  27.813  26.182  1.00  0.00     0.082 A 
ATOM     27  C   UNL A   1      33.161  28.144  24.903  1.00  0.00     0.055 A 
ATOM     28  C   UNL A   1      33.262  28.647  27.263  1.00  0.00     0.030 A 
ATOM     29  C   UNL A   1      32.371  29.278  24.664  1.00  0.00     0.021 A 
ATOM     30  C   UNL A   1      32.393  29.720  27.052  1.00  0.00     0.002 A 
ATOM     31  C   UNL A   1      31.950  30.027  25.768  1.00  0.00     0.002 A 
ENDBRANCH   7  23
ENDBRANCH   6   7
ENDBRANCH   3   6
ENDBRANCH   1   2
BRANCH   1  32
ATOM     32  C   UNL A   1      37.731  20.088  24.695  1.00  0.00     0.042 C 
BRANCH  32  33
ATOM     33  C   UNL A   1      38.845  20.428  25.669  1.00  0.00     0.118 C 
BRANCH  33  34
ATOM     34  N   UNL A   1      39.818  19.338  25.786  1.00  0.00    -0.352 N 
ATOM     35  C   UNL A   1      41.177  19.421  26.012  1.00  0.00     0.251 C 
ATOM     36  H   UNL A   1      39.455  18.428  25.690  1.00  0.00     0.163 HD
ATOM     37  O   UNL A   1      41.924  18.493  25.733  1.00  0.00    -0.269 OA
BRANCH  35  38
ATOM     38  C   UNL A   1      41.708  20.652  26.612  1.00  0.00     0.039 A 
ATOM     39  C   UNL A   1      42.294  21.655  25.834  1.00  0.00     0.014 A 
ATOM     40  C   UNL A   1      41.553  20.804  27.985  1.00  0.00     0.014 A 
ATOM     41  C   UNL A   1      42.648  22.853  26.447  1.00  0.00     0.010 A 
ATOM     42  C   UNL A   1      41.724  22.038  28.545  1.00  0.00     0.010 A 
ATOM     43  C   UNL A   1      42.339  23.040  27.803  1.00  0.00    -0.014 A 
BRANCH  43  44
ATOM     44  C   UNL A   1      42.498  24.337  28.451  1.00  0.00     0.031 A 
ATOM     45  C   UNL A   1      41.406  25.292  28.114  1.00  0.00     0.074 A 
ATOM     46  C   UNL A   1      43.387  24.511  29.457  1.00  0.00     0.049 A 
ATOM     47  N   UNL A   1      41.501  26.404  27.466  1.00  0.00    -0.248 NA
ATOM     48  C   UNL A   1      40.012  24.883  28.371  1.00  0.00     0.031 C 
ATOM     49  C   UNL A   1      44.269  23.490  30.045  1.00  0.00     0.029 A 
ATOM     50  N   UNL A   1      43.609  25.588  30.266  1.00  0.00    -0.354 N 
ATOM     51  C   UNL A   1      40.218  26.953  27.468  1.00  0.00     0.074 A 
ATOM     52  C   UNL A   1      39.327  25.882  27.809  1.00  0.00     0.031 C 
ATOM     53  C   UNL A   1      44.728  23.910  31.243  1.00  0.00     0.029 A 
ATOM     54  C   UNL A   1      44.329  25.290  31.426  1.00  0.00     0.049 A 
ATOM     55  H   UNL A   1      43.289  26.494  30.051  1.00  0.00     0.167 HD
ATOM     56  C   UNL A   1      40.063  28.307  27.546  1.00  0.00     0.037 A 
ATOM     57  C   UNL A   1      44.565  26.123  32.470  1.00  0.00     0.037 A 
ATOM     58  C   UNL A   1      41.320  28.954  27.256  1.00  0.00     0.049 A 
ATOM     59  C   UNL A   1      44.352  27.501  31.975  1.00  0.00     0.074 A 
ATOM     60  C   UNL A   1      42.098  29.193  26.145  1.00  0.00     0.029 A 
ATOM     61  N   UNL A   1      42.126  29.077  28.356  1.00  0.00    -0.354 N 
ATOM     62  N   UNL A   1      45.123  28.069  31.091  1.00  0.00    -0.248 NA
ATOM     63  C   UNL A   1      43.050  28.128  32.170  1.00  0.00     0.031 C 
ATOM     64  C   UNL A   1      43.441  29.304  26.620  1.00  0.00     0.029 A 
ATOM     65  C   UNL A   1      43.440  29.195  28.010  1.00  0.00     0.049 A 
ATOM     66  H   UNL A   1      41.797  29.080  29.285  1.00  0.00     0.167 HD
ATOM     67  C   UNL A   1      44.259  28.828  30.327  1.00  0.00     0.074 A 
ATOM     68  C   UNL A   1      43.052  28.969  31.132  1.00  0.00     0.031 C 
ATOM     69  C   UNL A   1      44.478  28.974  28.988  1.00  0.00     0.037 A 
BRANCH  56  70
ATOM     70  C   UNL A   1      39.030  29.022  28.416  1.00  0.00     0.064 A 
ATOM     71  C   UNL A   1      38.969  28.682  29.789  1.00  0.00     0.173 A 
ATOM     72  C   UNL A   1      37.909  29.729  27.931  1.00  0.00     0.173 A 
ATOM     73  F   UNL A   1      39.980  28.024  30.377  1.00  0.00    -0.203 F 
ATOM     74  C   UNL A   1      37.831  28.920  30.568  1.00  0.00     0.198 A 
ATOM     75  C   UNL A   1      36.791  29.999  28.723  1.00  0.00     0.198 A 
ATOM     76  F   UNL A   1      37.786  30.107  26.657  1.00  0.00    -0.203 F 
ATOM     77  F   UNL A   1      37.773  28.456  31.823  1.00  0.00    -0.200 F 
ATOM     78  C   UNL A   1      36.735  29.563  30.027  1.00  0.00     0.200 A 
ATOM     79  F   UNL A   1      35.732  30.614  28.174  1.00  0.00    -0.200 F 
ATOM     80  F   UNL A   1      35.616  29.727  30.744  1.00  0.00    -0.200 F 
ENDBRANCH  56  70
BRANCH  57  81
ATOM     81  C   UNL A   1      44.734  25.829  33.913  1.00  0.00     0.064 A 
ATOM     82  C   UNL A   1      43.622  25.624  34.748  1.00  0.00     0.173 A 
ATOM     83  C   UNL A   1      45.984  25.439  34.429  1.00  0.00     0.173 A 
ATOM     84  F   UNL A   1      42.390  25.938  34.319  1.00  0.00    -0.203 F 
ATOM     85  C   UNL A   1      43.746  25.021  36.004  1.00  0.00     0.198 A 
ATOM     86  C   UNL A   1      46.107  24.838  35.684  1.00  0.00     0.198 A 
ATOM     87  F   UNL A   1      47.092  25.539  33.681  1.00  0.00    -0.203 F 
ATOM     88  F   UNL A   1      42.652  24.775  36.740  1.00  0.00    -0.200 F 
ATOM     89  C   UNL A   1      44.987  24.613  36.464  1.00  0.00     0.200 A 
ATOM     90  F   UNL A   1      47.307  24.411  36.102  1.00  0.00    -0.200 F 
ATOM     91  F   UNL A   1      45.097  23.965  37.632  1.00  0.00    -0.200 F 
ENDBRANCH  57  81
BRANCH  69  92
ATOM     92  C   UNL A   1      45.870  28.739  28.491  1.00  0.00     0.064 A 
ATOM     93  C   UNL A   1      46.337  27.526  27.962  1.00  0.00     0.173 A 
ATOM     94  C   UNL A   1      46.744  29.832  28.482  1.00  0.00     0.173 A 
ATOM     95  F   UNL A   1      45.534  26.459  27.869  1.00  0.00    -0.203 F 
ATOM     96  C   UNL A   1      47.640  27.407  27.480  1.00  0.00     0.198 A 
ATOM     97  C   UNL A   1      48.030  29.723  27.966  1.00  0.00     0.198 A 
ATOM     98  F   UNL A   1      46.331  31.024  28.938  1.00  0.00    -0.203 F 
ATOM     99  F   UNL A   1      48.074  26.234  26.995  1.00  0.00    -0.200 F 
ATOM    100  C   UNL A   1      48.482  28.508  27.477  1.00  0.00     0.200 A 
ATOM    101  F   UNL A   1      48.822  30.801  27.925  1.00  0.00    -0.200 F 
ATOM    102  F   UNL A   1      49.722  28.406  26.981  1.00  0.00    -0.200 F 
ENDBRANCH  69  92
ENDBRANCH  43  44
ENDBRANCH  35  38
ENDBRANCH  33  34
ENDBRANCH  32  33
ENDBRANCH   1  32
TORSDOF 14
ENDMDL
MODEL 2
REMARK VINA RESULT:     -13.6      2.964      7.175
REMARK SMILES Cc1nn([C@H]2CCS(=O)(=O)C2)c(C)c1/C=C(\CC(=O)NCCCNC(=O)c1ccc(-c2c3nc(c(-c4c(F)c(F)c(F)c(F)c4F)c4ccc([nH]4)c(-c4c(F)c(F)c(F)c(F)c4F)c4nc(c(-c5c(F)c(F)c(F)c(F)c5F)c5ccc2[nH]5)C=C4)C=C3)cc1)c1nc2ccccc2s1
REMARK SMILES IDX 21 1 20 2 18 3 19 4 17 6 16 7 15 8 14 9 1 10 2 11 3 12 4 13
REMARK SMILES IDX 12 14 13 15 5 16 6 17 11 18 7 19 8 20 9 21 10 22 90 23 91 24
REMARK SMILES IDX 98 25 92 26 97 27 93 28 96 29 94 30 95 31 22 32 23 33 24 34
REMARK SMILES IDX 25 35 26 37 27 38 28 39 89 40 29 41 88 42 30 43 31 44 32 45
REMARK SMILES IDX 82 46 33 47 87 48 81 49 83 50 34 51 86 52 80 53 79 54 35 56
REMARK SMILES IDX 67 57 47 58 66 59 48 60 51 61 65 62 84 63 49 64 50 65 64 67
REMARK SMILES IDX 85 68 52 69 36 70 37 71 45 72 38 73 39 74 43 75 46 76 40 77
REMARK SMILES IDX 41 78 44 79 42 80 68 81 69 82 77 83 70 84 71 85 75 86 78 87
REMARK SMILES IDX 72 88 73 89 76 90 74 91 53 92 54 93 62 94 55 95 56 96 60 97
REMARK SMILES IDX 63 98 57 99 58 100 61 101 59 102
REMARK H PARENT 20 5 24 36 83 55 51 66
REMARK Flexibility Score: inf
ROOT
ATOM      1  C   UNL A   1      32.074  29.239  25.531  1.00  0.00     0.117 C 
ENDROOT
BRANCH   1   2
ATOM      2  N   UNL A   1      32.907  28.370  24.719  1.00  0.00    -0.356 N 
ATOM      3  C   UNL A   1      32.863  27.008  24.611  1.00  0.00     0.224 C 
ATOM      4  O   UNL A   1      33.753  26.433  23.983  1.00  0.00    -0.275 OA
ATOM      5  H   UNL A   1      33.593  28.820  24.175  1.00  0.00     0.163 HD
BRANCH   3   6
ATOM      6  C   UNL A   1      31.635  26.267  25.119  1.00  0.00     0.138 C 
BRANCH   6   7
ATOM      7  C   UNL A   1      30.650  25.731  24.093  1.00  0.00    -0.002 C 
ATOM      8  C   UNL A   1      30.479  24.415  23.803  1.00  0.00     0.019 C 
BRANCH   8   9
ATOM      9  C   UNL A   1      31.261  23.306  24.281  1.00  0.00     0.019 A 
ATOM     10  C   UNL A   1      30.363  23.052  26.744  1.00  0.00     0.069 C 
ATOM     11  C   UNL A   1      31.125  22.646  25.534  1.00  0.00     0.067 A 
ATOM     12  N   UNL A   1      31.813  21.498  25.551  1.00  0.00    -0.177 NA
ATOM     13  N   UNL A   1      32.426  21.448  24.353  1.00  0.00    -0.265 N 
ATOM     14  C   UNL A   1      32.328  22.651  23.679  1.00  0.00     0.043 A 
ATOM     15  C   UNL A   1      33.227  23.058  22.564  1.00  0.00     0.067 C 
BRANCH  13  16
ATOM     16  C   UNL A   1      33.103  20.208  23.979  1.00  0.00     0.123 C 
ATOM     17  C   UNL A   1      34.310  19.873  24.893  1.00  0.00     0.044 C 
ATOM     18  C   UNL A   1      32.233  18.955  24.059  1.00  0.00     0.164 C 
ATOM     19  C   UNL A   1      34.802  18.478  24.519  1.00  0.00     0.139 C 
ATOM     20  S   UNL A   1      33.362  17.596  23.961  1.00  0.00     0.152 S 
ATOM     21  O   UNL A   1      33.538  17.272  22.555  1.00  0.00    -0.229 OA
ATOM     22  O   UNL A   1      32.981  16.612  24.941  1.00  0.00    -0.229 OA
ENDBRANCH  13  16
ENDBRANCH   8   9
BRANCH   7  23
ATOM     23  C   UNL A   1      29.877  26.695  23.355  1.00  0.00     0.121 A 
ATOM     24  N   UNL A   1      30.405  27.613  22.569  1.00  0.00    -0.236 NA
ATOM     25  S   UNL A   1      28.196  26.921  23.675  1.00  0.00    -0.114 S 
ATOM     26  C   UNL A   1      29.586  28.726  22.546  1.00  0.00     0.082 A 
ATOM     27  C   UNL A   1      28.332  28.554  23.133  1.00  0.00     0.055 A 
ATOM     28  C   UNL A   1      29.946  30.002  22.066  1.00  0.00     0.030 A 
ATOM     29  C   UNL A   1      27.424  29.614  23.267  1.00  0.00     0.021 A 
ATOM     30  C   UNL A   1      29.090  31.084  22.287  1.00  0.00     0.002 A 
ATOM     31  C   UNL A   1      27.848  30.892  22.884  1.00  0.00     0.002 A 
ENDBRANCH   7  23
ENDBRANCH   6   7
ENDBRANCH   3   6
ENDBRANCH   1   2
BRANCH   1  32
ATOM     32  C   UNL A   1      32.420  29.143  27.018  1.00  0.00     0.042 C 
BRANCH  32  33
ATOM     33  C   UNL A   1      33.888  29.434  27.275  1.00  0.00     0.118 C 
BRANCH  33  34
ATOM     34  N   UNL A   1      34.205  30.852  27.084  1.00  0.00    -0.352 N 
ATOM     35  C   UNL A   1      35.236  31.584  27.635  1.00  0.00     0.251 C 
ATOM     36  H   UNL A   1      33.602  31.349  26.484  1.00  0.00     0.163 HD
ATOM     37  O   UNL A   1      35.188  32.805  27.693  1.00  0.00    -0.269 OA
BRANCH  35  38
ATOM     38  C   UNL A   1      36.409  30.859  28.143  1.00  0.00     0.039 A 
ATOM     39  C   UNL A   1      36.593  29.495  27.896  1.00  0.00     0.014 A 
ATOM     40  C   UNL A   1      37.360  31.600  28.834  1.00  0.00     0.014 A 
ATOM     41  C   UNL A   1      37.792  28.903  28.283  1.00  0.00     0.010 A 
ATOM     42  C   UNL A   1      38.601  31.068  29.042  1.00  0.00     0.010 A 
ATOM     43  C   UNL A   1      38.798  29.707  28.839  1.00  0.00    -0.014 A 
BRANCH  43  44
ATOM     44  C   UNL A   1      40.142  29.193  29.079  1.00  0.00     0.031 A 
ATOM     45  C   UNL A   1      40.450  29.026  30.526  1.00  0.00     0.074 A 
ATOM     46  C   UNL A   1      40.881  28.671  28.071  1.00  0.00     0.049 A 
ATOM     47  N   UNL A   1      41.337  29.654  31.223  1.00  0.00    -0.248 NA
ATOM     48  C   UNL A   1      39.549  28.191  31.343  1.00  0.00     0.031 C 
ATOM     49  C   UNL A   1      40.477  28.520  26.664  1.00  0.00     0.029 A 
ATOM     50  N   UNL A   1      42.092  28.040  28.096  1.00  0.00    -0.354 N 
ATOM     51  C   UNL A   1      41.275  29.099  32.502  1.00  0.00     0.074 A 
ATOM     52  C   UNL A   1      40.022  28.404  32.574  1.00  0.00     0.031 C 
ATOM     53  C   UNL A   1      41.290  27.640  26.042  1.00  0.00     0.029 A 
ATOM     54  C   UNL A   1      42.374  27.306  26.942  1.00  0.00     0.049 A 
ATOM     55  H   UNL A   1      42.709  28.097  28.861  1.00  0.00     0.167 HD
ATOM     56  C   UNL A   1      42.418  28.964  33.235  1.00  0.00     0.037 A 
ATOM     57  C   UNL A   1      43.424  26.468  26.751  1.00  0.00     0.037 A 
ATOM     58  C   UNL A   1      43.463  29.770  32.652  1.00  0.00     0.049 A 
ATOM     59  C   UNL A   1      44.445  26.824  27.760  1.00  0.00     0.074 A 
ATOM     60  C   UNL A   1      43.776  31.108  32.569  1.00  0.00     0.029 A 
ATOM     61  N   UNL A   1      44.141  29.127  31.651  1.00  0.00    -0.354 N 
ATOM     62  N   UNL A   1      45.092  27.956  27.752  1.00  0.00    -0.248 NA
ATOM     63  C   UNL A   1      44.484  26.086  29.017  1.00  0.00     0.031 C 
ATOM     64  C   UNL A   1      44.543  31.261  31.374  1.00  0.00     0.029 A 
ATOM     65  C   UNL A   1      44.733  30.008  30.794  1.00  0.00     0.049 A 
ATOM     66  H   UNL A   1      44.195  28.148  31.561  1.00  0.00     0.167 HD
ATOM     67  C   UNL A   1      45.235  28.272  29.088  1.00  0.00     0.074 A 
ATOM     68  C   UNL A   1      45.012  27.024  29.808  1.00  0.00     0.031 C 
ATOM     69  C   UNL A   1      45.181  29.575  29.492  1.00  0.00     0.037 A 
BRANCH  56  70
ATOM     70  C   UNL A   1      42.788  27.734  34.063  1.00  0.00     0.064 A 
ATOM     71  C   UNL A   1      42.894  27.886  35.467  1.00  0.00     0.173 A 
ATOM     72  C   UNL A   1      43.367  26.554  33.551  1.00  0.00     0.173 A 
ATOM     73  F   UNL A   1      42.369  28.958  36.082  1.00  0.00    -0.203 F 
ATOM     74  C   UNL A   1      43.625  26.996  36.262  1.00  0.00     0.198 A 
ATOM     75  C   UNL A   1      44.062  25.648  34.354  1.00  0.00     0.198 A 
ATOM     76  F   UNL A   1      43.382  26.259  32.249  1.00  0.00    -0.203 F 
ATOM     77  F   UNL A   1      43.809  27.260  37.562  1.00  0.00    -0.200 F 
ATOM     78  C   UNL A   1      44.224  25.886  35.700  1.00  0.00     0.200 A 
ATOM     79  F   UNL A   1      44.647  24.582  33.786  1.00  0.00    -0.200 F 
ATOM     80  F   UNL A   1      44.987  25.072  36.441  1.00  0.00    -0.200 F 
ENDBRANCH  56  70
BRANCH  57  81
ATOM     81  C   UNL A   1      43.534  25.239  25.929  1.00  0.00     0.064 A 
ATOM     82  C   UNL A   1      44.669  24.993  25.138  1.00  0.00     0.173 A 
ATOM     83  C   UNL A   1      42.672  24.147  26.145  1.00  0.00     0.173 A 
ATOM     84  F   UNL A   1      45.559  25.970  24.911  1.00  0.00    -0.203 F 
ATOM     85  C   UNL A   1      44.951  23.718  24.632  1.00  0.00     0.198 A 
ATOM     86  C   UNL A   1      42.953  22.876  25.638  1.00  0.00     0.198 A 
ATOM     87  F   UNL A   1      41.597  24.272  26.936  1.00  0.00    -0.203 F 
ATOM     88  F   UNL A   1      46.082  23.506  23.945  1.00  0.00    -0.200 F 
ATOM     89  C   UNL A   1      44.101  22.657  24.897  1.00  0.00     0.200 A 
ATOM     90  F   UNL A   1      42.145  21.848  25.934  1.00  0.00    -0.200 F 
ATOM     91  F   UNL A   1      44.410  21.422  24.481  1.00  0.00    -0.200 F 
ENDBRANCH  57  81
BRANCH  69  92
ATOM     92  C   UNL A   1      45.464  30.624  28.464  1.00  0.00     0.064 A 
ATOM     93  C   UNL A   1      44.493  31.239  27.658  1.00  0.00     0.173 A 
ATOM     94  C   UNL A   1      46.783  31.081  28.355  1.00  0.00     0.173 A 
ATOM     95  F   UNL A   1      43.199  30.907  27.763  1.00  0.00    -0.203 F 
ATOM     96  C   UNL A   1      44.839  32.242  26.754  1.00  0.00     0.198 A 
ATOM     97  C   UNL A   1      47.120  32.107  27.481  1.00  0.00     0.198 A 
ATOM     98  F   UNL A   1      47.741  30.555  29.133  1.00  0.00    -0.203 F 
ATOM     99  F   UNL A   1      43.899  32.803  25.980  1.00  0.00    -0.200 F 
ATOM    100  C   UNL A   1      46.151  32.679  26.672  1.00  0.00     0.200 A 
ATOM    101  F   UNL A   1      48.381  32.554  27.438  1.00  0.00    -0.200 F 
ATOM    102  F   UNL A   1      46.481  33.667  25.830  1.00  0.00    -0.200 F 
ENDBRANCH  69  92
ENDBRANCH  43  44
ENDBRANCH  35  38
ENDBRANCH  33  34
ENDBRANCH  32  33
ENDBRANCH   1  32
TORSDOF 14
ENDMDL
MODEL 3
REMARK VINA RESULT:     -13.6      2.330      5.157
REMARK SMILES Cc1nn([C@H]2CCS(=O)(=O)C2)c(C)c1/C=C(\CC(=O)NCCCNC(=O)c1ccc(-c2c3nc(c(-c4c(F)c(F)c(F)c(F)c4F)c4ccc([nH]4)c(-c4c(F)c(F)c(F)c(F)c4F)c4nc(c(-c5c(F)c(F)c(F)c(F)c5F)c5ccc2[nH]5)C=C4)C=C3)cc1)c1nc2ccccc2s1
REMARK SMILES IDX 21 1 20 2 18 3 19 4 17 6 16 7 15 8 14 9 1 10 2 11 3 12 4 13
REMARK SMILES IDX 12 14 13 15 5 16 6 17 11 18 7 19 8 20 9 21 10 22 90 23 91 24
REMARK SMILES IDX 98 25 92 26 97 27 93 28 96 29 94 30 95 31 22 32 23 33 24 34
REMARK SMILES IDX 25 35 26 37 27 38 28 39 89 40 29 41 88 42 30 43 31 44 32 45
REMARK SMILES IDX 82 46 33 47 87 48 81 49 83 50 34 51 86 52 80 53 79 54 35 56
REMARK SMILES IDX 67 57 47 58 66 59 48 60 51 61 65 62 84 63 49 64 50 65 64 67
REMARK SMILES IDX 85 68 52 69 36 70 37 71 45 72 38 73 39 74 43 75 46 76 40 77
REMARK SMILES IDX 41 78 44 79 42 80 68 81 69 82 77 83 70 84 71 85 75 86 78 87
REMARK SMILES IDX 72 88 73 89 76 90 74 91 53 92 54 93 62 94 55 95 56 96 60 97
REMARK SMILES IDX 63 98 57 99 58 100 61 101 59 102
REMARK H PARENT 20 5 24 36 83 55 51 66
REMARK Flexibility Score: inf
ROOT
ATOM      1  C   UNL A   1      35.995  21.365  25.244  1.00  0.00     0.117 C 
ENDROOT
BRANCH   1   2
ATOM      2  N   UNL A   1      35.991  22.350  24.177  1.00  0.00    -0.356 N 
ATOM      3  C   UNL A   1      34.932  23.050  23.671  1.00  0.00     0.224 C 
ATOM      4  O   UNL A   1      35.101  23.735  22.662  1.00  0.00    -0.275 OA
ATOM      5  H   UNL A   1      36.865  22.539  23.766  1.00  0.00     0.163 HD
BRANCH   3   6
ATOM      6  C   UNL A   1      33.632  23.096  24.461  1.00  0.00     0.138 C 
BRANCH   6   7
ATOM      7  C   UNL A   1      32.373  22.572  23.793  1.00  0.00    -0.002 C 
ATOM      8  C   UNL A   1      31.461  23.349  23.151  1.00  0.00     0.019 C 
BRANCH   8   9
ATOM      9  C   UNL A   1      31.422  24.786  23.096  1.00  0.00     0.019 A 
ATOM     10  C   UNL A   1      32.879  25.270  20.957  1.00  0.00     0.069 C 
ATOM     11  C   UNL A   1      31.954  25.613  22.069  1.00  0.00     0.067 A 
ATOM     12  N   UNL A   1      31.513  26.871  22.186  1.00  0.00    -0.177 NA
ATOM     13  N   UNL A   1      30.756  26.867  23.300  1.00  0.00    -0.265 N 
ATOM     14  C   UNL A   1      30.907  25.693  24.014  1.00  0.00     0.043 A 
ATOM     15  C   UNL A   1      30.562  25.543  25.455  1.00  0.00     0.067 C 
BRANCH  13  16
ATOM     16  C   UNL A   1      29.962  28.058  23.595  1.00  0.00     0.123 C 
ATOM     17  C   UNL A   1      30.820  29.267  24.049  1.00  0.00     0.044 C 
ATOM     18  C   UNL A   1      29.166  28.605  22.413  1.00  0.00     0.164 C 
ATOM     19  C   UNL A   1      29.901  30.481  24.139  1.00  0.00     0.139 C 
ATOM     20  S   UNL A   1      28.642  30.220  22.910  1.00  0.00     0.152 S 
ATOM     21  O   UNL A   1      27.362  30.078  23.586  1.00  0.00    -0.229 OA
ATOM     22  O   UNL A   1      28.839  31.126  21.809  1.00  0.00    -0.229 OA
ENDBRANCH  13  16
ENDBRANCH   8   9
BRANCH   7  23
ATOM     23  C   UNL A   1      32.117  21.159  23.883  1.00  0.00     0.121 A 
ATOM     24  N   UNL A   1      32.093  20.488  25.017  1.00  0.00    -0.236 NA
ATOM     25  S   UNL A   1      32.119  20.162  22.473  1.00  0.00    -0.114 S 
ATOM     26  C   UNL A   1      32.488  19.183  24.791  1.00  0.00     0.082 A 
ATOM     27  C   UNL A   1      32.588  18.818  23.448  1.00  0.00     0.055 A 
ATOM     28  C   UNL A   1      32.866  18.255  25.781  1.00  0.00     0.030 A 
ATOM     29  C   UNL A   1      33.062  17.557  23.056  1.00  0.00     0.021 A 
ATOM     30  C   UNL A   1      33.435  17.037  25.399  1.00  0.00     0.002 A 
ATOM     31  C   UNL A   1      33.535  16.697  24.053  1.00  0.00     0.002 A 
ENDBRANCH   7  23
ENDBRANCH   6   7
ENDBRANCH   3   6
ENDBRANCH   1   2
BRANCH   1  32
ATOM     32  C   UNL A   1      37.019  20.254  24.998  1.00  0.00     0.042 C 
BRANCH  32  33
ATOM     33  C   UNL A   1      38.416  20.672  25.421  1.00  0.00     0.118 C 
BRANCH  33  34
ATOM     34  N   UNL A   1      39.293  19.515  25.623  1.00  0.00    -0.352 N 
ATOM     35  C   UNL A   1      40.643  19.501  25.911  1.00  0.00     0.251 C 
ATOM     36  H   UNL A   1      38.864  18.633  25.544  1.00  0.00     0.163 HD
ATOM     37  O   UNL A   1      41.325  18.506  25.702  1.00  0.00    -0.269 OA
BRANCH  35  38
ATOM     38  C   UNL A   1      41.243  20.710  26.491  1.00  0.00     0.039 A 
ATOM     39  C   UNL A   1      41.817  21.701  25.690  1.00  0.00     0.014 A 
ATOM     40  C   UNL A   1      41.167  20.853  27.871  1.00  0.00     0.014 A 
ATOM     41  C   UNL A   1      42.240  22.883  26.292  1.00  0.00     0.010 A 
ATOM     42  C   UNL A   1      41.406  22.077  28.430  1.00  0.00     0.010 A 
ATOM     43  C   UNL A   1      42.010  23.067  27.663  1.00  0.00    -0.014 A 
BRANCH  43  44
ATOM     44  C   UNL A   1      42.243  24.352  28.312  1.00  0.00     0.031 A 
ATOM     45  C   UNL A   1      41.145  25.329  28.075  1.00  0.00     0.074 A 
ATOM     46  C   UNL A   1      43.214  24.498  29.245  1.00  0.00     0.049 A 
ATOM     47  N   UNL A   1      41.208  26.449  27.434  1.00  0.00    -0.248 NA
ATOM     48  C   UNL A   1      39.769  24.940  28.439  1.00  0.00     0.031 C 
ATOM     49  C   UNL A   1      44.121  23.454  29.749  1.00  0.00     0.029 A 
ATOM     50  N   UNL A   1      43.519  25.561  30.046  1.00  0.00    -0.354 N 
ATOM     51  C   UNL A   1      39.939  27.019  27.545  1.00  0.00     0.074 A 
ATOM     52  C   UNL A   1      39.060  25.958  27.945  1.00  0.00     0.031 C 
ATOM     53  C   UNL A   1      44.683  23.851  30.911  1.00  0.00     0.029 A 
ATOM     54  C   UNL A   1      44.324  25.236  31.141  1.00  0.00     0.049 A 
ATOM     55  H   UNL A   1      43.199  26.474  29.868  1.00  0.00     0.167 HD
ATOM     56  C   UNL A   1      39.815  28.374  27.651  1.00  0.00     0.037 A 
ATOM     57  C   UNL A   1      44.658  26.051  32.172  1.00  0.00     0.037 A 
ATOM     58  C   UNL A   1      41.056  29.003  27.269  1.00  0.00     0.049 A 
ATOM     59  C   UNL A   1      44.430  27.439  31.712  1.00  0.00     0.074 A 
ATOM     60  C   UNL A   1      41.747  29.244  26.102  1.00  0.00     0.029 A 
ATOM     61  N   UNL A   1      41.949  29.099  28.302  1.00  0.00    -0.354 N 
ATOM     62  N   UNL A   1      45.138  28.005  30.776  1.00  0.00    -0.248 NA
ATOM     63  C   UNL A   1      43.159  28.085  32.018  1.00  0.00     0.031 C 
ATOM     64  C   UNL A   1      43.125  29.326  26.469  1.00  0.00     0.029 A 
ATOM     65  C   UNL A   1      43.233  29.199  27.853  1.00  0.00     0.049 A 
ATOM     66  H   UNL A   1      41.696  29.095  29.254  1.00  0.00     0.167 HD
ATOM     67  C   UNL A   1      44.229  28.788  30.092  1.00  0.00     0.074 A 
ATOM     68  C   UNL A   1      43.092  28.938  30.994  1.00  0.00     0.031 C 
ATOM     69  C   UNL A   1      44.343  28.947  28.742  1.00  0.00     0.037 A 
BRANCH  56  70
ATOM     70  C   UNL A   1      38.868  29.095  28.610  1.00  0.00     0.064 A 
ATOM     71  C   UNL A   1      37.971  30.046  28.067  1.00  0.00     0.173 A 
ATOM     72  C   UNL A   1      39.027  29.164  30.010  1.00  0.00     0.173 A 
ATOM     73  F   UNL A   1      37.718  30.074  26.749  1.00  0.00    -0.203 F 
ATOM     74  C   UNL A   1      37.388  31.053  28.845  1.00  0.00     0.198 A 
ATOM     75  C   UNL A   1      38.413  30.147  30.788  1.00  0.00     0.198 A 
ATOM     76  F   UNL A   1      39.852  28.363  30.687  1.00  0.00    -0.203 F 
ATOM     77  F   UNL A   1      36.656  32.009  28.258  1.00  0.00    -0.200 F 
ATOM     78  C   UNL A   1      37.625  31.112  30.203  1.00  0.00     0.200 A 
ATOM     79  F   UNL A   1      38.666  30.194  32.105  1.00  0.00    -0.200 F 
ATOM     80  F   UNL A   1      37.131  32.116  30.940  1.00  0.00    -0.200 F 
ENDBRANCH  56  70
BRANCH  57  81
ATOM     81  C   UNL A   1      44.936  25.735  33.593  1.00  0.00     0.064 A 
ATOM     82  C   UNL A   1      43.891  25.513  34.507  1.00  0.00     0.173 A 
ATOM     83  C   UNL A   1      46.223  25.342  34.007  1.00  0.00     0.173 A 
ATOM     84  F   UNL A   1      42.630  25.828  34.178  1.00  0.00    -0.203 F 
ATOM     85  C   UNL A   1      44.112  24.891  35.741  1.00  0.00     0.198 A 
ATOM     86  C   UNL A   1      46.443  24.723  35.240  1.00  0.00     0.198 A 
ATOM     87  F   UNL A   1      47.271  25.458  33.179  1.00  0.00    -0.203 F 
ATOM     88  F   UNL A   1      43.078  24.629  36.553  1.00  0.00    -0.200 F 
ATOM     89  C   UNL A   1      45.386  24.481  36.099  1.00  0.00     0.200 A 
ATOM     90  F   UNL A   1      47.673  24.294  35.558  1.00  0.00    -0.200 F 
ATOM     91  F   UNL A   1      45.586  23.815  37.244  1.00  0.00    -0.200 F 
ENDBRANCH  57  81
BRANCH  69  92
ATOM     92  C   UNL A   1      45.686  28.696  28.132  1.00  0.00     0.064 A 
ATOM     93  C   UNL A   1      46.094  27.477  27.569  1.00  0.00     0.173 A 
ATOM     94  C   UNL A   1      46.568  29.779  28.047  1.00  0.00     0.173 A 
ATOM     95  F   UNL A   1      45.273  26.418  27.546  1.00  0.00    -0.203 F 
ATOM     96  C   UNL A   1      47.351  27.342  26.981  1.00  0.00     0.198 A 
ATOM     97  C   UNL A   1      47.805  29.654  27.427  1.00  0.00     0.198 A 
ATOM     98  F   UNL A   1      46.208  30.977  28.533  1.00  0.00    -0.203 F 
ATOM     99  F   UNL A   1      47.730  26.163  26.466  1.00  0.00    -0.200 F 
ATOM    100  C   UNL A   1      48.201  28.433  26.905  1.00  0.00     0.200 A 
ATOM    101  F   UNL A   1      48.603  30.723  27.318  1.00  0.00    -0.200 F 
ATOM    102  F   UNL A   1      49.396  28.316  26.309  1.00  0.00    -0.200 F 
ENDBRANCH  69  92
ENDBRANCH  43  44
ENDBRANCH  35  38
ENDBRANCH  33  34
ENDBRANCH  32  33
ENDBRANCH   1  32
TORSDOF 14
ENDMDL
