MODEL 1
REMARK VINA RESULT:     -15.3      0.000      0.000
REMARK SMILES O=C(COc1ccccc1/C=C1/SC(=O)N(c2ccc(F)cc2)C1=O)NCCCNC(=O)c1ccc(-c2c3nc(c(-c4c(F)c(F)c(F)c(F)c4F)c4ccc([nH]4)c(-c4c(F)c(F)c(F)c(F)c4F)c4nc(c(-c5c(F)c(F)c(F)c(F)c5F)c5ccc2[nH]5)C=C4)C=C3)cc1
REMARK SMILES IDX 27 1 26 2 1 3 2 4 3 6 4 7 5 8 6 9 10 10 7 11 9 12 8 13 11 14
REMARK SMILES IDX 12 15 13 16 24 17 14 18 16 19 25 20 15 21 17 22 18 23 23 24
REMARK SMILES IDX 19 25 22 26 20 27 21 28 28 29 29 30 30 31 31 32 32 34 33 35
REMARK SMILES IDX 34 36 95 37 35 38 94 39 36 40 37 41 38 42 88 43 39 44 93 45
REMARK SMILES IDX 87 46 89 47 40 48 92 49 86 50 85 51 41 53 73 54 53 55 72 56
REMARK SMILES IDX 54 57 57 58 71 59 90 60 55 61 56 62 70 64 91 65 58 66 42 67
REMARK SMILES IDX 43 68 51 69 44 70 45 71 49 72 52 73 46 74 47 75 50 76 48 77
REMARK SMILES IDX 74 78 75 79 83 80 76 81 77 82 81 83 84 84 78 85 79 86 82 87
REMARK SMILES IDX 80 88 59 89 60 90 68 91 61 92 62 93 66 94 69 95 63 96 64 97
REMARK SMILES IDX 67 98 65 99
REMARK H PARENT 26 5 30 33 89 52 57 63
REMARK Flexibility Score: inf
ROOT
ATOM      1  C   UNL A   1      32.139  30.175  26.796  1.00  0.00     0.117 C 
ENDROOT
BRANCH   1   2
ATOM      2  N   UNL A   1      32.044  28.726  25.263  1.00  0.00    -0.353 N 
ATOM      3  O   UNL A   1      31.004  28.794  23.054  1.00  0.00    -0.271 OA
ATOM      4  C   UNL A   1      31.803  28.331  23.861  1.00  0.00     0.257 C 
ATOM      5  H   UNL A   1      32.281  27.884  25.713  1.00  0.00     0.163 HD
BRANCH   4   6
ATOM      6  C   UNL A   1      32.710  27.163  23.433  1.00  0.00     0.329 C 
BRANCH   6   7
ATOM      7  O   UNL A   1      32.035  25.931  23.263  1.00  0.00    -0.483 OA
BRANCH   7   8
ATOM      8  C   UNL A   1      31.919  25.119  24.370  1.00  0.00     0.127 A 
ATOM      9  C   UNL A   1      30.674  25.231  24.998  1.00  0.00     0.047 A 
ATOM     10  C   UNL A   1      32.972  24.420  25.012  1.00  0.00     0.018 A 
ATOM     11  C   UNL A   1      30.463  24.676  26.258  1.00  0.00     0.004 A 
ATOM     12  C   UNL A   1      32.742  23.874  26.283  1.00  0.00     0.012 A 
ATOM     13  C   UNL A   1      31.500  24.013  26.905  1.00  0.00     0.001 A 
BRANCH  10  14
ATOM     14  C   UNL A   1      34.340  24.294  24.496  1.00  0.00     0.033 C 
ATOM     15  C   UNL A   1      34.736  23.123  23.970  1.00  0.00     0.084 C 
ATOM     16  S   UNL A   1      36.927  22.576  24.304  1.00  0.00    -0.022 SA
ATOM     17  C   UNL A   1      33.593  21.518  24.034  1.00  0.00     0.272 C 
ATOM     18  C   UNL A   1      36.375  20.356  24.824  1.00  0.00     0.298 C 
ATOM     19  N   UNL A   1      34.610  20.084  24.503  1.00  0.00    -0.236 N 
ATOM     20  O   UNL A   1      32.412  21.500  23.723  1.00  0.00    -0.268 OA
ATOM     21  O   UNL A   1      37.246  19.583  25.194  1.00  0.00    -0.260 OA
BRANCH  19  22
ATOM     22  C   UNL A   1      33.998  18.803  24.651  1.00  0.00     0.053 A 
ATOM     23  C   UNL A   1      34.373  17.742  23.813  1.00  0.00     0.030 A 
ATOM     24  C   UNL A   1      33.029  18.568  25.633  1.00  0.00     0.030 A 
ATOM     25  C   UNL A   1      33.805  16.473  23.953  1.00  0.00     0.041 A 
ATOM     26  C   UNL A   1      32.443  17.301  25.759  1.00  0.00     0.041 A 
ATOM     27  C   UNL A   1      32.840  16.264  24.924  1.00  0.00     0.123 A 
ATOM     28  F   UNL A   1      32.290  15.052  25.059  1.00  0.00    -0.207 F 
ENDBRANCH  19  22
ENDBRANCH  10  14
ENDBRANCH   7   8
ENDBRANCH   6   7
ENDBRANCH   4   6
ENDBRANCH   1   2
BRANCH   1  29
ATOM     29  C   UNL A   1      31.784  31.832  26.793  1.00  0.00     0.042 C 
BRANCH  29  30
ATOM     30  C   UNL A   1      32.826  32.780  27.381  1.00  0.00     0.118 C 
BRANCH  30  31
ATOM     31  N   UNL A   1      32.358  34.124  27.677  1.00  0.00    -0.352 N 
ATOM     32  C   UNL A   1      32.949  35.009  28.555  1.00  0.00     0.251 C 
ATOM     33  H   UNL A   1      31.549  34.431  27.210  1.00  0.00     0.163 HD
ATOM     34  O   UNL A   1      32.471  36.115  28.771  1.00  0.00    -0.269 OA
BRANCH  32  35
ATOM     35  C   UNL A   1      34.139  34.541  29.291  1.00  0.00     0.039 A 
ATOM     36  C   UNL A   1      33.954  33.873  30.501  1.00  0.00     0.014 A 
ATOM     37  C   UNL A   1      35.399  34.615  28.695  1.00  0.00     0.014 A 
ATOM     38  C   UNL A   1      35.034  33.214  31.086  1.00  0.00     0.010 A 
ATOM     39  C   UNL A   1      36.453  33.890  29.236  1.00  0.00     0.010 A 
ATOM     40  C   UNL A   1      36.280  33.184  30.438  1.00  0.00    -0.014 A 
BRANCH  40  41
ATOM     41  C   UNL A   1      37.422  32.439  31.020  1.00  0.00     0.031 A 
ATOM     42  C   UNL A   1      37.912  32.790  32.395  1.00  0.00     0.074 A 
ATOM     43  C   UNL A   1      38.039  31.482  30.300  1.00  0.00     0.049 A 
ATOM     44  N   UNL A   1      38.905  32.279  33.076  1.00  0.00    -0.248 NA
ATOM     45  C   UNL A   1      37.208  33.881  33.088  1.00  0.00     0.031 C 
ATOM     46  C   UNL A   1      37.685  31.090  28.934  1.00  0.00     0.029 A 
ATOM     47  N   UNL A   1      39.096  30.666  30.616  1.00  0.00    -0.354 N 
ATOM     48  C   UNL A   1      38.948  32.989  34.268  1.00  0.00     0.074 A 
ATOM     49  C   UNL A   1      37.927  34.010  34.193  1.00  0.00     0.031 C 
ATOM     50  C   UNL A   1      38.492  30.090  28.541  1.00  0.00     0.029 A 
ATOM     51  C   UNL A   1      39.440  29.794  29.612  1.00  0.00     0.049 A 
ATOM     52  H   UNL A   1      39.564  30.702  31.481  1.00  0.00     0.167 HD
ATOM     53  C   UNL A   1      39.745  32.788  35.342  1.00  0.00     0.037 A 
ATOM     54  C   UNL A   1      40.412  28.862  29.563  1.00  0.00     0.037 A 
ATOM     55  C   UNL A   1      40.744  31.756  35.419  1.00  0.00     0.049 A 
ATOM     56  C   UNL A   1      41.297  28.668  30.767  1.00  0.00     0.074 A 
ATOM     57  C   UNL A   1      41.565  31.428  36.483  1.00  0.00     0.029 A 
ATOM     58  N   UNL A   1      41.059  30.886  34.385  1.00  0.00    -0.354 N 
ATOM     59  N   UNL A   1      41.274  29.290  31.922  1.00  0.00    -0.248 NA
ATOM     60  C   UNL A   1      42.341  27.637  30.664  1.00  0.00     0.031 C 
ATOM     61  C   UNL A   1      42.413  30.394  36.076  1.00  0.00     0.029 A 
ATOM     62  C   UNL A   1      42.083  30.040  34.777  1.00  0.00     0.049 A 
ATOM     63  H   UNL A   1      40.621  30.874  33.504  1.00  0.00     0.167 HD
ATOM     64  C   UNL A   1      42.274  28.709  32.689  1.00  0.00     0.074 A 
ATOM     65  C   UNL A   1      42.877  27.673  31.876  1.00  0.00     0.031 C 
ATOM     66  C   UNL A   1      42.661  29.008  33.954  1.00  0.00     0.037 A 
BRANCH  53  67
ATOM     67  C   UNL A   1      39.564  33.700  36.519  1.00  0.00     0.064 A 
ATOM     68  C   UNL A   1      38.762  33.340  37.613  1.00  0.00     0.173 A 
ATOM     69  C   UNL A   1      40.217  34.941  36.567  1.00  0.00     0.173 A 
ATOM     70  F   UNL A   1      38.104  32.170  37.613  1.00  0.00    -0.203 F 
ATOM     71  C   UNL A   1      38.594  34.201  38.695  1.00  0.00     0.198 A 
ATOM     72  C   UNL A   1      40.073  35.785  37.664  1.00  0.00     0.198 A 
ATOM     73  F   UNL A   1      40.997  35.334  35.549  1.00  0.00    -0.203 F 
ATOM     74  F   UNL A   1      37.779  33.859  39.702  1.00  0.00    -0.200 F 
ATOM     75  C   UNL A   1      39.256  35.419  38.722  1.00  0.00     0.200 A 
ATOM     76  F   UNL A   1      40.723  36.957  37.695  1.00  0.00    -0.200 F 
ATOM     77  F   UNL A   1      39.099  36.245  39.766  1.00  0.00    -0.200 F 
ENDBRANCH  53  67
BRANCH  54  78
ATOM     78  C   UNL A   1      40.587  28.026  28.346  1.00  0.00     0.064 A 
ATOM     79  C   UNL A   1      39.988  26.761  28.247  1.00  0.00     0.173 A 
ATOM     80  C   UNL A   1      41.366  28.462  27.264  1.00  0.00     0.173 A 
ATOM     81  F   UNL A   1      39.251  26.289  29.264  1.00  0.00    -0.203 F 
ATOM     82  C   UNL A   1      40.179  25.958  27.125  1.00  0.00     0.198 A 
ATOM     83  C   UNL A   1      41.531  27.670  26.129  1.00  0.00     0.198 A 
ATOM     84  F   UNL A   1      41.959  29.664  27.305  1.00  0.00    -0.203 F 
ATOM     85  F   UNL A   1      39.634  24.734  27.078  1.00  0.00    -0.200 F 
ATOM     86  C   UNL A   1      40.946  26.416  26.064  1.00  0.00     0.200 A 
ATOM     87  F   UNL A   1      42.262  28.122  25.101  1.00  0.00    -0.200 F 
ATOM     88  F   UNL A   1      41.127  25.644  24.984  1.00  0.00    -0.200 F 
ENDBRANCH  54  78
BRANCH  66  89
ATOM     89  C   UNL A   1      43.767  28.185  34.551  1.00  0.00     0.064 A 
ATOM     90  C   UNL A   1      45.099  28.621  34.536  1.00  0.00     0.173 A 
ATOM     91  C   UNL A   1      43.477  26.974  35.197  1.00  0.00     0.173 A 
ATOM     92  F   UNL A   1      45.429  29.765  33.919  1.00  0.00    -0.203 F 
ATOM     93  C   UNL A   1      46.105  27.863  35.128  1.00  0.00     0.198 A 
ATOM     94  C   UNL A   1      44.480  26.234  35.817  1.00  0.00     0.198 A 
ATOM     95  F   UNL A   1      42.217  26.517  35.246  1.00  0.00    -0.203 F 
ATOM     96  F   UNL A   1      47.379  28.277  35.065  1.00  0.00    -0.200 F 
ATOM     97  C   UNL A   1      45.794  26.676  35.777  1.00  0.00     0.200 A 
ATOM     98  F   UNL A   1      44.176  25.097  36.456  1.00  0.00    -0.200 F 
ATOM     99  F   UNL A   1      46.762  25.955  36.358  1.00  0.00    -0.200 F 
ENDBRANCH  66  89
ENDBRANCH  40  41
ENDBRANCH  32  35
ENDBRANCH  30  31
ENDBRANCH  29  30
ENDBRANCH   1  29
TORSDOF 14
ENDMDL
MODEL 2
REMARK VINA RESULT:     -15.2      5.285     11.350
REMARK SMILES O=C(COc1ccccc1/C=C1/SC(=O)N(c2ccc(F)cc2)C1=O)NCCCNC(=O)c1ccc(-c2c3nc(c(-c4c(F)c(F)c(F)c(F)c4F)c4ccc([nH]4)c(-c4c(F)c(F)c(F)c(F)c4F)c4nc(c(-c5c(F)c(F)c(F)c(F)c5F)c5ccc2[nH]5)C=C4)C=C3)cc1
REMARK SMILES IDX 27 1 26 2 1 3 2 4 3 6 4 7 5 8 6 9 10 10 7 11 9 12 8 13 11 14
REMARK SMILES IDX 12 15 13 16 24 17 14 18 16 19 25 20 15 21 17 22 18 23 23 24
REMARK SMILES IDX 19 25 22 26 20 27 21 28 28 29 29 30 30 31 31 32 32 34 33 35
REMARK SMILES IDX 34 36 95 37 35 38 94 39 36 40 37 41 38 42 88 43 39 44 93 45
REMARK SMILES IDX 87 46 89 47 40 48 92 49 86 50 85 51 41 53 73 54 53 55 72 56
REMARK SMILES IDX 54 57 57 58 71 59 90 60 55 61 56 62 70 64 91 65 58 66 42 67
REMARK SMILES IDX 43 68 51 69 44 70 45 71 49 72 52 73 46 74 47 75 50 76 48 77
REMARK SMILES IDX 74 78 75 79 83 80 76 81 77 82 81 83 84 84 78 85 79 86 82 87
REMARK SMILES IDX 80 88 59 89 60 90 68 91 61 92 62 93 66 94 69 95 63 96 64 97
REMARK SMILES IDX 67 98 65 99
REMARK H PARENT 26 5 30 33 89 52 57 63
REMARK Flexibility Score: inf
ROOT
ATOM      1  C   UNL A   1      36.919  21.345  25.330  1.00  0.00     0.117 C 
ENDROOT
BRANCH   1   2
ATOM      2  N   UNL A   1      34.885  20.981  25.764  1.00  0.00    -0.353 N 
ATOM      3  O   UNL A   1      33.538  21.538  27.725  1.00  0.00    -0.271 OA
ATOM      4  C   UNL A   1      33.655  21.236  26.542  1.00  0.00     0.257 C 
ATOM      5  H   UNL A   1      34.621  20.288  25.118  1.00  0.00     0.163 HD
BRANCH   4   6
ATOM      6  C   UNL A   1      32.390  21.068  25.682  1.00  0.00     0.329 C 
BRANCH   6   7
ATOM      7  O   UNL A   1      31.700  22.276  25.416  1.00  0.00    -0.483 OA
BRANCH   7   8
ATOM      8  C   UNL A   1      32.206  23.083  24.421  1.00  0.00     0.127 A 
ATOM      9  C   UNL A   1      32.366  22.411  23.205  1.00  0.00     0.047 A 
ATOM     10  C   UNL A   1      32.764  24.375  24.591  1.00  0.00     0.018 A 
ATOM     11  C   UNL A   1      33.084  22.992  22.162  1.00  0.00     0.004 A 
ATOM     12  C   UNL A   1      33.489  24.940  23.532  1.00  0.00     0.012 A 
ATOM     13  C   UNL A   1      33.657  24.247  22.332  1.00  0.00     0.001 A 
BRANCH  10  14
ATOM     14  C   UNL A   1      32.731  25.153  25.835  1.00  0.00     0.033 C 
ATOM     15  C   UNL A   1      31.824  26.135  25.969  1.00  0.00     0.084 C 
ATOM     16  S   UNL A   1      32.498  27.949  27.179  1.00  0.00    -0.022 SA
ATOM     17  C   UNL A   1      30.656  26.679  24.477  1.00  0.00     0.272 C 
ATOM     18  C   UNL A   1      31.552  29.433  25.629  1.00  0.00     0.298 C 
ATOM     19  N   UNL A   1      30.589  28.496  24.409  1.00  0.00    -0.236 N 
ATOM     20  O   UNL A   1      30.024  25.902  23.778  1.00  0.00    -0.268 OA
ATOM     21  O   UNL A   1      31.711  30.637  25.763  1.00  0.00    -0.260 OA
BRANCH  19  22
ATOM     22  C   UNL A   1      29.830  29.136  23.384  1.00  0.00     0.053 A 
ATOM     23  C   UNL A   1      28.435  29.242  23.502  1.00  0.00     0.030 A 
ATOM     24  C   UNL A   1      30.447  29.681  22.252  1.00  0.00     0.030 A 
ATOM     25  C   UNL A   1      27.672  29.883  22.523  1.00  0.00     0.041 A 
ATOM     26  C   UNL A   1      29.680  30.306  21.259  1.00  0.00     0.041 A 
ATOM     27  C   UNL A   1      28.301  30.407  21.406  1.00  0.00     0.123 A 
ATOM     28  F   UNL A   1      27.575  31.019  20.464  1.00  0.00    -0.207 F 
ENDBRANCH  19  22
ENDBRANCH  10  14
ENDBRANCH   7   8
ENDBRANCH   6   7
ENDBRANCH   4   6
ENDBRANCH   1   2
BRANCH   1  29
ATOM     29  C   UNL A   1      38.199  20.285  25.001  1.00  0.00     0.042 C 
BRANCH  29  30
ATOM     30  C   UNL A   1      39.425  20.355  25.908  1.00  0.00     0.118 C 
BRANCH  30  31
ATOM     31  N   UNL A   1      40.301  19.195  25.873  1.00  0.00    -0.352 N 
ATOM     32  C   UNL A   1      41.654  19.196  26.142  1.00  0.00     0.251 C 
ATOM     33  H   UNL A   1      39.892  18.331  25.638  1.00  0.00     0.163 HD
ATOM     34  O   UNL A   1      42.325  18.177  26.058  1.00  0.00    -0.269 OA
BRANCH  32  35
ATOM     35  C   UNL A   1      42.281  20.494  26.454  1.00  0.00     0.039 A 
ATOM     36  C   UNL A   1      42.645  21.331  25.399  1.00  0.00     0.014 A 
ATOM     37  C   UNL A   1      42.340  20.937  27.777  1.00  0.00     0.014 A 
ATOM     38  C   UNL A   1      43.009  22.648  25.670  1.00  0.00     0.010 A 
ATOM     39  C   UNL A   1      42.623  22.272  28.037  1.00  0.00     0.010 A 
ATOM     40  C   UNL A   1      42.962  23.139  26.986  1.00  0.00    -0.014 A 
BRANCH  40  41
ATOM     41  C   UNL A   1      43.292  24.554  27.281  1.00  0.00     0.031 A 
ATOM     42  C   UNL A   1      44.679  25.063  27.015  1.00  0.00     0.074 A 
ATOM     43  C   UNL A   1      42.361  25.363  27.821  1.00  0.00     0.049 A 
ATOM     44  N   UNL A   1      45.179  26.255  27.222  1.00  0.00    -0.248 NA
ATOM     45  C   UNL A   1      45.644  24.095  26.468  1.00  0.00     0.031 C 
ATOM     46  C   UNL A   1      40.995  24.968  28.172  1.00  0.00     0.029 A 
ATOM     47  N   UNL A   1      42.423  26.689  28.175  1.00  0.00    -0.354 N 
ATOM     48  C   UNL A   1      46.510  26.175  26.838  1.00  0.00     0.074 A 
ATOM     49  C   UNL A   1      46.761  24.805  26.450  1.00  0.00     0.031 C 
ATOM     50  C   UNL A   1      40.341  26.034  28.663  1.00  0.00     0.029 A 
ATOM     51  C   UNL A   1      41.249  27.177  28.694  1.00  0.00     0.049 A 
ATOM     52  H   UNL A   1      43.233  27.237  28.067  1.00  0.00     0.167 HD
ATOM     53  C   UNL A   1      47.433  27.163  26.785  1.00  0.00     0.037 A 
ATOM     54  C   UNL A   1      40.942  28.409  29.144  1.00  0.00     0.037 A 
ATOM     55  C   UNL A   1      47.171  28.528  27.152  1.00  0.00     0.049 A 
ATOM     56  C   UNL A   1      41.993  29.489  29.088  1.00  0.00     0.074 A 
ATOM     57  C   UNL A   1      48.018  29.620  27.078  1.00  0.00     0.029 A 
ATOM     58  N   UNL A   1      45.967  28.988  27.667  1.00  0.00    -0.354 N 
ATOM     59  N   UNL A   1      43.225  29.423  28.645  1.00  0.00    -0.248 NA
ATOM     60  C   UNL A   1      41.607  30.816  29.589  1.00  0.00     0.031 C 
ATOM     61  C   UNL A   1      47.345  30.729  27.598  1.00  0.00     0.029 A 
ATOM     62  C   UNL A   1      46.059  30.343  27.942  1.00  0.00     0.049 A 
ATOM     63  H   UNL A   1      45.167  28.434  27.814  1.00  0.00     0.167 HD
ATOM     64  C   UNL A   1      43.751  30.700  28.786  1.00  0.00     0.074 A 
ATOM     65  C   UNL A   1      42.699  31.526  29.341  1.00  0.00     0.031 C 
ATOM     66  C   UNL A   1      44.995  31.148  28.485  1.00  0.00     0.037 A 
BRANCH  53  67
ATOM     67  C   UNL A   1      48.808  26.800  26.308  1.00  0.00     0.064 A 
ATOM     68  C   UNL A   1      49.188  26.957  24.966  1.00  0.00     0.173 A 
ATOM     69  C   UNL A   1      49.768  26.309  27.206  1.00  0.00     0.173 A 
ATOM     70  F   UNL A   1      48.304  27.410  24.062  1.00  0.00    -0.203 F 
ATOM     71  C   UNL A   1      50.465  26.606  24.535  1.00  0.00     0.198 A 
ATOM     72  C   UNL A   1      51.053  25.990  26.779  1.00  0.00     0.198 A 
ATOM     73  F   UNL A   1      49.459  26.142  28.501  1.00  0.00    -0.203 F 
ATOM     74  F   UNL A   1      50.786  26.713  23.238  1.00  0.00    -0.200 F 
ATOM     75  C   UNL A   1      51.398  26.130  25.443  1.00  0.00     0.200 A 
ATOM     76  F   UNL A   1      51.959  25.542  27.659  1.00  0.00    -0.200 F 
ATOM     77  F   UNL A   1      52.629  25.799  25.029  1.00  0.00    -0.200 F 
ENDBRANCH  53  67
BRANCH  54  78
ATOM     78  C   UNL A   1      39.580  28.699  29.664  1.00  0.00     0.064 A 
ATOM     79  C   UNL A   1      38.580  29.211  28.823  1.00  0.00     0.173 A 
ATOM     80  C   UNL A   1      39.249  28.486  31.010  1.00  0.00     0.173 A 
ATOM     81  F   UNL A   1      38.851  29.454  27.532  1.00  0.00    -0.203 F 
ATOM     82  C   UNL A   1      37.313  29.519  29.313  1.00  0.00     0.198 A 
ATOM     83  C   UNL A   1      37.972  28.766  31.493  1.00  0.00     0.198 A 
ATOM     84  F   UNL A   1      40.166  27.995  31.857  1.00  0.00    -0.203 F 
ATOM     85  F   UNL A   1      36.392  30.054  28.499  1.00  0.00    -0.200 F 
ATOM     86  C   UNL A   1      37.008  29.291  30.647  1.00  0.00     0.200 A 
ATOM     87  F   UNL A   1      37.678  28.531  32.778  1.00  0.00    -0.200 F 
ATOM     88  F   UNL A   1      35.788  29.585  31.117  1.00  0.00    -0.200 F 
ENDBRANCH  54  78
BRANCH  66  89
ATOM     89  C   UNL A   1      45.279  32.604  28.718  1.00  0.00     0.064 A 
ATOM     90  C   UNL A   1      45.875  33.058  29.904  1.00  0.00     0.173 A 
ATOM     91  C   UNL A   1      45.005  33.548  27.716  1.00  0.00     0.173 A 
ATOM     92  F   UNL A   1      46.143  32.197  30.896  1.00  0.00    -0.203 F 
ATOM     93  C   UNL A   1      46.166  34.407  30.086  1.00  0.00     0.198 A 
ATOM     94  C   UNL A   1      45.328  34.890  27.888  1.00  0.00     0.198 A 
ATOM     95  F   UNL A   1      44.443  33.164  26.560  1.00  0.00    -0.203 F 
ATOM     96  F   UNL A   1      46.697  34.825  31.244  1.00  0.00    -0.200 F 
ATOM     97  C   UNL A   1      45.903  35.319  29.075  1.00  0.00     0.200 A 
ATOM     98  F   UNL A   1      45.087  35.768  26.905  1.00  0.00    -0.200 F 
ATOM     99  F   UNL A   1      46.197  36.615  29.248  1.00  0.00    -0.200 F 
ENDBRANCH  66  89
ENDBRANCH  40  41
ENDBRANCH  32  35
ENDBRANCH  30  31
ENDBRANCH  29  30
ENDBRANCH   1  29
TORSDOF 14
ENDMDL
MODEL 3
REMARK VINA RESULT:     -14.9      0.537      7.121
REMARK SMILES O=C(COc1ccccc1/C=C1/SC(=O)N(c2ccc(F)cc2)C1=O)NCCCNC(=O)c1ccc(-c2c3nc(c(-c4c(F)c(F)c(F)c(F)c4F)c4ccc([nH]4)c(-c4c(F)c(F)c(F)c(F)c4F)c4nc(c(-c5c(F)c(F)c(F)c(F)c5F)c5ccc2[nH]5)C=C4)C=C3)cc1
REMARK SMILES IDX 27 1 26 2 1 3 2 4 3 6 4 7 5 8 6 9 10 10 7 11 9 12 8 13 11 14
REMARK SMILES IDX 12 15 13 16 24 17 14 18 16 19 25 20 15 21 17 22 18 23 23 24
REMARK SMILES IDX 19 25 22 26 20 27 21 28 28 29 29 30 30 31 31 32 32 34 33 35
REMARK SMILES IDX 34 36 95 37 35 38 94 39 36 40 37 41 38 42 88 43 39 44 93 45
REMARK SMILES IDX 87 46 89 47 40 48 92 49 86 50 85 51 41 53 73 54 53 55 72 56
REMARK SMILES IDX 54 57 57 58 71 59 90 60 55 61 56 62 70 64 91 65 58 66 42 67
REMARK SMILES IDX 43 68 51 69 44 70 45 71 49 72 52 73 46 74 47 75 50 76 48 77
REMARK SMILES IDX 74 78 75 79 83 80 76 81 77 82 81 83 84 84 78 85 79 86 82 87
REMARK SMILES IDX 80 88 59 89 60 90 68 91 61 92 62 93 66 94 69 95 63 96 64 97
REMARK SMILES IDX 67 98 65 99
REMARK H PARENT 26 5 30 33 89 52 57 63
REMARK Flexibility Score: inf
ROOT
ATOM      1  C   UNL A   1      31.553  30.828  25.805  1.00  0.00     0.117 C 
ENDROOT
BRANCH   1   2
ATOM      2  N   UNL A   1      31.713  29.045  24.685  1.00  0.00    -0.353 N 
ATOM      3  O   UNL A   1      30.958  28.496  22.427  1.00  0.00    -0.271 OA
ATOM      4  C   UNL A   1      31.668  28.303  23.408  1.00  0.00     0.257 C 
ATOM      5  H   UNL A   1      31.928  28.358  25.355  1.00  0.00     0.163 HD
BRANCH   4   6
ATOM      6  C   UNL A   1      32.671  27.136  23.391  1.00  0.00     0.329 C 
BRANCH   6   7
ATOM      7  O   UNL A   1      32.081  25.861  23.217  1.00  0.00    -0.483 OA
BRANCH   7   8
ATOM      8  C   UNL A   1      31.964  25.064  24.335  1.00  0.00     0.127 A 
ATOM      9  C   UNL A   1      30.714  25.177  24.954  1.00  0.00     0.047 A 
ATOM     10  C   UNL A   1      33.018  24.381  24.993  1.00  0.00     0.018 A 
ATOM     11  C   UNL A   1      30.500  24.639  26.221  1.00  0.00     0.004 A 
ATOM     12  C   UNL A   1      32.783  23.852  26.270  1.00  0.00     0.012 A 
ATOM     13  C   UNL A   1      31.537  23.992  26.883  1.00  0.00     0.001 A 
BRANCH  10  14
ATOM     14  C   UNL A   1      34.390  24.256  24.486  1.00  0.00     0.033 C 
ATOM     15  C   UNL A   1      34.791  23.085  23.966  1.00  0.00     0.084 C 
ATOM     16  S   UNL A   1      36.980  22.542  24.316  1.00  0.00    -0.022 SA
ATOM     17  C   UNL A   1      33.650  21.478  24.025  1.00  0.00     0.272 C 
ATOM     18  C   UNL A   1      36.429  20.323  24.837  1.00  0.00     0.298 C 
ATOM     19  N   UNL A   1      34.666  20.047  24.504  1.00  0.00    -0.236 N 
ATOM     20  O   UNL A   1      32.471  21.458  23.706  1.00  0.00    -0.268 OA
ATOM     21  O   UNL A   1      37.298  19.552  25.215  1.00  0.00    -0.260 OA
BRANCH  19  22
ATOM     22  C   UNL A   1      34.055  18.765  24.651  1.00  0.00     0.053 A 
ATOM     23  C   UNL A   1      33.088  18.556  25.647  1.00  0.00     0.030 A 
ATOM     24  C   UNL A   1      34.389  17.697  23.810  1.00  0.00     0.030 A 
ATOM     25  C   UNL A   1      32.460  17.318  25.797  1.00  0.00     0.041 A 
ATOM     26  C   UNL A   1      33.774  16.449  23.975  1.00  0.00     0.041 A 
ATOM     27  C   UNL A   1      32.812  16.271  24.961  1.00  0.00     0.123 A 
ATOM     28  F   UNL A   1      32.215  15.082  25.103  1.00  0.00    -0.207 F 
ENDBRANCH  19  22
ENDBRANCH  10  14
ENDBRANCH   7   8
ENDBRANCH   6   7
ENDBRANCH   4   6
ENDBRANCH   1   2
BRANCH   1  29
ATOM     29  C   UNL A   1      32.248  31.288  27.281  1.00  0.00     0.042 C 
BRANCH  29  30
ATOM     30  C   UNL A   1      33.210  32.473  27.269  1.00  0.00     0.118 C 
BRANCH  30  31
ATOM     31  N   UNL A   1      32.610  33.773  27.522  1.00  0.00    -0.352 N 
ATOM     32  C   UNL A   1      33.039  34.691  28.459  1.00  0.00     0.251 C 
ATOM     33  H   UNL A   1      31.829  34.021  26.978  1.00  0.00     0.163 HD
ATOM     34  O   UNL A   1      32.455  35.753  28.630  1.00  0.00    -0.269 OA
BRANCH  32  35
ATOM     35  C   UNL A   1      34.182  34.309  29.308  1.00  0.00     0.039 A 
ATOM     36  C   UNL A   1      33.937  33.566  30.462  1.00  0.00     0.014 A 
ATOM     37  C   UNL A   1      35.486  34.539  28.863  1.00  0.00     0.014 A 
ATOM     38  C   UNL A   1      35.010  32.991  31.141  1.00  0.00     0.010 A 
ATOM     39  C   UNL A   1      36.545  33.898  29.494  1.00  0.00     0.010 A 
ATOM     40  C   UNL A   1      36.316  33.120  30.640  1.00  0.00    -0.014 A 
BRANCH  40  41
ATOM     41  C   UNL A   1      37.459  32.465  31.321  1.00  0.00     0.031 A 
ATOM     42  C   UNL A   1      38.178  31.335  30.643  1.00  0.00     0.074 A 
ATOM     43  C   UNL A   1      37.821  32.859  32.557  1.00  0.00     0.049 A 
ATOM     44  N   UNL A   1      39.183  30.617  31.071  1.00  0.00    -0.248 NA
ATOM     45  C   UNL A   1      37.683  30.942  29.313  1.00  0.00     0.031 C 
ATOM     46  C   UNL A   1      37.165  33.910  33.338  1.00  0.00     0.029 A 
ATOM     47  N   UNL A   1      38.829  32.417  33.378  1.00  0.00    -0.354 N 
ATOM     48  C   UNL A   1      39.433  29.687  30.072  1.00  0.00     0.074 A 
ATOM     49  C   UNL A   1      38.435  29.886  29.044  1.00  0.00     0.031 C 
ATOM     50  C   UNL A   1      37.805  34.051  34.511  1.00  0.00     0.029 A 
ATOM     51  C   UNL A   1      38.893  33.080  34.580  1.00  0.00     0.049 A 
ATOM     52  H   UNL A   1      39.448  31.694  33.129  1.00  0.00     0.167 HD
ATOM     53  C   UNL A   1      40.425  28.769  30.001  1.00  0.00     0.037 A 
ATOM     54  C   UNL A   1      39.735  32.919  35.619  1.00  0.00     0.037 A 
ATOM     55  C   UNL A   1      41.428  28.591  31.016  1.00  0.00     0.049 A 
ATOM     56  C   UNL A   1      40.823  31.880  35.522  1.00  0.00     0.074 A 
ATOM     57  C   UNL A   1      42.512  27.732  31.017  1.00  0.00     0.029 A 
ATOM     58  N   UNL A   1      41.465  29.286  32.217  1.00  0.00    -0.354 N 
ATOM     59  N   UNL A   1      41.101  31.062  34.535  1.00  0.00    -0.248 NA
ATOM     60  C   UNL A   1      41.717  31.746  36.682  1.00  0.00     0.031 C 
ATOM     61  C   UNL A   1      43.176  27.868  32.239  1.00  0.00     0.029 A 
ATOM     62  C   UNL A   1      42.539  28.853  32.978  1.00  0.00     0.049 A 
ATOM     63  H   UNL A   1      40.824  29.982  32.487  1.00  0.00     0.167 HD
ATOM     64  C   UNL A   1      42.215  30.340  34.941  1.00  0.00     0.074 A 
ATOM     65  C   UNL A   1      42.572  30.826  36.257  1.00  0.00     0.031 C 
ATOM     66  C   UNL A   1      42.882  29.359  34.283  1.00  0.00     0.037 A 
BRANCH  53  67
ATOM     67  C   UNL A   1      40.474  27.895  28.783  1.00  0.00     0.064 A 
ATOM     68  C   UNL A   1      41.219  28.253  27.649  1.00  0.00     0.173 A 
ATOM     69  C   UNL A   1      39.786  26.672  28.756  1.00  0.00     0.173 A 
ATOM     70  F   UNL A   1      41.884  29.418  27.617  1.00  0.00    -0.203 F 
ATOM     71  C   UNL A   1      41.246  27.435  26.521  1.00  0.00     0.198 A 
ATOM     72  C   UNL A   1      39.843  25.842  27.640  1.00  0.00     0.198 A 
ATOM     73  F   UNL A   1      39.062  26.280  29.815  1.00  0.00    -0.203 F 
ATOM     74  F   UNL A   1      41.919  27.825  25.430  1.00  0.00    -0.200 F 
ATOM     75  C   UNL A   1      40.565  26.228  26.521  1.00  0.00     0.200 A 
ATOM     76  F   UNL A   1      39.194  24.670  27.645  1.00  0.00    -0.200 F 
ATOM     77  F   UNL A   1      40.597  25.440  25.438  1.00  0.00    -0.200 F 
ENDBRANCH  53  67
BRANCH  54  78
ATOM     78  C   UNL A   1      39.604  33.774  36.828  1.00  0.00     0.064 A 
ATOM     79  C   UNL A   1      38.836  33.358  37.927  1.00  0.00     0.173 A 
ATOM     80  C   UNL A   1      40.228  35.027  36.909  1.00  0.00     0.173 A 
ATOM     81  F   UNL A   1      38.201  32.177  37.890  1.00  0.00    -0.203 F 
ATOM     82  C   UNL A   1      38.680  34.171  39.047  1.00  0.00     0.198 A 
ATOM     83  C   UNL A   1      40.096  35.827  38.044  1.00  0.00     0.198 A 
ATOM     84  F   UNL A   1      40.977  35.472  35.889  1.00  0.00    -0.203 F 
ATOM     85  F   UNL A   1      37.901  33.770  40.061  1.00  0.00    -0.200 F 
ATOM     86  C   UNL A   1      39.315  35.403  39.107  1.00  0.00     0.200 A 
ATOM     87  F   UNL A   1      40.722  37.010  38.103  1.00  0.00    -0.200 F 
ATOM     88  F   UNL A   1      39.166  36.183  40.186  1.00  0.00    -0.200 F 
ENDBRANCH  54  78
BRANCH  66  89
ATOM     89  C   UNL A   1      44.085  28.768  34.960  1.00  0.00     0.064 A 
ATOM     90  C   UNL A   1      45.363  29.325  34.810  1.00  0.00     0.173 A 
ATOM     91  C   UNL A   1      43.944  27.666  35.817  1.00  0.00     0.173 A 
ATOM     92  F   UNL A   1      45.551  30.370  33.991  1.00  0.00    -0.203 F 
ATOM     93  C   UNL A   1      46.460  28.787  35.477  1.00  0.00     0.198 A 
ATOM     94  C   UNL A   1      45.037  27.150  36.508  1.00  0.00     0.198 A 
ATOM     95  F   UNL A   1      42.742  27.101  36.002  1.00  0.00    -0.203 F 
ATOM     96  F   UNL A   1      47.680  29.309  35.285  1.00  0.00    -0.200 F 
ATOM     97  C   UNL A   1      46.295  27.708  36.332  1.00  0.00     0.200 A 
ATOM     98  F   UNL A   1      44.873  26.118  37.346  1.00  0.00    -0.200 F 
ATOM     99  F   UNL A   1      47.350  27.200  36.984  1.00  0.00    -0.200 F 
ENDBRANCH  66  89
ENDBRANCH  40  41
ENDBRANCH  32  35
ENDBRANCH  30  31
ENDBRANCH  29  30
ENDBRANCH   1  29
TORSDOF 14
ENDMDL
