MODEL 1
REMARK VINA RESULT:     -13.0      0.000      0.000
REMARK SMILES O=C(NCCCNC(=O)[C@@]1(Cc2cn3ccccc3n2)CCC[NH2+]C1)c1ccc(-c2c3nc(c(-c4c(F)c(F)c(F)c(F)c4F)c4ccc([nH]4)c(-c4c(F)c(F)c(F)c(F)c4F)c4nc(c(-c5c(F)c(F)c(F)c(F)c5F)c5ccc2[nH]5)C=C4)C=C3)cc1
REMARK SMILES IDX 5 1 4 2 3 3 1 4 2 5 26 7 27 8 88 9 28 10 87 11 29 12 30 13
REMARK SMILES IDX 31 14 81 15 32 16 86 17 80 18 82 19 33 20 85 21 79 22 78 23
REMARK SMILES IDX 34 25 66 26 46 27 65 28 47 29 50 30 64 31 83 32 48 33 49 34
REMARK SMILES IDX 63 36 84 37 51 38 35 39 36 40 44 41 37 42 38 43 42 44 45 45
REMARK SMILES IDX 39 46 40 47 43 48 41 49 67 50 68 51 76 52 69 53 70 54 74 55
REMARK SMILES IDX 77 56 71 57 72 58 75 59 73 60 52 61 53 62 61 63 54 64 55 65
REMARK SMILES IDX 59 66 62 67 56 68 57 69 60 70 58 71 6 72 7 73 8 74 9 76
REMARK SMILES IDX 10 77 21 78 25 79 22 80 24 81 23 82 11 85 12 86 13 87 20 88
REMARK SMILES IDX 14 89 19 90 15 91 18 92 16 93 17 94
REMARK H PARENT 3 6 82 24 50 35 7 75 24 83 24 84
REMARK Flexibility Score: inf
ROOT
ATOM      1  C   UNL A   1      33.445  29.206  24.476  1.00  0.00     0.042 C 
ENDROOT
BRANCH   1   2
ATOM      2  C   UNL A   1      32.893  29.337  25.886  1.00  0.00     0.118 C 
BRANCH   2   3
ATOM      3  N   UNL A   1      32.612  30.721  26.249  1.00  0.00    -0.352 N 
ATOM      4  O   UNL A   1      32.699  32.630  27.440  1.00  0.00    -0.269 OA
ATOM      5  C   UNL A   1      33.236  31.568  27.134  1.00  0.00     0.251 C 
ATOM      6  H   UNL A   1      31.842  31.117  25.782  1.00  0.00     0.163 HD
BRANCH   5   7
ATOM      7  C   UNL A   1      34.533  31.202  27.745  1.00  0.00     0.039 A 
ATOM      8  C   UNL A   1      34.786  29.895  28.151  1.00  0.00     0.014 A 
ATOM      9  C   UNL A   1      35.526  32.176  27.894  1.00  0.00     0.014 A 
ATOM     10  C   UNL A   1      35.919  29.610  28.900  1.00  0.00     0.010 A 
ATOM     11  C   UNL A   1      36.732  31.853  28.526  1.00  0.00     0.010 A 
ATOM     12  C   UNL A   1      36.919  30.578  29.080  1.00  0.00    -0.014 A 
BRANCH  12  13
ATOM     13  C   UNL A   1      38.155  30.199  29.814  1.00  0.00     0.031 A 
ATOM     14  C   UNL A   1      38.399  30.659  31.226  1.00  0.00     0.074 A 
ATOM     15  C   UNL A   1      39.038  29.377  29.210  1.00  0.00     0.049 A 
ATOM     16  N   UNL A   1      39.395  30.370  32.027  1.00  0.00    -0.248 NA
ATOM     17  C   UNL A   1      37.405  31.567  31.816  1.00  0.00     0.031 C 
ATOM     18  C   UNL A   1      38.918  28.877  27.838  1.00  0.00     0.029 A 
ATOM     19  N   UNL A   1      40.183  28.786  29.677  1.00  0.00    -0.354 N 
ATOM     20  C   UNL A   1      39.166  31.083  33.196  1.00  0.00     0.074 A 
ATOM     21  C   UNL A   1      37.948  31.838  32.996  1.00  0.00     0.031 C 
ATOM     22  C   UNL A   1      39.901  27.999  27.600  1.00  0.00     0.029 A 
ATOM     23  C   UNL A   1      40.764  27.931  28.772  1.00  0.00     0.049 A 
ATOM     24  H   UNL A   1      40.554  28.958  30.572  1.00  0.00     0.167 HD
ATOM     25  C   UNL A   1      39.903  31.100  34.333  1.00  0.00     0.037 A 
ATOM     26  C   UNL A   1      41.877  27.181  28.869  1.00  0.00     0.037 A 
ATOM     27  C   UNL A   1      41.098  30.321  34.538  1.00  0.00     0.049 A 
ATOM     28  C   UNL A   1      42.672  27.222  30.140  1.00  0.00     0.074 A 
ATOM     29  C   UNL A   1      41.890  30.234  35.670  1.00  0.00     0.029 A 
ATOM     30  N   UNL A   1      41.674  29.492  33.585  1.00  0.00    -0.354 N 
ATOM     31  N   UNL A   1      42.424  27.874  31.249  1.00  0.00    -0.248 NA
ATOM     32  C   UNL A   1      43.904  26.424  30.172  1.00  0.00     0.031 C 
ATOM     33  C   UNL A   1      42.971  29.393  35.386  1.00  0.00     0.029 A 
ATOM     34  C   UNL A   1      42.824  28.909  34.097  1.00  0.00     0.049 A 
ATOM     35  H   UNL A   1      41.319  29.340  32.679  1.00  0.00     0.167 HD
ATOM     36  C   UNL A   1      43.455  27.551  32.118  1.00  0.00     0.074 A 
ATOM     37  C   UNL A   1      44.320  26.626  31.414  1.00  0.00     0.031 C 
ATOM     38  C   UNL A   1      43.669  27.985  33.385  1.00  0.00     0.037 A 
BRANCH  25  39
ATOM     39  C   UNL A   1      39.454  32.008  35.443  1.00  0.00     0.064 A 
ATOM     40  C   UNL A   1      39.883  33.341  35.533  1.00  0.00     0.173 A 
ATOM     41  C   UNL A   1      38.546  31.548  36.409  1.00  0.00     0.173 A 
ATOM     42  F   UNL A   1      40.760  33.830  34.643  1.00  0.00    -0.203 F 
ATOM     43  C   UNL A   1      39.439  34.170  36.562  1.00  0.00     0.198 A 
ATOM     44  C   UNL A   1      38.082  32.387  37.419  1.00  0.00     0.198 A 
ATOM     45  F   UNL A   1      38.097  30.283  36.368  1.00  0.00    -0.203 F 
ATOM     46  F   UNL A   1      39.900  35.426  36.654  1.00  0.00    -0.200 F 
ATOM     47  C   UNL A   1      38.535  33.695  37.500  1.00  0.00     0.200 A 
ATOM     48  F   UNL A   1      37.198  31.929  38.316  1.00  0.00    -0.200 F 
ATOM     49  F   UNL A   1      38.104  34.495  38.484  1.00  0.00    -0.200 F 
ENDBRANCH  25  39
BRANCH  26  50
ATOM     50  C   UNL A   1      42.295  26.326  27.726  1.00  0.00     0.064 A 
ATOM     51  C   UNL A   1      41.749  25.049  27.544  1.00  0.00     0.173 A 
ATOM     52  C   UNL A   1      43.238  26.774  26.789  1.00  0.00     0.173 A 
ATOM     53  F   UNL A   1      40.856  24.571  28.423  1.00  0.00    -0.203 F 
ATOM     54  C   UNL A   1      42.143  24.244  26.478  1.00  0.00     0.198 A 
ATOM     55  C   UNL A   1      43.607  25.982  25.704  1.00  0.00     0.198 A 
ATOM     56  F   UNL A   1      43.785  27.992  26.915  1.00  0.00    -0.203 F 
ATOM     57  F   UNL A   1      41.638  23.010  26.350  1.00  0.00    -0.200 F 
ATOM     58  C   UNL A   1      43.066  24.714  25.554  1.00  0.00     0.200 A 
ATOM     59  F   UNL A   1      44.483  26.447  24.805  1.00  0.00    -0.200 F 
ATOM     60  F   UNL A   1      43.437  23.943  24.524  1.00  0.00    -0.200 F 
ENDBRANCH  26  50
BRANCH  38  61
ATOM     61  C   UNL A   1      44.863  27.426  34.101  1.00  0.00     0.064 A 
ATOM     62  C   UNL A   1      44.789  26.238  34.844  1.00  0.00     0.173 A 
ATOM     63  C   UNL A   1      46.101  28.085  34.036  1.00  0.00     0.173 A 
ATOM     64  F   UNL A   1      43.624  25.581  34.952  1.00  0.00    -0.203 F 
ATOM     65  C   UNL A   1      45.902  25.747  35.520  1.00  0.00     0.198 A 
ATOM     66  C   UNL A   1      47.219  27.574  34.687  1.00  0.00     0.198 A 
ATOM     67  F   UNL A   1      46.226  29.221  33.334  1.00  0.00    -0.203 F 
ATOM     68  F   UNL A   1      45.794  24.643  36.271  1.00  0.00    -0.200 F 
ATOM     69  C   UNL A   1      47.117  26.412  35.438  1.00  0.00     0.200 A 
ATOM     70  F   UNL A   1      48.394  28.211  34.597  1.00  0.00    -0.200 F 
ATOM     71  F   UNL A   1      48.187  25.939  36.090  1.00  0.00    -0.200 F 
ENDBRANCH  38  61
ENDBRANCH  12  13
ENDBRANCH   5   7
ENDBRANCH   2   3
ENDBRANCH   1   2
BRANCH   1  72
ATOM     72  C   UNL A   1      32.395  28.745  23.479  1.00  0.00     0.117 C 
BRANCH  72  73
ATOM     73  N   UNL A   1      32.964  27.910  22.427  1.00  0.00    -0.355 N 
ATOM     74  C   UNL A   1      32.871  26.572  22.166  1.00  0.00     0.232 C 
ATOM     75  H   UNL A   1      33.521  28.404  21.783  1.00  0.00     0.163 HD
ATOM     76  O   UNL A   1      33.456  26.177  21.155  1.00  0.00    -0.274 OA
BRANCH  74  77
ATOM     77  C   UNL A   1      32.079  25.619  23.086  1.00  0.00     0.104 C 
ATOM     78  C   UNL A   1      32.620  25.753  24.543  1.00  0.00     0.029 C 
ATOM     79  C   UNL A   1      30.618  26.141  23.101  1.00  0.00     0.277 C 
ATOM     80  C   UNL A   1      31.677  25.145  25.580  1.00  0.00     0.063 C 
ATOM     81  N   UNL A   1      29.732  25.589  24.129  1.00  0.00    -0.345 N 
ATOM     82  C   UNL A   1      30.284  25.751  25.470  1.00  0.00     0.260 C 
ATOM     83  H   UNL A   1      28.833  26.070  24.083  1.00  0.00     0.346 HD
ATOM     84  H   UNL A   1      29.625  24.590  23.951  1.00  0.00     0.346 HD
BRANCH  77  85
ATOM     85  C   UNL A   1      32.390  24.188  22.566  1.00  0.00     0.080 C 
BRANCH  85  86
ATOM     86  C   UNL A   1      33.445  23.378  23.224  1.00  0.00     0.061 A 
ATOM     87  C   UNL A   1      33.346  22.242  24.001  1.00  0.00     0.116 A 
ATOM     88  N   UNL A   1      34.765  23.666  22.960  1.00  0.00    -0.234 NA
ATOM     89  N   UNL A   1      34.634  21.864  24.273  1.00  0.00    -0.307 N 
ATOM     90  C   UNL A   1      35.461  22.749  23.593  1.00  0.00     0.136 A 
ATOM     91  C   UNL A   1      35.107  20.808  25.046  1.00  0.00     0.093 A 
ATOM     92  C   UNL A   1      36.862  22.527  23.680  1.00  0.00     0.048 A 
ATOM     93  C   UNL A   1      36.434  20.611  25.140  1.00  0.00     0.018 A 
ATOM     94  C   UNL A   1      37.332  21.503  24.419  1.00  0.00     0.005 A 
ENDBRANCH  85  86
ENDBRANCH  77  85
ENDBRANCH  74  77
ENDBRANCH  72  73
ENDBRANCH   1  72
TORSDOF 12
ENDMDL
MODEL 2
REMARK VINA RESULT:     -13.0      1.493      2.761
REMARK SMILES O=C(NCCCNC(=O)[C@@]1(Cc2cn3ccccc3n2)CCC[NH2+]C1)c1ccc(-c2c3nc(c(-c4c(F)c(F)c(F)c(F)c4F)c4ccc([nH]4)c(-c4c(F)c(F)c(F)c(F)c4F)c4nc(c(-c5c(F)c(F)c(F)c(F)c5F)c5ccc2[nH]5)C=C4)C=C3)cc1
REMARK SMILES IDX 5 1 4 2 3 3 1 4 2 5 26 7 27 8 88 9 28 10 87 11 29 12 30 13
REMARK SMILES IDX 31 14 81 15 32 16 86 17 80 18 82 19 33 20 85 21 79 22 78 23
REMARK SMILES IDX 34 25 66 26 46 27 65 28 47 29 50 30 64 31 83 32 48 33 49 34
REMARK SMILES IDX 63 36 84 37 51 38 35 39 36 40 44 41 37 42 38 43 42 44 45 45
REMARK SMILES IDX 39 46 40 47 43 48 41 49 67 50 68 51 76 52 69 53 70 54 74 55
REMARK SMILES IDX 77 56 71 57 72 58 75 59 73 60 52 61 53 62 61 63 54 64 55 65
REMARK SMILES IDX 59 66 62 67 56 68 57 69 60 70 58 71 6 72 7 73 8 74 9 76
REMARK SMILES IDX 10 77 21 78 25 79 22 80 24 81 23 82 11 85 12 86 13 87 20 88
REMARK SMILES IDX 14 89 19 90 15 91 18 92 16 93 17 94
REMARK H PARENT 3 6 82 24 50 35 7 75 24 83 24 84
REMARK Flexibility Score: inf
ROOT
ATOM      1  C   UNL A   1      32.205  27.981  26.045  1.00  0.00     0.042 C 
ENDROOT
BRANCH   1   2
ATOM      2  C   UNL A   1      33.073  29.100  25.495  1.00  0.00     0.118 C 
BRANCH   2   3
ATOM      3  N   UNL A   1      32.654  30.416  25.964  1.00  0.00    -0.352 N 
ATOM      4  O   UNL A   1      32.524  32.211  27.316  1.00  0.00    -0.269 OA
ATOM      5  C   UNL A   1      33.167  31.232  26.943  1.00  0.00     0.251 C 
ATOM      6  H   UNL A   1      31.867  30.782  25.500  1.00  0.00     0.163 HD
BRANCH   5   7
ATOM      7  C   UNL A   1      34.470  30.930  27.575  1.00  0.00     0.039 A 
ATOM      8  C   UNL A   1      34.777  29.638  27.993  1.00  0.00     0.014 A 
ATOM      9  C   UNL A   1      35.415  31.949  27.732  1.00  0.00     0.014 A 
ATOM     10  C   UNL A   1      35.910  29.410  28.760  1.00  0.00     0.010 A 
ATOM     11  C   UNL A   1      36.626  31.685  28.383  1.00  0.00     0.010 A 
ATOM     12  C   UNL A   1      36.863  30.424  28.947  1.00  0.00    -0.014 A 
BRANCH  12  13
ATOM     13  C   UNL A   1      38.104  30.106  29.701  1.00  0.00     0.031 A 
ATOM     14  C   UNL A   1      38.298  30.567  31.121  1.00  0.00     0.074 A 
ATOM     15  C   UNL A   1      39.040  29.337  29.108  1.00  0.00     0.049 A 
ATOM     16  N   UNL A   1      39.293  30.326  31.937  1.00  0.00    -0.248 NA
ATOM     17  C   UNL A   1      37.246  31.417  31.699  1.00  0.00     0.031 C 
ATOM     18  C   UNL A   1      38.972  28.842  27.731  1.00  0.00     0.029 A 
ATOM     19  N   UNL A   1      40.207  28.805  29.591  1.00  0.00    -0.354 N 
ATOM     20  C   UNL A   1      39.006  31.017  33.107  1.00  0.00     0.074 A 
ATOM     21  C   UNL A   1      37.753  31.707  32.890  1.00  0.00     0.031 C 
ATOM     22  C   UNL A   1      40.005  28.019  27.505  1.00  0.00     0.029 A 
ATOM     23  C   UNL A   1      40.850  27.989  28.692  1.00  0.00     0.049 A 
ATOM     24  H   UNL A   1      40.552  28.989  30.495  1.00  0.00     0.167 HD
ATOM     25  C   UNL A   1      39.721  31.065  34.257  1.00  0.00     0.037 A 
ATOM     26  C   UNL A   1      41.999  27.299  28.804  1.00  0.00     0.037 A 
ATOM     27  C   UNL A   1      40.951  30.349  34.478  1.00  0.00     0.049 A 
ATOM     28  C   UNL A   1      42.768  27.373  30.090  1.00  0.00     0.074 A 
ATOM     29  C   UNL A   1      41.727  30.297  35.624  1.00  0.00     0.029 A 
ATOM     30  N   UNL A   1      41.588  29.560  33.531  1.00  0.00    -0.354 N 
ATOM     31  N   UNL A   1      42.466  28.003  31.198  1.00  0.00    -0.248 NA
ATOM     32  C   UNL A   1      44.040  26.642  30.139  1.00  0.00     0.031 C 
ATOM     33  C   UNL A   1      42.857  29.517  35.354  1.00  0.00     0.029 A 
ATOM     34  C   UNL A   1      42.759  29.036  34.059  1.00  0.00     0.049 A 
ATOM     35  H   UNL A   1      41.258  29.396  32.618  1.00  0.00     0.167 HD
ATOM     36  C   UNL A   1      43.497  27.728  32.084  1.00  0.00     0.074 A 
ATOM     37  C   UNL A   1      44.423  26.856  31.389  1.00  0.00     0.031 C 
ATOM     38  C   UNL A   1      43.665  28.163  33.357  1.00  0.00     0.037 A 
BRANCH  25  39
ATOM     39  C   UNL A   1      39.204  31.939  35.365  1.00  0.00     0.064 A 
ATOM     40  C   UNL A   1      38.398  31.433  36.397  1.00  0.00     0.173 A 
ATOM     41  C   UNL A   1      39.558  33.296  35.419  1.00  0.00     0.173 A 
ATOM     42  F   UNL A   1      38.019  30.147  36.389  1.00  0.00    -0.203 F 
ATOM     43  C   UNL A   1      37.944  32.260  37.424  1.00  0.00     0.198 A 
ATOM     44  C   UNL A   1      39.129  34.112  36.462  1.00  0.00     0.198 A 
ATOM     45  F   UNL A   1      40.334  33.830  34.462  1.00  0.00    -0.203 F 
ATOM     46  F   UNL A   1      37.136  31.765  38.372  1.00  0.00    -0.200 F 
ATOM     47  C   UNL A   1      38.315  33.596  37.459  1.00  0.00     0.200 A 
ATOM     48  F   UNL A   1      39.499  35.399  36.501  1.00  0.00    -0.200 F 
ATOM     49  F   UNL A   1      37.885  34.387  38.451  1.00  0.00    -0.200 F 
ENDBRANCH  25  39
BRANCH  26  50
ATOM     50  C   UNL A   1      42.483  26.477  27.663  1.00  0.00     0.064 A 
ATOM     51  C   UNL A   1      41.968  25.195  27.430  1.00  0.00     0.173 A 
ATOM     52  C   UNL A   1      43.458  26.961  26.779  1.00  0.00     0.173 A 
ATOM     53  F   UNL A   1      41.046  24.682  28.258  1.00  0.00    -0.203 F 
ATOM     54  C   UNL A   1      42.424  24.420  26.366  1.00  0.00     0.198 A 
ATOM     55  C   UNL A   1      43.889  26.199  25.695  1.00  0.00     0.198 A 
ATOM     56  F   UNL A   1      43.977  28.185  26.955  1.00  0.00    -0.203 F 
ATOM     57  F   UNL A   1      41.947  23.181  26.189  1.00  0.00    -0.200 F 
ATOM     58  C   UNL A   1      43.378  24.926  25.495  1.00  0.00     0.200 A 
ATOM     59  F   UNL A   1      44.796  26.699  24.846  1.00  0.00    -0.200 F 
ATOM     60  F   UNL A   1      43.809  24.184  24.466  1.00  0.00    -0.200 F 
ENDBRANCH  26  50
BRANCH  38  61
ATOM     61  C   UNL A   1      44.874  27.664  34.091  1.00  0.00     0.064 A 
ATOM     62  C   UNL A   1      46.086  28.372  34.087  1.00  0.00     0.173 A 
ATOM     63  C   UNL A   1      44.816  26.465  34.818  1.00  0.00     0.173 A 
ATOM     64  F   UNL A   1      46.197  29.514  33.391  1.00  0.00    -0.203 F 
ATOM     65  C   UNL A   1      47.203  27.882  34.756  1.00  0.00     0.198 A 
ATOM     66  C   UNL A   1      45.926  25.994  35.513  1.00  0.00     0.198 A 
ATOM     67  F   UNL A   1      43.679  25.754  34.859  1.00  0.00    -0.203 F 
ATOM     68  F   UNL A   1      48.366  28.544  34.689  1.00  0.00    -0.200 F 
ATOM     69  C   UNL A   1      47.121  26.696  35.472  1.00  0.00     0.200 A 
ATOM     70  F   UNL A   1      45.842  24.855  36.214  1.00  0.00    -0.200 F 
ATOM     71  F   UNL A   1      48.198  26.225  36.116  1.00  0.00    -0.200 F 
ENDBRANCH  38  61
ENDBRANCH  12  13
ENDBRANCH   5   7
ENDBRANCH   2   3
ENDBRANCH   1   2
BRANCH   1  72
ATOM     72  C   UNL A   1      32.818  26.608  25.833  1.00  0.00     0.117 C 
BRANCH  72  73
ATOM     73  N   UNL A   1      32.059  25.556  26.500  1.00  0.00    -0.355 N 
ATOM     74  C   UNL A   1      32.263  24.210  26.618  1.00  0.00     0.232 C 
ATOM     75  H   UNL A   1      31.243  25.876  26.949  1.00  0.00     0.163 HD
ATOM     76  O   UNL A   1      31.434  23.595  27.293  1.00  0.00    -0.274 OA
BRANCH  74  77
ATOM     77  C   UNL A   1      33.463  23.510  25.945  1.00  0.00     0.104 C 
ATOM     78  C   UNL A   1      34.367  24.587  25.270  1.00  0.00     0.029 C 
ATOM     79  C   UNL A   1      34.297  22.877  27.089  1.00  0.00     0.277 C 
ATOM     80  C   UNL A   1      35.750  24.050  24.905  1.00  0.00     0.063 C 
ATOM     81  N   UNL A   1      35.641  22.409  26.743  1.00  0.00    -0.345 N 
ATOM     82  C   UNL A   1      36.444  23.459  26.125  1.00  0.00     0.260 C 
ATOM     83  H   UNL A   1      36.110  22.093  27.593  1.00  0.00     0.346 HD
ATOM     84  H   UNL A   1      35.547  21.647  26.071  1.00  0.00     0.346 HD
BRANCH  77  85
ATOM     85  C   UNL A   1      32.848  22.608  24.839  1.00  0.00     0.080 C 
BRANCH  85  86
ATOM     86  C   UNL A   1      33.042  21.138  24.893  1.00  0.00     0.061 A 
ATOM     87  C   UNL A   1      32.123  20.119  25.030  1.00  0.00     0.116 A 
ATOM     88  N   UNL A   1      34.296  20.625  24.645  1.00  0.00    -0.234 NA
ATOM     89  N   UNL A   1      32.840  18.956  24.931  1.00  0.00    -0.307 N 
ATOM     90  C   UNL A   1      34.155  19.319  24.670  1.00  0.00     0.136 A 
ATOM     91  C   UNL A   1      32.412  17.635  25.035  1.00  0.00     0.093 A 
ATOM     92  C   UNL A   1      35.092  18.269  24.471  1.00  0.00     0.048 A 
ATOM     93  C   UNL A   1      33.305  16.645  24.864  1.00  0.00     0.018 A 
ATOM     94  C   UNL A   1      34.688  16.987  24.562  1.00  0.00     0.005 A 
ENDBRANCH  85  86
ENDBRANCH  77  85
ENDBRANCH  74  77
ENDBRANCH  72  73
ENDBRANCH   1  72
TORSDOF 12
ENDMDL
MODEL 3
REMARK VINA RESULT:     -13.0      1.472      2.492
REMARK SMILES O=C(NCCCNC(=O)[C@@]1(Cc2cn3ccccc3n2)CCC[NH2+]C1)c1ccc(-c2c3nc(c(-c4c(F)c(F)c(F)c(F)c4F)c4ccc([nH]4)c(-c4c(F)c(F)c(F)c(F)c4F)c4nc(c(-c5c(F)c(F)c(F)c(F)c5F)c5ccc2[nH]5)C=C4)C=C3)cc1
REMARK SMILES IDX 5 1 4 2 3 3 1 4 2 5 26 7 27 8 88 9 28 10 87 11 29 12 30 13
REMARK SMILES IDX 31 14 81 15 32 16 86 17 80 18 82 19 33 20 85 21 79 22 78 23
REMARK SMILES IDX 34 25 66 26 46 27 65 28 47 29 50 30 64 31 83 32 48 33 49 34
REMARK SMILES IDX 63 36 84 37 51 38 35 39 36 40 44 41 37 42 38 43 42 44 45 45
REMARK SMILES IDX 39 46 40 47 43 48 41 49 67 50 68 51 76 52 69 53 70 54 74 55
REMARK SMILES IDX 77 56 71 57 72 58 75 59 73 60 52 61 53 62 61 63 54 64 55 65
REMARK SMILES IDX 59 66 62 67 56 68 57 69 60 70 58 71 6 72 7 73 8 74 9 76
REMARK SMILES IDX 10 77 21 78 25 79 22 80 24 81 23 82 11 85 12 86 13 87 20 88
REMARK SMILES IDX 14 89 19 90 15 91 18 92 16 93 17 94
REMARK H PARENT 3 6 82 24 50 35 7 75 24 83 24 84
REMARK Flexibility Score: inf
ROOT
ATOM      1  C   UNL A   1      32.158  28.001  25.895  1.00  0.00     0.042 C 
ENDROOT
BRANCH   1   2
ATOM      2  C   UNL A   1      33.099  29.097  25.426  1.00  0.00     0.118 C 
BRANCH   2   3
ATOM      3  N   UNL A   1      32.701  30.418  25.900  1.00  0.00    -0.352 N 
ATOM      4  O   UNL A   1      32.593  32.205  27.264  1.00  0.00    -0.269 OA
ATOM      5  C   UNL A   1      33.220  31.217  26.891  1.00  0.00     0.251 C 
ATOM      6  H   UNL A   1      31.927  30.803  25.431  1.00  0.00     0.163 HD
BRANCH   5   7
ATOM      7  C   UNL A   1      34.510  30.884  27.533  1.00  0.00     0.039 A 
ATOM      8  C   UNL A   1      34.772  29.591  27.979  1.00  0.00     0.014 A 
ATOM      9  C   UNL A   1      35.488  31.873  27.674  1.00  0.00     0.014 A 
ATOM     10  C   UNL A   1      35.895  29.340  28.755  1.00  0.00     0.010 A 
ATOM     11  C   UNL A   1      36.688  31.582  28.335  1.00  0.00     0.010 A 
ATOM     12  C   UNL A   1      36.880  30.326  28.925  1.00  0.00    -0.014 A 
BRANCH  12  13
ATOM     13  C   UNL A   1      38.108  29.982  29.691  1.00  0.00     0.031 A 
ATOM     14  C   UNL A   1      38.311  30.463  31.102  1.00  0.00     0.074 A 
ATOM     15  C   UNL A   1      39.020  29.170  29.117  1.00  0.00     0.049 A 
ATOM     16  N   UNL A   1      39.295  30.206  31.927  1.00  0.00    -0.248 NA
ATOM     17  C   UNL A   1      37.286  31.358  31.659  1.00  0.00     0.031 C 
ATOM     18  C   UNL A   1      38.940  28.651  27.748  1.00  0.00     0.029 A 
ATOM     19  N   UNL A   1      40.167  28.610  29.615  1.00  0.00    -0.354 N 
ATOM     20  C   UNL A   1      39.027  30.929  33.082  1.00  0.00     0.074 A 
ATOM     21  C   UNL A   1      37.798  31.655  32.846  1.00  0.00     0.031 C 
ATOM     22  C   UNL A   1      39.946  27.791  27.543  1.00  0.00     0.029 A 
ATOM     23  C   UNL A   1      40.785  27.756  28.734  1.00  0.00     0.049 A 
ATOM     24  H   UNL A   1      40.515  28.801  30.516  1.00  0.00     0.167 HD
ATOM     25  C   UNL A   1      39.739  30.975  34.234  1.00  0.00     0.037 A 
ATOM     26  C   UNL A   1      41.911  27.031  28.864  1.00  0.00     0.037 A 
ATOM     27  C   UNL A   1      40.944  30.224  34.474  1.00  0.00     0.049 A 
ATOM     28  C   UNL A   1      42.677  27.104  30.152  1.00  0.00     0.074 A 
ATOM     29  C   UNL A   1      41.714  30.168  35.624  1.00  0.00     0.029 A 
ATOM     30  N   UNL A   1      41.558  29.395  33.545  1.00  0.00    -0.354 N 
ATOM     31  N   UNL A   1      42.392  27.765  31.246  1.00  0.00    -0.248 NA
ATOM     32  C   UNL A   1      43.924  26.333  30.220  1.00  0.00     0.031 C 
ATOM     33  C   UNL A   1      42.818  29.346  35.374  1.00  0.00     0.029 A 
ATOM     34  C   UNL A   1      42.709  28.843  34.088  1.00  0.00     0.049 A 
ATOM     35  H   UNL A   1      41.226  29.225  32.634  1.00  0.00     0.167 HD
ATOM     36  C   UNL A   1      43.411  27.474  32.141  1.00  0.00     0.074 A 
ATOM     37  C   UNL A   1      44.309  26.559  31.467  1.00  0.00     0.031 C 
ATOM     38  C   UNL A   1      43.588  27.928  33.406  1.00  0.00     0.037 A 
BRANCH  25  39
ATOM     39  C   UNL A   1      39.247  31.887  35.323  1.00  0.00     0.064 A 
ATOM     40  C   UNL A   1      39.531  33.261  35.326  1.00  0.00     0.173 A 
ATOM     41  C   UNL A   1      38.442  31.383  36.357  1.00  0.00     0.173 A 
ATOM     42  F   UNL A   1      40.305  33.793  34.368  1.00  0.00    -0.203 F 
ATOM     43  C   UNL A   1      39.049  34.091  36.337  1.00  0.00     0.198 A 
ATOM     44  C   UNL A   1      37.938  32.220  37.350  1.00  0.00     0.198 A 
ATOM     45  F   UNL A   1      38.134  30.078  36.399  1.00  0.00    -0.203 F 
ATOM     46  F   UNL A   1      39.373  35.392  36.345  1.00  0.00    -0.200 F 
ATOM     47  C   UNL A   1      38.249  33.571  37.344  1.00  0.00     0.200 A 
ATOM     48  F   UNL A   1      37.154  31.718  38.314  1.00  0.00    -0.200 F 
ATOM     49  F   UNL A   1      37.780  34.372  38.311  1.00  0.00    -0.200 F 
ENDBRANCH  25  39
BRANCH  26  50
ATOM     50  C   UNL A   1      42.371  26.171  27.742  1.00  0.00     0.064 A 
ATOM     51  C   UNL A   1      41.832  24.894  27.545  1.00  0.00     0.173 A 
ATOM     52  C   UNL A   1      43.349  26.615  26.838  1.00  0.00     0.173 A 
ATOM     53  F   UNL A   1      40.907  24.419  28.392  1.00  0.00    -0.203 F 
ATOM     54  C   UNL A   1      42.266  24.083  26.498  1.00  0.00     0.198 A 
ATOM     55  C   UNL A   1      43.758  25.818  25.772  1.00  0.00     0.198 A 
ATOM     56  F   UNL A   1      43.891  27.834  26.979  1.00  0.00    -0.203 F 
ATOM     57  F   UNL A   1      41.765  22.849  26.356  1.00  0.00    -0.200 F 
ATOM     58  C   UNL A   1      43.222  24.549  25.607  1.00  0.00     0.200 A 
ATOM     59  F   UNL A   1      44.667  26.279  24.904  1.00  0.00    -0.200 F 
ATOM     60  F   UNL A   1      43.632  23.774  24.594  1.00  0.00    -0.200 F 
ENDBRANCH  26  50
BRANCH  38  61
ATOM     61  C   UNL A   1      44.777  27.404  34.155  1.00  0.00     0.064 A 
ATOM     62  C   UNL A   1      46.023  28.048  34.109  1.00  0.00     0.173 A 
ATOM     63  C   UNL A   1      44.666  26.245  34.939  1.00  0.00     0.173 A 
ATOM     64  F   UNL A   1      46.185  29.149  33.359  1.00  0.00    -0.203 F 
ATOM     65  C   UNL A   1      47.121  27.534  34.793  1.00  0.00     0.198 A 
ATOM     66  C   UNL A   1      45.757  25.751  35.648  1.00  0.00     0.198 A 
ATOM     67  F   UNL A   1      43.496  25.594  35.022  1.00  0.00    -0.203 F 
ATOM     68  F   UNL A   1      48.314  28.133  34.687  1.00  0.00    -0.200 F 
ATOM     69  C   UNL A   1      46.986  26.390  35.565  1.00  0.00     0.200 A 
ATOM     70  F   UNL A   1      45.623  24.652  36.402  1.00  0.00    -0.200 F 
ATOM     71  F   UNL A   1      48.044  25.895  36.223  1.00  0.00    -0.200 F 
ENDBRANCH  38  61
ENDBRANCH  12  13
ENDBRANCH   5   7
ENDBRANCH   2   3
ENDBRANCH   1   2
BRANCH   1  72
ATOM     72  C   UNL A   1      32.694  26.609  25.607  1.00  0.00     0.117 C 
BRANCH  72  73
ATOM     73  N   UNL A   1      31.968  25.577  26.341  1.00  0.00    -0.355 N 
ATOM     74  C   UNL A   1      32.210  24.247  26.535  1.00  0.00     0.232 C 
ATOM     75  H   UNL A   1      31.147  25.900  26.777  1.00  0.00     0.163 HD
ATOM     76  O   UNL A   1      31.403  23.649  27.251  1.00  0.00    -0.274 OA
BRANCH  74  77
ATOM     77  C   UNL A   1      33.425  23.541  25.893  1.00  0.00     0.104 C 
ATOM     78  C   UNL A   1      34.335  24.612  25.216  1.00  0.00     0.029 C 
ATOM     79  C   UNL A   1      34.242  22.932  27.062  1.00  0.00     0.277 C 
ATOM     80  C   UNL A   1      35.726  24.076  24.883  1.00  0.00     0.063 C 
ATOM     81  N   UNL A   1      35.594  22.465  26.747  1.00  0.00    -0.345 N 
ATOM     82  C   UNL A   1      36.402  23.509  26.124  1.00  0.00     0.260 C 
ATOM     83  H   UNL A   1      36.050  22.165  27.608  1.00  0.00     0.346 HD
ATOM     84  H   UNL A   1      35.515  21.692  26.085  1.00  0.00     0.346 HD
BRANCH  77  85
ATOM     85  C   UNL A   1      32.832  22.619  24.793  1.00  0.00     0.080 C 
BRANCH  85  86
ATOM     86  C   UNL A   1      33.054  21.153  24.861  1.00  0.00     0.061 A 
ATOM     87  C   UNL A   1      32.152  20.118  25.000  1.00  0.00     0.116 A 
ATOM     88  N   UNL A   1      34.318  20.661  24.627  1.00  0.00    -0.234 NA
ATOM     89  N   UNL A   1      32.891  18.968  24.917  1.00  0.00    -0.307 N 
ATOM     90  C   UNL A   1      34.201  19.353  24.662  1.00  0.00     0.136 A 
ATOM     91  C   UNL A   1      32.487  17.640  25.030  1.00  0.00     0.093 A 
ATOM     92  C   UNL A   1      35.159  18.319  24.480  1.00  0.00     0.048 A 
ATOM     93  C   UNL A   1      33.400  16.665  24.874  1.00  0.00     0.018 A 
ATOM     94  C   UNL A   1      34.779  17.031  24.579  1.00  0.00     0.005 A 
ENDBRANCH  85  86
ENDBRANCH  77  85
ENDBRANCH  74  77
ENDBRANCH  72  73
ENDBRANCH   1  72
TORSDOF 12
ENDMDL
