MODEL 1
REMARK VINA RESULT:     -12.7      0.000      0.000
REMARK SMILES CSCc1ccc(C(=O)N[C@H]2C=C[C@@H](C(=O)NCCCNC(=O)c3ccc(-c4c5nc(c(-c6c(F)c(F)c(F)c(F)c6F)c6ccc([nH]6)c(-c6c(F)c(F)c(F)c(F)c6F)c6nc(c(-c7c(F)c(F)c(F)c(F)c7F)c7ccc4[nH]7)C=C6)C=C5)cc3)C2)o1
REMARK SMILES IDX 18 1 17 2 15 3 16 4 14 6 11 7 12 8 87 9 13 10 10 11 8 12
REMARK SMILES IDX 9 13 7 15 4 16 5 17 88 18 6 19 3 20 2 21 1 22 19 23 20 24
REMARK SMILES IDX 21 25 22 26 23 28 24 29 25 30 86 31 26 32 85 33 27 34 28 35
REMARK SMILES IDX 29 36 79 37 30 38 84 39 78 40 80 41 31 42 83 43 77 44 76 45
REMARK SMILES IDX 32 47 64 48 44 49 63 50 45 51 48 52 62 53 81 54 46 55 47 56
REMARK SMILES IDX 61 58 82 59 49 60 33 61 34 62 42 63 35 64 36 65 40 66 43 67
REMARK SMILES IDX 37 68 38 69 41 70 39 71 65 72 66 73 74 74 67 75 68 76 72 77
REMARK SMILES IDX 75 78 69 79 70 80 73 81 71 82 50 83 51 84 59 85 52 86 53 87
REMARK SMILES IDX 57 88 60 89 54 90 55 91 58 92 56 93
REMARK H PARENT 17 5 10 14 21 27 80 46 48 57
REMARK Flexibility Score: inf
ROOT
ATOM      1  C   UNL A   1      31.836  30.652  26.214  1.00  0.00     0.117 C 
ENDROOT
BRANCH   1   2
ATOM      2  N   UNL A   1      31.050  30.257  25.057  1.00  0.00    -0.356 N 
ATOM      3  C   UNL A   1      31.034  29.104  24.335  1.00  0.00     0.227 C 
ATOM      4  O   UNL A   1      30.264  29.049  23.373  1.00  0.00    -0.274 OA
ATOM      5  H   UNL A   1      30.419  30.943  24.741  1.00  0.00     0.163 HD
BRANCH   3   6
ATOM      6  C   UNL A   1      31.905  27.902  24.691  1.00  0.00     0.103 C 
ATOM      7  C   UNL A   1      31.671  25.723  25.778  1.00  0.00     0.106 C 
ATOM      8  C   UNL A   1      31.580  25.620  24.289  1.00  0.00    -0.006 C 
ATOM      9  C   UNL A   1      31.577  27.235  26.033  1.00  0.00     0.047 C 
ATOM     10  C   UNL A   1      31.755  26.800  23.689  1.00  0.00    -0.016 C 
BRANCH   7  11
ATOM     11  N   UNL A   1      30.615  24.954  26.381  1.00  0.00    -0.343 N 
ATOM     12  C   UNL A   1      30.642  23.673  26.898  1.00  0.00     0.287 C 
ATOM     13  O   UNL A   1      29.588  23.292  27.414  1.00  0.00    -0.266 OA
ATOM     14  H   UNL A   1      29.743  25.406  26.432  1.00  0.00     0.164 HD
BRANCH  12  15
ATOM     15  C   UNL A   1      31.838  22.838  26.815  1.00  0.00     0.191 A 
ATOM     16  C   UNL A   1      33.212  21.467  25.723  1.00  0.00     0.114 A 
ATOM     17  C   UNL A   1      33.777  21.682  26.957  1.00  0.00     0.047 A 
ATOM     18  O   UNL A   1      32.042  22.162  25.630  1.00  0.00    -0.455 OA
ATOM     19  C   UNL A   1      32.894  22.532  27.657  1.00  0.00     0.056 A 
BRANCH  16  20
ATOM     20  C   UNL A   1      33.673  20.626  24.585  1.00  0.00     0.144 C 
BRANCH  20  21
ATOM     21  S   UNL A   1      32.636  19.216  24.129  1.00  0.00    -0.157 SA
ATOM     22  C   UNL A   1      32.772  18.249  25.652  1.00  0.00     0.085 C 
ENDBRANCH  20  21
ENDBRANCH  16  20
ENDBRANCH  12  15
ENDBRANCH   7  11
ENDBRANCH   3   6
ENDBRANCH   1   2
BRANCH   1  23
ATOM     23  C   UNL A   1      31.541  32.084  26.633  1.00  0.00     0.042 C 
BRANCH  23  24
ATOM     24  C   UNL A   1      32.714  32.755  27.328  1.00  0.00     0.118 C 
BRANCH  24  25
ATOM     25  N   UNL A   1      32.448  34.154  27.636  1.00  0.00    -0.352 N 
ATOM     26  C   UNL A   1      32.999  34.954  28.603  1.00  0.00     0.251 C 
ATOM     27  H   UNL A   1      31.773  34.588  27.066  1.00  0.00     0.163 HD
ATOM     28  O   UNL A   1      32.503  36.049  28.855  1.00  0.00    -0.269 OA
BRANCH  26  29
ATOM     29  C   UNL A   1      34.181  34.487  29.356  1.00  0.00     0.039 A 
ATOM     30  C   UNL A   1      34.000  33.891  30.606  1.00  0.00     0.014 A 
ATOM     31  C   UNL A   1      35.463  34.629  28.821  1.00  0.00     0.014 A 
ATOM     32  C   UNL A   1      35.103  33.370  31.286  1.00  0.00     0.010 A 
ATOM     33  C   UNL A   1      36.544  34.027  29.453  1.00  0.00     0.010 A 
ATOM     34  C   UNL A   1      36.375  33.396  30.696  1.00  0.00    -0.014 A 
BRANCH  34  35
ATOM     35  C   UNL A   1      37.555  32.778  31.351  1.00  0.00     0.031 A 
ATOM     36  C   UNL A   1      38.257  31.624  30.690  1.00  0.00     0.074 A 
ATOM     37  C   UNL A   1      37.931  33.189  32.578  1.00  0.00     0.049 A 
ATOM     38  N   UNL A   1      39.213  30.860  31.154  1.00  0.00    -0.248 NA
ATOM     39  C   UNL A   1      37.799  31.259  29.339  1.00  0.00     0.031 C 
ATOM     40  C   UNL A   1      37.300  34.269  33.339  1.00  0.00     0.029 A 
ATOM     41  N   UNL A   1      38.921  32.730  33.412  1.00  0.00    -0.354 N 
ATOM     42  C   UNL A   1      39.450  29.913  30.165  1.00  0.00     0.074 A 
ATOM     43  C   UNL A   1      38.508  30.166  29.098  1.00  0.00     0.031 C 
ATOM     44  C   UNL A   1      37.922  34.396  34.521  1.00  0.00     0.029 A 
ATOM     45  C   UNL A   1      38.962  33.377  34.623  1.00  0.00     0.049 A 
ATOM     46  H   UNL A   1      39.542  32.008  33.164  1.00  0.00     0.167 HD
ATOM     47  C   UNL A   1      40.384  28.934  30.145  1.00  0.00     0.037 A 
ATOM     48  C   UNL A   1      39.735  33.155  35.704  1.00  0.00     0.037 A 
ATOM     49  C   UNL A   1      41.340  28.712  31.197  1.00  0.00     0.049 A 
ATOM     50  C   UNL A   1      40.760  32.054  35.657  1.00  0.00     0.074 A 
ATOM     51  C   UNL A   1      42.378  27.797  31.238  1.00  0.00     0.029 A 
ATOM     52  N   UNL A   1      41.371  29.406  32.397  1.00  0.00    -0.354 N 
ATOM     53  N   UNL A   1      41.028  31.213  34.688  1.00  0.00    -0.248 NA
ATOM     54  C   UNL A   1      41.594  31.870  36.854  1.00  0.00     0.031 C 
ATOM     55  C   UNL A   1      42.997  27.895  32.487  1.00  0.00     0.029 A 
ATOM     56  C   UNL A   1      42.390  28.917  33.198  1.00  0.00     0.049 A 
ATOM     57  H   UNL A   1      40.761  30.138  32.642  1.00  0.00     0.167 HD
ATOM     58  C   UNL A   1      42.079  30.426  35.142  1.00  0.00     0.074 A 
ATOM     59  C   UNL A   1      42.407  30.896  36.471  1.00  0.00     0.031 C 
ATOM     60  C   UNL A   1      42.714  29.407  34.513  1.00  0.00     0.037 A 
BRANCH  47  61
ATOM     61  C   UNL A   1      40.420  28.022  28.953  1.00  0.00     0.064 A 
ATOM     62  C   UNL A   1      39.681  26.829  28.911  1.00  0.00     0.173 A 
ATOM     63  C   UNL A   1      41.161  28.375  27.814  1.00  0.00     0.173 A 
ATOM     64  F   UNL A   1      38.964  26.440  29.975  1.00  0.00    -0.203 F 
ATOM     65  C   UNL A   1      39.705  26.012  27.783  1.00  0.00     0.198 A 
ATOM     66  C   UNL A   1      41.155  27.572  26.677  1.00  0.00     0.198 A 
ATOM     67  F   UNL A   1      41.881  29.506  27.799  1.00  0.00    -0.203 F 
ATOM     68  F   UNL A   1      39.029  24.854  27.783  1.00  0.00    -0.200 F 
ATOM     69  C   UNL A   1      40.433  26.388  26.664  1.00  0.00     0.200 A 
ATOM     70  F   UNL A   1      41.847  27.945  25.591  1.00  0.00    -0.200 F 
ATOM     71  F   UNL A   1      40.443  25.607  25.576  1.00  0.00    -0.200 F 
ENDBRANCH  47  61
BRANCH  48  72
ATOM     72  C   UNL A   1      39.569  33.991  36.924  1.00  0.00     0.064 A 
ATOM     73  C   UNL A   1      38.785  33.552  38.000  1.00  0.00     0.173 A 
ATOM     74  C   UNL A   1      40.177  35.251  37.033  1.00  0.00     0.173 A 
ATOM     75  F   UNL A   1      38.166  32.365  37.936  1.00  0.00    -0.203 F 
ATOM     76  C   UNL A   1      38.591  34.354  39.124  1.00  0.00     0.198 A 
ATOM     77  C   UNL A   1      40.010  36.036  38.171  1.00  0.00     0.198 A 
ATOM     78  F   UNL A   1      40.943  35.716  36.034  1.00  0.00    -0.203 F 
ATOM     79  F   UNL A   1      37.788  33.934  40.112  1.00  0.00    -0.200 F 
ATOM     80  C   UNL A   1      39.208  35.592  39.212  1.00  0.00     0.200 A 
ATOM     81  F   UNL A   1      40.620  37.226  38.256  1.00  0.00    -0.200 F 
ATOM     82  F   UNL A   1      39.020  36.363  40.291  1.00  0.00    -0.200 F 
ENDBRANCH  48  72
BRANCH  60  83
ATOM     83  C   UNL A   1      43.862  28.756  35.231  1.00  0.00     0.064 A 
ATOM     84  C   UNL A   1      45.170  29.252  35.136  1.00  0.00     0.173 A 
ATOM     85  C   UNL A   1      43.633  27.661  36.078  1.00  0.00     0.173 A 
ATOM     86  F   UNL A   1      45.442  30.288  34.329  1.00  0.00    -0.203 F 
ATOM     87  C   UNL A   1      46.211  28.664  35.850  1.00  0.00     0.198 A 
ATOM     88  C   UNL A   1      44.670  27.097  36.816  1.00  0.00     0.198 A 
ATOM     89  F   UNL A   1      42.398  27.153  36.210  1.00  0.00    -0.203 F 
ATOM     90  F   UNL A   1      47.460  29.128  35.713  1.00  0.00    -0.200 F 
ATOM     91  C   UNL A   1      45.958  27.594  36.697  1.00  0.00     0.200 A 
ATOM     92  F   UNL A   1      44.420  26.076  37.647  1.00  0.00    -0.200 F 
ATOM     93  F   UNL A   1      46.959  27.041  37.396  1.00  0.00    -0.200 F 
ENDBRANCH  60  83
ENDBRANCH  34  35
ENDBRANCH  26  29
ENDBRANCH  24  25
ENDBRANCH  23  24
ENDBRANCH   1  23
TORSDOF 14
ENDMDL
MODEL 2
REMARK VINA RESULT:     -12.6      1.135      1.821
REMARK SMILES CSCc1ccc(C(=O)N[C@H]2C=C[C@@H](C(=O)NCCCNC(=O)c3ccc(-c4c5nc(c(-c6c(F)c(F)c(F)c(F)c6F)c6ccc([nH]6)c(-c6c(F)c(F)c(F)c(F)c6F)c6nc(c(-c7c(F)c(F)c(F)c(F)c7F)c7ccc4[nH]7)C=C6)C=C5)cc3)C2)o1
REMARK SMILES IDX 18 1 17 2 15 3 16 4 14 6 11 7 12 8 87 9 13 10 10 11 8 12
REMARK SMILES IDX 9 13 7 15 4 16 5 17 88 18 6 19 3 20 2 21 1 22 19 23 20 24
REMARK SMILES IDX 21 25 22 26 23 28 24 29 25 30 86 31 26 32 85 33 27 34 28 35
REMARK SMILES IDX 29 36 79 37 30 38 84 39 78 40 80 41 31 42 83 43 77 44 76 45
REMARK SMILES IDX 32 47 64 48 44 49 63 50 45 51 48 52 62 53 81 54 46 55 47 56
REMARK SMILES IDX 61 58 82 59 49 60 33 61 34 62 42 63 35 64 36 65 40 66 43 67
REMARK SMILES IDX 37 68 38 69 41 70 39 71 65 72 66 73 74 74 67 75 68 76 72 77
REMARK SMILES IDX 75 78 69 79 70 80 73 81 71 82 50 83 51 84 59 85 52 86 53 87
REMARK SMILES IDX 57 88 60 89 54 90 55 91 58 92 56 93
REMARK H PARENT 17 5 10 14 21 27 80 46 48 57
REMARK Flexibility Score: inf
ROOT
ATOM      1  C   UNL A   1      31.801  30.628  26.258  1.00  0.00     0.117 C 
ENDROOT
BRANCH   1   2
ATOM      2  N   UNL A   1      31.232  30.314  24.959  1.00  0.00    -0.356 N 
ATOM      3  C   UNL A   1      31.210  29.155  24.245  1.00  0.00     0.227 C 
ATOM      4  O   UNL A   1      30.662  29.181  23.140  1.00  0.00    -0.274 OA
ATOM      5  H   UNL A   1      30.785  31.071  24.516  1.00  0.00     0.163 HD
BRANCH   3   6
ATOM      6  C   UNL A   1      31.808  27.855  24.775  1.00  0.00     0.103 C 
ATOM      7  C   UNL A   1      32.653  25.731  23.903  1.00  0.00     0.106 C 
ATOM      8  C   UNL A   1      33.754  26.713  24.153  1.00  0.00    -0.006 C 
ATOM      9  C   UNL A   1      31.383  26.588  24.023  1.00  0.00     0.047 C 
ATOM     10  C   UNL A   1      33.301  27.856  24.675  1.00  0.00    -0.016 C 
BRANCH   7  11
ATOM     11  N   UNL A   1      32.836  25.120  22.613  1.00  0.00    -0.343 N 
ATOM     12  C   UNL A   1      33.431  23.917  22.284  1.00  0.00     0.287 C 
ATOM     13  O   UNL A   1      33.386  23.618  21.088  1.00  0.00    -0.266 OA
ATOM     14  H   UNL A   1      32.486  25.635  21.851  1.00  0.00     0.164 HD
BRANCH  12  15
ATOM     15  C   UNL A   1      34.077  23.081  23.292  1.00  0.00     0.191 A 
ATOM     16  C   UNL A   1      34.117  21.332  24.670  1.00  0.00     0.114 A 
ATOM     17  C   UNL A   1      35.341  21.945  24.785  1.00  0.00     0.047 A 
ATOM     18  O   UNL A   1      33.349  22.011  23.771  1.00  0.00    -0.455 OA
ATOM     19  C   UNL A   1      35.307  23.067  23.930  1.00  0.00     0.056 A 
BRANCH  16  20
ATOM     20  C   UNL A   1      33.571  20.132  25.362  1.00  0.00     0.144 C 
BRANCH  20  21
ATOM     21  S   UNL A   1      33.745  18.542  24.516  1.00  0.00    -0.157 SA
ATOM     22  C   UNL A   1      32.669  17.536  25.566  1.00  0.00     0.085 C 
ENDBRANCH  20  21
ENDBRANCH  16  20
ENDBRANCH  12  15
ENDBRANCH   7  11
ENDBRANCH   3   6
ENDBRANCH   1   2
BRANCH   1  23
ATOM     23  C   UNL A   1      31.510  32.063  26.669  1.00  0.00     0.042 C 
BRANCH  23  24
ATOM     24  C   UNL A   1      32.685  32.733  27.363  1.00  0.00     0.118 C 
BRANCH  24  25
ATOM     25  N   UNL A   1      32.428  34.138  27.651  1.00  0.00    -0.352 N 
ATOM     26  C   UNL A   1      32.986  34.949  28.606  1.00  0.00     0.251 C 
ATOM     27  H   UNL A   1      31.754  34.569  27.076  1.00  0.00     0.163 HD
ATOM     28  O   UNL A   1      32.497  36.051  28.842  1.00  0.00    -0.269 OA
BRANCH  26  29
ATOM     29  C   UNL A   1      34.166  34.486  29.363  1.00  0.00     0.039 A 
ATOM     30  C   UNL A   1      33.987  33.938  30.634  1.00  0.00     0.014 A 
ATOM     31  C   UNL A   1      35.445  34.584  28.811  1.00  0.00     0.014 A 
ATOM     32  C   UNL A   1      35.087  33.419  31.322  1.00  0.00     0.010 A 
ATOM     33  C   UNL A   1      36.520  33.983  29.453  1.00  0.00     0.010 A 
ATOM     34  C   UNL A   1      36.353  33.400  30.719  1.00  0.00    -0.014 A 
BRANCH  34  35
ATOM     35  C   UNL A   1      37.527  32.782  31.385  1.00  0.00     0.031 A 
ATOM     36  C   UNL A   1      38.214  31.608  30.745  1.00  0.00     0.074 A 
ATOM     37  C   UNL A   1      37.910  33.214  32.603  1.00  0.00     0.049 A 
ATOM     38  N   UNL A   1      39.163  30.842  31.222  1.00  0.00    -0.248 NA
ATOM     39  C   UNL A   1      37.750  31.220  29.403  1.00  0.00     0.031 C 
ATOM     40  C   UNL A   1      37.292  34.315  33.342  1.00  0.00     0.029 A 
ATOM     41  N   UNL A   1      38.897  32.761  33.443  1.00  0.00    -0.354 N 
ATOM     42  C   UNL A   1      39.388  29.873  30.253  1.00  0.00     0.074 A 
ATOM     43  C   UNL A   1      38.446  30.115  29.183  1.00  0.00     0.031 C 
ATOM     44  C   UNL A   1      37.919  34.459  34.521  1.00  0.00     0.029 A 
ATOM     45  C   UNL A   1      38.948  33.431  34.641  1.00  0.00     0.049 A 
ATOM     46  H   UNL A   1      39.509  32.027  33.209  1.00  0.00     0.167 HD
ATOM     47  C   UNL A   1      40.311  28.883  30.251  1.00  0.00     0.037 A 
ATOM     48  C   UNL A   1      39.720  33.223  35.725  1.00  0.00     0.037 A 
ATOM     49  C   UNL A   1      41.267  28.672  31.305  1.00  0.00     0.049 A 
ATOM     50  C   UNL A   1      40.733  32.109  35.698  1.00  0.00     0.074 A 
ATOM     51  C   UNL A   1      42.295  27.747  31.362  1.00  0.00     0.029 A 
ATOM     52  N   UNL A   1      41.308  29.390  32.491  1.00  0.00    -0.354 N 
ATOM     53  N   UNL A   1      40.990  31.246  34.746  1.00  0.00    -0.248 NA
ATOM     54  C   UNL A   1      41.567  31.941  36.896  1.00  0.00     0.031 C 
ATOM     55  C   UNL A   1      42.918  27.863  32.608  1.00  0.00     0.029 A 
ATOM     56  C   UNL A   1      42.323  28.906  33.300  1.00  0.00     0.049 A 
ATOM     57  H   UNL A   1      40.706  30.134  32.722  1.00  0.00     0.167 HD
ATOM     58  C   UNL A   1      42.033  30.457  35.213  1.00  0.00     0.074 A 
ATOM     59  C   UNL A   1      42.369  30.950  36.532  1.00  0.00     0.031 C 
ATOM     60  C   UNL A   1      42.655  29.419  34.604  1.00  0.00     0.037 A 
BRANCH  47  61
ATOM     61  C   UNL A   1      40.334  27.947  29.077  1.00  0.00     0.064 A 
ATOM     62  C   UNL A   1      39.583  26.762  29.061  1.00  0.00     0.173 A 
ATOM     63  C   UNL A   1      41.076  28.269  27.930  1.00  0.00     0.173 A 
ATOM     64  F   UNL A   1      38.865  26.401  30.135  1.00  0.00    -0.203 F 
ATOM     65  C   UNL A   1      39.595  25.922  27.950  1.00  0.00     0.198 A 
ATOM     66  C   UNL A   1      41.059  27.444  26.809  1.00  0.00     0.198 A 
ATOM     67  F   UNL A   1      41.808  29.393  27.889  1.00  0.00    -0.203 F 
ATOM     68  F   UNL A   1      38.908  24.771  27.975  1.00  0.00    -0.200 F 
ATOM     69  C   UNL A   1      40.325  26.268  26.822  1.00  0.00     0.200 A 
ATOM     70  F   UNL A   1      41.751  27.787  25.714  1.00  0.00    -0.200 F 
ATOM     71  F   UNL A   1      40.324  25.465  25.749  1.00  0.00    -0.200 F 
ENDBRANCH  47  61
BRANCH  48  72
ATOM     72  C   UNL A   1      39.567  34.085  36.927  1.00  0.00     0.064 A 
ATOM     73  C   UNL A   1      40.197  35.335  37.006  1.00  0.00     0.173 A 
ATOM     74  C   UNL A   1      38.801  33.672  38.028  1.00  0.00     0.173 A 
ATOM     75  F   UNL A   1      40.958  35.766  35.989  1.00  0.00    -0.203 F 
ATOM     76  C   UNL A   1      40.093  36.124  38.150  1.00  0.00     0.198 A 
ATOM     77  C   UNL A   1      38.670  34.477  39.157  1.00  0.00     0.198 A 
ATOM     78  F   UNL A   1      38.172  32.488  38.003  1.00  0.00    -0.203 F 
ATOM     79  F   UNL A   1      40.755  37.287  38.221  1.00  0.00    -0.200 F 
ATOM     80  C   UNL A   1      39.325  35.698  39.223  1.00  0.00     0.200 A 
ATOM     81  F   UNL A   1      37.915  34.066  40.185  1.00  0.00    -0.200 F 
ATOM     82  F   UNL A   1      39.226  36.456  40.323  1.00  0.00    -0.200 F 
ENDBRANCH  48  72
BRANCH  60  83
ATOM     83  C   UNL A   1      43.798  28.770  35.332  1.00  0.00     0.064 A 
ATOM     84  C   UNL A   1      45.127  29.169  35.129  1.00  0.00     0.173 A 
ATOM     85  C   UNL A   1      43.548  27.781  36.296  1.00  0.00     0.173 A 
ATOM     86  F   UNL A   1      45.419  30.100  34.209  1.00  0.00    -0.203 F 
ATOM     87  C   UNL A   1      46.166  28.589  35.852  1.00  0.00     0.198 A 
ATOM     88  C   UNL A   1      44.586  27.228  37.041  1.00  0.00     0.198 A 
ATOM     89  F   UNL A   1      42.294  27.369  36.535  1.00  0.00    -0.203 F 
ATOM     90  F   UNL A   1      47.432  28.956  35.612  1.00  0.00    -0.200 F 
ATOM     91  C   UNL A   1      45.894  27.627  36.814  1.00  0.00     0.200 A 
ATOM     92  F   UNL A   1      44.318  26.312  37.982  1.00  0.00    -0.200 F 
ATOM     93  F   UNL A   1      46.894  27.083  37.521  1.00  0.00    -0.200 F 
ENDBRANCH  60  83
ENDBRANCH  34  35
ENDBRANCH  26  29
ENDBRANCH  24  25
ENDBRANCH  23  24
ENDBRANCH   1  23
TORSDOF 14
ENDMDL
MODEL 3
REMARK VINA RESULT:     -12.4      5.803     11.387
REMARK SMILES CSCc1ccc(C(=O)N[C@H]2C=C[C@@H](C(=O)NCCCNC(=O)c3ccc(-c4c5nc(c(-c6c(F)c(F)c(F)c(F)c6F)c6ccc([nH]6)c(-c6c(F)c(F)c(F)c(F)c6F)c6nc(c(-c7c(F)c(F)c(F)c(F)c7F)c7ccc4[nH]7)C=C6)C=C5)cc3)C2)o1
REMARK SMILES IDX 18 1 17 2 15 3 16 4 14 6 11 7 12 8 87 9 13 10 10 11 8 12
REMARK SMILES IDX 9 13 7 15 4 16 5 17 88 18 6 19 3 20 2 21 1 22 19 23 20 24
REMARK SMILES IDX 21 25 22 26 23 28 24 29 25 30 86 31 26 32 85 33 27 34 28 35
REMARK SMILES IDX 29 36 79 37 30 38 84 39 78 40 80 41 31 42 83 43 77 44 76 45
REMARK SMILES IDX 32 47 64 48 44 49 63 50 45 51 48 52 62 53 81 54 46 55 47 56
REMARK SMILES IDX 61 58 82 59 49 60 33 61 34 62 42 63 35 64 36 65 40 66 43 67
REMARK SMILES IDX 37 68 38 69 41 70 39 71 65 72 66 73 74 74 67 75 68 76 72 77
REMARK SMILES IDX 75 78 69 79 70 80 73 81 71 82 50 83 51 84 59 85 52 86 53 87
REMARK SMILES IDX 57 88 60 89 54 90 55 91 58 92 56 93
REMARK H PARENT 17 5 10 14 21 27 80 46 48 57
REMARK Flexibility Score: inf
ROOT
ATOM      1  C   UNL A   1      36.910  20.805  25.001  1.00  0.00     0.117 C 
ENDROOT
BRANCH   1   2
ATOM      2  N   UNL A   1      35.604  20.206  25.220  1.00  0.00    -0.356 N 
ATOM      3  C   UNL A   1      34.353  20.740  25.175  1.00  0.00     0.227 C 
ATOM      4  O   UNL A   1      33.408  19.988  25.426  1.00  0.00    -0.274 OA
ATOM      5  H   UNL A   1      35.629  19.247  25.440  1.00  0.00     0.163 HD
BRANCH   3   6
ATOM      6  C   UNL A   1      34.098  22.199  24.806  1.00  0.00     0.103 C 
ATOM      7  C   UNL A   1      32.431  23.937  25.235  1.00  0.00     0.106 C 
ATOM      8  C   UNL A   1      33.603  24.043  26.159  1.00  0.00    -0.006 C 
ATOM      9  C   UNL A   1      32.627  22.565  24.573  1.00  0.00     0.047 C 
ATOM     10  C   UNL A   1      34.537  23.126  25.897  1.00  0.00    -0.016 C 
BRANCH   7  11
ATOM     11  N   UNL A   1      31.211  24.064  25.986  1.00  0.00    -0.343 N 
ATOM     12  C   UNL A   1      30.364  25.149  26.114  1.00  0.00     0.287 C 
ATOM     13  O   UNL A   1      29.346  24.944  26.781  1.00  0.00    -0.266 OA
ATOM     14  H   UNL A   1      30.938  23.260  26.483  1.00  0.00     0.164 HD
BRANCH  12  15
ATOM     15  C   UNL A   1      30.676  26.441  25.511  1.00  0.00     0.191 A 
ATOM     16  C   UNL A   1      30.419  27.994  23.935  1.00  0.00     0.114 A 
ATOM     17  C   UNL A   1      31.309  28.509  24.847  1.00  0.00     0.047 A 
ATOM     18  O   UNL A   1      30.033  26.747  24.330  1.00  0.00    -0.455 OA
ATOM     19  C   UNL A   1      31.490  27.515  25.833  1.00  0.00     0.056 A 
BRANCH  16  20
ATOM     20  C   UNL A   1      29.889  28.575  22.672  1.00  0.00     0.144 C 
BRANCH  20  21
ATOM     21  S   UNL A   1      28.270  29.380  22.751  1.00  0.00    -0.157 SA
ATOM     22  C   UNL A   1      28.771  30.970  23.454  1.00  0.00     0.085 C 
ENDBRANCH  20  21
ENDBRANCH  16  20
ENDBRANCH  12  15
ENDBRANCH   7  11
ENDBRANCH   3   6
ENDBRANCH   1   2
BRANCH   1  23
ATOM     23  C   UNL A   1      38.016  19.761  25.001  1.00  0.00     0.042 C 
BRANCH  23  24
ATOM     24  C   UNL A   1      39.258  20.210  25.752  1.00  0.00     0.118 C 
BRANCH  24  25
ATOM     25  N   UNL A   1      40.235  19.138  25.896  1.00  0.00    -0.352 N 
ATOM     26  C   UNL A   1      41.591  19.214  26.087  1.00  0.00     0.251 C 
ATOM     27  H   UNL A   1      39.867  18.226  25.849  1.00  0.00     0.163 HD
ATOM     28  O   UNL A   1      42.286  18.207  25.975  1.00  0.00    -0.269 OA
BRANCH  26  29
ATOM     29  C   UNL A   1      42.216  20.512  26.408  1.00  0.00     0.039 A 
ATOM     30  C   UNL A   1      42.742  21.289  25.374  1.00  0.00     0.014 A 
ATOM     31  C   UNL A   1      42.270  20.965  27.728  1.00  0.00     0.014 A 
ATOM     32  C   UNL A   1      43.258  22.555  25.659  1.00  0.00     0.010 A 
ATOM     33  C   UNL A   1      42.694  22.260  27.995  1.00  0.00     0.010 A 
ATOM     34  C   UNL A   1      43.198  23.067  26.963  1.00  0.00    -0.014 A 
BRANCH  34  35
ATOM     35  C   UNL A   1      43.660  24.440  27.287  1.00  0.00     0.031 A 
ATOM     36  C   UNL A   1      42.674  25.459  27.788  1.00  0.00     0.074 A 
ATOM     37  C   UNL A   1      44.936  24.793  27.039  1.00  0.00     0.049 A 
ATOM     38  N   UNL A   1      42.841  26.740  27.997  1.00  0.00    -0.248 NA
ATOM     39  C   UNL A   1      41.308  24.981  28.057  1.00  0.00     0.031 C 
ATOM     40  C   UNL A   1      45.973  23.904  26.513  1.00  0.00     0.029 A 
ATOM     41  N   UNL A   1      45.573  26.002  27.176  1.00  0.00    -0.354 N 
ATOM     42  C   UNL A   1      41.600  27.221  28.395  1.00  0.00     0.074 A 
ATOM     43  C   UNL A   1      40.679  26.108  28.352  1.00  0.00     0.031 C 
ATOM     44  C   UNL A   1      47.117  24.594  26.380  1.00  0.00     0.029 A 
ATOM     45  C   UNL A   1      46.883  25.982  26.764  1.00  0.00     0.049 A 
ATOM     46  H   UNL A   1      45.133  26.805  27.536  1.00  0.00     0.167 HD
ATOM     47  C   UNL A   1      41.268  28.476  28.780  1.00  0.00     0.037 A 
ATOM     48  C   UNL A   1      47.787  26.978  26.681  1.00  0.00     0.037 A 
ATOM     49  C   UNL A   1      42.200  29.569  28.852  1.00  0.00     0.049 A 
ATOM     50  C   UNL A   1      47.387  28.365  27.107  1.00  0.00     0.074 A 
ATOM     51  C   UNL A   1      41.981  30.859  29.304  1.00  0.00     0.029 A 
ATOM     52  N   UNL A   1      43.527  29.504  28.453  1.00  0.00    -0.354 N 
ATOM     53  N   UNL A   1      46.232  28.794  27.555  1.00  0.00    -0.248 NA
ATOM     54  C   UNL A   1      48.418  29.410  27.020  1.00  0.00     0.031 C 
ATOM     55  C   UNL A   1      43.158  31.591  29.121  1.00  0.00     0.029 A 
ATOM     56  C   UNL A   1      44.130  30.741  28.619  1.00  0.00     0.049 A 
ATOM     57  H   UNL A   1      43.975  28.699  28.107  1.00  0.00     0.167 HD
ATOM     58  C   UNL A   1      46.405  30.143  27.833  1.00  0.00     0.074 A 
ATOM     59  C   UNL A   1      47.780  30.462  27.513  1.00  0.00     0.031 C 
ATOM     60  C   UNL A   1      45.505  31.037  28.311  1.00  0.00     0.037 A 
BRANCH  47  61
ATOM     61  C   UNL A   1      39.837  28.742  29.148  1.00  0.00     0.064 A 
ATOM     62  C   UNL A   1      39.374  28.609  30.466  1.00  0.00     0.173 A 
ATOM     63  C   UNL A   1      38.928  29.189  28.176  1.00  0.00     0.173 A 
ATOM     64  F   UNL A   1      40.199  28.176  31.431  1.00  0.00    -0.203 F 
ATOM     65  C   UNL A   1      38.050  28.889  30.792  1.00  0.00     0.198 A 
ATOM     66  C   UNL A   1      37.613  29.500  28.512  1.00  0.00     0.198 A 
ATOM     67  F   UNL A   1      39.318  29.338  26.901  1.00  0.00    -0.203 F 
ATOM     68  F   UNL A   1      37.619  28.710  32.048  1.00  0.00    -0.200 F 
ATOM     69  C   UNL A   1      37.173  29.343  29.817  1.00  0.00     0.200 A 
ATOM     70  F   UNL A   1      36.772  29.954  27.573  1.00  0.00    -0.200 F 
ATOM     71  F   UNL A   1      35.902  29.625  30.136  1.00  0.00    -0.200 F 
ENDBRANCH  47  61
BRANCH  48  72
ATOM     72  C   UNL A   1      49.157  26.701  26.172  1.00  0.00     0.064 A 
ATOM     73  C   UNL A   1      50.159  26.211  27.022  1.00  0.00     0.173 A 
ATOM     74  C   UNL A   1      49.499  26.936  24.831  1.00  0.00     0.173 A 
ATOM     75  F   UNL A   1      49.889  25.991  28.317  1.00  0.00    -0.203 F 
ATOM     76  C   UNL A   1      51.455  25.996  26.558  1.00  0.00     0.198 A 
ATOM     77  C   UNL A   1      50.786  26.687  24.362  1.00  0.00     0.198 A 
ATOM     78  F   UNL A   1      48.576  27.399  23.974  1.00  0.00    -0.203 F 
ATOM     79  F   UNL A   1      52.407  25.584  27.407  1.00  0.00    -0.200 F 
ATOM     80  C   UNL A   1      51.767  26.228  25.227  1.00  0.00     0.200 A 
ATOM     81  F   UNL A   1      51.078  26.900  23.071  1.00  0.00    -0.200 F 
ATOM     82  F   UNL A   1      53.014  26.022  24.782  1.00  0.00    -0.200 F 
ENDBRANCH  48  72
BRANCH  60  83
ATOM     83  C   UNL A   1      45.985  32.437  28.566  1.00  0.00     0.064 A 
ATOM     84  C   UNL A   1      46.561  32.811  29.788  1.00  0.00     0.173 A 
ATOM     85  C   UNL A   1      45.927  33.399  27.545  1.00  0.00     0.173 A 
ATOM     86  F   UNL A   1      46.626  31.933  30.800  1.00  0.00    -0.203 F 
ATOM     87  C   UNL A   1      47.046  34.102  29.985  1.00  0.00     0.198 A 
ATOM     88  C   UNL A   1      46.443  34.678  27.734  1.00  0.00     0.198 A 
ATOM     89  F   UNL A   1      45.393  33.089  26.353  1.00  0.00    -0.203 F 
ATOM     90  F   UNL A   1      47.554  34.449  31.175  1.00  0.00    -0.200 F 
ATOM     91  C   UNL A   1      46.996  35.030  28.956  1.00  0.00     0.200 A 
ATOM     92  F   UNL A   1      46.410  35.566  26.732  1.00  0.00    -0.200 F 
ATOM     93  F   UNL A   1      47.479  36.266  29.142  1.00  0.00    -0.200 F 
ENDBRANCH  60  83
ENDBRANCH  34  35
ENDBRANCH  26  29
ENDBRANCH  24  25
ENDBRANCH  23  24
ENDBRANCH   1  23
TORSDOF 14
ENDMDL
