MODEL 1
REMARK VINA RESULT:     -11.7      0.000      0.000
REMARK SMILES O=C(CC1CCN(C(=O)N2CCCC[C@@H]2CCO)CC1)NCCCNC(=O)c1ccc(-c2c3nc(c(-c4c(F)c(F)c(F)c(F)c4F)c4ccc([nH]4)c(-c4c(F)c(F)c(F)c(F)c4F)c4nc(c(-c5c(F)c(F)c(F)c(F)c5F)c5ccc2[nH]5)C=C4)C=C3)cc1
REMARK SMILES IDX 1 1 2 2 21 3 3 5 4 6 5 7 20 8 6 9 19 10 7 11 8 12 9 13 10 14
REMARK SMILES IDX 11 15 15 16 12 17 14 18 13 19 16 20 17 21 18 22 22 24 23 25
REMARK SMILES IDX 24 26 25 27 26 28 27 30 28 31 29 32 90 33 30 34 89 35 31 36
REMARK SMILES IDX 32 37 33 38 83 39 34 40 88 41 82 42 84 43 35 44 87 45 81 46
REMARK SMILES IDX 80 47 36 49 68 50 48 51 67 52 49 53 52 54 66 55 85 56 50 57
REMARK SMILES IDX 51 58 65 60 86 61 53 62 37 63 38 64 46 65 39 66 40 67 44 68
REMARK SMILES IDX 47 69 41 70 42 71 45 72 43 73 69 74 70 75 78 76 71 77 72 78
REMARK SMILES IDX 76 79 79 80 73 81 74 82 77 83 75 84 54 85 55 86 63 87 56 88
REMARK SMILES IDX 57 89 61 90 64 91 58 92 59 93 62 94 60 95
REMARK H PARENT 21 4 18 23 25 29 84 48 52 59
REMARK Flexibility Score: inf
ROOT
ATOM      1  O   UNL A   1      36.188  31.657  27.820  1.00  0.00    -0.275 OA
ATOM      2  C   UNL A   1      35.020  31.315  27.954  1.00  0.00     0.220 C 
ATOM      3  N   UNL A   1      34.025  32.136  28.440  1.00  0.00    -0.356 N 
ATOM      4  H   UNL A   1      33.088  31.851  28.338  1.00  0.00     0.163 HD
ENDROOT
BRANCH   2   5
ATOM      5  C   UNL A   1      34.542  29.909  27.656  1.00  0.00     0.103 C 
BRANCH   5   6
ATOM      6  C   UNL A   1      33.418  29.755  26.598  1.00  0.00     0.002 C 
ATOM      7  C   UNL A   1      31.996  29.440  27.102  1.00  0.00     0.026 C 
ATOM      8  C   UNL A   1      33.777  28.720  25.516  1.00  0.00     0.026 C 
ATOM      9  C   UNL A   1      31.818  27.992  27.567  1.00  0.00     0.121 C 
ATOM     10  C   UNL A   1      33.612  27.288  26.012  1.00  0.00     0.121 C 
ATOM     11  N   UNL A   1      32.269  27.049  26.555  1.00  0.00    -0.325 N 
ATOM     12  C   UNL A   1      31.405  26.030  26.187  1.00  0.00     0.320 C 
ATOM     13  O   UNL A   1      30.232  25.992  26.558  1.00  0.00    -0.248 OA
BRANCH  12  14
ATOM     14  N   UNL A   1      31.868  25.132  25.252  1.00  0.00    -0.322 N 
ATOM     15  C   UNL A   1      31.521  25.424  23.866  1.00  0.00     0.121 C 
ATOM     16  C   UNL A   1      32.361  23.765  25.552  1.00  0.00     0.089 C 
ATOM     17  C   UNL A   1      30.559  24.400  23.284  1.00  0.00     0.022 C 
ATOM     18  C   UNL A   1      31.451  22.704  24.886  1.00  0.00     0.025 C 
ATOM     19  C   UNL A   1      31.149  23.006  23.422  1.00  0.00     0.004 C 
BRANCH  16  20
ATOM     20  C   UNL A   1      32.501  23.399  27.049  1.00  0.00     0.053 C 
BRANCH  20  21
ATOM     21  C   UNL A   1      33.713  22.525  27.367  1.00  0.00     0.158 C 
BRANCH  21  22
ATOM     22  O   UNL A   1      33.336  21.159  27.493  1.00  0.00    -0.396 OA
ATOM     23  H   UNL A   1      32.610  20.967  26.880  1.00  0.00     0.210 HD
ENDBRANCH  21  22
ENDBRANCH  20  21
ENDBRANCH  16  20
ENDBRANCH  12  14
ENDBRANCH   5   6
ENDBRANCH   2   5
BRANCH   3  24
ATOM     24  C   UNL A   1      34.302  33.397  29.094  1.00  0.00     0.117 C 
BRANCH  24  25
ATOM     25  C   UNL A   1      33.291  34.476  28.739  1.00  0.00     0.042 C 
BRANCH  25  26
ATOM     26  C   UNL A   1      33.496  35.806  29.457  1.00  0.00     0.118 C 
BRANCH  26  27
ATOM     27  N   UNL A   1      32.553  36.043  30.541  1.00  0.00    -0.352 N 
ATOM     28  C   UNL A   1      32.638  35.675  31.864  1.00  0.00     0.251 C 
ATOM     29  H   UNL A   1      31.740  36.538  30.293  1.00  0.00     0.163 HD
ATOM     30  O   UNL A   1      31.691  35.871  32.620  1.00  0.00    -0.269 OA
BRANCH  28  31
ATOM     31  C   UNL A   1      33.857  35.006  32.376  1.00  0.00     0.039 A 
ATOM     32  C   UNL A   1      33.745  33.714  32.894  1.00  0.00     0.014 A 
ATOM     33  C   UNL A   1      35.103  35.637  32.337  1.00  0.00     0.014 A 
ATOM     34  C   UNL A   1      34.891  33.028  33.303  1.00  0.00     0.010 A 
ATOM     35  C   UNL A   1      36.254  34.922  32.663  1.00  0.00     0.010 A 
ATOM     36  C   UNL A   1      36.161  33.608  33.151  1.00  0.00    -0.014 A 
BRANCH  36  37
ATOM     37  C   UNL A   1      37.398  32.855  33.489  1.00  0.00     0.031 A 
ATOM     38  C   UNL A   1      38.145  33.150  34.760  1.00  0.00     0.074 A 
ATOM     39  C   UNL A   1      37.881  31.942  32.624  1.00  0.00     0.049 A 
ATOM     40  N   UNL A   1      39.266  32.636  35.202  1.00  0.00    -0.248 NA
ATOM     41  C   UNL A   1      37.571  34.180  35.641  1.00  0.00     0.031 C 
ATOM     42  C   UNL A   1      37.280  31.597  31.335  1.00  0.00     0.029 A 
ATOM     43  N   UNL A   1      38.995  31.141  32.694  1.00  0.00    -0.354 N 
ATOM     44  C   UNL A   1      39.533  33.285  36.401  1.00  0.00     0.074 A 
ATOM     45  C   UNL A   1      38.493  34.272  36.588  1.00  0.00     0.031 C 
ATOM     46  C   UNL A   1      38.014  30.638  30.749  1.00  0.00     0.029 A 
ATOM     47  C   UNL A   1      39.159  30.328  31.599  1.00  0.00     0.049 A 
ATOM     48  H   UNL A   1      39.617  31.149  33.457  1.00  0.00     0.167 HD
ATOM     49  C   UNL A   1      40.541  33.060  37.279  1.00  0.00     0.037 A 
ATOM     50  C   UNL A   1      40.129  29.438  31.308  1.00  0.00     0.037 A 
ATOM     51  C   UNL A   1      41.567  32.065  37.100  1.00  0.00     0.049 A 
ATOM     52  C   UNL A   1      41.245  29.220  32.294  1.00  0.00     0.074 A 
ATOM     53  C   UNL A   1      42.598  31.725  37.957  1.00  0.00     0.029 A 
ATOM     54  N   UNL A   1      41.694  31.254  35.982  1.00  0.00    -0.354 N 
ATOM     55  N   UNL A   1      41.447  29.788  33.457  1.00  0.00    -0.248 NA
ATOM     56  C   UNL A   1      42.263  28.225  31.928  1.00  0.00     0.031 C 
ATOM     57  C   UNL A   1      43.382  30.748  37.335  1.00  0.00     0.029 A 
ATOM     58  C   UNL A   1      42.802  30.432  36.117  1.00  0.00     0.049 A 
ATOM     59  H   UNL A   1      41.086  31.259  35.206  1.00  0.00     0.167 HD
ATOM     60  C   UNL A   1      42.593  29.200  33.976  1.00  0.00     0.074 A 
ATOM     61  C   UNL A   1      43.032  28.216  33.007  1.00  0.00     0.031 C 
ATOM     62  C   UNL A   1      43.225  29.451  35.150  1.00  0.00     0.037 A 
BRANCH  49  63
ATOM     63  C   UNL A   1      40.585  33.909  38.519  1.00  0.00     0.064 A 
ATOM     64  C   UNL A   1      39.876  33.558  39.679  1.00  0.00     0.173 A 
ATOM     65  C   UNL A   1      41.374  35.069  38.561  1.00  0.00     0.173 A 
ATOM     66  F   UNL A   1      39.098  32.466  39.690  1.00  0.00    -0.203 F 
ATOM     67  C   UNL A   1      39.931  34.352  40.822  1.00  0.00     0.198 A 
ATOM     68  C   UNL A   1      41.454  35.842  39.716  1.00  0.00     0.198 A 
ATOM     69  F   UNL A   1      42.077  35.450  37.483  1.00  0.00    -0.203 F 
ATOM     70  F   UNL A   1      39.203  34.025  41.898  1.00  0.00    -0.200 F 
ATOM     71  C   UNL A   1      40.726  35.489  40.842  1.00  0.00     0.200 A 
ATOM     72  F   UNL A   1      42.234  36.932  39.739  1.00  0.00    -0.200 F 
ATOM     73  F   UNL A   1      40.784  36.247  41.945  1.00  0.00    -0.200 F 
ENDBRANCH  49  63
BRANCH  50  74
ATOM     74  C   UNL A   1      40.077  28.670  30.036  1.00  0.00     0.064 A 
ATOM     75  C   UNL A   1      39.459  27.412  29.978  1.00  0.00     0.173 A 
ATOM     76  C   UNL A   1      40.655  29.166  28.858  1.00  0.00     0.173 A 
ATOM     77  F   UNL A   1      38.911  26.885  31.082  1.00  0.00    -0.203 F 
ATOM     78  C   UNL A   1      39.444  26.670  28.798  1.00  0.00     0.198 A 
ATOM     79  C   UNL A   1      40.611  28.437  27.671  1.00  0.00     0.198 A 
ATOM     80  F   UNL A   1      41.255  30.366  28.856  1.00  0.00    -0.203 F 
ATOM     81  F   UNL A   1      38.894  25.448  28.786  1.00  0.00    -0.200 F 
ATOM     82  C   UNL A   1      40.015  27.185  27.645  1.00  0.00     0.200 A 
ATOM     83  F   UNL A   1      41.150  28.945  26.554  1.00  0.00    -0.200 F 
ATOM     84  F   UNL A   1      39.999  26.472  26.510  1.00  0.00    -0.200 F 
ENDBRANCH  50  74
BRANCH  62  85
ATOM     85  C   UNL A   1      44.433  28.619  35.473  1.00  0.00     0.064 A 
ATOM     86  C   UNL A   1      45.729  29.019  35.112  1.00  0.00     0.173 A 
ATOM     87  C   UNL A   1      44.294  27.414  36.181  1.00  0.00     0.173 A 
ATOM     88  F   UNL A   1      45.917  30.155  34.423  1.00  0.00    -0.203 F 
ATOM     89  C   UNL A   1      46.834  28.228  35.416  1.00  0.00     0.198 A 
ATOM     90  C   UNL A   1      45.405  26.644  36.513  1.00  0.00     0.198 A 
ATOM     91  F   UNL A   1      43.080  26.988  36.559  1.00  0.00    -0.203 F 
ATOM     92  F   UNL A   1      48.055  28.603  35.008  1.00  0.00    -0.200 F 
ATOM     93  C   UNL A   1      46.673  27.046  36.122  1.00  0.00     0.200 A 
ATOM     94  F   UNL A   1      45.248  25.511  37.212  1.00  0.00    -0.200 F 
ATOM     95  F   UNL A   1      47.738  26.289  36.417  1.00  0.00    -0.200 F 
ENDBRANCH  62  85
ENDBRANCH  36  37
ENDBRANCH  28  31
ENDBRANCH  26  27
ENDBRANCH  25  26
ENDBRANCH  24  25
ENDBRANCH   3  24
TORSDOF 15
ENDMDL
MODEL 2
REMARK VINA RESULT:     -11.7      1.842      2.876
REMARK SMILES O=C(CC1CCN(C(=O)N2CCCC[C@@H]2CCO)CC1)NCCCNC(=O)c1ccc(-c2c3nc(c(-c4c(F)c(F)c(F)c(F)c4F)c4ccc([nH]4)c(-c4c(F)c(F)c(F)c(F)c4F)c4nc(c(-c5c(F)c(F)c(F)c(F)c5F)c5ccc2[nH]5)C=C4)C=C3)cc1
REMARK SMILES IDX 1 1 2 2 21 3 3 5 4 6 5 7 20 8 6 9 19 10 7 11 8 12 9 13 10 14
REMARK SMILES IDX 11 15 15 16 12 17 14 18 13 19 16 20 17 21 18 22 22 24 23 25
REMARK SMILES IDX 24 26 25 27 26 28 27 30 28 31 29 32 90 33 30 34 89 35 31 36
REMARK SMILES IDX 32 37 33 38 83 39 34 40 88 41 82 42 84 43 35 44 87 45 81 46
REMARK SMILES IDX 80 47 36 49 68 50 48 51 67 52 49 53 52 54 66 55 85 56 50 57
REMARK SMILES IDX 51 58 65 60 86 61 53 62 37 63 38 64 46 65 39 66 40 67 44 68
REMARK SMILES IDX 47 69 41 70 42 71 45 72 43 73 69 74 70 75 78 76 71 77 72 78
REMARK SMILES IDX 76 79 79 80 73 81 74 82 77 83 75 84 54 85 55 86 63 87 56 88
REMARK SMILES IDX 57 89 61 90 64 91 58 92 59 93 62 94 60 95
REMARK H PARENT 21 4 18 23 25 29 84 48 52 59
REMARK Flexibility Score: inf
ROOT
ATOM      1  O   UNL A   1      33.847  28.618  25.745  1.00  0.00    -0.275 OA
ATOM      2  C   UNL A   1      33.258  29.137  24.804  1.00  0.00     0.220 C 
ATOM      3  N   UNL A   1      32.249  30.066  24.940  1.00  0.00    -0.356 N 
ATOM      4  H   UNL A   1      31.964  30.571  24.144  1.00  0.00     0.163 HD
ENDROOT
BRANCH   2   5
ATOM      5  C   UNL A   1      33.536  28.763  23.363  1.00  0.00     0.103 C 
BRANCH   5   6
ATOM      6  C   UNL A   1      32.664  27.637  22.746  1.00  0.00     0.002 C 
ATOM      7  C   UNL A   1      31.415  27.187  23.527  1.00  0.00     0.026 C 
ATOM      8  C   UNL A   1      33.489  26.382  22.410  1.00  0.00     0.026 C 
ATOM      9  C   UNL A   1      31.735  26.328  24.753  1.00  0.00     0.121 C 
ATOM     10  C   UNL A   1      33.813  25.556  23.650  1.00  0.00     0.121 C 
ATOM     11  N   UNL A   1      32.604  25.213  24.409  1.00  0.00    -0.325 N 
ATOM     12  C   UNL A   1      32.220  23.944  24.809  1.00  0.00     0.320 C 
ATOM     13  O   UNL A   1      31.111  23.710  25.291  1.00  0.00    -0.248 OA
BRANCH  12  14
ATOM     14  N   UNL A   1      33.075  22.910  24.499  1.00  0.00    -0.322 N 
ATOM     15  C   UNL A   1      32.781  22.191  23.266  1.00  0.00     0.121 C 
ATOM     16  C   UNL A   1      34.014  22.266  25.451  1.00  0.00     0.089 C 
ATOM     17  C   UNL A   1      32.336  20.760  23.524  1.00  0.00     0.022 C 
ATOM     18  C   UNL A   1      33.640  20.777  25.654  1.00  0.00     0.025 C 
ATOM     19  C   UNL A   1      33.391  20.036  24.345  1.00  0.00     0.004 C 
BRANCH  16  20
ATOM     20  C   UNL A   1      34.135  22.921  26.847  1.00  0.00     0.053 C 
BRANCH  20  21
ATOM     21  C   UNL A   1      33.367  22.191  27.948  1.00  0.00     0.158 C 
BRANCH  21  22
ATOM     22  O   UNL A   1      32.007  22.607  27.981  1.00  0.00    -0.396 OA
ATOM     23  H   UNL A   1      31.774  23.016  27.133  1.00  0.00     0.210 HD
ENDBRANCH  21  22
ENDBRANCH  20  21
ENDBRANCH  16  20
ENDBRANCH  12  14
ENDBRANCH   5   6
ENDBRANCH   2   5
BRANCH   3  24
ATOM     24  C   UNL A   1      31.593  30.327  26.203  1.00  0.00     0.117 C 
BRANCH  24  25
ATOM     25  C   UNL A   1      31.422  31.813  26.479  1.00  0.00     0.042 C 
BRANCH  25  26
ATOM     26  C   UNL A   1      32.629  32.488  27.119  1.00  0.00     0.118 C 
BRANCH  26  27
ATOM     27  N   UNL A   1      32.393  33.868  27.517  1.00  0.00    -0.352 N 
ATOM     28  C   UNL A   1      33.045  34.624  28.464  1.00  0.00     0.251 C 
ATOM     29  H   UNL A   1      31.664  34.327  27.040  1.00  0.00     0.163 HD
ATOM     30  O   UNL A   1      32.637  35.748  28.742  1.00  0.00    -0.269 OA
BRANCH  28  31
ATOM     31  C   UNL A   1      34.217  34.073  29.182  1.00  0.00     0.039 A 
ATOM     32  C   UNL A   1      33.999  33.194  30.246  1.00  0.00     0.014 A 
ATOM     33  C   UNL A   1      35.521  34.404  28.807  1.00  0.00     0.014 A 
ATOM     34  C   UNL A   1      35.086  32.593  30.884  1.00  0.00     0.010 A 
ATOM     35  C   UNL A   1      36.600  33.739  29.385  1.00  0.00     0.010 A 
ATOM     36  C   UNL A   1      36.396  32.825  30.431  1.00  0.00    -0.014 A 
BRANCH  36  37
ATOM     37  C   UNL A   1      37.557  32.118  31.034  1.00  0.00     0.031 A 
ATOM     38  C   UNL A   1      38.040  32.485  32.410  1.00  0.00     0.074 A 
ATOM     39  C   UNL A   1      38.212  31.182  30.320  1.00  0.00     0.049 A 
ATOM     40  N   UNL A   1      39.063  32.018  33.082  1.00  0.00    -0.248 NA
ATOM     41  C   UNL A   1      37.290  33.536  33.117  1.00  0.00     0.031 C 
ATOM     42  C   UNL A   1      37.877  30.769  28.957  1.00  0.00     0.029 A 
ATOM     43  N   UNL A   1      39.305  30.413  30.639  1.00  0.00    -0.354 N 
ATOM     44  C   UNL A   1      39.084  32.722  34.279  1.00  0.00     0.074 A 
ATOM     45  C   UNL A   1      38.011  33.690  34.218  1.00  0.00     0.031 C 
ATOM     46  C   UNL A   1      38.726  29.805  28.567  1.00  0.00     0.029 A 
ATOM     47  C   UNL A   1      39.691  29.560  29.634  1.00  0.00     0.049 A 
ATOM     48  H   UNL A   1      39.768  30.468  31.506  1.00  0.00     0.167 HD
ATOM     49  C   UNL A   1      39.907  32.560  35.343  1.00  0.00     0.037 A 
ATOM     50  C   UNL A   1      40.713  28.683  29.575  1.00  0.00     0.037 A 
ATOM     51  C   UNL A   1      40.965  31.585  35.409  1.00  0.00     0.049 A 
ATOM     52  C   UNL A   1      41.622  28.534  30.766  1.00  0.00     0.074 A 
ATOM     53  C   UNL A   1      41.817  31.306  36.463  1.00  0.00     0.029 A 
ATOM     54  N   UNL A   1      41.318  30.730  34.375  1.00  0.00    -0.354 N 
ATOM     55  N   UNL A   1      41.587  29.155  31.920  1.00  0.00    -0.248 NA
ATOM     56  C   UNL A   1      42.708  27.551  30.648  1.00  0.00     0.031 C 
ATOM     57  C   UNL A   1      42.722  30.324  36.048  1.00  0.00     0.029 A 
ATOM     58  C   UNL A   1      42.393  29.943  34.758  1.00  0.00     0.049 A 
ATOM     59  H   UNL A   1      40.871  30.689  33.498  1.00  0.00     0.167 HD
ATOM     60  C   UNL A   1      42.621  28.618  32.674  1.00  0.00     0.074 A 
ATOM     61  C   UNL A   1      43.254  27.606  31.854  1.00  0.00     0.031 C 
ATOM     62  C   UNL A   1      43.011  28.934  33.935  1.00  0.00     0.037 A 
BRANCH  49  63
ATOM     63  C   UNL A   1      39.697  33.461  36.528  1.00  0.00     0.064 A 
ATOM     64  C   UNL A   1      40.340  34.704  36.633  1.00  0.00     0.173 A 
ATOM     65  C   UNL A   1      38.813  33.092  37.555  1.00  0.00     0.173 A 
ATOM     66  F   UNL A   1      41.203  35.101  35.686  1.00  0.00    -0.203 F 
ATOM     67  C   UNL A   1      40.131  35.530  37.736  1.00  0.00     0.198 A 
ATOM     68  C   UNL A   1      38.581  33.935  38.639  1.00  0.00     0.198 A 
ATOM     69  F   UNL A   1      38.167  31.918  37.504  1.00  0.00    -0.203 F 
ATOM     70  F   UNL A   1      40.798  36.687  37.839  1.00  0.00    -0.200 F 
ATOM     71  C   UNL A   1      39.245  35.148  38.733  1.00  0.00     0.200 A 
ATOM     72  F   UNL A   1      37.713  33.572  39.593  1.00  0.00    -0.200 F 
ATOM     73  F   UNL A   1      39.040  35.947  39.789  1.00  0.00    -0.200 F 
ENDBRANCH  49  63
BRANCH  50  74
ATOM     74  C   UNL A   1      40.920  27.862  28.353  1.00  0.00     0.064 A 
ATOM     75  C   UNL A   1      40.344  26.588  28.234  1.00  0.00     0.173 A 
ATOM     76  C   UNL A   1      41.708  28.321  27.288  1.00  0.00     0.173 A 
ATOM     77  F   UNL A   1      39.600  26.095  29.236  1.00  0.00    -0.203 F 
ATOM     78  C   UNL A   1      40.569  25.797  27.109  1.00  0.00     0.198 A 
ATOM     79  C   UNL A   1      41.905  27.543  26.150  1.00  0.00     0.198 A 
ATOM     80  F   UNL A   1      42.278  29.534  27.348  1.00  0.00    -0.203 F 
ATOM     81  F   UNL A   1      40.050  24.563  27.047  1.00  0.00    -0.200 F 
ATOM     82  C   UNL A   1      41.344  26.277  26.065  1.00  0.00     0.200 A 
ATOM     83  F   UNL A   1      42.643  28.016  25.136  1.00  0.00    -0.200 F 
ATOM     84  F   UNL A   1      41.560  25.517  24.983  1.00  0.00    -0.200 F 
ENDBRANCH  50  74
BRANCH  62  85
ATOM     85  C   UNL A   1      44.148  28.146  34.522  1.00  0.00     0.064 A 
ATOM     86  C   UNL A   1      45.480  28.577  34.419  1.00  0.00     0.173 A 
ATOM     87  C   UNL A   1      43.897  26.955  35.223  1.00  0.00     0.173 A 
ATOM     88  F   UNL A   1      45.776  29.700  33.748  1.00  0.00    -0.203 F 
ATOM     89  C   UNL A   1      46.518  27.826  34.964  1.00  0.00     0.198 A 
ATOM     90  C   UNL A   1      44.935  26.227  35.796  1.00  0.00     0.198 A 
ATOM     91  F   UNL A   1      42.642  26.502  35.359  1.00  0.00    -0.203 F 
ATOM     92  F   UNL A   1      47.787  28.227  34.802  1.00  0.00    -0.200 F 
ATOM     93  C   UNL A   1      46.245  26.658  35.659  1.00  0.00     0.200 A 
ATOM     94  F   UNL A   1      44.667  25.108  36.482  1.00  0.00    -0.200 F 
ATOM     95  F   UNL A   1      47.247  25.941  36.186  1.00  0.00    -0.200 F 
ENDBRANCH  62  85
ENDBRANCH  36  37
ENDBRANCH  28  31
ENDBRANCH  26  27
ENDBRANCH  25  26
ENDBRANCH  24  25
ENDBRANCH   3  24
TORSDOF 15
ENDMDL
MODEL 3
REMARK VINA RESULT:     -11.7      1.701      7.596
REMARK SMILES O=C(CC1CCN(C(=O)N2CCCC[C@@H]2CCO)CC1)NCCCNC(=O)c1ccc(-c2c3nc(c(-c4c(F)c(F)c(F)c(F)c4F)c4ccc([nH]4)c(-c4c(F)c(F)c(F)c(F)c4F)c4nc(c(-c5c(F)c(F)c(F)c(F)c5F)c5ccc2[nH]5)C=C4)C=C3)cc1
REMARK SMILES IDX 1 1 2 2 21 3 3 5 4 6 5 7 20 8 6 9 19 10 7 11 8 12 9 13 10 14
REMARK SMILES IDX 11 15 15 16 12 17 14 18 13 19 16 20 17 21 18 22 22 24 23 25
REMARK SMILES IDX 24 26 25 27 26 28 27 30 28 31 29 32 90 33 30 34 89 35 31 36
REMARK SMILES IDX 32 37 33 38 83 39 34 40 88 41 82 42 84 43 35 44 87 45 81 46
REMARK SMILES IDX 80 47 36 49 68 50 48 51 67 52 49 53 52 54 66 55 85 56 50 57
REMARK SMILES IDX 51 58 65 60 86 61 53 62 37 63 38 64 46 65 39 66 40 67 44 68
REMARK SMILES IDX 47 69 41 70 42 71 45 72 43 73 69 74 70 75 78 76 71 77 72 78
REMARK SMILES IDX 76 79 79 80 73 81 74 82 77 83 75 84 54 85 55 86 63 87 56 88
REMARK SMILES IDX 57 89 61 90 64 91 58 92 59 93 62 94 60 95
REMARK H PARENT 21 4 18 23 25 29 84 48 52 59
REMARK Flexibility Score: inf
ROOT
ATOM      1  O   UNL A   1      33.938  29.006  26.291  1.00  0.00    -0.275 OA
ATOM      2  C   UNL A   1      33.324  29.323  25.279  1.00  0.00     0.220 C 
ATOM      3  N   UNL A   1      32.258  30.196  25.263  1.00  0.00    -0.356 N 
ATOM      4  H   UNL A   1      31.946  30.543  24.396  1.00  0.00     0.163 HD
ENDROOT
BRANCH   2   5
ATOM      5  C   UNL A   1      33.632  28.731  23.920  1.00  0.00     0.103 C 
BRANCH   5   6
ATOM      6  C   UNL A   1      32.623  27.697  23.355  1.00  0.00     0.002 C 
ATOM      7  C   UNL A   1      31.511  27.193  24.294  1.00  0.00     0.026 C 
ATOM      8  C   UNL A   1      33.327  26.468  22.752  1.00  0.00     0.026 C 
ATOM      9  C   UNL A   1      32.004  26.200  25.350  1.00  0.00     0.121 C 
ATOM     10  C   UNL A   1      33.828  25.507  23.825  1.00  0.00     0.121 C 
ATOM     11  N   UNL A   1      32.756  25.110  24.746  1.00  0.00    -0.325 N 
ATOM     12  C   UNL A   1      32.396  23.814  25.076  1.00  0.00     0.320 C 
ATOM     13  O   UNL A   1      31.380  23.553  25.720  1.00  0.00    -0.248 OA
BRANCH  12  14
ATOM     14  N   UNL A   1      33.143  22.802  24.517  1.00  0.00    -0.322 N 
ATOM     15  C   UNL A   1      32.635  22.256  23.264  1.00  0.00     0.121 C 
ATOM     16  C   UNL A   1      34.178  22.012  25.229  1.00  0.00     0.089 C 
ATOM     17  C   UNL A   1      32.162  20.818  23.411  1.00  0.00     0.022 C 
ATOM     18  C   UNL A   1      33.763  20.522  25.304  1.00  0.00     0.025 C 
ATOM     19  C   UNL A   1      33.288  19.962  23.968  1.00  0.00     0.004 C 
BRANCH  16  20
ATOM     20  C   UNL A   1      34.536  22.479  26.660  1.00  0.00     0.053 C 
BRANCH  20  21
ATOM     21  C   UNL A   1      33.856  21.675  27.767  1.00  0.00     0.158 C 
BRANCH  21  22
ATOM     22  O   UNL A   1      32.681  22.334  28.225  1.00  0.00    -0.396 OA
ATOM     23  H   UNL A   1      32.681  22.357  29.194  1.00  0.00     0.210 HD
ENDBRANCH  21  22
ENDBRANCH  20  21
ENDBRANCH  16  20
ENDBRANCH  12  14
ENDBRANCH   5   6
ENDBRANCH   2   5
BRANCH   3  24
ATOM     24  C   UNL A   1      31.579  30.623  26.469  1.00  0.00     0.117 C 
BRANCH  24  25
ATOM     25  C   UNL A   1      31.464  32.136  26.572  1.00  0.00     0.042 C 
BRANCH  25  26
ATOM     26  C   UNL A   1      32.593  32.812  27.342  1.00  0.00     0.118 C 
BRANCH  26  27
ATOM     27  N   UNL A   1      32.334  34.206  27.669  1.00  0.00    -0.352 N 
ATOM     28  C   UNL A   1      32.970  35.019  28.579  1.00  0.00     0.251 C 
ATOM     29  H   UNL A   1      31.600  34.628  27.168  1.00  0.00     0.163 HD
ATOM     30  O   UNL A   1      32.543  36.149  28.799  1.00  0.00    -0.269 OA
BRANCH  28  31
ATOM     31  C   UNL A   1      34.148  34.523  29.327  1.00  0.00     0.039 A 
ATOM     32  C   UNL A   1      33.956  33.989  30.603  1.00  0.00     0.014 A 
ATOM     33  C   UNL A   1      35.431  34.570  28.776  1.00  0.00     0.014 A 
ATOM     34  C   UNL A   1      35.036  33.436  31.295  1.00  0.00     0.010 A 
ATOM     35  C   UNL A   1      36.490  33.941  29.428  1.00  0.00     0.010 A 
ATOM     36  C   UNL A   1      36.305  33.367  30.696  1.00  0.00    -0.014 A 
BRANCH  36  37
ATOM     37  C   UNL A   1      37.443  32.694  31.377  1.00  0.00     0.031 A 
ATOM     38  C   UNL A   1      38.154  31.546  30.717  1.00  0.00     0.074 A 
ATOM     39  C   UNL A   1      37.802  33.081  32.617  1.00  0.00     0.049 A 
ATOM     40  N   UNL A   1      39.132  30.802  31.173  1.00  0.00    -0.248 NA
ATOM     41  C   UNL A   1      37.687  31.162  29.375  1.00  0.00     0.031 C 
ATOM     42  C   UNL A   1      37.162  34.148  33.389  1.00  0.00     0.029 A 
ATOM     43  N   UNL A   1      38.789  32.616  33.452  1.00  0.00    -0.354 N 
ATOM     44  C   UNL A   1      39.387  29.863  30.182  1.00  0.00     0.074 A 
ATOM     45  C   UNL A   1      38.424  30.089  29.127  1.00  0.00     0.031 C 
ATOM     46  C   UNL A   1      37.788  34.274  34.570  1.00  0.00     0.029 A 
ATOM     47  C   UNL A   1      38.846  33.272  34.658  1.00  0.00     0.049 A 
ATOM     48  H   UNL A   1      39.397  31.881  33.209  1.00  0.00     0.167 HD
ATOM     49  C   UNL A   1      40.354  28.914  30.144  1.00  0.00     0.037 A 
ATOM     50  C   UNL A   1      39.654  33.082  35.719  1.00  0.00     0.037 A 
ATOM     51  C   UNL A   1      41.323  28.701  31.187  1.00  0.00     0.049 A 
ATOM     52  C   UNL A   1      40.710  32.011  35.656  1.00  0.00     0.074 A 
ATOM     53  C   UNL A   1      42.375  27.802  31.218  1.00  0.00     0.029 A 
ATOM     54  N   UNL A   1      41.356  29.393  32.389  1.00  0.00    -0.354 N 
ATOM     55  N   UNL A   1      40.988  31.176  34.684  1.00  0.00    -0.248 NA
ATOM     56  C   UNL A   1      41.571  31.862  36.837  1.00  0.00     0.031 C 
ATOM     57  C   UNL A   1      43.009  27.910  32.460  1.00  0.00     0.029 A 
ATOM     58  C   UNL A   1      42.394  28.922  33.178  1.00  0.00     0.049 A 
ATOM     59  H   UNL A   1      40.734  30.113  32.645  1.00  0.00     0.167 HD
ATOM     60  C   UNL A   1      42.073  30.429  35.121  1.00  0.00     0.074 A 
ATOM     61  C   UNL A   1      42.415  30.921  36.440  1.00  0.00     0.031 C 
ATOM     62  C   UNL A   1      42.729  29.425  34.487  1.00  0.00     0.037 A 
BRANCH  49  63
ATOM     63  C   UNL A   1      40.412  28.030  28.930  1.00  0.00     0.064 A 
ATOM     64  C   UNL A   1      39.709  26.817  28.866  1.00  0.00     0.173 A 
ATOM     65  C   UNL A   1      41.151  28.417  27.801  1.00  0.00     0.173 A 
ATOM     66  F   UNL A   1      38.996  26.393  29.920  1.00  0.00    -0.203 F 
ATOM     67  C   UNL A   1      39.769  26.010  27.732  1.00  0.00     0.198 A 
ATOM     68  C   UNL A   1      41.181  27.625  26.656  1.00  0.00     0.198 A 
ATOM     69  F   UNL A   1      41.838  29.570  27.803  1.00  0.00    -0.203 F 
ATOM     70  F   UNL A   1      39.134  24.831  27.716  1.00  0.00    -0.200 F 
ATOM     71  C   UNL A   1      40.498  26.419  26.625  1.00  0.00     0.200 A 
ATOM     72  F   UNL A   1      41.874  28.029  25.582  1.00  0.00    -0.200 F 
ATOM     73  F   UNL A   1      40.548  25.646  25.532  1.00  0.00    -0.200 F 
ENDBRANCH  49  63
BRANCH  50  74
ATOM     74  C   UNL A   1      39.513  33.940  36.925  1.00  0.00     0.064 A 
ATOM     75  C   UNL A   1      38.772  33.508  38.035  1.00  0.00     0.173 A 
ATOM     76  C   UNL A   1      40.100  35.213  36.990  1.00  0.00     0.173 A 
ATOM     77  F   UNL A   1      38.173  32.308  38.013  1.00  0.00    -0.203 F 
ATOM     78  C   UNL A   1      38.602  34.325  39.151  1.00  0.00     0.198 A 
ATOM     79  C   UNL A   1      39.957  36.015  38.120  1.00  0.00     0.198 A 
ATOM     80  F   UNL A   1      40.824  35.673  35.959  1.00  0.00    -0.203 F 
ATOM     81  F   UNL A   1      37.843  33.908  40.174  1.00  0.00    -0.200 F 
ATOM     82  C   UNL A   1      39.199  35.575  39.195  1.00  0.00     0.200 A 
ATOM     83  F   UNL A   1      40.548  37.217  38.165  1.00  0.00    -0.200 F 
ATOM     84  F   UNL A   1      39.037  36.361  40.269  1.00  0.00    -0.200 F 
ENDBRANCH  50  74
BRANCH  62  85
ATOM     85  C   UNL A   1      43.911  28.821  35.191  1.00  0.00     0.064 A 
ATOM     86  C   UNL A   1      43.782  27.710  36.038  1.00  0.00     0.173 A 
ATOM     87  C   UNL A   1      45.198  29.347  34.993  1.00  0.00     0.173 A 
ATOM     88  F   UNL A   1      42.574  27.177  36.273  1.00  0.00    -0.203 F 
ATOM     89  C   UNL A   1      44.891  27.172  36.687  1.00  0.00     0.198 A 
ATOM     90  C   UNL A   1      46.308  28.784  35.615  1.00  0.00     0.198 A 
ATOM     91  F   UNL A   1      45.380  30.404  34.187  1.00  0.00    -0.203 F 
ATOM     92  F   UNL A   1      44.734  26.147  37.537  1.00  0.00    -0.200 F 
ATOM     93  C   UNL A   1      46.153  27.703  36.469  1.00  0.00     0.200 A 
ATOM     94  F   UNL A   1      47.529  29.288  35.390  1.00  0.00    -0.200 F 
ATOM     95  F   UNL A   1      47.218  27.180  37.091  1.00  0.00    -0.200 F 
ENDBRANCH  62  85
ENDBRANCH  36  37
ENDBRANCH  28  31
ENDBRANCH  26  27
ENDBRANCH  25  26
ENDBRANCH  24  25
ENDBRANCH   3  24
TORSDOF 15
ENDMDL
