MODEL 1
REMARK VINA RESULT:      -9.5      0.000      0.000
REMARK SMILES CCCCCCNC(=O)Oc1cccc(-c2ccc([C@@H](C)C(=O)NCCCNC(=O)c3ccc(-c4c5nc(c(-c6c(F)c(F)c(F)c(F)c6F)c6ccc([nH]6)c(-c6c(F)c(F)c(F)c(F)c6F)c6nc(c(-c7c(F)c(F)c(F)c(F)c7F)c7ccc4[nH]7)C=C6)C=C5)cc3)cc2)c1
REMARK SMILES IDX 16 1 17 2 18 3 19 4 94 5 95 6 15 7 11 8 12 9 96 10 13 11
REMARK SMILES IDX 14 12 10 13 8 14 7 15 9 17 6 18 5 19 4 20 3 21 2 22 1 23
REMARK SMILES IDX 20 24 21 25 22 26 23 27 24 28 25 30 26 31 27 32 28 33 29 34
REMARK SMILES IDX 30 36 31 37 32 38 93 39 33 40 92 41 34 42 35 43 36 44 86 45
REMARK SMILES IDX 37 46 91 47 85 48 87 49 38 50 90 51 84 52 83 53 39 55 71 56
REMARK SMILES IDX 51 57 70 58 52 59 55 60 69 61 88 62 53 63 54 64 68 66 89 67
REMARK SMILES IDX 56 68 40 69 41 70 49 71 42 72 43 73 47 74 50 75 44 76 45 77
REMARK SMILES IDX 48 78 46 79 72 80 73 81 81 82 74 83 75 84 79 85 82 86 76 87
REMARK SMILES IDX 77 88 80 89 78 90 57 91 58 92 66 93 59 94 60 95 64 96 67 97
REMARK SMILES IDX 61 98 62 99 65 100 63 101
REMARK H PARENT 7 16 24 29 28 35 87 54 55 65
REMARK Flexibility Score: inf
ROOT
ATOM      1  C   UNL A   1      40.011  26.727  28.148  1.00  0.00    -0.018 A 
ATOM      2  C   UNL A   1      41.409  26.744  28.250  1.00  0.00     0.009 A 
ATOM      3  C   UNL A   1      42.186  25.624  27.924  1.00  0.00     0.005 A 
ATOM      4  C   UNL A   1      41.588  24.421  27.543  1.00  0.00    -0.036 A 
ATOM      5  C   UNL A   1      40.193  24.401  27.410  1.00  0.00     0.005 A 
ATOM      6  C   UNL A   1      39.424  25.538  27.687  1.00  0.00     0.009 A 
ENDROOT
BRANCH   1   7
ATOM      7  C   UNL A   1      39.192  27.902  28.530  1.00  0.00    -0.015 A 
ATOM      8  C   UNL A   1      37.837  29.112  30.152  1.00  0.00     0.133 A 
ATOM      9  C   UNL A   1      37.631  30.156  29.257  1.00  0.00     0.047 A 
ATOM     10  C   UNL A   1      38.602  27.997  29.803  1.00  0.00     0.056 A 
ATOM     11  C   UNL A   1      38.212  30.088  27.996  1.00  0.00     0.004 A 
ATOM     12  C   UNL A   1      38.975  28.971  27.636  1.00  0.00     0.009 A 
BRANCH   8  13
ATOM     13  O   UNL A   1      37.129  29.166  31.365  1.00  0.00    -0.410 OA
BRANCH  13  14
ATOM     14  C   UNL A   1      37.784  28.820  32.537  1.00  0.00     0.412 C 
ATOM     15  N   UNL A   1      38.491  29.858  33.077  1.00  0.00    -0.321 N 
ATOM     16  H   UNL A   1      38.998  29.668  33.899  1.00  0.00     0.167 HD
ATOM     17  O   UNL A   1      37.771  27.719  33.074  1.00  0.00    -0.224 OA
BRANCH  15  18
ATOM     18  C   UNL A   1      38.572  31.212  32.562  1.00  0.00     0.119 C 
BRANCH  18  19
ATOM     19  C   UNL A   1      39.964  31.535  32.019  1.00  0.00     0.021 C 
BRANCH  19  20
ATOM     20  C   UNL A   1      39.984  32.513  30.838  1.00  0.00     0.002 C 
BRANCH  20  21
ATOM     21  C   UNL A   1      39.680  33.975  31.186  1.00  0.00    -0.000 C 
BRANCH  21  22
ATOM     22  C   UNL A   1      38.838  34.734  30.158  1.00  0.00    -0.003 C 
ATOM     23  C   UNL A   1      38.121  33.822  29.175  1.00  0.00     0.004 C 
ENDBRANCH  21  22
ENDBRANCH  20  21
ENDBRANCH  19  20
ENDBRANCH  18  19
ENDBRANCH  15  18
ENDBRANCH  13  14
ENDBRANCH   8  13
ENDBRANCH   1   7
BRANCH   4  24
ATOM     24  C   UNL A   1      42.371  23.137  27.318  1.00  0.00     0.105 C 
ATOM     25  C   UNL A   1      42.308  22.109  28.446  1.00  0.00     0.023 C 
BRANCH  24  26
ATOM     26  C   UNL A   1      42.186  22.557  25.908  1.00  0.00     0.227 C 
ATOM     27  O   UNL A   1      41.342  21.674  25.711  1.00  0.00    -0.274 OA
ATOM     28  N   UNL A   1      42.904  22.951  24.821  1.00  0.00    -0.356 N 
ATOM     29  H   UNL A   1      42.635  22.513  23.982  1.00  0.00     0.163 HD
BRANCH  28  30
ATOM     30  C   UNL A   1      43.991  23.897  24.672  1.00  0.00     0.117 C 
BRANCH  30  31
ATOM     31  C   UNL A   1      45.354  23.277  24.968  1.00  0.00     0.042 C 
BRANCH  31  32
ATOM     32  C   UNL A   1      46.345  24.225  25.634  1.00  0.00     0.118 C 
BRANCH  32  33
ATOM     33  N   UNL A   1      46.932  25.163  24.689  1.00  0.00    -0.352 N 
ATOM     34  C   UNL A   1      46.842  26.527  24.587  1.00  0.00     0.251 C 
ATOM     35  H   UNL A   1      47.496  24.743  23.999  1.00  0.00     0.163 HD
ATOM     36  O   UNL A   1      47.271  27.067  23.568  1.00  0.00    -0.269 OA
BRANCH  34  37
ATOM     37  C   UNL A   1      46.245  27.366  25.654  1.00  0.00     0.039 A 
ATOM     38  C   UNL A   1      47.100  27.887  26.633  1.00  0.00     0.014 A 
ATOM     39  C   UNL A   1      44.868  27.580  25.766  1.00  0.00     0.014 A 
ATOM     40  C   UNL A   1      46.585  28.641  27.690  1.00  0.00     0.010 A 
ATOM     41  C   UNL A   1      44.362  28.403  26.774  1.00  0.00     0.010 A 
ATOM     42  C   UNL A   1      45.211  28.926  27.758  1.00  0.00    -0.014 A 
BRANCH  42  43
ATOM     43  C   UNL A   1      44.673  29.762  28.863  1.00  0.00     0.031 A 
ATOM     44  C   UNL A   1      44.341  29.154  30.199  1.00  0.00     0.074 A 
ATOM     45  C   UNL A   1      44.472  31.078  28.655  1.00  0.00     0.049 A 
ATOM     46  N   UNL A   1      43.914  29.739  31.292  1.00  0.00    -0.248 NA
ATOM     47  C   UNL A   1      44.486  27.696  30.322  1.00  0.00     0.031 C 
ATOM     48  C   UNL A   1      44.690  31.773  27.386  1.00  0.00     0.029 A 
ATOM     49  N   UNL A   1      44.047  32.066  29.507  1.00  0.00    -0.354 N 
ATOM     50  C   UNL A   1      43.732  28.724  32.221  1.00  0.00     0.074 A 
ATOM     51  C   UNL A   1      44.040  27.479  31.551  1.00  0.00     0.031 C 
ATOM     52  C   UNL A   1      44.438  33.081  27.551  1.00  0.00     0.029 A 
ATOM     53  C   UNL A   1      44.017  33.313  28.930  1.00  0.00     0.049 A 
ATOM     54  H   UNL A   1      43.787  31.898  30.442  1.00  0.00     0.167 HD
ATOM     55  C   UNL A   1      43.364  28.821  33.522  1.00  0.00     0.037 A 
ATOM     56  C   UNL A   1      43.700  34.509  29.458  1.00  0.00     0.037 A 
ATOM     57  C   UNL A   1      43.076  30.062  34.193  1.00  0.00     0.049 A 
ATOM     58  C   UNL A   1      43.332  34.595  30.914  1.00  0.00     0.074 A 
ATOM     59  C   UNL A   1      42.746  30.273  35.521  1.00  0.00     0.029 A 
ATOM     60  N   UNL A   1      43.080  31.308  33.581  1.00  0.00    -0.354 N 
ATOM     61  N   UNL A   1      43.242  33.636  31.803  1.00  0.00    -0.248 NA
ATOM     62  C   UNL A   1      43.040  35.934  31.441  1.00  0.00     0.031 C 
ATOM     63  C   UNL A   1      42.514  31.642  35.704  1.00  0.00     0.029 A 
ATOM     64  C   UNL A   1      42.747  32.290  34.502  1.00  0.00     0.049 A 
ATOM     65  H   UNL A   1      43.290  31.471  32.634  1.00  0.00     0.167 HD
ATOM     66  C   UNL A   1      42.908  34.255  32.999  1.00  0.00     0.074 A 
ATOM     67  C   UNL A   1      42.836  35.676  32.725  1.00  0.00     0.031 C 
ATOM     68  C   UNL A   1      42.678  33.699  34.213  1.00  0.00     0.037 A 
BRANCH  55  69
ATOM     69  C   UNL A   1      43.261  27.547  34.312  1.00  0.00     0.064 A 
ATOM     70  C   UNL A   1      42.027  26.908  34.520  1.00  0.00     0.173 A 
ATOM     71  C   UNL A   1      44.410  26.936  34.837  1.00  0.00     0.173 A 
ATOM     72  F   UNL A   1      40.897  27.456  34.049  1.00  0.00    -0.203 F 
ATOM     73  C   UNL A   1      41.946  25.725  35.249  1.00  0.00     0.198 A 
ATOM     74  C   UNL A   1      44.328  25.736  35.540  1.00  0.00     0.198 A 
ATOM     75  F   UNL A   1      45.615  27.498  34.663  1.00  0.00    -0.203 F 
ATOM     76  F   UNL A   1      40.751  25.161  35.476  1.00  0.00    -0.200 F 
ATOM     77  C   UNL A   1      43.096  25.136  35.752  1.00  0.00     0.200 A 
ATOM     78  F   UNL A   1      45.441  25.160  36.014  1.00  0.00    -0.200 F 
ATOM     79  F   UNL A   1      43.015  23.993  36.447  1.00  0.00    -0.200 F 
ENDBRANCH  55  69
BRANCH  56  80
ATOM     80  C   UNL A   1      43.771  35.731  28.615  1.00  0.00     0.064 A 
ATOM     81  C   UNL A   1      44.991  36.391  28.408  1.00  0.00     0.173 A 
ATOM     82  C   UNL A   1      42.628  36.261  28.000  1.00  0.00     0.173 A 
ATOM     83  F   UNL A   1      46.108  35.932  28.991  1.00  0.00    -0.203 F 
ATOM     84  C   UNL A   1      45.061  37.548  27.634  1.00  0.00     0.198 A 
ATOM     85  C   UNL A   1      42.705  37.402  27.203  1.00  0.00     0.198 A 
ATOM     86  F   UNL A   1      41.439  35.664  28.163  1.00  0.00    -0.203 F 
ATOM     87  F   UNL A   1      46.230  38.185  27.490  1.00  0.00    -0.200 F 
ATOM     88  C   UNL A   1      43.919  38.049  27.028  1.00  0.00     0.200 A 
ATOM     89  F   UNL A   1      41.602  37.875  26.607  1.00  0.00    -0.200 F 
ATOM     90  F   UNL A   1      43.987  39.159  26.280  1.00  0.00    -0.200 F 
ENDBRANCH  56  80
BRANCH  68  91
ATOM     91  C   UNL A   1      42.354  34.637  35.340  1.00  0.00     0.064 A 
ATOM     92  C   UNL A   1      41.034  35.013  35.630  1.00  0.00     0.173 A 
ATOM     93  C   UNL A   1      43.379  35.166  36.140  1.00  0.00     0.173 A 
ATOM     94  F   UNL A   1      40.021  34.547  34.886  1.00  0.00    -0.203 F 
ATOM     95  C   UNL A   1      40.755  35.916  36.652  1.00  0.00     0.198 A 
ATOM     96  C   UNL A   1      43.094  36.044  37.182  1.00  0.00     0.198 A 
ATOM     97  F   UNL A   1      44.658  34.833  35.910  1.00  0.00    -0.203 F 
ATOM     98  F   UNL A   1      39.493  36.311  36.870  1.00  0.00    -0.200 F 
ATOM     99  C   UNL A   1      41.784  36.427  37.430  1.00  0.00     0.200 A 
ATOM    100  F   UNL A   1      44.087  36.527  37.940  1.00  0.00    -0.200 F 
ATOM    101  F   UNL A   1      41.514  37.301  38.410  1.00  0.00    -0.200 F 
ENDBRANCH  68  91
ENDBRANCH  42  43
ENDBRANCH  34  37
ENDBRANCH  32  33
ENDBRANCH  31  32
ENDBRANCH  30  31
ENDBRANCH  28  30
ENDBRANCH  24  26
ENDBRANCH   4  24
TORSDOF 19
ENDMDL
MODEL 2
REMARK VINA RESULT:      -9.3      5.555      8.411
REMARK SMILES CCCCCCNC(=O)Oc1cccc(-c2ccc([C@@H](C)C(=O)NCCCNC(=O)c3ccc(-c4c5nc(c(-c6c(F)c(F)c(F)c(F)c6F)c6ccc([nH]6)c(-c6c(F)c(F)c(F)c(F)c6F)c6nc(c(-c7c(F)c(F)c(F)c(F)c7F)c7ccc4[nH]7)C=C6)C=C5)cc3)cc2)c1
REMARK SMILES IDX 16 1 17 2 18 3 19 4 94 5 95 6 15 7 11 8 12 9 96 10 13 11
REMARK SMILES IDX 14 12 10 13 8 14 7 15 9 17 6 18 5 19 4 20 3 21 2 22 1 23
REMARK SMILES IDX 20 24 21 25 22 26 23 27 24 28 25 30 26 31 27 32 28 33 29 34
REMARK SMILES IDX 30 36 31 37 32 38 93 39 33 40 92 41 34 42 35 43 36 44 86 45
REMARK SMILES IDX 37 46 91 47 85 48 87 49 38 50 90 51 84 52 83 53 39 55 71 56
REMARK SMILES IDX 51 57 70 58 52 59 55 60 69 61 88 62 53 63 54 64 68 66 89 67
REMARK SMILES IDX 56 68 40 69 41 70 49 71 42 72 43 73 47 74 50 75 44 76 45 77
REMARK SMILES IDX 48 78 46 79 72 80 73 81 81 82 74 83 75 84 79 85 82 86 76 87
REMARK SMILES IDX 77 88 80 89 78 90 57 91 58 92 66 93 59 94 60 95 64 96 67 97
REMARK SMILES IDX 61 98 62 99 65 100 63 101
REMARK H PARENT 7 16 24 29 28 35 87 54 55 65
REMARK Flexibility Score: inf
ROOT
ATOM      1  C   UNL A   1      30.232  24.913  24.318  1.00  0.00    -0.018 A 
ATOM      2  C   UNL A   1      30.794  24.098  23.324  1.00  0.00     0.009 A 
ATOM      3  C   UNL A   1      31.424  22.885  23.634  1.00  0.00     0.005 A 
ATOM      4  C   UNL A   1      31.574  22.471  24.960  1.00  0.00    -0.036 A 
ATOM      5  C   UNL A   1      30.992  23.263  25.958  1.00  0.00     0.005 A 
ATOM      6  C   UNL A   1      30.317  24.449  25.640  1.00  0.00     0.009 A 
ENDROOT
BRANCH   1   7
ATOM      7  C   UNL A   1      29.600  26.212  23.988  1.00  0.00    -0.015 A 
ATOM      8  C   UNL A   1      29.764  28.594  23.504  1.00  0.00     0.133 A 
ATOM      9  C   UNL A   1      28.386  28.695  23.352  1.00  0.00     0.047 A 
ATOM     10  C   UNL A   1      30.371  27.377  23.820  1.00  0.00     0.056 A 
ATOM     11  C   UNL A   1      27.604  27.556  23.505  1.00  0.00     0.004 A 
ATOM     12  C   UNL A   1      28.205  26.333  23.828  1.00  0.00     0.009 A 
BRANCH   8  13
ATOM     13  O   UNL A   1      30.497  29.791  23.464  1.00  0.00    -0.410 OA
BRANCH  13  14
ATOM     14  C   UNL A   1      30.141  30.822  24.322  1.00  0.00     0.412 C 
ATOM     15  N   UNL A   1      31.020  30.979  25.358  1.00  0.00    -0.321 N 
ATOM     16  H   UNL A   1      30.808  31.681  26.014  1.00  0.00     0.167 HD
ATOM     17  O   UNL A   1      29.156  31.542  24.215  1.00  0.00    -0.224 OA
BRANCH  15  18
ATOM     18  C   UNL A   1      32.232  30.216  25.589  1.00  0.00     0.119 C 
BRANCH  18  19
ATOM     19  C   UNL A   1      31.975  28.983  26.455  1.00  0.00     0.021 C 
BRANCH  19  20
ATOM     20  C   UNL A   1      33.161  28.017  26.568  1.00  0.00     0.002 C 
BRANCH  20  21
ATOM     21  C   UNL A   1      32.808  26.527  26.501  1.00  0.00    -0.000 C 
BRANCH  21  22
ATOM     22  C   UNL A   1      33.757  25.663  25.668  1.00  0.00    -0.003 C 
ATOM     23  C   UNL A   1      33.923  26.157  24.239  1.00  0.00     0.004 C 
ENDBRANCH  21  22
ENDBRANCH  20  21
ENDBRANCH  19  20
ENDBRANCH  18  19
ENDBRANCH  15  18
ENDBRANCH  13  14
ENDBRANCH   8  13
ENDBRANCH   1   7
BRANCH   4  24
ATOM     24  C   UNL A   1      32.372  21.242  25.362  1.00  0.00     0.105 C 
ATOM     25  C   UNL A   1      32.537  20.169  24.286  1.00  0.00     0.023 C 
BRANCH  24  26
ATOM     26  C   UNL A   1      33.657  21.583  26.132  1.00  0.00     0.227 C 
ATOM     27  O   UNL A   1      33.723  21.364  27.348  1.00  0.00    -0.274 OA
ATOM     28  N   UNL A   1      34.767  22.125  25.560  1.00  0.00    -0.356 N 
ATOM     29  H   UNL A   1      35.521  22.243  26.182  1.00  0.00     0.163 HD
BRANCH  28  30
ATOM     30  C   UNL A   1      35.043  22.560  24.207  1.00  0.00     0.117 C 
BRANCH  30  31
ATOM     31  C   UNL A   1      36.430  23.181  24.061  1.00  0.00     0.042 C 
BRANCH  31  32
ATOM     32  C   UNL A   1      37.061  23.630  25.374  1.00  0.00     0.118 C 
BRANCH  32  33
ATOM     33  N   UNL A   1      38.028  22.667  25.881  1.00  0.00    -0.352 N 
ATOM     34  C   UNL A   1      39.254  22.834  26.470  1.00  0.00     0.251 C 
ATOM     35  H   UNL A   1      37.752  21.727  25.782  1.00  0.00     0.163 HD
ATOM     36  O   UNL A   1      39.969  21.845  26.622  1.00  0.00    -0.269 OA
BRANCH  34  37
ATOM     37  C   UNL A   1      39.744  24.158  26.923  1.00  0.00     0.039 A 
ATOM     38  C   UNL A   1      39.655  24.458  28.287  1.00  0.00     0.014 A 
ATOM     39  C   UNL A   1      40.205  25.137  26.038  1.00  0.00     0.014 A 
ATOM     40  C   UNL A   1      40.053  25.710  28.762  1.00  0.00     0.010 A 
ATOM     41  C   UNL A   1      40.682  26.357  26.521  1.00  0.00     0.010 A 
ATOM     42  C   UNL A   1      40.594  26.665  27.885  1.00  0.00    -0.014 A 
BRANCH  42  43
ATOM     43  C   UNL A   1      41.054  27.981  28.400  1.00  0.00     0.031 A 
ATOM     44  C   UNL A   1      42.520  28.309  28.480  1.00  0.00     0.074 A 
ATOM     45  C   UNL A   1      40.140  28.883  28.808  1.00  0.00     0.049 A 
ATOM     46  N   UNL A   1      43.100  29.425  28.851  1.00  0.00    -0.248 NA
ATOM     47  C   UNL A   1      43.463  27.240  28.117  1.00  0.00     0.031 C 
ATOM     48  C   UNL A   1      38.694  28.660  28.845  1.00  0.00     0.029 A 
ATOM     49  N   UNL A   1      40.290  30.169  29.264  1.00  0.00    -0.354 N 
ATOM     50  C   UNL A   1      44.466  29.188  28.775  1.00  0.00     0.074 A 
ATOM     51  C   UNL A   1      44.632  27.807  28.376  1.00  0.00     0.031 C 
ATOM     52  C   UNL A   1      38.086  29.783  29.257  1.00  0.00     0.029 A 
ATOM     53  C   UNL A   1      39.099  30.796  29.538  1.00  0.00     0.049 A 
ATOM     54  H   UNL A   1      41.167  30.601  29.383  1.00  0.00     0.167 HD
ATOM     55  C   UNL A   1      45.490  30.049  28.994  1.00  0.00     0.037 A 
ATOM     56  C   UNL A   1      38.852  32.051  29.956  1.00  0.00     0.037 A 
ATOM     57  C   UNL A   1      45.322  31.428  29.373  1.00  0.00     0.049 A 
ATOM     58  C   UNL A   1      40.003  32.999  30.155  1.00  0.00     0.074 A 
ATOM     59  C   UNL A   1      46.291  32.397  29.567  1.00  0.00     0.029 A 
ATOM     60  N   UNL A   1      44.098  32.035  29.618  1.00  0.00    -0.354 N 
ATOM     61  N   UNL A   1      41.287  32.785  30.001  1.00  0.00    -0.248 NA
ATOM     62  C   UNL A   1      39.666  34.367  30.568  1.00  0.00     0.031 C 
ATOM     63  C   UNL A   1      45.657  33.579  29.967  1.00  0.00     0.029 A 
ATOM     64  C   UNL A   1      44.289  33.362  29.974  1.00  0.00     0.049 A 
ATOM     65  H   UNL A   1      43.223  31.590  29.548  1.00  0.00     0.167 HD
ATOM     66  C   UNL A   1      41.911  33.995  30.273  1.00  0.00     0.074 A 
ATOM     67  C   UNL A   1      40.859  34.944  30.577  1.00  0.00     0.031 C 
ATOM     68  C   UNL A   1      43.232  34.293  30.275  1.00  0.00     0.037 A 
BRANCH  55  69
ATOM     69  C   UNL A   1      46.887  29.525  28.820  1.00  0.00     0.064 A 
ATOM     70  C   UNL A   1      47.624  29.023  29.906  1.00  0.00     0.173 A 
ATOM     71  C   UNL A   1      47.485  29.491  27.552  1.00  0.00     0.173 A 
ATOM     72  F   UNL A   1      47.103  29.043  31.142  1.00  0.00    -0.203 F 
ATOM     73  C   UNL A   1      48.916  28.535  29.731  1.00  0.00     0.198 A 
ATOM     74  C   UNL A   1      48.767  28.974  27.376  1.00  0.00     0.198 A 
ATOM     75  F   UNL A   1      46.825  29.951  26.479  1.00  0.00    -0.203 F 
ATOM     76  F   UNL A   1      49.618  28.107  30.790  1.00  0.00    -0.200 F 
ATOM     77  C   UNL A   1      49.484  28.504  28.466  1.00  0.00     0.200 A 
ATOM     78  F   UNL A   1      49.310  28.931  26.152  1.00  0.00    -0.200 F 
ATOM     79  F   UNL A   1      50.725  28.027  28.300  1.00  0.00    -0.200 F 
ENDBRANCH  55  69
BRANCH  56  80
ATOM     80  C   UNL A   1      37.451  32.500  30.159  1.00  0.00     0.064 A 
ATOM     81  C   UNL A   1      36.786  32.258  31.370  1.00  0.00     0.173 A 
ATOM     82  C   UNL A   1      36.749  33.181  29.154  1.00  0.00     0.173 A 
ATOM     83  F   UNL A   1      37.409  31.594  32.353  1.00  0.00    -0.203 F 
ATOM     84  C   UNL A   1      35.465  32.660  31.559  1.00  0.00     0.198 A 
ATOM     85  C   UNL A   1      35.438  33.608  29.355  1.00  0.00     0.198 A 
ATOM     86  F   UNL A   1      37.342  33.443  27.980  1.00  0.00    -0.203 F 
ATOM     87  F   UNL A   1      34.839  32.375  32.709  1.00  0.00    -0.200 F 
ATOM     88  C   UNL A   1      34.795  33.340  30.554  1.00  0.00     0.200 A 
ATOM     89  F   UNL A   1      34.797  34.278  28.387  1.00  0.00    -0.200 F 
ATOM     90  F   UNL A   1      33.526  33.731  30.739  1.00  0.00    -0.200 F 
ENDBRANCH  56  80
BRANCH  68  91
ATOM     91  C   UNL A   1      43.609  35.712  30.591  1.00  0.00     0.064 A 
ATOM     92  C   UNL A   1      43.859  36.133  31.905  1.00  0.00     0.173 A 
ATOM     93  C   UNL A   1      43.721  36.662  29.564  1.00  0.00     0.173 A 
ATOM     94  F   UNL A   1      43.751  35.267  32.923  1.00  0.00    -0.203 F 
ATOM     95  C   UNL A   1      44.167  37.462  32.184  1.00  0.00     0.198 A 
ATOM     96  C   UNL A   1      44.060  37.983  29.843  1.00  0.00     0.198 A 
ATOM     97  F   UNL A   1      43.499  36.309  28.288  1.00  0.00    -0.203 F 
ATOM     98  F   UNL A   1      44.339  37.855  33.454  1.00  0.00    -0.200 F 
ATOM     99  C   UNL A   1      44.271  38.384  31.153  1.00  0.00     0.200 A 
ATOM    100  F   UNL A   1      44.172  38.869  28.845  1.00  0.00    -0.200 F 
ATOM    101  F   UNL A   1      44.562  39.664  31.425  1.00  0.00    -0.200 F 
ENDBRANCH  68  91
ENDBRANCH  42  43
ENDBRANCH  34  37
ENDBRANCH  32  33
ENDBRANCH  31  32
ENDBRANCH  30  31
ENDBRANCH  28  30
ENDBRANCH  24  26
ENDBRANCH   4  24
TORSDOF 19
ENDMDL
MODEL 3
REMARK VINA RESULT:      -9.1      4.763      8.415
REMARK SMILES CCCCCCNC(=O)Oc1cccc(-c2ccc([C@@H](C)C(=O)NCCCNC(=O)c3ccc(-c4c5nc(c(-c6c(F)c(F)c(F)c(F)c6F)c6ccc([nH]6)c(-c6c(F)c(F)c(F)c(F)c6F)c6nc(c(-c7c(F)c(F)c(F)c(F)c7F)c7ccc4[nH]7)C=C6)C=C5)cc3)cc2)c1
REMARK SMILES IDX 16 1 17 2 18 3 19 4 94 5 95 6 15 7 11 8 12 9 96 10 13 11
REMARK SMILES IDX 14 12 10 13 8 14 7 15 9 17 6 18 5 19 4 20 3 21 2 22 1 23
REMARK SMILES IDX 20 24 21 25 22 26 23 27 24 28 25 30 26 31 27 32 28 33 29 34
REMARK SMILES IDX 30 36 31 37 32 38 93 39 33 40 92 41 34 42 35 43 36 44 86 45
REMARK SMILES IDX 37 46 91 47 85 48 87 49 38 50 90 51 84 52 83 53 39 55 71 56
REMARK SMILES IDX 51 57 70 58 52 59 55 60 69 61 88 62 53 63 54 64 68 66 89 67
REMARK SMILES IDX 56 68 40 69 41 70 49 71 42 72 43 73 47 74 50 75 44 76 45 77
REMARK SMILES IDX 48 78 46 79 72 80 73 81 81 82 74 83 75 84 79 85 82 86 76 87
REMARK SMILES IDX 77 88 80 89 78 90 57 91 58 92 66 93 59 94 60 95 64 96 67 97
REMARK SMILES IDX 61 98 62 99 65 100 63 101
REMARK H PARENT 7 16 24 29 28 35 87 54 55 65
REMARK Flexibility Score: inf
ROOT
ATOM      1  C   UNL A   1      32.219  27.304  26.106  1.00  0.00    -0.018 A 
ATOM      2  C   UNL A   1      31.065  26.525  26.272  1.00  0.00     0.009 A 
ATOM      3  C   UNL A   1      31.084  25.134  26.100  1.00  0.00     0.005 A 
ATOM      4  C   UNL A   1      32.246  24.476  25.691  1.00  0.00    -0.036 A 
ATOM      5  C   UNL A   1      33.412  25.241  25.550  1.00  0.00     0.005 A 
ATOM      6  C   UNL A   1      33.401  26.623  25.774  1.00  0.00     0.009 A 
ENDROOT
BRANCH   1   7
ATOM      7  C   UNL A   1      32.185  28.779  26.253  1.00  0.00    -0.015 A 
ATOM      8  C   UNL A   1      32.982  30.830  27.298  1.00  0.00     0.133 A 
ATOM      9  C   UNL A   1      32.120  31.601  26.526  1.00  0.00     0.047 A 
ATOM     10  C   UNL A   1      33.020  29.440  27.173  1.00  0.00     0.056 A 
ATOM     11  C   UNL A   1      31.293  30.971  25.604  1.00  0.00     0.004 A 
ATOM     12  C   UNL A   1      31.321  29.577  25.477  1.00  0.00     0.009 A 
BRANCH   8  13
ATOM     13  O   UNL A   1      33.705  31.496  28.301  1.00  0.00    -0.410 OA
BRANCH  13  14
ATOM     14  C   UNL A   1      34.894  32.126  27.963  1.00  0.00     0.412 C 
ATOM     15  N   UNL A   1      34.810  33.489  28.030  1.00  0.00    -0.321 N 
ATOM     16  H   UNL A   1      35.617  33.994  27.778  1.00  0.00     0.167 HD
ATOM     17  O   UNL A   1      35.933  31.572  27.627  1.00  0.00    -0.224 OA
BRANCH  15  18
ATOM     18  C   UNL A   1      33.655  34.268  28.435  1.00  0.00     0.119 C 
BRANCH  18  19
ATOM     19  C   UNL A   1      33.765  34.743  29.883  1.00  0.00     0.021 C 
BRANCH  19  20
ATOM     20  C   UNL A   1      32.908  35.968  30.225  1.00  0.00     0.002 C 
BRANCH  20  21
ATOM     21  C   UNL A   1      32.899  36.377  31.702  1.00  0.00    -0.000 C 
BRANCH  21  22
ATOM     22  C   UNL A   1      34.275  36.477  32.366  1.00  0.00    -0.003 C 
ATOM     23  C   UNL A   1      34.400  35.632  33.624  1.00  0.00     0.004 C 
ENDBRANCH  21  22
ENDBRANCH  20  21
ENDBRANCH  19  20
ENDBRANCH  18  19
ENDBRANCH  15  18
ENDBRANCH  13  14
ENDBRANCH   8  13
ENDBRANCH   1   7
BRANCH   4  24
ATOM     24  C   UNL A   1      32.287  22.995  25.350  1.00  0.00     0.105 C 
ATOM     25  C   UNL A   1      31.119  22.157  25.867  1.00  0.00     0.023 C 
BRANCH  24  26
ATOM     26  C   UNL A   1      32.675  22.723  23.888  1.00  0.00     0.227 C 
ATOM     27  O   UNL A   1      31.888  23.011  22.978  1.00  0.00    -0.274 OA
ATOM     28  N   UNL A   1      33.859  22.171  23.504  1.00  0.00    -0.356 N 
ATOM     29  H   UNL A   1      33.972  22.103  22.529  1.00  0.00     0.163 HD
BRANCH  28  30
ATOM     30  C   UNL A   1      34.982  21.666  24.266  1.00  0.00     0.117 C 
BRANCH  30  31
ATOM     31  C   UNL A   1      36.026  22.741  24.556  1.00  0.00     0.042 C 
BRANCH  31  32
ATOM     32  C   UNL A   1      36.659  22.646  25.940  1.00  0.00     0.118 C 
BRANCH  32  33
ATOM     33  N   UNL A   1      37.645  21.579  26.026  1.00  0.00    -0.352 N 
ATOM     34  C   UNL A   1      38.997  21.605  26.244  1.00  0.00     0.251 C 
ATOM     35  H   UNL A   1      37.273  20.674  25.905  1.00  0.00     0.163 HD
ATOM     36  O   UNL A   1      39.639  20.572  26.065  1.00  0.00    -0.269 OA
BRANCH  34  37
ATOM     37  C   UNL A   1      39.707  22.831  26.683  1.00  0.00     0.039 A 
ATOM     38  C   UNL A   1      39.414  24.030  26.023  1.00  0.00     0.014 A 
ATOM     39  C   UNL A   1      40.708  22.816  27.659  1.00  0.00     0.014 A 
ATOM     40  C   UNL A   1      40.091  25.205  26.360  1.00  0.00     0.010 A 
ATOM     41  C   UNL A   1      41.325  24.004  28.055  1.00  0.00     0.010 A 
ATOM     42  C   UNL A   1      41.038  25.208  27.398  1.00  0.00    -0.014 A 
BRANCH  42  43
ATOM     43  C   UNL A   1      41.728  26.468  27.780  1.00  0.00     0.031 A 
ATOM     44  C   UNL A   1      43.123  26.760  27.300  1.00  0.00     0.074 A 
ATOM     45  C   UNL A   1      41.092  27.350  28.575  1.00  0.00     0.049 A 
ATOM     46  N   UNL A   1      43.857  27.830  27.491  1.00  0.00    -0.248 NA
ATOM     47  C   UNL A   1      43.795  25.707  26.524  1.00  0.00     0.031 C 
ATOM     48  C   UNL A   1      39.765  27.153  29.161  1.00  0.00     0.029 A 
ATOM     49  N   UNL A   1      41.472  28.591  29.023  1.00  0.00    -0.354 N 
ATOM     50  C   UNL A   1      45.072  27.573  26.868  1.00  0.00     0.074 A 
ATOM     51  C   UNL A   1      45.000  26.228  26.342  1.00  0.00     0.031 C 
ATOM     52  C   UNL A   1      39.423  28.250  29.855  1.00  0.00     0.029 A 
ATOM     53  C   UNL A   1      40.515  29.216  29.785  1.00  0.00     0.049 A 
ATOM     54  H   UNL A   1      42.346  28.995  28.817  1.00  0.00     0.167 HD
ATOM     55  C   UNL A   1      46.142  28.394  26.726  1.00  0.00     0.037 A 
ATOM     56  C   UNL A   1      40.513  30.437  30.352  1.00  0.00     0.037 A 
ATOM     57  C   UNL A   1      46.205  29.740  27.234  1.00  0.00     0.049 A 
ATOM     58  C   UNL A   1      41.698  31.342  30.147  1.00  0.00     0.074 A 
ATOM     59  C   UNL A   1      47.220  30.671  27.099  1.00  0.00     0.029 A 
ATOM     60  N   UNL A   1      45.205  30.348  27.982  1.00  0.00    -0.354 N 
ATOM     61  N   UNL A   1      42.807  31.117  29.487  1.00  0.00    -0.248 NA
ATOM     62  C   UNL A   1      41.617  32.677  30.753  1.00  0.00     0.031 C 
ATOM     63  C   UNL A   1      46.852  31.828  27.796  1.00  0.00     0.029 A 
ATOM     64  C   UNL A   1      45.586  31.636  28.324  1.00  0.00     0.049 A 
ATOM     65  H   UNL A   1      44.351  29.927  28.231  1.00  0.00     0.167 HD
ATOM     66  C   UNL A   1      43.548  32.288  29.576  1.00  0.00     0.074 A 
ATOM     67  C   UNL A   1      42.747  33.229  30.333  1.00  0.00     0.031 C 
ATOM     68  C   UNL A   1      44.779  32.560  29.079  1.00  0.00     0.037 A 
BRANCH  55  69
ATOM     69  C   UNL A   1      47.333  27.859  25.983  1.00  0.00     0.064 A 
ATOM     70  C   UNL A   1      48.455  27.352  26.658  1.00  0.00     0.173 A 
ATOM     71  C   UNL A   1      47.342  27.820  24.581  1.00  0.00     0.173 A 
ATOM     72  F   UNL A   1      48.503  27.376  27.999  1.00  0.00    -0.203 F 
ATOM     73  C   UNL A   1      49.550  26.855  25.958  1.00  0.00     0.198 A 
ATOM     74  C   UNL A   1      48.427  27.294  23.883  1.00  0.00     0.198 A 
ATOM     75  F   UNL A   1      46.294  28.285  23.883  1.00  0.00    -0.203 F 
ATOM     76  F   UNL A   1      50.630  26.421  26.625  1.00  0.00    -0.200 F 
ATOM     77  C   UNL A   1      49.533  26.819  24.572  1.00  0.00     0.200 A 
ATOM     78  F   UNL A   1      48.404  27.247  22.544  1.00  0.00    -0.200 F 
ATOM     79  F   UNL A   1      50.585  26.332  23.900  1.00  0.00    -0.200 F 
ENDBRANCH  55  69
BRANCH  56  80
ATOM     80  C   UNL A   1      39.327  30.894  31.119  1.00  0.00     0.064 A 
ATOM     81  C   UNL A   1      38.357  31.713  30.523  1.00  0.00     0.173 A 
ATOM     82  C   UNL A   1      39.135  30.522  32.458  1.00  0.00     0.173 A 
ATOM     83  F   UNL A   1      38.506  32.110  29.252  1.00  0.00    -0.203 F 
ATOM     84  C   UNL A   1      37.251  32.161  31.244  1.00  0.00     0.198 A 
ATOM     85  C   UNL A   1      38.014  30.947  33.168  1.00  0.00     0.198 A 
ATOM     86  F   UNL A   1      40.031  29.735  33.071  1.00  0.00    -0.203 F 
ATOM     87  F   UNL A   1      36.364  32.979  30.665  1.00  0.00    -0.200 F 
ATOM     88  C   UNL A   1      37.078  31.772  32.564  1.00  0.00     0.200 A 
ATOM     89  F   UNL A   1      37.842  30.558  34.439  1.00  0.00    -0.200 F 
ATOM     90  F   UNL A   1      36.012  32.199  33.255  1.00  0.00    -0.200 F 
ENDBRANCH  56  80
BRANCH  68  91
ATOM     91  C   UNL A   1      45.319  33.940  29.319  1.00  0.00     0.064 A 
ATOM     92  C   UNL A   1      45.077  34.992  28.424  1.00  0.00     0.173 A 
ATOM     93  C   UNL A   1      46.090  34.212  30.460  1.00  0.00     0.173 A 
ATOM     94  F   UNL A   1      44.358  34.780  27.311  1.00  0.00    -0.203 F 
ATOM     95  C   UNL A   1      45.620  36.256  28.640  1.00  0.00     0.198 A 
ATOM     96  C   UNL A   1      46.605  35.485  30.689  1.00  0.00     0.198 A 
ATOM     97  F   UNL A   1      46.345  33.243  31.351  1.00  0.00    -0.203 F 
ATOM     98  F   UNL A   1      45.428  37.229  27.739  1.00  0.00    -0.200 F 
ATOM     99  C   UNL A   1      46.379  36.501  29.774  1.00  0.00     0.200 A 
ATOM    100  F   UNL A   1      47.329  35.724  31.791  1.00  0.00    -0.200 F 
ATOM    101  F   UNL A   1      46.906  37.717  29.978  1.00  0.00    -0.200 F 
ENDBRANCH  68  91
ENDBRANCH  42  43
ENDBRANCH  34  37
ENDBRANCH  32  33
ENDBRANCH  31  32
ENDBRANCH  30  31
ENDBRANCH  28  30
ENDBRANCH  24  26
ENDBRANCH   4  24
TORSDOF 19
ENDMDL
