MODEL 1
REMARK VINA RESULT:     -12.7      0.000      0.000
REMARK SMILES COCC1CCN(C(=O)NC[C@H]2CC[C@H](C(=O)NCCCNC(=O)c3ccc(-c4c5nc(c(-c6c(F)c(F)c(F)c(F)c6F)c6ccc([nH]6)c(-c6c(F)c(F)c(F)c(F)c6F)c6nc(c(-c7c(F)c(F)c(F)c(F)c7F)c7ccc4[nH]7)C=C6)C=C5)cc3)O2)CC1
REMARK SMILES IDX 19 1 18 2 16 3 17 4 15 6 12 7 13 8 88 9 14 10 11 11 10 12
REMARK SMILES IDX 4 13 5 14 90 15 6 16 89 17 7 18 8 19 9 20 3 22 2 23 1 24
REMARK SMILES IDX 20 25 21 26 22 27 23 28 24 30 25 31 26 32 87 33 27 34 86 35
REMARK SMILES IDX 28 36 29 37 30 38 80 39 31 40 85 41 79 42 81 43 32 44 84 45
REMARK SMILES IDX 78 46 77 47 33 49 65 50 45 51 64 52 46 53 49 54 63 55 82 56
REMARK SMILES IDX 47 57 48 58 62 60 83 61 50 62 34 63 35 64 43 65 36 66 37 67
REMARK SMILES IDX 41 68 44 69 38 70 39 71 42 72 40 73 66 74 67 75 75 76 68 77
REMARK SMILES IDX 69 78 73 79 76 80 70 81 71 82 74 83 72 84 51 85 52 86 60 87
REMARK SMILES IDX 53 88 54 89 58 90 61 91 55 92 56 93 59 94 57 95
REMARK H PARENT 18 5 10 21 22 29 81 48 49 59
REMARK Flexibility Score: inf
ROOT
ATOM      1  C   UNL A   1      31.436  31.007  26.558  1.00  0.00     0.117 C 
ENDROOT
BRANCH   1   2
ATOM      2  N   UNL A   1      32.753  30.454  26.790  1.00  0.00    -0.354 N 
ATOM      3  C   UNL A   1      33.440  29.494  26.107  1.00  0.00     0.249 C 
ATOM      4  O   UNL A   1      34.555  29.187  26.541  1.00  0.00    -0.272 OA
ATOM      5  H   UNL A   1      33.230  30.831  27.565  1.00  0.00     0.163 HD
BRANCH   3   6
ATOM      6  C   UNL A   1      32.831  28.754  24.895  1.00  0.00     0.207 C 
ATOM      7  C   UNL A   1      32.372  26.498  24.443  1.00  0.00     0.138 C 
ATOM      8  C   UNL A   1      33.809  26.758  24.033  1.00  0.00     0.037 C 
ATOM      9  O   UNL A   1      31.963  27.657  25.200  1.00  0.00    -0.363 OA
ATOM     10  C   UNL A   1      33.907  28.257  23.939  1.00  0.00     0.045 C 
BRANCH   7  11
ATOM     11  C   UNL A   1      31.341  26.212  23.336  1.00  0.00     0.149 C 
BRANCH  11  12
ATOM     12  N   UNL A   1      29.968  26.204  23.809  1.00  0.00    -0.335 N 
ATOM     13  C   UNL A   1      28.764  30.723  21.613  1.00  0.00     0.018 C 
ATOM     14  C   UNL A   1      27.548  29.808  21.830  1.00  0.00     0.027 C 
ATOM     15  C   UNL A   1      30.051  29.915  21.814  1.00  0.00     0.027 C 
ATOM     16  C   UNL A   1      27.620  28.942  23.089  1.00  0.00     0.121 C 
ATOM     17  C   UNL A   1      30.044  29.132  23.115  1.00  0.00     0.121 C 
ATOM     18  N   UNL A   1      28.899  28.245  23.206  1.00  0.00    -0.325 N 
ATOM     19  C   UNL A   1      28.871  26.966  23.682  1.00  0.00     0.317 C 
ATOM     20  O   UNL A   1      27.821  26.422  24.037  1.00  0.00    -0.249 OA
ATOM     21  H   UNL A   1      29.793  25.424  24.383  1.00  0.00     0.165 HD
BRANCH  13  22
ATOM     22  C   UNL A   1      28.755  32.021  22.442  1.00  0.00     0.163 C 
BRANCH  22  23
ATOM     23  O   UNL A   1      28.055  33.092  21.823  1.00  0.00    -0.384 OA
ATOM     24  C   UNL A   1      27.786  32.850  20.445  1.00  0.00     0.194 C 
ENDBRANCH  22  23
ENDBRANCH  13  22
ENDBRANCH  11  12
ENDBRANCH   7  11
ENDBRANCH   3   6
ENDBRANCH   1   2
BRANCH   1  25
ATOM     25  C   UNL A   1      31.439  32.527  26.665  1.00  0.00     0.042 C 
BRANCH  25  26
ATOM     26  C   UNL A   1      32.686  33.064  27.348  1.00  0.00     0.118 C 
BRANCH  26  27
ATOM     27  N   UNL A   1      32.512  34.452  27.761  1.00  0.00    -0.352 N 
ATOM     28  C   UNL A   1      33.081  35.146  28.796  1.00  0.00     0.251 C 
ATOM     29  H   UNL A   1      31.886  34.973  27.207  1.00  0.00     0.163 HD
ATOM     30  O   UNL A   1      32.606  36.224  29.141  1.00  0.00    -0.269 OA
BRANCH  28  31
ATOM     31  C   UNL A   1      34.258  34.602  29.504  1.00  0.00     0.039 A 
ATOM     32  C   UNL A   1      34.079  34.006  30.756  1.00  0.00     0.014 A 
ATOM     33  C   UNL A   1      35.539  34.706  28.954  1.00  0.00     0.014 A 
ATOM     34  C   UNL A   1      35.174  33.456  31.424  1.00  0.00     0.010 A 
ATOM     35  C   UNL A   1      36.613  34.083  29.579  1.00  0.00     0.010 A 
ATOM     36  C   UNL A   1      36.441  33.456  30.821  1.00  0.00    -0.014 A 
BRANCH  36  37
ATOM     37  C   UNL A   1      37.606  32.803  31.466  1.00  0.00     0.031 A 
ATOM     38  C   UNL A   1      38.276  31.633  30.801  1.00  0.00     0.074 A 
ATOM     39  C   UNL A   1      37.999  33.211  32.688  1.00  0.00     0.049 A 
ATOM     40  N   UNL A   1      39.230  30.861  31.252  1.00  0.00    -0.248 NA
ATOM     41  C   UNL A   1      37.787  31.265  29.463  1.00  0.00     0.031 C 
ATOM     42  C   UNL A   1      37.393  34.304  33.449  1.00  0.00     0.029 A 
ATOM     43  N   UNL A   1      38.989  32.740  33.512  1.00  0.00    -0.354 N 
ATOM     44  C   UNL A   1      39.443  29.909  30.264  1.00  0.00     0.074 A 
ATOM     45  C   UNL A   1      38.484  30.168  29.212  1.00  0.00     0.031 C 
ATOM     46  C   UNL A   1      38.032  34.431  34.622  1.00  0.00     0.029 A 
ATOM     47  C   UNL A   1      39.061  33.400  34.715  1.00  0.00     0.049 A 
ATOM     48  H   UNL A   1      39.590  32.001  33.266  1.00  0.00     0.167 HD
ATOM     49  C   UNL A   1      40.369  28.921  30.231  1.00  0.00     0.037 A 
ATOM     50  C   UNL A   1      39.856  33.184  35.779  1.00  0.00     0.037 A 
ATOM     51  C   UNL A   1      41.334  28.686  31.273  1.00  0.00     0.049 A 
ATOM     52  C   UNL A   1      40.868  32.072  35.721  1.00  0.00     0.074 A 
ATOM     53  C   UNL A   1      42.358  27.757  31.306  1.00  0.00     0.029 A 
ATOM     54  N   UNL A   1      41.390  29.387  32.470  1.00  0.00    -0.354 N 
ATOM     55  N   UNL A   1      41.108  31.222  34.752  1.00  0.00    -0.248 NA
ATOM     56  C   UNL A   1      41.720  31.890  36.904  1.00  0.00     0.031 C 
ATOM     57  C   UNL A   1      43.000  27.860  32.545  1.00  0.00     0.029 A 
ATOM     58  C   UNL A   1      42.413  28.890  33.261  1.00  0.00     0.049 A 
ATOM     59  H   UNL A   1      40.791  30.127  32.719  1.00  0.00     0.167 HD
ATOM     60  C   UNL A   1      42.152  30.422  35.195  1.00  0.00     0.074 A 
ATOM     61  C   UNL A   1      42.512  30.902  36.514  1.00  0.00     0.031 C 
ATOM     62  C   UNL A   1      42.757  29.382  34.570  1.00  0.00     0.037 A 
BRANCH  49  63
ATOM     63  C   UNL A   1      40.383  28.018  29.032  1.00  0.00     0.064 A 
ATOM     64  C   UNL A   1      41.157  28.311  27.898  1.00  0.00     0.173 A 
ATOM     65  C   UNL A   1      39.648  26.823  29.031  1.00  0.00     0.173 A 
ATOM     66  F   UNL A   1      41.869  29.447  27.842  1.00  0.00    -0.203 F 
ATOM     67  C   UNL A   1      41.171  27.456  26.799  1.00  0.00     0.198 A 
ATOM     68  C   UNL A   1      39.689  25.955  27.943  1.00  0.00     0.198 A 
ATOM     69  F   UNL A   1      38.895  26.492  30.091  1.00  0.00    -0.203 F 
ATOM     70  F   UNL A   1      41.879  27.781  25.708  1.00  0.00    -0.200 F 
ATOM     71  C   UNL A   1      40.445  26.276  26.826  1.00  0.00     0.200 A 
ATOM     72  F   UNL A   1      38.997  24.808  27.976  1.00  0.00    -0.200 F 
ATOM     73  F   UNL A   1      40.467  25.449  25.771  1.00  0.00    -0.200 F 
ENDBRANCH  49  63
BRANCH  50  74
ATOM     74  C   UNL A   1      39.735  34.044  36.985  1.00  0.00     0.064 A 
ATOM     75  C   UNL A   1      40.430  35.258  37.077  1.00  0.00     0.173 A 
ATOM     76  C   UNL A   1      38.927  33.672  38.070  1.00  0.00     0.173 A 
ATOM     77  F   UNL A   1      41.229  35.648  36.073  1.00  0.00    -0.203 F 
ATOM     78  C   UNL A   1      40.341  36.055  38.217  1.00  0.00     0.198 A 
ATOM     79  C   UNL A   1      38.814  34.484  39.196  1.00  0.00     0.198 A 
ATOM     80  F   UNL A   1      38.235  32.524  38.030  1.00  0.00    -0.203 F 
ATOM     81  F   UNL A   1      41.053  37.187  38.297  1.00  0.00    -0.200 F 
ATOM     82  C   UNL A   1      39.529  35.670  39.273  1.00  0.00     0.200 A 
ATOM     83  F   UNL A   1      38.014  34.118  40.207  1.00  0.00    -0.200 F 
ATOM     84  F   UNL A   1      39.439  36.440  40.366  1.00  0.00    -0.200 F 
ENDBRANCH  50  74
BRANCH  62  85
ATOM     85  C   UNL A   1      43.887  28.710  35.295  1.00  0.00     0.064 A 
ATOM     86  C   UNL A   1      43.663  27.653  36.189  1.00  0.00     0.173 A 
ATOM     87  C   UNL A   1      45.214  29.106  35.063  1.00  0.00     0.173 A 
ATOM     88  F   UNL A   1      42.411  27.250  36.457  1.00  0.00    -0.203 F 
ATOM     89  C   UNL A   1      44.723  27.034  36.843  1.00  0.00     0.198 A 
ATOM     90  C   UNL A   1      46.273  28.462  35.694  1.00  0.00     0.198 A 
ATOM     91  F   UNL A   1      45.483  30.107  34.212  1.00  0.00    -0.203 F 
ATOM     92  F   UNL A   1      44.481  26.059  37.732  1.00  0.00    -0.200 F 
ATOM     93  C   UNL A   1      46.027  27.432  36.590  1.00  0.00     0.200 A 
ATOM     94  F   UNL A   1      47.533  28.839  35.438  1.00  0.00    -0.200 F 
ATOM     95  F   UNL A   1      47.046  26.829  37.216  1.00  0.00    -0.200 F 
ENDBRANCH  62  85
ENDBRANCH  36  37
ENDBRANCH  28  31
ENDBRANCH  26  27
ENDBRANCH  25  26
ENDBRANCH   1  25
TORSDOF 14
ENDMDL
MODEL 2
REMARK VINA RESULT:     -12.5      2.575      4.761
REMARK SMILES COCC1CCN(C(=O)NC[C@H]2CC[C@H](C(=O)NCCCNC(=O)c3ccc(-c4c5nc(c(-c6c(F)c(F)c(F)c(F)c6F)c6ccc([nH]6)c(-c6c(F)c(F)c(F)c(F)c6F)c6nc(c(-c7c(F)c(F)c(F)c(F)c7F)c7ccc4[nH]7)C=C6)C=C5)cc3)O2)CC1
REMARK SMILES IDX 19 1 18 2 16 3 17 4 15 6 12 7 13 8 88 9 14 10 11 11 10 12
REMARK SMILES IDX 4 13 5 14 90 15 6 16 89 17 7 18 8 19 9 20 3 22 2 23 1 24
REMARK SMILES IDX 20 25 21 26 22 27 23 28 24 30 25 31 26 32 87 33 27 34 86 35
REMARK SMILES IDX 28 36 29 37 30 38 80 39 31 40 85 41 79 42 81 43 32 44 84 45
REMARK SMILES IDX 78 46 77 47 33 49 65 50 45 51 64 52 46 53 49 54 63 55 82 56
REMARK SMILES IDX 47 57 48 58 62 60 83 61 50 62 34 63 35 64 43 65 36 66 37 67
REMARK SMILES IDX 41 68 44 69 38 70 39 71 42 72 40 73 66 74 67 75 75 76 68 77
REMARK SMILES IDX 69 78 73 79 76 80 70 81 71 82 74 83 72 84 51 85 52 86 60 87
REMARK SMILES IDX 53 88 54 89 58 90 61 91 55 92 56 93 59 94 57 95
REMARK H PARENT 18 5 10 21 22 29 81 48 49 59
REMARK Flexibility Score: inf
ROOT
ATOM      1  C   UNL A   1      31.539  30.518  26.034  1.00  0.00     0.117 C 
ENDROOT
BRANCH   1   2
ATOM      2  N   UNL A   1      31.120  30.345  24.659  1.00  0.00    -0.354 N 
ATOM      3  C   UNL A   1      30.762  29.216  23.982  1.00  0.00     0.249 C 
ATOM      4  O   UNL A   1      30.467  29.349  22.790  1.00  0.00    -0.272 OA
ATOM      5  H   UNL A   1      31.088  31.173  24.128  1.00  0.00     0.163 HD
BRANCH   3   6
ATOM      6  C   UNL A   1      30.801  27.818  24.638  1.00  0.00     0.207 C 
ATOM      7  C   UNL A   1      32.109  25.902  24.284  1.00  0.00     0.138 C 
ATOM      8  C   UNL A   1      30.933  25.830  23.329  1.00  0.00     0.037 C 
ATOM      9  O   UNL A   1      32.100  27.244  24.817  1.00  0.00    -0.363 OA
ATOM     10  C   UNL A   1      29.939  26.816  23.881  1.00  0.00     0.045 C 
BRANCH   7  11
ATOM     11  C   UNL A   1      32.171  24.886  25.437  1.00  0.00     0.149 C 
BRANCH  11  12
ATOM     12  N   UNL A   1      33.525  24.561  25.853  1.00  0.00    -0.335 N 
ATOM     13  C   UNL A   1      33.116  19.552  24.657  1.00  0.00     0.018 C 
ATOM     14  C   UNL A   1      34.564  20.068  24.630  1.00  0.00     0.027 C 
ATOM     15  C   UNL A   1      32.153  20.742  24.718  1.00  0.00     0.027 C 
ATOM     16  C   UNL A   1      34.875  21.145  25.672  1.00  0.00     0.121 C 
ATOM     17  C   UNL A   1      32.518  21.725  25.816  1.00  0.00     0.121 C 
ATOM     18  N   UNL A   1      33.877  22.212  25.675  1.00  0.00    -0.325 N 
ATOM     19  C   UNL A   1      34.329  23.488  25.860  1.00  0.00     0.317 C 
ATOM     20  O   UNL A   1      35.523  23.738  26.054  1.00  0.00    -0.249 OA
ATOM     21  H   UNL A   1      33.978  25.346  26.237  1.00  0.00     0.165 HD
BRANCH  13  22
ATOM     22  C   UNL A   1      32.822  18.506  25.748  1.00  0.00     0.163 C 
BRANCH  22  23
ATOM     23  O   UNL A   1      32.156  17.346  25.266  1.00  0.00    -0.384 OA
ATOM     24  C   UNL A   1      33.060  16.321  24.862  1.00  0.00     0.194 C 
ENDBRANCH  22  23
ENDBRANCH  13  22
ENDBRANCH  11  12
ENDBRANCH   7  11
ENDBRANCH   3   6
ENDBRANCH   1   2
BRANCH   1  25
ATOM     25  C   UNL A   1      31.344  31.954  26.503  1.00  0.00     0.042 C 
BRANCH  25  26
ATOM     26  C   UNL A   1      32.550  32.497  27.250  1.00  0.00     0.118 C 
BRANCH  26  27
ATOM     27  N   UNL A   1      32.404  33.919  27.539  1.00  0.00    -0.352 N 
ATOM     28  C   UNL A   1      33.004  34.695  28.496  1.00  0.00     0.251 C 
ATOM     29  H   UNL A   1      31.774  34.398  26.952  1.00  0.00     0.163 HD
ATOM     30  O   UNL A   1      32.551  35.806  28.750  1.00  0.00    -0.269 OA
BRANCH  28  31
ATOM     31  C   UNL A   1      34.187  34.198  29.228  1.00  0.00     0.039 A 
ATOM     32  C   UNL A   1      33.997  33.415  30.370  1.00  0.00     0.014 A 
ATOM     33  C   UNL A   1      35.479  34.530  28.812  1.00  0.00     0.014 A 
ATOM     34  C   UNL A   1      35.103  32.910  31.055  1.00  0.00     0.010 A 
ATOM     35  C   UNL A   1      36.578  33.956  29.442  1.00  0.00     0.010 A 
ATOM     36  C   UNL A   1      36.400  33.144  30.571  1.00  0.00    -0.014 A 
BRANCH  36  37
ATOM     37  C   UNL A   1      37.590  32.548  31.225  1.00  0.00     0.031 A 
ATOM     38  C   UNL A   1      38.333  31.426  30.557  1.00  0.00     0.074 A 
ATOM     39  C   UNL A   1      37.942  32.962  32.457  1.00  0.00     0.049 A 
ATOM     40  N   UNL A   1      39.323  30.703  31.013  1.00  0.00    -0.248 NA
ATOM     41  C   UNL A   1      37.884  31.048  29.208  1.00  0.00     0.031 C 
ATOM     42  C   UNL A   1      37.266  34.011  33.222  1.00  0.00     0.029 A 
ATOM     43  N   UNL A   1      38.945  32.537  33.291  1.00  0.00    -0.354 N 
ATOM     44  C   UNL A   1      39.602  29.776  30.017  1.00  0.00     0.074 A 
ATOM     45  C   UNL A   1      38.645  29.994  28.954  1.00  0.00     0.031 C 
ATOM     46  C   UNL A   1      37.881  34.158  34.406  1.00  0.00     0.029 A 
ATOM     47  C   UNL A   1      38.964  33.185  34.503  1.00  0.00     0.049 A 
ATOM     48  H   UNL A   1      39.590  31.835  33.045  1.00  0.00     0.167 HD
ATOM     49  C   UNL A   1      40.581  28.841  29.986  1.00  0.00     0.037 A 
ATOM     50  C   UNL A   1      39.755  33.000  35.575  1.00  0.00     0.037 A 
ATOM     51  C   UNL A   1      41.543  28.647  31.039  1.00  0.00     0.049 A 
ATOM     52  C   UNL A   1      40.828  31.947  35.519  1.00  0.00     0.074 A 
ATOM     53  C   UNL A   1      42.617  27.776  31.076  1.00  0.00     0.029 A 
ATOM     54  N   UNL A   1      41.543  29.335  32.245  1.00  0.00    -0.354 N 
ATOM     55  N   UNL A   1      41.129  31.123  34.544  1.00  0.00    -0.248 NA
ATOM     56  C   UNL A   1      41.672  31.797  36.712  1.00  0.00     0.031 C 
ATOM     57  C   UNL A   1      43.235  27.899  32.325  1.00  0.00     0.029 A 
ATOM     58  C   UNL A   1      42.582  28.886  33.045  1.00  0.00     0.049 A 
ATOM     59  H   UNL A   1      40.901  30.038  32.494  1.00  0.00     0.167 HD
ATOM     60  C   UNL A   1      42.209  30.377  34.993  1.00  0.00     0.074 A 
ATOM     61  C   UNL A   1      42.523  30.859  36.323  1.00  0.00     0.031 C 
ATOM     62  C   UNL A   1      42.879  29.380  34.365  1.00  0.00     0.037 A 
BRANCH  49  63
ATOM     63  C   UNL A   1      40.662  27.956  28.776  1.00  0.00     0.064 A 
ATOM     64  C   UNL A   1      39.958  26.743  28.702  1.00  0.00     0.173 A 
ATOM     65  C   UNL A   1      41.419  28.342  27.660  1.00  0.00     0.173 A 
ATOM     66  F   UNL A   1      39.228  26.321  29.747  1.00  0.00    -0.203 F 
ATOM     67  C   UNL A   1      40.031  25.940  27.567  1.00  0.00     0.198 A 
ATOM     68  C   UNL A   1      41.464  27.551  26.515  1.00  0.00     0.198 A 
ATOM     69  F   UNL A   1      42.107  29.493  27.675  1.00  0.00    -0.203 F 
ATOM     70  F   UNL A   1      39.388  24.764  27.538  1.00  0.00    -0.200 F 
ATOM     71  C   UNL A   1      40.776  26.348  26.472  1.00  0.00     0.200 A 
ATOM     72  F   UNL A   1      42.174  27.953  25.452  1.00  0.00    -0.200 F 
ATOM     73  F   UNL A   1      40.838  25.578  25.377  1.00  0.00    -0.200 F 
ENDBRANCH  49  63
BRANCH  50  74
ATOM     74  C   UNL A   1      39.569  33.837  36.789  1.00  0.00     0.064 A 
ATOM     75  C   UNL A   1      38.774  33.393  37.855  1.00  0.00     0.173 A 
ATOM     76  C   UNL A   1      40.176  35.096  36.910  1.00  0.00     0.173 A 
ATOM     77  F   UNL A   1      38.158  32.204  37.780  1.00  0.00    -0.203 F 
ATOM     78  C   UNL A   1      38.574  34.185  38.984  1.00  0.00     0.198 A 
ATOM     79  C   UNL A   1      40.000  35.874  38.052  1.00  0.00     0.198 A 
ATOM     80  F   UNL A   1      40.952  35.565  35.922  1.00  0.00    -0.203 F 
ATOM     81  F   UNL A   1      37.772  33.755  39.967  1.00  0.00    -0.200 F 
ATOM     82  C   UNL A   1      39.192  35.422  39.084  1.00  0.00     0.200 A 
ATOM     83  F   UNL A   1      40.614  37.061  38.153  1.00  0.00    -0.200 F 
ATOM     84  F   UNL A   1      39.005  36.181  40.172  1.00  0.00    -0.200 F 
ENDBRANCH  50  74
BRANCH  62  85
ATOM     85  C   UNL A   1      44.034  28.763  35.098  1.00  0.00     0.064 A 
ATOM     86  C   UNL A   1      45.338  29.263  34.972  1.00  0.00     0.173 A 
ATOM     87  C   UNL A   1      43.826  27.680  35.968  1.00  0.00     0.173 A 
ATOM     88  F   UNL A   1      45.591  30.285  34.140  1.00  0.00    -0.203 F 
ATOM     89  C   UNL A   1      46.396  28.685  35.668  1.00  0.00     0.198 A 
ATOM     90  C   UNL A   1      44.881  27.127  36.688  1.00  0.00     0.198 A 
ATOM     91  F   UNL A   1      42.597  27.169  36.130  1.00  0.00    -0.203 F 
ATOM     92  F   UNL A   1      47.642  29.147  35.492  1.00  0.00    -0.200 F 
ATOM     93  C   UNL A   1      46.166  27.624  36.531  1.00  0.00     0.200 A 
ATOM     94  F   UNL A   1      44.654  26.112  37.532  1.00  0.00    -0.200 F 
ATOM     95  F   UNL A   1      47.184  27.076  37.206  1.00  0.00    -0.200 F 
ENDBRANCH  62  85
ENDBRANCH  36  37
ENDBRANCH  28  31
ENDBRANCH  26  27
ENDBRANCH  25  26
ENDBRANCH   1  25
TORSDOF 14
ENDMDL
MODEL 3
REMARK VINA RESULT:     -12.5      2.186      4.057
REMARK SMILES COCC1CCN(C(=O)NC[C@H]2CC[C@H](C(=O)NCCCNC(=O)c3ccc(-c4c5nc(c(-c6c(F)c(F)c(F)c(F)c6F)c6ccc([nH]6)c(-c6c(F)c(F)c(F)c(F)c6F)c6nc(c(-c7c(F)c(F)c(F)c(F)c7F)c7ccc4[nH]7)C=C6)C=C5)cc3)O2)CC1
REMARK SMILES IDX 19 1 18 2 16 3 17 4 15 6 12 7 13 8 88 9 14 10 11 11 10 12
REMARK SMILES IDX 4 13 5 14 90 15 6 16 89 17 7 18 8 19 9 20 3 22 2 23 1 24
REMARK SMILES IDX 20 25 21 26 22 27 23 28 24 30 25 31 26 32 87 33 27 34 86 35
REMARK SMILES IDX 28 36 29 37 30 38 80 39 31 40 85 41 79 42 81 43 32 44 84 45
REMARK SMILES IDX 78 46 77 47 33 49 65 50 45 51 64 52 46 53 49 54 63 55 82 56
REMARK SMILES IDX 47 57 48 58 62 60 83 61 50 62 34 63 35 64 43 65 36 66 37 67
REMARK SMILES IDX 41 68 44 69 38 70 39 71 42 72 40 73 66 74 67 75 75 76 68 77
REMARK SMILES IDX 69 78 73 79 76 80 70 81 71 82 74 83 72 84 51 85 52 86 60 87
REMARK SMILES IDX 53 88 54 89 58 90 61 91 55 92 56 93 59 94 57 95
REMARK H PARENT 18 5 10 21 22 29 81 48 49 59
REMARK Flexibility Score: inf
ROOT
ATOM      1  C   UNL A   1      31.478  30.467  26.242  1.00  0.00     0.117 C 
ENDROOT
BRANCH   1   2
ATOM      2  N   UNL A   1      32.507  30.164  25.271  1.00  0.00    -0.354 N 
ATOM      3  C   UNL A   1      32.582  29.160  24.350  1.00  0.00     0.249 C 
ATOM      4  O   UNL A   1      33.599  29.118  23.651  1.00  0.00    -0.272 OA
ATOM      5  H   UNL A   1      33.274  30.780  25.274  1.00  0.00     0.163 HD
BRANCH   3   6
ATOM      6  C   UNL A   1      31.495  28.069  24.233  1.00  0.00     0.207 C 
ATOM      7  C   UNL A   1      31.465  25.909  23.319  1.00  0.00     0.138 C 
ATOM      8  C   UNL A   1      31.137  26.878  22.199  1.00  0.00     0.037 C 
ATOM      9  O   UNL A   1      31.937  26.720  24.416  1.00  0.00    -0.363 OA
ATOM     10  C   UNL A   1      30.755  28.151  22.905  1.00  0.00     0.045 C 
BRANCH   7  11
ATOM     11  C   UNL A   1      30.353  24.966  23.812  1.00  0.00     0.149 C 
BRANCH  11  12
ATOM     12  N   UNL A   1      30.438  24.659  25.230  1.00  0.00    -0.335 N 
ATOM     13  C   UNL A   1      34.205  21.170  24.658  1.00  0.00     0.018 C 
ATOM     14  C   UNL A   1      34.176  21.812  26.054  1.00  0.00     0.027 C 
ATOM     15  C   UNL A   1      33.308  21.974  23.710  1.00  0.00     0.027 C 
ATOM     16  C   UNL A   1      32.776  22.155  26.568  1.00  0.00     0.121 C 
ATOM     17  C   UNL A   1      31.927  22.217  24.290  1.00  0.00     0.121 C 
ATOM     18  N   UNL A   1      31.990  22.886  25.576  1.00  0.00    -0.325 N 
ATOM     19  C   UNL A   1      31.186  23.890  26.035  1.00  0.00     0.317 C 
ATOM     20  O   UNL A   1      31.089  24.155  27.237  1.00  0.00    -0.249 OA
ATOM     21  H   UNL A   1      29.756  25.151  25.742  1.00  0.00     0.165 HD
BRANCH  13  22
ATOM     22  C   UNL A   1      33.883  19.665  24.629  1.00  0.00     0.163 C 
BRANCH  22  23
ATOM     23  O   UNL A   1      35.035  18.832  24.618  1.00  0.00    -0.384 OA
ATOM     24  C   UNL A   1      34.721  17.461  24.390  1.00  0.00     0.194 C 
ENDBRANCH  22  23
ENDBRANCH  13  22
ENDBRANCH  11  12
ENDBRANCH   7  11
ENDBRANCH   3   6
ENDBRANCH   1   2
BRANCH   1  25
ATOM     25  C   UNL A   1      31.378  31.964  26.504  1.00  0.00     0.042 C 
BRANCH  25  26
ATOM     26  C   UNL A   1      32.598  32.518  27.220  1.00  0.00     0.118 C 
BRANCH  26  27
ATOM     27  N   UNL A   1      32.434  33.931  27.541  1.00  0.00    -0.352 N 
ATOM     28  C   UNL A   1      33.027  34.694  28.512  1.00  0.00     0.251 C 
ATOM     29  H   UNL A   1      31.795  34.414  26.967  1.00  0.00     0.163 HD
ATOM     30  O   UNL A   1      32.560  35.793  28.793  1.00  0.00    -0.269 OA
BRANCH  28  31
ATOM     31  C   UNL A   1      34.220  34.198  29.229  1.00  0.00     0.039 A 
ATOM     32  C   UNL A   1      34.047  33.482  30.417  1.00  0.00     0.014 A 
ATOM     33  C   UNL A   1      35.506  34.465  28.752  1.00  0.00     0.014 A 
ATOM     34  C   UNL A   1      35.161  32.977  31.089  1.00  0.00     0.010 A 
ATOM     35  C   UNL A   1      36.608  33.888  29.373  1.00  0.00     0.010 A 
ATOM     36  C   UNL A   1      36.446  33.143  30.549  1.00  0.00    -0.014 A 
BRANCH  36  37
ATOM     37  C   UNL A   1      37.640  32.544  31.193  1.00  0.00     0.031 A 
ATOM     38  C   UNL A   1      38.373  31.418  30.519  1.00  0.00     0.074 A 
ATOM     39  C   UNL A   1      38.006  32.957  32.421  1.00  0.00     0.049 A 
ATOM     40  N   UNL A   1      39.364  30.691  30.966  1.00  0.00    -0.248 NA
ATOM     41  C   UNL A   1      37.910  31.040  29.174  1.00  0.00     0.031 C 
ATOM     42  C   UNL A   1      37.340  34.010  33.191  1.00  0.00     0.029 A 
ATOM     43  N   UNL A   1      39.015  32.529  33.246  1.00  0.00    -0.354 N 
ATOM     44  C   UNL A   1      39.630  29.762  29.969  1.00  0.00     0.074 A 
ATOM     45  C   UNL A   1      38.664  29.983  28.915  1.00  0.00     0.031 C 
ATOM     46  C   UNL A   1      37.967  34.156  34.369  1.00  0.00     0.029 A 
ATOM     47  C   UNL A   1      39.047  33.179  34.457  1.00  0.00     0.049 A 
ATOM     48  H   UNL A   1      39.655  31.825  32.995  1.00  0.00     0.167 HD
ATOM     49  C   UNL A   1      40.606  28.824  29.930  1.00  0.00     0.037 A 
ATOM     50  C   UNL A   1      39.848  32.992  35.522  1.00  0.00     0.037 A 
ATOM     51  C   UNL A   1      41.577  28.628  30.974  1.00  0.00     0.049 A 
ATOM     52  C   UNL A   1      40.916  31.935  35.457  1.00  0.00     0.074 A 
ATOM     53  C   UNL A   1      42.647  27.752  31.002  1.00  0.00     0.029 A 
ATOM     54  N   UNL A   1      41.591  29.316  32.179  1.00  0.00    -0.354 N 
ATOM     55  N   UNL A   1      41.204  31.109  34.480  1.00  0.00    -0.248 NA
ATOM     56  C   UNL A   1      41.771  31.783  36.642  1.00  0.00     0.031 C 
ATOM     57  C   UNL A   1      43.278  27.874  32.246  1.00  0.00     0.029 A 
ATOM     58  C   UNL A   1      42.635  28.864  32.970  1.00  0.00     0.049 A 
ATOM     59  H   UNL A   1      40.954  30.022  32.433  1.00  0.00     0.167 HD
ATOM     60  C   UNL A   1      42.286  30.360  34.920  1.00  0.00     0.074 A 
ATOM     61  C   UNL A   1      42.615  30.842  36.246  1.00  0.00     0.031 C 
ATOM     62  C   UNL A   1      42.946  29.359  34.287  1.00  0.00     0.037 A 
BRANCH  49  63
ATOM     63  C   UNL A   1      40.672  27.937  28.721  1.00  0.00     0.064 A 
ATOM     64  C   UNL A   1      39.950  26.734  28.649  1.00  0.00     0.173 A 
ATOM     65  C   UNL A   1      41.432  28.312  27.603  1.00  0.00     0.173 A 
ATOM     66  F   UNL A   1      39.217  26.323  29.695  1.00  0.00    -0.203 F 
ATOM     67  C   UNL A   1      40.010  25.930  27.514  1.00  0.00     0.198 A 
ATOM     68  C   UNL A   1      41.464  27.520  26.458  1.00  0.00     0.198 A 
ATOM     69  F   UNL A   1      42.137  29.453  27.616  1.00  0.00    -0.203 F 
ATOM     70  F   UNL A   1      39.351  24.762  27.487  1.00  0.00    -0.200 F 
ATOM     71  C   UNL A   1      40.759  26.326  26.417  1.00  0.00     0.200 A 
ATOM     72  F   UNL A   1      42.178  27.911  25.394  1.00  0.00    -0.200 F 
ATOM     73  F   UNL A   1      40.808  25.555  25.322  1.00  0.00    -0.200 F 
ENDBRANCH  49  63
BRANCH  50  74
ATOM     74  C   UNL A   1      39.676  33.831  36.737  1.00  0.00     0.064 A 
ATOM     75  C   UNL A   1      40.306  35.079  36.845  1.00  0.00     0.173 A 
ATOM     76  C   UNL A   1      38.885  33.405  37.813  1.00  0.00     0.173 A 
ATOM     77  F   UNL A   1      41.088  35.522  35.849  1.00  0.00    -0.203 F 
ATOM     78  C   UNL A   1      40.171  35.857  37.993  1.00  0.00     0.198 A 
ATOM     79  C   UNL A   1      38.725  34.198  38.948  1.00  0.00     0.198 A 
ATOM     80  F   UNL A   1      38.254  32.223  37.758  1.00  0.00    -0.203 F 
ATOM     81  F   UNL A   1      40.822  37.024  38.089  1.00  0.00    -0.200 F 
ATOM     82  C   UNL A   1      39.376  35.419  39.041  1.00  0.00     0.200 A 
ATOM     83  F   UNL A   1      37.941  33.779  39.951  1.00  0.00    -0.200 F 
ATOM     84  F   UNL A   1      39.241  36.170  40.142  1.00  0.00    -0.200 F 
ENDBRANCH  50  74
BRANCH  62  85
ATOM     85  C   UNL A   1      44.106  28.738  35.010  1.00  0.00     0.064 A 
ATOM     86  C   UNL A   1      43.948  27.603  35.818  1.00  0.00     0.173 A 
ATOM     87  C   UNL A   1      45.399  29.265  34.861  1.00  0.00     0.173 A 
ATOM     88  F   UNL A   1      42.729  27.073  36.005  1.00  0.00    -0.203 F 
ATOM     89  C   UNL A   1      45.036  27.034  36.472  1.00  0.00     0.198 A 
ATOM     90  C   UNL A   1      46.490  28.672  35.490  1.00  0.00     0.198 A 
ATOM     91  F   UNL A   1      45.606  30.345  34.094  1.00  0.00    -0.203 F 
ATOM     92  F   UNL A   1      44.852  25.980  37.281  1.00  0.00    -0.200 F 
ATOM     93  C   UNL A   1      46.307  27.562  36.302  1.00  0.00     0.200 A 
ATOM     94  F   UNL A   1      47.719  29.176  35.313  1.00  0.00    -0.200 F 
ATOM     95  F   UNL A   1      47.353  27.008  36.926  1.00  0.00    -0.200 F 
ENDBRANCH  62  85
ENDBRANCH  36  37
ENDBRANCH  28  31
ENDBRANCH  26  27
ENDBRANCH  25  26
ENDBRANCH   1  25
TORSDOF 14
ENDMDL
