MODEL 1
REMARK VINA RESULT:     -12.8      0.000      0.000
REMARK SMILES O=C(Cn1c2ccccc2c(=O)c2ccccc21)N[C@@H](Cc1ccccc1)C(=O)NCCCNC(=O)c1ccc(-c2c3nc(c(-c4c(F)c(F)c(F)c(F)c4F)c4ccc([nH]4)c(-c4c(F)c(F)c(F)c(F)c4F)c4nc(c(-c5c(F)c(F)c(F)c(F)c5F)c5ccc2[nH]5)C=C4)C=C3)cc1
REMARK SMILES IDX 31 1 30 2 28 3 29 4 20 6 19 7 1 8 2 9 3 11 4 12 5 13 18 14
REMARK SMILES IDX 6 15 10 16 13 17 17 18 7 19 9 20 11 21 14 22 16 23 8 24
REMARK SMILES IDX 12 25 15 26 21 27 22 28 23 29 27 30 24 31 26 32 25 33 32 34
REMARK SMILES IDX 33 35 34 36 35 37 36 39 37 40 38 41 99 42 39 43 98 44 40 45
REMARK SMILES IDX 41 46 42 47 92 48 43 49 97 50 91 51 93 52 44 53 96 54 90 55
REMARK SMILES IDX 89 56 45 58 77 59 57 60 76 61 58 62 61 63 75 64 94 65 59 66
REMARK SMILES IDX 60 67 74 69 95 70 62 71 46 72 47 73 55 74 48 75 49 76 53 77
REMARK SMILES IDX 56 78 50 79 51 80 54 81 52 82 78 83 79 84 87 85 80 86 81 87
REMARK SMILES IDX 85 88 88 89 82 90 83 91 86 92 84 93 63 94 64 95 72 96 65 97
REMARK SMILES IDX 66 98 70 99 73 100 67 101 68 102 71 103 69 104
REMARK H PARENT 30 5 19 10 34 38 93 57 61 68
REMARK Flexibility Score: inf
ROOT
ATOM      1  C   UNL A   1      35.659  20.469  24.943  1.00  0.00     0.117 C 
ENDROOT
BRANCH   1   2
ATOM      2  N   UNL A   1      34.430  19.736  25.152  1.00  0.00    -0.354 N 
ATOM      3  C   UNL A   1      33.158  20.192  25.339  1.00  0.00     0.242 C 
ATOM      4  O   UNL A   1      32.258  19.354  25.207  1.00  0.00    -0.273 OA
ATOM      5  H   UNL A   1      34.526  18.756  25.158  1.00  0.00     0.163 HD
BRANCH   3   6
ATOM      6  C   UNL A   1      32.807  21.673  25.642  1.00  0.00     0.175 C 
BRANCH   6   7
ATOM      7  N   UNL A   1      33.715  22.656  25.027  1.00  0.00    -0.342 N 
ATOM      8  O   UNL A   1      34.364  23.584  27.016  1.00  0.00    -0.273 OA
ATOM      9  C   UNL A   1      34.402  23.591  25.785  1.00  0.00     0.240 C 
ATOM     10  H   UNL A   1      33.838  22.650  24.050  1.00  0.00     0.164 HD
BRANCH   9  11
ATOM     11  C   UNL A   1      35.070  24.761  25.037  1.00  0.00     0.222 C 
BRANCH  11  12
ATOM     12  N   UNL A   1      34.136  25.707  24.382  1.00  0.00    -0.331 N 
ATOM     13  C   UNL A   1      33.692  25.442  23.066  1.00  0.00     0.053 A 
ATOM     14  C   UNL A   1      33.648  26.835  25.094  1.00  0.00     0.053 A 
ATOM     15  C   UNL A   1      33.698  24.164  22.486  1.00  0.00     0.027 A 
ATOM     16  C   UNL A   1      33.132  26.480  22.297  1.00  0.00     0.046 A 
ATOM     17  C   UNL A   1      33.035  27.891  24.383  1.00  0.00     0.046 A 
ATOM     18  C   UNL A   1      33.622  26.941  26.493  1.00  0.00     0.027 A 
ATOM     19  C   UNL A   1      33.205  23.943  21.196  1.00  0.00     0.002 A 
ATOM     20  C   UNL A   1      32.660  26.274  20.996  1.00  0.00     0.014 A 
ATOM     21  C   UNL A   1      32.965  27.813  22.908  1.00  0.00     0.197 A 
ATOM     22  C   UNL A   1      32.425  28.981  25.021  1.00  0.00     0.014 A 
ATOM     23  C   UNL A   1      32.993  28.018  27.141  1.00  0.00     0.002 A 
ATOM     24  C   UNL A   1      32.693  24.998  20.450  1.00  0.00     0.001 A 
ATOM     25  O   UNL A   1      32.715  28.792  22.226  1.00  0.00    -0.288 OA
ATOM     26  C   UNL A   1      32.391  29.034  26.408  1.00  0.00     0.001 A 
ENDBRANCH  11  12
ENDBRANCH   9  11
ENDBRANCH   6   7
BRANCH   6  27
ATOM     27  C   UNL A   1      31.300  22.042  25.544  1.00  0.00     0.070 C 
BRANCH  27  28
ATOM     28  C   UNL A   1      30.905  23.458  25.183  1.00  0.00    -0.045 A 
ATOM     29  C   UNL A   1      30.786  24.436  26.184  1.00  0.00     0.004 A 
ATOM     30  C   UNL A   1      30.625  23.820  23.856  1.00  0.00     0.004 A 
ATOM     31  C   UNL A   1      30.315  25.716  25.876  1.00  0.00     0.000 A 
ATOM     32  C   UNL A   1      30.131  25.094  23.555  1.00  0.00     0.000 A 
ATOM     33  C   UNL A   1      29.963  26.036  24.567  1.00  0.00     0.000 A 
ENDBRANCH  27  28
ENDBRANCH   6  27
ENDBRANCH   3   6
ENDBRANCH   1   2
BRANCH   1  34
ATOM     34  C   UNL A   1      36.903  19.600  24.937  1.00  0.00     0.042 C 
BRANCH  34  35
ATOM     35  C   UNL A   1      38.181  20.371  25.226  1.00  0.00     0.118 C 
BRANCH  35  36
ATOM     36  N   UNL A   1      39.306  19.491  25.531  1.00  0.00    -0.352 N 
ATOM     37  C   UNL A   1      40.568  19.689  26.039  1.00  0.00     0.251 C 
ATOM     38  H   UNL A   1      39.119  18.546  25.327  1.00  0.00     0.163 HD
ATOM     39  O   UNL A   1      41.342  18.730  26.014  1.00  0.00    -0.269 OA
BRANCH  37  40
ATOM     40  C   UNL A   1      41.070  20.988  26.576  1.00  0.00     0.039 A 
ATOM     41  C   UNL A   1      41.244  21.252  27.930  1.00  0.00     0.014 A 
ATOM     42  C   UNL A   1      41.463  21.977  25.657  1.00  0.00     0.014 A 
ATOM     43  C   UNL A   1      41.647  22.517  28.365  1.00  0.00     0.010 A 
ATOM     44  C   UNL A   1      41.973  23.213  26.091  1.00  0.00     0.010 A 
ATOM     45  C   UNL A   1      42.032  23.515  27.457  1.00  0.00    -0.014 A 
BRANCH  45  46
ATOM     46  C   UNL A   1      42.507  24.834  27.972  1.00  0.00     0.031 A 
ATOM     47  C   UNL A   1      43.973  25.183  27.996  1.00  0.00     0.074 A 
ATOM     48  C   UNL A   1      41.603  25.760  28.354  1.00  0.00     0.049 A 
ATOM     49  N   UNL A   1      44.549  26.306  28.350  1.00  0.00    -0.248 NA
ATOM     50  C   UNL A   1      44.921  24.139  27.576  1.00  0.00     0.031 C 
ATOM     51  C   UNL A   1      40.154  25.554  28.396  1.00  0.00     0.029 A 
ATOM     52  N   UNL A   1      41.759  27.070  28.739  1.00  0.00    -0.354 N 
ATOM     53  C   UNL A   1      45.915  26.099  28.212  1.00  0.00     0.074 A 
ATOM     54  C   UNL A   1      46.090  24.732  27.772  1.00  0.00     0.031 C 
ATOM     55  C   UNL A   1      39.551  26.715  28.694  1.00  0.00     0.029 A 
ATOM     56  C   UNL A   1      40.570  27.732  28.935  1.00  0.00     0.049 A 
ATOM     57  H   UNL A   1      42.638  27.495  28.862  1.00  0.00     0.167 HD
ATOM     58  C   UNL A   1      46.932  26.969  28.420  1.00  0.00     0.037 A 
ATOM     59  C   UNL A   1      40.319  29.012  29.272  1.00  0.00     0.037 A 
ATOM     60  C   UNL A   1      46.767  28.341  28.827  1.00  0.00     0.049 A 
ATOM     61  C   UNL A   1      41.465  29.952  29.509  1.00  0.00     0.074 A 
ATOM     62  C   UNL A   1      47.742  29.300  29.041  1.00  0.00     0.029 A 
ATOM     63  N   UNL A   1      45.546  28.953  29.069  1.00  0.00    -0.354 N 
ATOM     64  N   UNL A   1      42.750  29.734  29.376  1.00  0.00    -0.248 NA
ATOM     65  C   UNL A   1      41.128  31.310  29.960  1.00  0.00     0.031 C 
ATOM     66  C   UNL A   1      47.116  30.481  29.447  1.00  0.00     0.029 A 
ATOM     67  C   UNL A   1      45.748  30.271  29.446  1.00  0.00     0.049 A 
ATOM     68  H   UNL A   1      44.668  28.516  28.985  1.00  0.00     0.167 HD
ATOM     69  C   UNL A   1      43.374  30.925  29.719  1.00  0.00     0.074 A 
ATOM     70  C   UNL A   1      42.327  31.871  30.044  1.00  0.00     0.031 C 
ATOM     71  C   UNL A   1      44.699  31.204  29.768  1.00  0.00     0.037 A 
BRANCH  58  72
ATOM     72  C   UNL A   1      48.334  26.473  28.211  1.00  0.00     0.064 A 
ATOM     73  C   UNL A   1      48.936  26.489  26.945  1.00  0.00     0.173 A 
ATOM     74  C   UNL A   1      49.109  26.051  29.302  1.00  0.00     0.173 A 
ATOM     75  F   UNL A   1      48.234  26.872  25.868  1.00  0.00    -0.203 F 
ATOM     76  C   UNL A   1      50.259  26.089  26.777  1.00  0.00     0.198 A 
ATOM     77  C   UNL A   1      50.439  25.676  29.135  1.00  0.00     0.198 A 
ATOM     78  F   UNL A   1      48.582  26.024  30.536  1.00  0.00    -0.203 F 
ATOM     79  F   UNL A   1      50.805  26.082  25.553  1.00  0.00    -0.200 F 
ATOM     80  C   UNL A   1      51.012  25.693  27.872  1.00  0.00     0.200 A 
ATOM     81  F   UNL A   1      51.168  25.305  30.196  1.00  0.00    -0.200 F 
ATOM     82  F   UNL A   1      52.289  25.322  27.710  1.00  0.00    -0.200 F 
ENDBRANCH  58  72
BRANCH  59  83
ATOM     83  C   UNL A   1      38.912  29.478  29.393  1.00  0.00     0.064 A 
ATOM     84  C   UNL A   1      38.287  29.558  30.645  1.00  0.00     0.173 A 
ATOM     85  C   UNL A   1      38.175  29.873  28.267  1.00  0.00     0.173 A 
ATOM     86  F   UNL A   1      38.943  29.168  31.747  1.00  0.00    -0.203 F 
ATOM     87  C   UNL A   1      36.977  30.017  30.766  1.00  0.00     0.198 A 
ATOM     88  C   UNL A   1      36.875  30.357  28.392  1.00  0.00     0.198 A 
ATOM     89  F   UNL A   1      38.727  29.813  27.047  1.00  0.00    -0.203 F 
ATOM     90  F   UNL A   1      36.391  30.058  31.971  1.00  0.00    -0.200 F 
ATOM     91  C   UNL A   1      36.276  30.426  29.641  1.00  0.00     0.200 A 
ATOM     92  F   UNL A   1      36.206  30.765  27.305  1.00  0.00    -0.200 F 
ATOM     93  F   UNL A   1      35.021  30.881  29.759  1.00  0.00    -0.200 F 
ENDBRANCH  59  83
BRANCH  71  94
ATOM     94  C   UNL A   1      45.101  32.587  30.183  1.00  0.00     0.064 A 
ATOM     95  C   UNL A   1      45.202  33.627  29.248  1.00  0.00     0.173 A 
ATOM     96  C   UNL A   1      45.318  32.891  31.535  1.00  0.00     0.173 A 
ATOM     97  F   UNL A   1      45.014  33.382  27.943  1.00  0.00    -0.203 F 
ATOM     98  C   UNL A   1      45.518  34.922  29.651  1.00  0.00     0.198 A 
ATOM     99  C   UNL A   1      45.611  34.191  31.937  1.00  0.00     0.198 A 
ATOM    100  F   UNL A   1      45.226  31.931  32.468  1.00  0.00    -0.203 F 
ATOM    101  F   UNL A   1      45.637  35.895  28.738  1.00  0.00    -0.200 F 
ATOM    102  C   UNL A   1      45.714  35.204  30.996  1.00  0.00     0.200 A 
ATOM    103  F   UNL A   1      45.788  34.465  33.237  1.00  0.00    -0.200 F 
ATOM    104  F   UNL A   1      46.005  36.454  31.382  1.00  0.00    -0.200 F 
ENDBRANCH  71  94
ENDBRANCH  45  46
ENDBRANCH  37  40
ENDBRANCH  35  36
ENDBRANCH  34  35
ENDBRANCH   1  34
TORSDOF 15
ENDMDL
MODEL 2
REMARK VINA RESULT:     -12.7      3.951      9.141
REMARK SMILES O=C(Cn1c2ccccc2c(=O)c2ccccc21)N[C@@H](Cc1ccccc1)C(=O)NCCCNC(=O)c1ccc(-c2c3nc(c(-c4c(F)c(F)c(F)c(F)c4F)c4ccc([nH]4)c(-c4c(F)c(F)c(F)c(F)c4F)c4nc(c(-c5c(F)c(F)c(F)c(F)c5F)c5ccc2[nH]5)C=C4)C=C3)cc1
REMARK SMILES IDX 31 1 30 2 28 3 29 4 20 6 19 7 1 8 2 9 3 11 4 12 5 13 18 14
REMARK SMILES IDX 6 15 10 16 13 17 17 18 7 19 9 20 11 21 14 22 16 23 8 24
REMARK SMILES IDX 12 25 15 26 21 27 22 28 23 29 27 30 24 31 26 32 25 33 32 34
REMARK SMILES IDX 33 35 34 36 35 37 36 39 37 40 38 41 99 42 39 43 98 44 40 45
REMARK SMILES IDX 41 46 42 47 92 48 43 49 97 50 91 51 93 52 44 53 96 54 90 55
REMARK SMILES IDX 89 56 45 58 77 59 57 60 76 61 58 62 61 63 75 64 94 65 59 66
REMARK SMILES IDX 60 67 74 69 95 70 62 71 46 72 47 73 55 74 48 75 49 76 53 77
REMARK SMILES IDX 56 78 50 79 51 80 54 81 52 82 78 83 79 84 87 85 80 86 81 87
REMARK SMILES IDX 85 88 88 89 82 90 83 91 86 92 84 93 63 94 64 95 72 96 65 97
REMARK SMILES IDX 66 98 70 99 73 100 67 101 68 102 71 103 69 104
REMARK H PARENT 30 5 19 10 34 38 93 57 61 68
REMARK Flexibility Score: inf
ROOT
ATOM      1  C   UNL A   1      33.724  27.334  24.225  1.00  0.00     0.117 C 
ENDROOT
BRANCH   1   2
ATOM      2  N   UNL A   1      33.232  26.834  22.960  1.00  0.00    -0.354 N 
ATOM      3  C   UNL A   1      32.097  26.134  22.676  1.00  0.00     0.242 C 
ATOM      4  O   UNL A   1      31.779  26.082  21.482  1.00  0.00    -0.273 OA
ATOM      5  H   UNL A   1      33.805  27.031  22.184  1.00  0.00     0.163 HD
BRANCH   3   6
ATOM      6  C   UNL A   1      31.194  25.476  23.753  1.00  0.00     0.175 C 
BRANCH   6   7
ATOM      7  N   UNL A   1      31.851  24.417  24.539  1.00  0.00    -0.342 N 
ATOM      8  O   UNL A   1      31.364  22.748  23.050  1.00  0.00    -0.273 OA
ATOM      9  C   UNL A   1      31.838  23.092  24.134  1.00  0.00     0.240 C 
ATOM     10  H   UNL A   1      32.311  24.656  25.376  1.00  0.00     0.164 HD
BRANCH   9  11
ATOM     11  C   UNL A   1      32.269  22.029  25.163  1.00  0.00     0.222 C 
BRANCH  11  12
ATOM     12  N   UNL A   1      33.522  21.306  24.838  1.00  0.00    -0.331 N 
ATOM     13  C   UNL A   1      33.451  19.971  24.378  1.00  0.00     0.053 A 
ATOM     14  C   UNL A   1      34.773  21.971  24.932  1.00  0.00     0.053 A 
ATOM     15  C   UNL A   1      32.308  19.413  23.785  1.00  0.00     0.027 A 
ATOM     16  C   UNL A   1      34.596  19.155  24.428  1.00  0.00     0.046 A 
ATOM     17  C   UNL A   1      35.963  21.210  24.942  1.00  0.00     0.046 A 
ATOM     18  C   UNL A   1      34.937  23.364  24.900  1.00  0.00     0.027 A 
ATOM     19  C   UNL A   1      32.300  18.099  23.303  1.00  0.00     0.002 A 
ATOM     20  C   UNL A   1      34.592  17.832  23.972  1.00  0.00     0.014 A 
ATOM     21  C   UNL A   1      35.867  19.734  24.906  1.00  0.00     0.197 A 
ATOM     22  C   UNL A   1      37.238  21.793  24.914  1.00  0.00     0.014 A 
ATOM     23  C   UNL A   1      36.210  23.958  24.850  1.00  0.00     0.002 A 
ATOM     24  C   UNL A   1      33.439  17.309  23.402  1.00  0.00     0.001 A 
ATOM     25  O   UNL A   1      36.815  19.023  25.194  1.00  0.00    -0.288 OA
ATOM     26  C   UNL A   1      37.358  23.175  24.851  1.00  0.00     0.001 A 
ENDBRANCH  11  12
ENDBRANCH   9  11
ENDBRANCH   6   7
BRANCH   6  27
ATOM     27  C   UNL A   1      30.325  26.453  24.593  1.00  0.00     0.070 C 
BRANCH  27  28
ATOM     28  C   UNL A   1      29.491  27.500  23.885  1.00  0.00    -0.045 A 
ATOM     29  C   UNL A   1      28.096  27.353  23.799  1.00  0.00     0.004 A 
ATOM     30  C   UNL A   1      30.085  28.618  23.279  1.00  0.00     0.004 A 
ATOM     31  C   UNL A   1      27.331  28.254  23.052  1.00  0.00     0.000 A 
ATOM     32  C   UNL A   1      29.320  29.504  22.513  1.00  0.00     0.000 A 
ATOM     33  C   UNL A   1      27.946  29.313  22.389  1.00  0.00     0.000 A 
ENDBRANCH  27  28
ENDBRANCH   6  27
ENDBRANCH   3   6
ENDBRANCH   1   2
BRANCH   1  34
ATOM     34  C   UNL A   1      33.374  28.787  24.494  1.00  0.00     0.042 C 
BRANCH  34  35
ATOM     35  C   UNL A   1      32.550  28.987  25.755  1.00  0.00     0.118 C 
BRANCH  35  36
ATOM     36  N   UNL A   1      32.388  30.397  26.098  1.00  0.00    -0.352 N 
ATOM     37  C   UNL A   1      33.064  31.268  26.920  1.00  0.00     0.251 C 
ATOM     38  H   UNL A   1      31.626  30.818  25.638  1.00  0.00     0.163 HD
ATOM     39  O   UNL A   1      32.553  32.373  27.111  1.00  0.00    -0.269 OA
BRANCH  37  40
ATOM     40  C   UNL A   1      34.341  30.950  27.621  1.00  0.00     0.039 A 
ATOM     41  C   UNL A   1      34.719  29.666  28.000  1.00  0.00     0.014 A 
ATOM     42  C   UNL A   1      35.254  31.996  27.844  1.00  0.00     0.014 A 
ATOM     43  C   UNL A   1      35.897  29.451  28.720  1.00  0.00     0.010 A 
ATOM     44  C   UNL A   1      36.490  31.764  28.471  1.00  0.00     0.010 A 
ATOM     45  C   UNL A   1      36.810  30.490  28.957  1.00  0.00    -0.014 A 
BRANCH  45  46
ATOM     46  C   UNL A   1      38.081  30.200  29.685  1.00  0.00     0.031 A 
ATOM     47  C   UNL A   1      38.305  30.687  31.094  1.00  0.00     0.074 A 
ATOM     48  C   UNL A   1      39.017  29.423  29.100  1.00  0.00     0.049 A 
ATOM     49  N   UNL A   1      39.323  30.468  31.891  1.00  0.00    -0.248 NA
ATOM     50  C   UNL A   1      37.261  31.534  31.688  1.00  0.00     0.031 C 
ATOM     51  C   UNL A   1      38.938  28.894  27.737  1.00  0.00     0.029 A 
ATOM     52  N   UNL A   1      40.194  28.906  29.585  1.00  0.00    -0.354 N 
ATOM     53  C   UNL A   1      39.049  31.159  33.064  1.00  0.00     0.074 A 
ATOM     54  C   UNL A   1      37.784  31.834  32.868  1.00  0.00     0.031 C 
ATOM     55  C   UNL A   1      39.968  28.060  27.527  1.00  0.00     0.029 A 
ATOM     56  C   UNL A   1      40.820  28.048  28.712  1.00  0.00     0.049 A 
ATOM     57  H   UNL A   1      40.557  29.129  30.472  1.00  0.00     0.167 HD
ATOM     58  C   UNL A   1      39.776  31.218  34.206  1.00  0.00     0.037 A 
ATOM     59  C   UNL A   1      41.951  27.328  28.842  1.00  0.00     0.037 A 
ATOM     60  C   UNL A   1      41.019  30.524  34.422  1.00  0.00     0.049 A 
ATOM     61  C   UNL A   1      42.745  27.422  30.113  1.00  0.00     0.074 A 
ATOM     62  C   UNL A   1      41.813  30.512  35.557  1.00  0.00     0.029 A 
ATOM     63  N   UNL A   1      41.644  29.710  33.490  1.00  0.00    -0.354 N 
ATOM     64  N   UNL A   1      42.469  28.085  31.209  1.00  0.00    -0.248 NA
ATOM     65  C   UNL A   1      44.014  26.683  30.160  1.00  0.00     0.031 C 
ATOM     66  C   UNL A   1      42.935  29.720  35.299  1.00  0.00     0.029 A 
ATOM     67  C   UNL A   1      42.821  29.206  34.019  1.00  0.00     0.049 A 
ATOM     68  H   UNL A   1      41.303  29.519  32.586  1.00  0.00     0.167 HD
ATOM     69  C   UNL A   1      43.524  27.839  32.076  1.00  0.00     0.074 A 
ATOM     70  C   UNL A   1      44.434  26.947  31.389  1.00  0.00     0.031 C 
ATOM     71  C   UNL A   1      43.721  28.320  33.328  1.00  0.00     0.037 A 
BRANCH  58  72
ATOM     72  C   UNL A   1      39.251  32.065  35.329  1.00  0.00     0.064 A 
ATOM     73  C   UNL A   1      38.471  31.517  36.357  1.00  0.00     0.173 A 
ATOM     74  C   UNL A   1      39.597  33.422  35.418  1.00  0.00     0.173 A 
ATOM     75  F   UNL A   1      38.103  30.228  36.312  1.00  0.00    -0.203 F 
ATOM     76  C   UNL A   1      38.048  32.300  37.428  1.00  0.00     0.198 A 
ATOM     77  C   UNL A   1      39.193  34.196  36.503  1.00  0.00     0.198 A 
ATOM     78  F   UNL A   1      40.347  33.993  34.463  1.00  0.00    -0.203 F 
ATOM     79  F   UNL A   1      37.276  31.764  38.384  1.00  0.00    -0.200 F 
ATOM     80  C   UNL A   1      38.416  33.634  37.505  1.00  0.00     0.200 A 
ATOM     81  F   UNL A   1      39.560  35.482  36.581  1.00  0.00    -0.200 F 
ATOM     82  F   UNL A   1      38.018  34.382  38.544  1.00  0.00    -0.200 F 
ENDBRANCH  58  72
BRANCH  59  83
ATOM     83  C   UNL A   1      42.392  26.444  27.731  1.00  0.00     0.064 A 
ATOM     84  C   UNL A   1      41.824  25.175  27.554  1.00  0.00     0.173 A 
ATOM     85  C   UNL A   1      43.369  26.856  26.813  1.00  0.00     0.173 A 
ATOM     86  F   UNL A   1      40.904  24.726  28.420  1.00  0.00    -0.203 F 
ATOM     87  C   UNL A   1      42.217  24.352  26.500  1.00  0.00     0.198 A 
ATOM     88  C   UNL A   1      43.741  26.044  25.745  1.00  0.00     0.198 A 
ATOM     89  F   UNL A   1      43.944  28.061  26.941  1.00  0.00    -0.203 F 
ATOM     90  F   UNL A   1      41.679  23.131  26.368  1.00  0.00    -0.200 F 
ATOM     91  C   UNL A   1      43.167  24.791  25.590  1.00  0.00     0.200 A 
ATOM     92  F   UNL A   1      44.649  26.479  24.860  1.00  0.00    -0.200 F 
ATOM     93  F   UNL A   1      43.534  24.006  24.569  1.00  0.00    -0.200 F 
ENDBRANCH  59  83
BRANCH  71  94
ATOM     94  C   UNL A   1      44.965  27.892  34.045  1.00  0.00     0.064 A 
ATOM     95  C   UNL A   1      44.996  26.719  34.813  1.00  0.00     0.173 A 
ATOM     96  C   UNL A   1      46.155  28.622  33.907  1.00  0.00     0.173 A 
ATOM     97  F   UNL A   1      43.880  25.994  34.983  1.00  0.00    -0.203 F 
ATOM     98  C   UNL A   1      46.172  26.298  35.428  1.00  0.00     0.198 A 
ATOM     99  C   UNL A   1      47.334  28.186  34.505  1.00  0.00     0.198 A 
ATOM    100  F   UNL A   1      46.178  29.747  33.177  1.00  0.00    -0.203 F 
ATOM    101  F   UNL A   1      46.173  25.190  36.180  1.00  0.00    -0.200 F 
ATOM    102  C   UNL A   1      47.341  27.027  35.266  1.00  0.00     0.200 A 
ATOM    103  F   UNL A   1      48.466  28.884  34.338  1.00  0.00    -0.200 F 
ATOM    104  F   UNL A   1      48.476  26.613  35.848  1.00  0.00    -0.200 F 
ENDBRANCH  71  94
ENDBRANCH  45  46
ENDBRANCH  37  40
ENDBRANCH  35  36
ENDBRANCH  34  35
ENDBRANCH   1  34
TORSDOF 15
ENDMDL
MODEL 3
REMARK VINA RESULT:     -12.5      3.520      7.708
REMARK SMILES O=C(Cn1c2ccccc2c(=O)c2ccccc21)N[C@@H](Cc1ccccc1)C(=O)NCCCNC(=O)c1ccc(-c2c3nc(c(-c4c(F)c(F)c(F)c(F)c4F)c4ccc([nH]4)c(-c4c(F)c(F)c(F)c(F)c4F)c4nc(c(-c5c(F)c(F)c(F)c(F)c5F)c5ccc2[nH]5)C=C4)C=C3)cc1
REMARK SMILES IDX 31 1 30 2 28 3 29 4 20 6 19 7 1 8 2 9 3 11 4 12 5 13 18 14
REMARK SMILES IDX 6 15 10 16 13 17 17 18 7 19 9 20 11 21 14 22 16 23 8 24
REMARK SMILES IDX 12 25 15 26 21 27 22 28 23 29 27 30 24 31 26 32 25 33 32 34
REMARK SMILES IDX 33 35 34 36 35 37 36 39 37 40 38 41 99 42 39 43 98 44 40 45
REMARK SMILES IDX 41 46 42 47 92 48 43 49 97 50 91 51 93 52 44 53 96 54 90 55
REMARK SMILES IDX 89 56 45 58 77 59 57 60 76 61 58 62 61 63 75 64 94 65 59 66
REMARK SMILES IDX 60 67 74 69 95 70 62 71 46 72 47 73 55 74 48 75 49 76 53 77
REMARK SMILES IDX 56 78 50 79 51 80 54 81 52 82 78 83 79 84 87 85 80 86 81 87
REMARK SMILES IDX 85 88 88 89 82 90 83 91 86 92 84 93 63 94 64 95 72 96 65 97
REMARK SMILES IDX 66 98 70 99 73 100 67 101 68 102 71 103 69 104
REMARK H PARENT 30 5 19 10 34 38 93 57 61 68
REMARK Flexibility Score: inf
ROOT
ATOM      1  C   UNL A   1      31.910  28.087  26.656  1.00  0.00     0.117 C 
ENDROOT
BRANCH   1   2
ATOM      2  N   UNL A   1      31.350  26.788  26.961  1.00  0.00    -0.354 N 
ATOM      3  C   UNL A   1      31.227  25.681  26.175  1.00  0.00     0.242 C 
ATOM      4  O   UNL A   1      30.976  24.624  26.767  1.00  0.00    -0.273 OA
ATOM      5  H   UNL A   1      31.006  26.688  27.878  1.00  0.00     0.163 HD
BRANCH   3   6
ATOM      6  C   UNL A   1      31.437  25.683  24.638  1.00  0.00     0.175 C 
BRANCH   6   7
ATOM      7  N   UNL A   1      32.404  24.684  24.150  1.00  0.00    -0.342 N 
ATOM      8  O   UNL A   1      34.242  25.799  24.935  1.00  0.00    -0.273 OA
ATOM      9  C   UNL A   1      33.770  24.854  24.301  1.00  0.00     0.240 C 
ATOM     10  H   UNL A   1      32.070  23.872  23.704  1.00  0.00     0.164 HD
BRANCH   9  11
ATOM     11  C   UNL A   1      34.696  23.926  23.491  1.00  0.00     0.222 C 
BRANCH  11  12
ATOM     12  N   UNL A   1      35.177  22.726  24.216  1.00  0.00    -0.331 N 
ATOM     13  C   UNL A   1      36.421  22.774  24.887  1.00  0.00     0.053 A 
ATOM     14  C   UNL A   1      34.367  21.561  24.282  1.00  0.00     0.053 A 
ATOM     15  C   UNL A   1      37.034  23.966  25.303  1.00  0.00     0.027 A 
ATOM     16  C   UNL A   1      37.067  21.575  25.246  1.00  0.00     0.046 A 
ATOM     17  C   UNL A   1      34.947  20.336  24.678  1.00  0.00     0.046 A 
ATOM     18  C   UNL A   1      32.977  21.549  24.091  1.00  0.00     0.027 A 
ATOM     19  C   UNL A   1      38.244  23.961  26.006  1.00  0.00     0.002 A 
ATOM     20  C   UNL A   1      38.289  21.560  25.926  1.00  0.00     0.014 A 
ATOM     21  C   UNL A   1      36.397  20.290  24.964  1.00  0.00     0.197 A 
ATOM     22  C   UNL A   1      34.193  19.170  24.882  1.00  0.00     0.014 A 
ATOM     23  C   UNL A   1      32.210  20.392  24.314  1.00  0.00     0.002 A 
ATOM     24  C   UNL A   1      38.873  22.760  26.311  1.00  0.00     0.001 A 
ATOM     25  O   UNL A   1      37.005  19.235  25.031  1.00  0.00    -0.288 OA
ATOM     26  C   UNL A   1      32.815  19.206  24.713  1.00  0.00     0.001 A 
ENDBRANCH  11  12
ENDBRANCH   9  11
ENDBRANCH   6   7
BRANCH   6  27
ATOM     27  C   UNL A   1      30.146  25.800  23.780  1.00  0.00     0.070 C 
BRANCH  27  28
ATOM     28  C   UNL A   1      29.642  27.170  23.381  1.00  0.00    -0.045 A 
ATOM     29  C   UNL A   1      30.549  28.184  23.031  1.00  0.00     0.004 A 
ATOM     30  C   UNL A   1      28.270  27.469  23.376  1.00  0.00     0.004 A 
ATOM     31  C   UNL A   1      30.101  29.482  22.770  1.00  0.00     0.000 A 
ATOM     32  C   UNL A   1      27.826  28.774  23.138  1.00  0.00     0.000 A 
ATOM     33  C   UNL A   1      28.743  29.782  22.849  1.00  0.00     0.000 A 
ENDBRANCH  27  28
ENDBRANCH   6  27
ENDBRANCH   3   6
ENDBRANCH   1   2
BRANCH   1  34
ATOM     34  C   UNL A   1      33.372  28.235  27.035  1.00  0.00     0.042 C 
BRANCH  34  35
ATOM     35  C   UNL A   1      34.076  29.363  26.300  1.00  0.00     0.118 C 
BRANCH  35  36
ATOM     36  N   UNL A   1      33.927  30.649  26.978  1.00  0.00    -0.352 N 
ATOM     37  C   UNL A   1      34.620  31.293  27.975  1.00  0.00     0.251 C 
ATOM     38  H   UNL A   1      33.160  31.169  26.646  1.00  0.00     0.163 HD
ATOM     39  O   UNL A   1      34.118  32.319  28.437  1.00  0.00    -0.269 OA
BRANCH  37  40
ATOM     40  C   UNL A   1      35.907  30.812  28.556  1.00  0.00     0.039 A 
ATOM     41  C   UNL A   1      37.144  31.388  28.285  1.00  0.00     0.014 A 
ATOM     42  C   UNL A   1      35.862  29.765  29.494  1.00  0.00     0.014 A 
ATOM     43  C   UNL A   1      38.318  30.839  28.807  1.00  0.00     0.010 A 
ATOM     44  C   UNL A   1      37.031  29.282  30.105  1.00  0.00     0.010 A 
ATOM     45  C   UNL A   1      38.284  29.787  29.736  1.00  0.00    -0.014 A 
BRANCH  45  46
ATOM     46  C   UNL A   1      39.563  29.269  30.306  1.00  0.00     0.031 A 
ATOM     47  C   UNL A   1      40.335  28.168  29.625  1.00  0.00     0.074 A 
ATOM     48  C   UNL A   1      40.078  29.849  31.411  1.00  0.00     0.049 A 
ATOM     49  N   UNL A   1      41.494  27.648  29.952  1.00  0.00    -0.248 NA
ATOM     50  C   UNL A   1      39.732  27.564  28.428  1.00  0.00     0.031 C 
ATOM     51  C   UNL A   1      39.433  30.915  32.180  1.00  0.00     0.029 A 
ATOM     52  N   UNL A   1      41.276  29.658  32.056  1.00  0.00    -0.354 N 
ATOM     53  C   UNL A   1      41.746  26.652  29.017  1.00  0.00     0.074 A 
ATOM     54  C   UNL A   1      40.607  26.615  28.125  1.00  0.00     0.031 C 
ATOM     55  C   UNL A   1      40.274  31.344  33.132  1.00  0.00     0.029 A 
ATOM     56  C   UNL A   1      41.491  30.539  33.090  1.00  0.00     0.049 A 
ATOM     57  H   UNL A   1      41.920  28.958  31.804  1.00  0.00     0.167 HD
ATOM     58  C   UNL A   1      42.832  25.850  28.902  1.00  0.00     0.037 A 
ATOM     59  C   UNL A   1      42.545  30.689  33.916  1.00  0.00     0.037 A 
ATOM     60  C   UNL A   1      43.984  25.902  29.763  1.00  0.00     0.049 A 
ATOM     61  C   UNL A   1      43.730  29.777  33.774  1.00  0.00     0.074 A 
ATOM     62  C   UNL A   1      45.138  25.139  29.706  1.00  0.00     0.029 A 
ATOM     63  N   UNL A   1      44.134  26.772  30.833  1.00  0.00    -0.354 N 
ATOM     64  N   UNL A   1      43.947  28.840  32.885  1.00  0.00    -0.248 NA
ATOM     65  C   UNL A   1      44.809  29.932  34.760  1.00  0.00     0.031 C 
ATOM     66  C   UNL A   1      45.971  25.522  30.760  1.00  0.00     0.029 A 
ATOM     67  C   UNL A   1      45.355  26.552  31.450  1.00  0.00     0.049 A 
ATOM     68  H   UNL A   1      43.473  27.446  31.111  1.00  0.00     0.167 HD
ATOM     69  C   UNL A   1      45.185  28.299  33.199  1.00  0.00     0.074 A 
ATOM     70  C   UNL A   1      45.684  29.027  34.346  1.00  0.00     0.031 C 
ATOM     71  C   UNL A   1      45.843  27.281  32.592  1.00  0.00     0.037 A 
BRANCH  58  72
ATOM     72  C   UNL A   1      42.839  24.834  27.796  1.00  0.00     0.064 A 
ATOM     73  C   UNL A   1      43.423  25.110  26.552  1.00  0.00     0.173 A 
ATOM     74  C   UNL A   1      42.326  23.546  28.011  1.00  0.00     0.173 A 
ATOM     75  F   UNL A   1      43.916  26.330  26.292  1.00  0.00    -0.203 F 
ATOM     76  C   UNL A   1      43.482  24.136  25.558  1.00  0.00     0.198 A 
ATOM     77  C   UNL A   1      42.409  22.567  27.025  1.00  0.00     0.198 A 
ATOM     78  F   UNL A   1      41.763  23.230  29.187  1.00  0.00    -0.203 F 
ATOM     79  F   UNL A   1      44.016  24.430  24.365  1.00  0.00    -0.200 F 
ATOM     80  C   UNL A   1      42.985  22.864  25.798  1.00  0.00     0.200 A 
ATOM     81  F   UNL A   1      41.939  21.335  27.263  1.00  0.00    -0.200 F 
ATOM     82  F   UNL A   1      43.056  21.924  24.846  1.00  0.00    -0.200 F 
ENDBRANCH  58  72
BRANCH  59  83
ATOM     83  C   UNL A   1      42.525  31.759  34.947  1.00  0.00     0.064 A 
ATOM     84  C   UNL A   1      42.937  33.063  34.638  1.00  0.00     0.173 A 
ATOM     85  C   UNL A   1      42.073  31.508  36.251  1.00  0.00     0.173 A 
ATOM     86  F   UNL A   1      43.401  33.345  33.412  1.00  0.00    -0.203 F 
ATOM     87  C   UNL A   1      42.897  34.075  35.595  1.00  0.00     0.198 A 
ATOM     88  C   UNL A   1      42.008  32.527  37.199  1.00  0.00     0.198 A 
ATOM     89  F   UNL A   1      41.669  30.278  36.596  1.00  0.00    -0.203 F 
ATOM     90  F   UNL A   1      43.324  35.307  35.283  1.00  0.00    -0.200 F 
ATOM     91  C   UNL A   1      42.423  33.809  36.871  1.00  0.00     0.200 A 
ATOM     92  F   UNL A   1      41.535  32.269  38.425  1.00  0.00    -0.200 F 
ATOM     93  F   UNL A   1      42.371  34.786  37.787  1.00  0.00    -0.200 F 
ENDBRANCH  59  83
BRANCH  71  94
ATOM     94  C   UNL A   1      47.178  26.892  33.149  1.00  0.00     0.064 A 
ATOM     95  C   UNL A   1      47.302  25.865  34.096  1.00  0.00     0.173 A 
ATOM     96  C   UNL A   1      48.352  27.501  32.680  1.00  0.00     0.173 A 
ATOM     97  F   UNL A   1      46.208  25.261  34.582  1.00  0.00    -0.203 F 
ATOM     98  C   UNL A   1      48.553  25.471  34.563  1.00  0.00     0.198 A 
ATOM     99  C   UNL A   1      49.602  27.089  33.133  1.00  0.00     0.198 A 
ATOM    100  F   UNL A   1      48.286  28.484  31.768  1.00  0.00    -0.203 F 
ATOM    101  F   UNL A   1      48.646  24.507  35.489  1.00  0.00    -0.200 F 
ATOM    102  C   UNL A   1      49.701  26.077  34.075  1.00  0.00     0.200 A 
ATOM    103  F   UNL A   1      50.711  27.666  32.651  1.00  0.00    -0.200 F 
ATOM    104  F   UNL A   1      50.905  25.686  34.516  1.00  0.00    -0.200 F 
ENDBRANCH  71  94
ENDBRANCH  45  46
ENDBRANCH  37  40
ENDBRANCH  35  36
ENDBRANCH  34  35
ENDBRANCH   1  34
TORSDOF 15
ENDMDL
