MODEL 1
REMARK VINA RESULT:     -13.2      0.000      0.000
REMARK SMILES O=C(NCCCNC(=O)c1ccccc1/C=N\NC(=S)NCc1ccccc1)c1ccc(-c2c3nc(c(-c4c(F)c(F)c(F)c(F)c4F)c4ccc([nH]4)c(-c4c(F)c(F)c(F)c(F)c4F)c4nc(c(-c5c(F)c(F)c(F)c(F)c5F)c5ccc2[nH]5)C=C4)C=C3)cc1
REMARK SMILES IDX 7 1 8 2 9 3 6 5 5 6 4 7 3 8 1 9 2 10 29 12 30 13 91 14 31 15
REMARK SMILES IDX 90 16 32 17 33 18 34 19 84 20 35 21 89 22 83 23 85 24 36 25
REMARK SMILES IDX 88 26 82 27 81 28 37 30 69 31 49 32 68 33 50 34 53 35 67 36
REMARK SMILES IDX 86 37 51 38 52 39 66 41 87 42 54 43 38 44 39 45 47 46 40 47
REMARK SMILES IDX 41 48 45 49 48 50 42 51 43 52 46 53 44 54 70 55 71 56 79 57
REMARK SMILES IDX 72 58 73 59 77 60 80 61 74 62 75 63 78 64 76 65 55 66 56 67
REMARK SMILES IDX 64 68 57 69 58 70 62 71 65 72 59 73 60 74 63 75 61 76 10 77
REMARK SMILES IDX 11 78 15 79 12 80 14 81 13 82 16 83 17 84 18 85 19 87 20 88
REMARK SMILES IDX 21 89 22 91 23 92 24 93 28 94 25 95 27 96 26 97
REMARK H PARENT 7 4 3 11 85 29 53 40 18 86 21 90
REMARK Flexibility Score: inf
ROOT
ATOM      1  N   UNL A   1      34.268  23.003  22.975  1.00  0.00    -0.352 N 
ATOM      2  C   UNL A   1      33.370  24.045  22.914  1.00  0.00     0.251 C 
ATOM      3  O   UNL A   1      32.222  23.831  22.540  1.00  0.00    -0.269 OA
ATOM      4  H   UNL A   1      33.890  22.139  22.696  1.00  0.00     0.163 HD
ENDROOT
BRANCH   1   5
ATOM      5  C   UNL A   1      35.668  22.930  23.372  1.00  0.00     0.118 C 
BRANCH   5   6
ATOM      6  C   UNL A   1      36.006  21.814  24.350  1.00  0.00     0.042 C 
BRANCH   6   7
ATOM      7  C   UNL A   1      36.863  22.262  25.521  1.00  0.00     0.118 C 
BRANCH   7   8
ATOM      8  N   UNL A   1      37.826  21.241  25.917  1.00  0.00    -0.352 N 
ATOM      9  O   UNL A   1      39.834  20.305  26.270  1.00  0.00    -0.269 OA
ATOM     10  C   UNL A   1      39.149  21.324  26.276  1.00  0.00     0.251 C 
ATOM     11  H   UNL A   1      37.462  20.326  25.927  1.00  0.00     0.163 HD
BRANCH  10  12
ATOM     12  C   UNL A   1      39.760  22.613  26.669  1.00  0.00     0.039 A 
ATOM     13  C   UNL A   1      40.783  22.664  27.612  1.00  0.00     0.014 A 
ATOM     14  C   UNL A   1      39.360  23.790  26.022  1.00  0.00     0.014 A 
ATOM     15  C   UNL A   1      41.282  23.888  28.036  1.00  0.00     0.010 A 
ATOM     16  C   UNL A   1      39.953  25.012  26.362  1.00  0.00     0.010 A 
ATOM     17  C   UNL A   1      40.896  25.076  27.397  1.00  0.00    -0.014 A 
BRANCH  17  18
ATOM     18  C   UNL A   1      41.554  26.347  27.799  1.00  0.00     0.031 A 
ATOM     19  C   UNL A   1      42.961  26.663  27.379  1.00  0.00     0.074 A 
ATOM     20  C   UNL A   1      40.840  27.246  28.507  1.00  0.00     0.049 A 
ATOM     21  N   UNL A   1      43.657  27.753  27.585  1.00  0.00    -0.248 NA
ATOM     22  C   UNL A   1      43.690  25.621  26.641  1.00  0.00     0.031 C 
ATOM     23  C   UNL A   1      39.471  27.041  28.987  1.00  0.00     0.029 A 
ATOM     24  N   UNL A   1      41.146  28.518  28.917  1.00  0.00    -0.354 N 
ATOM     25  C   UNL A   1      44.908  27.520  27.028  1.00  0.00     0.074 A 
ATOM     26  C   UNL A   1      44.886  26.174  26.498  1.00  0.00     0.031 C 
ATOM     27  C   UNL A   1      39.030  28.170  29.559  1.00  0.00     0.029 A 
ATOM     28  C   UNL A   1      40.108  29.151  29.555  1.00  0.00     0.049 A 
ATOM     29  H   UNL A   1      42.025  28.936  28.770  1.00  0.00     0.167 HD
ATOM     30  C   UNL A   1      45.972  28.357  26.961  1.00  0.00     0.037 A 
ATOM     31  C   UNL A   1      40.032  30.385  30.088  1.00  0.00     0.037 A 
ATOM     32  C   UNL A   1      45.977  29.704  27.474  1.00  0.00     0.049 A 
ATOM     33  C   UNL A   1      41.232  31.284  30.008  1.00  0.00     0.074 A 
ATOM     34  C   UNL A   1      46.989  30.646  27.415  1.00  0.00     0.029 A 
ATOM     35  N   UNL A   1      44.919  30.299  28.147  1.00  0.00    -0.354 N 
ATOM     36  N   UNL A   1      42.392  31.066  29.439  1.00  0.00    -0.248 NA
ATOM     37  C   UNL A   1      41.112  32.599  30.649  1.00  0.00     0.031 C 
ATOM     38  C   UNL A   1      46.565  31.790  28.100  1.00  0.00     0.029 A 
ATOM     39  C   UNL A   1      45.264  31.586  28.533  1.00  0.00     0.049 A 
ATOM     40  H   UNL A   1      44.050  29.870  28.326  1.00  0.00     0.167 HD
ATOM     41  C   UNL A   1      43.131  32.224  29.628  1.00  0.00     0.074 A 
ATOM     42  C   UNL A   1      42.279  33.149  30.348  1.00  0.00     0.031 C 
ATOM     43  C   UNL A   1      44.403  32.496  29.243  1.00  0.00     0.037 A 
BRANCH  30  44
ATOM     44  C   UNL A   1      47.233  27.834  26.333  1.00  0.00     0.064 A 
ATOM     45  C   UNL A   1      48.270  27.277  27.097  1.00  0.00     0.173 A 
ATOM     46  C   UNL A   1      47.389  27.855  24.938  1.00  0.00     0.173 A 
ATOM     47  F   UNL A   1      48.178  27.242  28.435  1.00  0.00    -0.203 F 
ATOM     48  C   UNL A   1      49.425  26.790  26.491  1.00  0.00     0.198 A 
ATOM     49  C   UNL A   1      48.532  27.338  24.334  1.00  0.00     0.198 A 
ATOM     50  F   UNL A   1      46.427  28.369  24.157  1.00  0.00    -0.203 F 
ATOM     51  F   UNL A   1      50.423  26.308  27.246  1.00  0.00    -0.200 F 
ATOM     52  C   UNL A   1      49.553  26.813  25.110  1.00  0.00     0.200 A 
ATOM     53  F   UNL A   1      48.647  27.349  22.998  1.00  0.00    -0.200 F 
ATOM     54  F   UNL A   1      50.663  26.337  24.530  1.00  0.00    -0.200 F 
ENDBRANCH  30  44
BRANCH  31  55
ATOM     55  C   UNL A   1      38.772  30.838  30.735  1.00  0.00     0.064 A 
ATOM     56  C   UNL A   1      38.586  30.711  32.118  1.00  0.00     0.173 A 
ATOM     57  C   UNL A   1      37.733  31.410  29.986  1.00  0.00     0.173 A 
ATOM     58  F   UNL A   1      39.543  30.154  32.875  1.00  0.00    -0.203 F 
ATOM     59  C   UNL A   1      37.400  31.121  32.724  1.00  0.00     0.198 A 
ATOM     60  C   UNL A   1      36.563  31.852  30.598  1.00  0.00     0.198 A 
ATOM     61  F   UNL A   1      37.865  31.562  28.660  1.00  0.00    -0.203 F 
ATOM     62  F   UNL A   1      37.229  30.945  34.042  1.00  0.00    -0.200 F 
ATOM     63  C   UNL A   1      36.392  31.697  31.965  1.00  0.00     0.200 A 
ATOM     64  F   UNL A   1      35.601  32.426  29.863  1.00  0.00    -0.200 F 
ATOM     65  F   UNL A   1      35.256  32.099  32.551  1.00  0.00    -0.200 F 
ENDBRANCH  31  55
BRANCH  43  66
ATOM     66  C   UNL A   1      44.929  33.869  29.553  1.00  0.00     0.064 A 
ATOM     67  C   UNL A   1      45.622  34.145  30.741  1.00  0.00     0.173 A 
ATOM     68  C   UNL A   1      44.745  34.919  28.640  1.00  0.00     0.173 A 
ATOM     69  F   UNL A   1      45.808  33.181  31.654  1.00  0.00    -0.203 F 
ATOM     70  C   UNL A   1      46.079  35.431  31.019  1.00  0.00     0.198 A 
ATOM     71  C   UNL A   1      45.234  36.194  28.905  1.00  0.00     0.198 A 
ATOM     72  F   UNL A   1      44.094  34.706  27.485  1.00  0.00    -0.203 F 
ATOM     73  F   UNL A   1      46.683  35.686  32.187  1.00  0.00    -0.200 F 
ATOM     74  C   UNL A   1      45.891  36.451  30.099  1.00  0.00     0.200 A 
ATOM     75  F   UNL A   1      45.064  37.174  28.009  1.00  0.00    -0.200 F 
ATOM     76  F   UNL A   1      46.334  37.687  30.368  1.00  0.00    -0.200 F 
ENDBRANCH  43  66
ENDBRANCH  17  18
ENDBRANCH  10  12
ENDBRANCH   7   8
ENDBRANCH   6   7
ENDBRANCH   5   6
ENDBRANCH   1   5
BRANCH   2  77
ATOM     77  C   UNL A   1      33.692  25.365  23.482  1.00  0.00     0.048 A 
ATOM     78  C   UNL A   1      33.588  26.738  22.309  1.00  0.00     0.014 A 
ATOM     79  C   UNL A   1      33.635  25.724  25.260  1.00  0.00     0.007 A 
ATOM     80  C   UNL A   1      33.503  28.455  22.901  1.00  0.00     0.001 A 
ATOM     81  C   UNL A   1      33.584  27.448  25.876  1.00  0.00     0.010 A 
ATOM     82  C   UNL A   1      33.505  28.798  24.676  1.00  0.00     0.001 A 
BRANCH  79  83
ATOM     83  C   UNL A   1      34.348  24.817  26.112  1.00  0.00     0.142 C 
ATOM     84  N   UNL A   1      33.703  23.816  26.590  1.00  0.00    -0.181 NA
BRANCH  84  85
ATOM     85  N   UNL A   1      32.341  23.787  26.390  1.00  0.00    -0.254 N 
ATOM     86  H   UNL A   1      31.935  24.680  26.303  1.00  0.00     0.193 HD
BRANCH  85  87
ATOM     87  C   UNL A   1      31.441  22.764  26.286  1.00  0.00     0.187 C 
ATOM     88  S   UNL A   1      29.910  23.087  26.923  1.00  0.00    -0.039 S 
BRANCH  87  89
ATOM     89  N   UNL A   1      31.636  21.458  25.763  1.00  0.00    -0.357 N 
ATOM     90  H   UNL A   1      30.924  20.925  26.185  1.00  0.00     0.163 HD
BRANCH  89  91
ATOM     91  C   UNL A   1      32.650  20.089  24.562  1.00  0.00     0.151 C 
BRANCH  91  92
ATOM     92  C   UNL A   1      32.739  18.432  24.397  1.00  0.00    -0.029 A 
ATOM     93  C   UNL A   1      32.617  17.653  25.567  1.00  0.00     0.005 A 
ATOM     94  C   UNL A   1      33.418  17.881  23.286  1.00  0.00     0.005 A 
ATOM     95  C   UNL A   1      33.235  16.405  25.650  1.00  0.00     0.000 A 
ATOM     96  C   UNL A   1      34.033  16.630  23.383  1.00  0.00     0.000 A 
ATOM     97  C   UNL A   1      33.967  15.910  24.572  1.00  0.00     0.000 A 
ENDBRANCH  91  92
ENDBRANCH  89  91
ENDBRANCH  87  89
ENDBRANCH  85  87
ENDBRANCH  84  85
ENDBRANCH  79  83
ENDBRANCH   2  77
TORSDOF 16
ENDMDL
MODEL 2
REMARK VINA RESULT:     -13.2      4.692      9.787
REMARK SMILES O=C(NCCCNC(=O)c1ccccc1/C=N\NC(=S)NCc1ccccc1)c1ccc(-c2c3nc(c(-c4c(F)c(F)c(F)c(F)c4F)c4ccc([nH]4)c(-c4c(F)c(F)c(F)c(F)c4F)c4nc(c(-c5c(F)c(F)c(F)c(F)c5F)c5ccc2[nH]5)C=C4)C=C3)cc1
REMARK SMILES IDX 7 1 8 2 9 3 6 5 5 6 4 7 3 8 1 9 2 10 29 12 30 13 91 14 31 15
REMARK SMILES IDX 90 16 32 17 33 18 34 19 84 20 35 21 89 22 83 23 85 24 36 25
REMARK SMILES IDX 88 26 82 27 81 28 37 30 69 31 49 32 68 33 50 34 53 35 67 36
REMARK SMILES IDX 86 37 51 38 52 39 66 41 87 42 54 43 38 44 39 45 47 46 40 47
REMARK SMILES IDX 41 48 45 49 48 50 42 51 43 52 46 53 44 54 70 55 71 56 79 57
REMARK SMILES IDX 72 58 73 59 77 60 80 61 74 62 75 63 78 64 76 65 55 66 56 67
REMARK SMILES IDX 64 68 57 69 58 70 62 71 65 72 59 73 60 74 63 75 61 76 10 77
REMARK SMILES IDX 11 78 15 79 12 80 14 81 13 82 16 83 17 84 18 85 19 87 20 88
REMARK SMILES IDX 21 89 22 91 23 92 24 93 28 94 25 95 27 96 26 97
REMARK H PARENT 7 4 3 11 85 29 53 40 18 86 21 90
REMARK Flexibility Score: inf
ROOT
ATOM      1  N   UNL A   1      32.062  29.650  26.573  1.00  0.00    -0.352 N 
ATOM      2  C   UNL A   1      32.670  28.447  26.293  1.00  0.00     0.251 C 
ATOM      3  O   UNL A   1      33.293  27.867  27.177  1.00  0.00    -0.269 OA
ATOM      4  H   UNL A   1      32.189  29.952  27.501  1.00  0.00     0.163 HD
ENDROOT
BRANCH   1   5
ATOM      5  C   UNL A   1      31.265  30.563  25.763  1.00  0.00     0.118 C 
BRANCH   5   6
ATOM      6  C   UNL A   1      31.253  32.009  26.241  1.00  0.00     0.042 C 
BRANCH   6   7
ATOM      7  C   UNL A   1      32.510  32.419  26.988  1.00  0.00     0.118 C 
BRANCH   7   8
ATOM      8  N   UNL A   1      32.433  33.790  27.478  1.00  0.00    -0.352 N 
ATOM      9  O   UNL A   1      32.620  35.491  28.928  1.00  0.00    -0.269 OA
ATOM     10  C   UNL A   1      33.069  34.426  28.515  1.00  0.00     0.251 C 
ATOM     11  H   UNL A   1      31.810  34.363  26.975  1.00  0.00     0.163 HD
BRANCH  10  12
ATOM     12  C   UNL A   1      34.283  33.855  29.139  1.00  0.00     0.039 A 
ATOM     13  C   UNL A   1      34.192  32.825  30.073  1.00  0.00     0.014 A 
ATOM     14  C   UNL A   1      35.545  34.298  28.724  1.00  0.00     0.014 A 
ATOM     15  C   UNL A   1      35.332  32.363  30.716  1.00  0.00     0.010 A 
ATOM     16  C   UNL A   1      36.703  33.743  29.283  1.00  0.00     0.010 A 
ATOM     17  C   UNL A   1      36.604  32.793  30.310  1.00  0.00    -0.014 A 
BRANCH  17  18
ATOM     18  C   UNL A   1      37.800  32.174  30.940  1.00  0.00     0.031 A 
ATOM     19  C   UNL A   1      38.210  32.522  32.342  1.00  0.00     0.074 A 
ATOM     20  C   UNL A   1      38.486  31.245  30.244  1.00  0.00     0.049 A 
ATOM     21  N   UNL A   1      39.184  32.023  33.064  1.00  0.00    -0.248 NA
ATOM     22  C   UNL A   1      37.439  33.571  33.025  1.00  0.00     0.031 C 
ATOM     23  C   UNL A   1      38.193  30.839  28.868  1.00  0.00     0.029 A 
ATOM     24  N   UNL A   1      39.543  30.448  30.603  1.00  0.00    -0.354 N 
ATOM     25  C   UNL A   1      39.158  32.712  34.270  1.00  0.00     0.074 A 
ATOM     26  C   UNL A   1      38.089  33.684  34.175  1.00  0.00     0.031 C 
ATOM     27  C   UNL A   1      38.997  29.823  28.525  1.00  0.00     0.029 A 
ATOM     28  C   UNL A   1      39.912  29.556  29.627  1.00  0.00     0.049 A 
ATOM     29  H   UNL A   1      39.995  30.511  31.476  1.00  0.00     0.167 HD
ATOM     30  C   UNL A   1      39.950  32.543  35.357  1.00  0.00     0.037 A 
ATOM     31  C   UNL A   1      40.888  28.629  29.613  1.00  0.00     0.037 A 
ATOM     32  C   UNL A   1      40.998  31.557  35.449  1.00  0.00     0.049 A 
ATOM     33  C   UNL A   1      41.756  28.473  30.829  1.00  0.00     0.074 A 
ATOM     34  C   UNL A   1      41.825  31.276  36.522  1.00  0.00     0.029 A 
ATOM     35  N   UNL A   1      41.368  30.696  34.425  1.00  0.00    -0.354 N 
ATOM     36  N   UNL A   1      41.691  29.100  31.978  1.00  0.00    -0.248 NA
ATOM     37  C   UNL A   1      42.836  27.483  30.742  1.00  0.00     0.031 C 
ATOM     38  C   UNL A   1      42.732  30.284  36.130  1.00  0.00     0.029 A 
ATOM     39  C   UNL A   1      42.429  29.902  34.833  1.00  0.00     0.049 A 
ATOM     40  H   UNL A   1      40.940  30.655  33.539  1.00  0.00     0.167 HD
ATOM     41  C   UNL A   1      42.702  28.564  32.761  1.00  0.00     0.074 A 
ATOM     42  C   UNL A   1      43.352  27.545  31.961  1.00  0.00     0.031 C 
ATOM     43  C   UNL A   1      43.061  28.887  34.028  1.00  0.00     0.037 A 
BRANCH  30  44
ATOM     44  C   UNL A   1      39.733  33.458  36.528  1.00  0.00     0.064 A 
ATOM     45  C   UNL A   1      38.837  33.146  37.561  1.00  0.00     0.173 A 
ATOM     46  C   UNL A   1      40.466  34.651  36.638  1.00  0.00     0.173 A 
ATOM     47  F   UNL A   1      38.103  32.024  37.502  1.00  0.00    -0.203 F 
ATOM     48  C   UNL A   1      38.660  34.006  38.643  1.00  0.00     0.198 A 
ATOM     49  C   UNL A   1      40.310  35.493  37.736  1.00  0.00     0.198 A 
ATOM     50  F   UNL A   1      41.342  34.997  35.683  1.00  0.00    -0.203 F 
ATOM     51  F   UNL A   1      37.761  33.710  39.592  1.00  0.00    -0.200 F 
ATOM     52  C   UNL A   1      39.402  35.174  38.734  1.00  0.00     0.200 A 
ATOM     53  F   UNL A   1      41.038  36.614  37.829  1.00  0.00    -0.200 F 
ATOM     54  F   UNL A   1      39.235  35.996  39.779  1.00  0.00    -0.200 F 
ENDBRANCH  30  44
BRANCH  31  55
ATOM     55  C   UNL A   1      41.086  27.776  28.412  1.00  0.00     0.064 A 
ATOM     56  C   UNL A   1      41.969  28.158  27.394  1.00  0.00     0.173 A 
ATOM     57  C   UNL A   1      40.400  26.562  28.259  1.00  0.00     0.173 A 
ATOM     58  F   UNL A   1      42.636  29.319  27.486  1.00  0.00    -0.203 F 
ATOM     59  C   UNL A   1      42.145  27.368  26.260  1.00  0.00     0.198 A 
ATOM     60  C   UNL A   1      40.602  25.756  27.142  1.00  0.00     0.198 A 
ATOM     61  F   UNL A   1      39.548  26.147  29.209  1.00  0.00    -0.203 F 
ATOM     62  F   UNL A   1      42.961  27.779  25.279  1.00  0.00    -0.200 F 
ATOM     63  C   UNL A   1      41.466  26.164  26.137  1.00  0.00     0.200 A 
ATOM     64  F   UNL A   1      39.959  24.585  27.038  1.00  0.00    -0.200 F 
ATOM     65  F   UNL A   1      41.643  25.401  25.051  1.00  0.00    -0.200 F 
ENDBRANCH  31  55
BRANCH  43  66
ATOM     66  C   UNL A   1      44.180  28.095  34.641  1.00  0.00     0.064 A 
ATOM     67  C   UNL A   1      43.949  26.893  35.325  1.00  0.00     0.173 A 
ATOM     68  C   UNL A   1      45.506  28.543  34.530  1.00  0.00     0.173 A 
ATOM     69  F   UNL A   1      42.699  26.431  35.474  1.00  0.00    -0.203 F 
ATOM     70  C   UNL A   1      44.999  26.187  35.906  1.00  0.00     0.198 A 
ATOM     71  C   UNL A   1      46.557  27.817  35.082  1.00  0.00     0.198 A 
ATOM     72  F   UNL A   1      45.782  29.684  33.880  1.00  0.00    -0.203 F 
ATOM     73  F   UNL A   1      44.747  25.073  36.608  1.00  0.00    -0.200 F 
ATOM     74  C   UNL A   1      46.301  26.645  35.778  1.00  0.00     0.200 A 
ATOM     75  F   UNL A   1      47.815  28.255  34.945  1.00  0.00    -0.200 F 
ATOM     76  F   UNL A   1      47.311  25.964  36.337  1.00  0.00    -0.200 F 
ENDBRANCH  43  66
ENDBRANCH  17  18
ENDBRANCH  10  12
ENDBRANCH   7   8
ENDBRANCH   6   7
ENDBRANCH   5   6
ENDBRANCH   1   5
BRANCH   2  77
ATOM     77  C   UNL A   1      32.422  27.740  25.026  1.00  0.00     0.048 A 
ATOM     78  C   UNL A   1      33.625  28.083  23.720  1.00  0.00     0.014 A 
ATOM     79  C   UNL A   1      31.395  26.248  24.904  1.00  0.00     0.007 A 
ATOM     80  C   UNL A   1      33.753  26.991  22.272  1.00  0.00     0.001 A 
ATOM     81  C   UNL A   1      31.486  25.154  23.438  1.00  0.00     0.010 A 
ATOM     82  C   UNL A   1      32.683  25.540  22.140  1.00  0.00     0.001 A 
BRANCH  79  83
ATOM     83  C   UNL A   1      30.093  26.326  25.499  1.00  0.00     0.142 C 
ATOM     84  N   UNL A   1      29.808  25.482  26.425  1.00  0.00    -0.181 NA
BRANCH  84  85
ATOM     85  N   UNL A   1      30.708  24.465  26.651  1.00  0.00    -0.254 N 
ATOM     86  H   UNL A   1      31.635  24.775  26.766  1.00  0.00     0.193 HD
BRANCH  85  87
ATOM     87  C   UNL A   1      30.568  23.109  26.751  1.00  0.00     0.187 C 
ATOM     88  S   UNL A   1      29.089  22.584  27.376  1.00  0.00    -0.039 S 
BRANCH  87  89
ATOM     89  N   UNL A   1      31.512  22.093  26.448  1.00  0.00    -0.357 N 
ATOM     90  H   UNL A   1      31.031  21.256  26.641  1.00  0.00     0.163 HD
BRANCH  89  91
ATOM     91  C   UNL A   1      33.391  21.460  25.805  1.00  0.00     0.151 C 
BRANCH  91  92
ATOM     92  C   UNL A   1      34.794  22.161  25.238  1.00  0.00    -0.029 A 
ATOM     93  C   UNL A   1      34.672  23.341  24.476  1.00  0.00     0.005 A 
ATOM     94  C   UNL A   1      35.948  21.361  25.065  1.00  0.00     0.005 A 
ATOM     95  C   UNL A   1      35.626  23.658  23.509  1.00  0.00     0.000 A 
ATOM     96  C   UNL A   1      36.896  21.689  24.093  1.00  0.00     0.000 A 
ATOM     97  C   UNL A   1      36.717  22.818  23.297  1.00  0.00     0.000 A 
ENDBRANCH  91  92
ENDBRANCH  89  91
ENDBRANCH  87  89
ENDBRANCH  85  87
ENDBRANCH  84  85
ENDBRANCH  79  83
ENDBRANCH   2  77
TORSDOF 16
ENDMDL
MODEL 3
REMARK VINA RESULT:     -13.1      4.956     10.035
REMARK SMILES O=C(NCCCNC(=O)c1ccccc1/C=N\NC(=S)NCc1ccccc1)c1ccc(-c2c3nc(c(-c4c(F)c(F)c(F)c(F)c4F)c4ccc([nH]4)c(-c4c(F)c(F)c(F)c(F)c4F)c4nc(c(-c5c(F)c(F)c(F)c(F)c5F)c5ccc2[nH]5)C=C4)C=C3)cc1
REMARK SMILES IDX 7 1 8 2 9 3 6 5 5 6 4 7 3 8 1 9 2 10 29 12 30 13 91 14 31 15
REMARK SMILES IDX 90 16 32 17 33 18 34 19 84 20 35 21 89 22 83 23 85 24 36 25
REMARK SMILES IDX 88 26 82 27 81 28 37 30 69 31 49 32 68 33 50 34 53 35 67 36
REMARK SMILES IDX 86 37 51 38 52 39 66 41 87 42 54 43 38 44 39 45 47 46 40 47
REMARK SMILES IDX 41 48 45 49 48 50 42 51 43 52 46 53 44 54 70 55 71 56 79 57
REMARK SMILES IDX 72 58 73 59 77 60 80 61 74 62 75 63 78 64 76 65 55 66 56 67
REMARK SMILES IDX 64 68 57 69 58 70 62 71 65 72 59 73 60 74 63 75 61 76 10 77
REMARK SMILES IDX 11 78 15 79 12 80 14 81 13 82 16 83 17 84 18 85 19 87 20 88
REMARK SMILES IDX 21 89 22 91 23 92 24 93 28 94 25 95 27 96 26 97
REMARK H PARENT 7 4 3 11 85 29 53 40 18 86 21 90
REMARK Flexibility Score: inf
ROOT
ATOM      1  N   UNL A   1      32.514  30.053  25.662  1.00  0.00    -0.352 N 
ATOM      2  C   UNL A   1      31.999  29.556  24.486  1.00  0.00     0.251 C 
ATOM      3  O   UNL A   1      32.765  29.191  23.599  1.00  0.00    -0.269 OA
ATOM      4  H   UNL A   1      33.497  30.075  25.686  1.00  0.00     0.163 HD
ENDROOT
BRANCH   1   5
ATOM      5  C   UNL A   1      31.887  30.552  26.879  1.00  0.00     0.118 C 
BRANCH   5   6
ATOM      6  C   UNL A   1      31.555  32.038  26.873  1.00  0.00     0.042 C 
BRANCH   6   7
ATOM      7  C   UNL A   1      32.776  32.940  26.833  1.00  0.00     0.118 C 
BRANCH   7   8
ATOM      8  N   UNL A   1      32.565  34.182  27.568  1.00  0.00    -0.352 N 
ATOM      9  O   UNL A   1      32.522  35.572  29.328  1.00  0.00    -0.269 OA
ATOM     10  C   UNL A   1      33.077  34.636  28.758  1.00  0.00     0.251 C 
ATOM     11  H   UNL A   1      31.941  34.806  27.132  1.00  0.00     0.163 HD
BRANCH  10  12
ATOM     12  C   UNL A   1      34.279  34.022  29.363  1.00  0.00     0.039 A 
ATOM     13  C   UNL A   1      34.170  32.952  30.248  1.00  0.00     0.014 A 
ATOM     14  C   UNL A   1      35.549  34.469  28.976  1.00  0.00     0.014 A 
ATOM     15  C   UNL A   1      35.300  32.448  30.876  1.00  0.00     0.010 A 
ATOM     16  C   UNL A   1      36.696  33.875  29.517  1.00  0.00     0.010 A 
ATOM     17  C   UNL A   1      36.580  32.881  30.498  1.00  0.00    -0.014 A 
BRANCH  17  18
ATOM     18  C   UNL A   1      37.765  32.220  31.106  1.00  0.00     0.031 A 
ATOM     19  C   UNL A   1      38.183  32.516  32.518  1.00  0.00     0.074 A 
ATOM     20  C   UNL A   1      38.432  31.299  30.382  1.00  0.00     0.049 A 
ATOM     21  N   UNL A   1      39.147  31.977  33.222  1.00  0.00    -0.248 NA
ATOM     22  C   UNL A   1      37.433  33.558  33.235  1.00  0.00     0.031 C 
ATOM     23  C   UNL A   1      38.128  30.942  28.993  1.00  0.00     0.029 A 
ATOM     24  N   UNL A   1      39.474  30.472  30.714  1.00  0.00    -0.354 N 
ATOM     25  C   UNL A   1      39.137  32.628  34.449  1.00  0.00     0.074 A 
ATOM     26  C   UNL A   1      38.087  33.623  34.386  1.00  0.00     0.031 C 
ATOM     27  C   UNL A   1      38.912  29.921  28.618  1.00  0.00     0.029 A 
ATOM     28  C   UNL A   1      39.824  29.603  29.710  1.00  0.00     0.049 A 
ATOM     29  H   UNL A   1      39.927  30.499  31.587  1.00  0.00     0.167 HD
ATOM     30  C   UNL A   1      39.926  32.410  35.529  1.00  0.00     0.037 A 
ATOM     31  C   UNL A   1      40.781  28.658  29.666  1.00  0.00     0.037 A 
ATOM     32  C   UNL A   1      40.956  31.402  35.589  1.00  0.00     0.049 A 
ATOM     33  C   UNL A   1      41.648  28.448  30.874  1.00  0.00     0.074 A 
ATOM     34  C   UNL A   1      41.778  31.071  36.651  1.00  0.00     0.029 A 
ATOM     35  N   UNL A   1      41.307  30.565  34.538  1.00  0.00    -0.354 N 
ATOM     36  N   UNL A   1      41.596  29.040  32.042  1.00  0.00    -0.248 NA
ATOM     37  C   UNL A   1      42.708  27.440  30.755  1.00  0.00     0.031 C 
ATOM     38  C   UNL A   1      42.665  30.075  36.227  1.00  0.00     0.029 A 
ATOM     39  C   UNL A   1      42.354  29.739  34.920  1.00  0.00     0.049 A 
ATOM     40  H   UNL A   1      40.878  30.560  33.652  1.00  0.00     0.167 HD
ATOM     41  C   UNL A   1      42.597  28.460  32.807  1.00  0.00     0.074 A 
ATOM     42  C   UNL A   1      43.226  27.454  31.975  1.00  0.00     0.031 C 
ATOM     43  C   UNL A   1      42.964  28.738  34.083  1.00  0.00     0.037 A 
BRANCH  30  44
ATOM     44  C   UNL A   1      39.729  33.293  36.728  1.00  0.00     0.064 A 
ATOM     45  C   UNL A   1      40.450  34.484  36.901  1.00  0.00     0.173 A 
ATOM     46  C   UNL A   1      38.774  32.960  37.701  1.00  0.00     0.173 A 
ATOM     47  F   UNL A   1      41.384  34.845  36.008  1.00  0.00    -0.203 F 
ATOM     48  C   UNL A   1      40.243  35.292  38.017  1.00  0.00     0.198 A 
ATOM     49  C   UNL A   1      38.547  33.787  38.799  1.00  0.00     0.198 A 
ATOM     50  F   UNL A   1      38.051  31.836  37.584  1.00  0.00    -0.203 F 
ATOM     51  F   UNL A   1      40.979  36.400  38.186  1.00  0.00    -0.200 F 
ATOM     52  C   UNL A   1      39.287  34.947  38.961  1.00  0.00     0.200 A 
ATOM     53  F   UNL A   1      37.613  33.458  39.703  1.00  0.00    -0.200 F 
ATOM     54  F   UNL A   1      39.085  35.730  40.030  1.00  0.00    -0.200 F 
ENDBRANCH  30  44
BRANCH  31  55
ATOM     55  C   UNL A   1      40.961  27.839  28.438  1.00  0.00     0.064 A 
ATOM     56  C   UNL A   1      41.773  28.284  27.387  1.00  0.00     0.173 A 
ATOM     57  C   UNL A   1      40.328  26.595  28.293  1.00  0.00     0.173 A 
ATOM     58  F   UNL A   1      42.386  29.474  27.471  1.00  0.00    -0.203 F 
ATOM     59  C   UNL A   1      41.931  27.524  26.229  1.00  0.00     0.198 A 
ATOM     60  C   UNL A   1      40.515  25.821  27.150  1.00  0.00     0.198 A 
ATOM     61  F   UNL A   1      39.546  26.120  29.273  1.00  0.00    -0.203 F 
ATOM     62  F   UNL A   1      42.676  27.994  25.219  1.00  0.00    -0.200 F 
ATOM     63  C   UNL A   1      41.307  26.291  26.114  1.00  0.00     0.200 A 
ATOM     64  F   UNL A   1      39.925  24.622  27.052  1.00  0.00    -0.200 F 
ATOM     65  F   UNL A   1      41.466  25.559  25.004  1.00  0.00    -0.200 F 
ENDBRANCH  31  55
BRANCH  43  66
ATOM     66  C   UNL A   1      44.069  27.905  34.669  1.00  0.00     0.064 A 
ATOM     67  C   UNL A   1      45.404  28.334  34.658  1.00  0.00     0.173 A 
ATOM     68  C   UNL A   1      43.781  26.666  35.261  1.00  0.00     0.173 A 
ATOM     69  F   UNL A   1      45.734  29.502  34.088  1.00  0.00    -0.203 F 
ATOM     70  C   UNL A   1      46.416  27.534  35.185  1.00  0.00     0.198 A 
ATOM     71  C   UNL A   1      44.789  25.886  35.819  1.00  0.00     0.198 A 
ATOM     72  F   UNL A   1      42.518  26.213  35.303  1.00  0.00    -0.203 F 
ATOM     73  F   UNL A   1      47.692  27.936  35.107  1.00  0.00    -0.200 F 
ATOM     74  C   UNL A   1      46.107  26.316  35.771  1.00  0.00     0.200 A 
ATOM     75  F   UNL A   1      44.487  24.716  36.396  1.00  0.00    -0.200 F 
ATOM     76  F   UNL A   1      47.081  25.550  36.279  1.00  0.00    -0.200 F 
ENDBRANCH  43  66
ENDBRANCH  17  18
ENDBRANCH  10  12
ENDBRANCH   7   8
ENDBRANCH   6   7
ENDBRANCH   5   6
ENDBRANCH   1   5
BRANCH   2  77
ATOM     77  C   UNL A   1      30.565  29.258  24.344  1.00  0.00     0.048 A 
ATOM     78  C   UNL A   1      29.550  30.660  23.819  1.00  0.00     0.014 A 
ATOM     79  C   UNL A   1      29.914  27.576  24.137  1.00  0.00     0.007 A 
ATOM     80  C   UNL A   1      27.875  30.393  23.163  1.00  0.00     0.001 A 
ATOM     81  C   UNL A   1      28.217  27.290  23.509  1.00  0.00     0.010 A 
ATOM     82  C   UNL A   1      27.220  28.715  23.016  1.00  0.00     0.001 A 
BRANCH  79  83
ATOM     83  C   UNL A   1      30.359  26.603  25.091  1.00  0.00     0.142 C 
ATOM     84  N   UNL A   1      31.425  25.942  24.815  1.00  0.00    -0.181 NA
BRANCH  84  85
ATOM     85  N   UNL A   1      31.955  26.095  23.553  1.00  0.00    -0.254 N 
ATOM     86  H   UNL A   1      32.027  27.034  23.266  1.00  0.00     0.193 HD
BRANCH  85  87
ATOM     87  C   UNL A   1      32.404  25.201  22.622  1.00  0.00     0.187 C 
ATOM     88  S   UNL A   1      32.466  25.785  21.038  1.00  0.00    -0.039 S 
BRANCH  87  89
ATOM     89  N   UNL A   1      32.774  23.842  22.801  1.00  0.00    -0.357 N 
ATOM     90  H   UNL A   1      32.145  23.347  22.228  1.00  0.00     0.163 HD
BRANCH  89  91
ATOM     91  C   UNL A   1      33.963  22.355  23.649  1.00  0.00     0.151 C 
BRANCH  91  92
ATOM     92  C   UNL A   1      35.217  22.262  24.745  1.00  0.00    -0.029 A 
ATOM     93  C   UNL A   1      35.622  23.457  25.375  1.00  0.00     0.005 A 
ATOM     94  C   UNL A   1      36.148  21.202  24.646  1.00  0.00     0.005 A 
ATOM     95  C   UNL A   1      36.939  23.616  25.806  1.00  0.00     0.000 A 
ATOM     96  C   UNL A   1      37.464  21.374  25.081  1.00  0.00     0.000 A 
ATOM     97  C   UNL A   1      37.864  22.590  25.630  1.00  0.00     0.000 A 
ENDBRANCH  91  92
ENDBRANCH  89  91
ENDBRANCH  87  89
ENDBRANCH  85  87
ENDBRANCH  84  85
ENDBRANCH  79  83
ENDBRANCH   2  77
TORSDOF 16
ENDMDL
