MODEL 1
REMARK VINA RESULT:     -12.0      0.000      0.000
REMARK SMILES C[NH2+]C[C@H](C)C(=O)N1CC[C@@](C(=O)NCCCNC(=O)c2ccc(-c3c4nc(c(-c5c(F)c(F)c(F)c(F)c5F)c5ccc([nH]5)c(-c5c(F)c(F)c(F)c(F)c5F)c5nc(c(-c6c(F)c(F)c(F)c(F)c6F)c6ccc3[nH]6)C=C5)C=C4)cc2)(C(F)(F)F)C1
REMARK SMILES IDX 15 1 14 2 12 3 13 4 11 6 8 7 9 8 88 9 10 10 6 11 7 12 4 13
REMARK SMILES IDX 5 14 3 15 2 16 1 17 84 20 85 21 86 22 87 23 16 24 17 25
REMARK SMILES IDX 18 26 19 27 20 29 21 30 22 31 83 32 23 33 82 34 24 35 25 36
REMARK SMILES IDX 26 37 76 38 27 39 81 40 75 41 77 42 28 43 80 44 74 45 73 46
REMARK SMILES IDX 29 48 61 49 41 50 60 51 42 52 45 53 59 54 78 55 43 56 44 57
REMARK SMILES IDX 58 59 79 60 46 61 30 62 31 63 39 64 32 65 33 66 37 67 40 68
REMARK SMILES IDX 34 69 35 70 38 71 36 72 62 73 63 74 71 75 64 76 65 77 69 78
REMARK SMILES IDX 72 79 66 80 67 81 70 82 68 83 47 84 48 85 56 86 49 87 50 88
REMARK SMILES IDX 54 89 57 90 51 91 52 92 55 93 53 94
REMARK H PARENT 14 5 2 18 2 19 18 28 77 47 45 58
REMARK Flexibility Score: inf
ROOT
ATOM      1  C   UNL A   1      31.588  30.657  26.126  1.00  0.00     0.117 C 
ENDROOT
BRANCH   1   2
ATOM      2  N   UNL A   1      31.590  29.680  27.198  1.00  0.00    -0.355 N 
ATOM      3  C   UNL A   1      31.632  28.317  27.190  1.00  0.00     0.237 C 
ATOM      4  O   UNL A   1      31.647  27.796  28.308  1.00  0.00    -0.274 OA
ATOM      5  H   UNL A   1      31.555  30.074  28.100  1.00  0.00     0.163 HD
BRANCH   3   6
ATOM      6  C   UNL A   1      31.616  27.482  25.912  1.00  0.00     0.163 C 
ATOM      7  N   UNL A   1      30.330  27.602  23.880  1.00  0.00    -0.341 N 
ATOM      8  C   UNL A   1      30.054  26.309  24.469  1.00  0.00     0.121 C 
ATOM      9  C   UNL A   1      31.370  28.304  24.643  1.00  0.00     0.146 C 
ATOM     10  C   UNL A   1      30.502  26.420  25.918  1.00  0.00     0.050 C 
BRANCH   7  11
ATOM     11  C   UNL A   1      29.879  28.144  22.694  1.00  0.00     0.231 C 
ATOM     12  O   UNL A   1      30.511  27.904  21.655  1.00  0.00    -0.274 OA
BRANCH  11  13
ATOM     13  C   UNL A   1      28.689  29.117  22.593  1.00  0.00     0.130 C 
ATOM     14  C   UNL A   1      27.316  28.729  23.133  1.00  0.00     0.024 C 
BRANCH  13  15
ATOM     15  C   UNL A   1      29.101  30.565  22.937  1.00  0.00     0.273 C 
BRANCH  15  16
ATOM     16  N   UNL A   1      29.406  31.454  21.820  1.00  0.00    -0.348 N 
ATOM     17  C   UNL A   1      28.230  32.120  21.303  1.00  0.00     0.330 C 
ATOM     18  H   UNL A   1      30.070  32.161  22.136  1.00  0.00     0.346 HD
ATOM     19  H   UNL A   1      29.795  30.884  21.068  1.00  0.00     0.346 HD
ENDBRANCH  15  16
ENDBRANCH  13  15
ENDBRANCH  11  13
ENDBRANCH   7  11
BRANCH   6  20
ATOM     20  C   UNL A   1      32.978  26.815  25.785  1.00  0.00     0.404 C 
ATOM     21  F   UNL A   1      32.964  25.592  26.377  1.00  0.00    -0.170 F 
ATOM     22  F   UNL A   1      33.341  26.615  24.500  1.00  0.00    -0.170 F 
ATOM     23  F   UNL A   1      33.955  27.515  26.404  1.00  0.00    -0.170 F 
ENDBRANCH   6  20
ENDBRANCH   3   6
ENDBRANCH   1   2
BRANCH   1  24
ATOM     24  C   UNL A   1      31.433  32.083  26.643  1.00  0.00     0.042 C 
BRANCH  24  25
ATOM     25  C   UNL A   1      32.737  32.724  27.095  1.00  0.00     0.118 C 
BRANCH  25  26
ATOM     26  N   UNL A   1      32.543  34.072  27.620  1.00  0.00    -0.352 N 
ATOM     27  C   UNL A   1      33.115  34.759  28.665  1.00  0.00     0.251 C 
ATOM     28  H   UNL A   1      31.869  34.594  27.128  1.00  0.00     0.163 HD
ATOM     29  O   UNL A   1      32.612  35.827  29.008  1.00  0.00    -0.269 OA
BRANCH  27  30
ATOM     30  C   UNL A   1      34.298  34.249  29.401  1.00  0.00     0.039 A 
ATOM     31  C   UNL A   1      34.101  33.526  30.585  1.00  0.00     0.014 A 
ATOM     32  C   UNL A   1      35.599  34.523  28.987  1.00  0.00     0.014 A 
ATOM     33  C   UNL A   1      35.196  33.023  31.299  1.00  0.00     0.010 A 
ATOM     34  C   UNL A   1      36.680  33.922  29.625  1.00  0.00     0.010 A 
ATOM     35  C   UNL A   1      36.497  33.176  30.797  1.00  0.00    -0.014 A 
BRANCH  35  36
ATOM     36  C   UNL A   1      37.688  32.604  31.480  1.00  0.00     0.031 A 
ATOM     37  C   UNL A   1      38.424  31.444  30.859  1.00  0.00     0.074 A 
ATOM     38  C   UNL A   1      38.047  33.049  32.701  1.00  0.00     0.049 A 
ATOM     39  N   UNL A   1      39.367  30.688  31.366  1.00  0.00    -0.248 NA
ATOM     40  C   UNL A   1      38.015  31.054  29.500  1.00  0.00     0.031 C 
ATOM     41  C   UNL A   1      37.394  34.136  33.432  1.00  0.00     0.029 A 
ATOM     42  N   UNL A   1      39.037  32.625  33.554  1.00  0.00    -0.354 N 
ATOM     43  C   UNL A   1      39.631  29.718  30.406  1.00  0.00     0.074 A 
ATOM     44  C   UNL A   1      38.713  29.945  29.312  1.00  0.00     0.031 C 
ATOM     45  C   UNL A   1      38.011  34.306  34.613  1.00  0.00     0.029 A 
ATOM     46  C   UNL A   1      39.067  33.307  34.747  1.00  0.00     0.049 A 
ATOM     47  H   UNL A   1      39.666  31.900  33.332  1.00  0.00     0.167 HD
ATOM     48  C   UNL A   1      40.571  28.743  30.424  1.00  0.00     0.037 A 
ATOM     49  C   UNL A   1      39.845  33.135  35.833  1.00  0.00     0.037 A 
ATOM     50  C   UNL A   1      41.514  28.553  31.493  1.00  0.00     0.049 A 
ATOM     51  C   UNL A   1      40.884  32.047  35.827  1.00  0.00     0.074 A 
ATOM     52  C   UNL A   1      42.553  27.642  31.576  1.00  0.00     0.029 A 
ATOM     53  N   UNL A   1      41.536  29.291  32.667  1.00  0.00    -0.354 N 
ATOM     54  N   UNL A   1      41.163  31.173  34.890  1.00  0.00    -0.248 NA
ATOM     55  C   UNL A   1      41.723  31.924  37.028  1.00  0.00     0.031 C 
ATOM     56  C   UNL A   1      43.170  27.795  32.821  1.00  0.00     0.029 A 
ATOM     57  C   UNL A   1      42.556  28.842  33.489  1.00  0.00     0.049 A 
ATOM     58  H   UNL A   1      40.918  30.027  32.884  1.00  0.00     0.167 HD
ATOM     59  C   UNL A   1      42.226  30.421  35.373  1.00  0.00     0.074 A 
ATOM     60  C   UNL A   1      42.550  30.947  36.682  1.00  0.00     0.031 C 
ATOM     61  C   UNL A   1      42.877  29.389  34.783  1.00  0.00     0.037 A 
BRANCH  48  62
ATOM     62  C   UNL A   1      40.631  27.808  29.248  1.00  0.00     0.064 A 
ATOM     63  C   UNL A   1      39.775  26.702  29.138  1.00  0.00     0.173 A 
ATOM     64  C   UNL A   1      41.532  28.043  28.198  1.00  0.00     0.173 A 
ATOM     65  F   UNL A   1      38.901  26.425  30.118  1.00  0.00    -0.203 F 
ATOM     66  C   UNL A   1      39.843  25.848  28.040  1.00  0.00     0.198 A 
ATOM     67  C   UNL A   1      41.573  27.208  27.085  1.00  0.00     0.198 A 
ATOM     68  F   UNL A   1      42.370  29.090  28.247  1.00  0.00    -0.203 F 
ATOM     69  F   UNL A   1      39.053  24.766  27.987  1.00  0.00    -0.200 F 
ATOM     70  C   UNL A   1      40.735  26.105  27.011  1.00  0.00     0.200 A 
ATOM     71  F   UNL A   1      42.426  27.467  26.084  1.00  0.00    -0.200 F 
ATOM     72  F   UNL A   1      40.793  25.287  25.952  1.00  0.00    -0.200 F 
ENDBRANCH  48  62
BRANCH  49  73
ATOM     73  C   UNL A   1      39.681  34.027  37.012  1.00  0.00     0.064 A 
ATOM     74  C   UNL A   1      40.334  35.265  37.072  1.00  0.00     0.173 A 
ATOM     75  C   UNL A   1      38.876  33.663  38.102  1.00  0.00     0.173 A 
ATOM     76  F   UNL A   1      41.131  35.651  36.065  1.00  0.00    -0.203 F 
ATOM     77  C   UNL A   1      40.207  36.095  38.185  1.00  0.00     0.198 A 
ATOM     78  C   UNL A   1      38.724  34.506  39.200  1.00  0.00     0.198 A 
ATOM     79  F   UNL A   1      38.223  32.490  38.094  1.00  0.00    -0.203 F 
ATOM     80  F   UNL A   1      40.882  37.251  38.237  1.00  0.00    -0.200 F 
ATOM     81  C   UNL A   1      39.397  35.718  39.245  1.00  0.00     0.200 A 
ATOM     82  F   UNL A   1      37.928  34.145  40.215  1.00  0.00    -0.200 F 
ATOM     83  F   UNL A   1      39.272  36.518  40.313  1.00  0.00    -0.200 F 
ENDBRANCH  49  73
BRANCH  61  84
ATOM     84  C   UNL A   1      44.037  28.789  35.520  1.00  0.00     0.064 A 
ATOM     85  C   UNL A   1      45.346  29.266  35.355  1.00  0.00     0.173 A 
ATOM     86  C   UNL A   1      43.825  27.760  36.452  1.00  0.00     0.173 A 
ATOM     87  F   UNL A   1      45.602  30.238  34.467  1.00  0.00    -0.203 F 
ATOM     88  C   UNL A   1      46.402  28.722  36.081  1.00  0.00     0.198 A 
ATOM     89  C   UNL A   1      44.879  27.240  37.199  1.00  0.00     0.198 A 
ATOM     90  F   UNL A   1      42.592  27.274  36.653  1.00  0.00    -0.203 F 
ATOM     91  F   UNL A   1      47.651  29.164  35.875  1.00  0.00    -0.200 F 
ATOM     92  C   UNL A   1      46.167  27.718  37.008  1.00  0.00     0.200 A 
ATOM     93  F   UNL A   1      44.648  26.282  38.106  1.00  0.00    -0.200 F 
ATOM     94  F   UNL A   1      47.183  27.206  37.716  1.00  0.00    -0.200 F 
ENDBRANCH  61  84
ENDBRANCH  35  36
ENDBRANCH  27  30
ENDBRANCH  25  26
ENDBRANCH  24  25
ENDBRANCH   1  24
TORSDOF 15
ENDMDL
MODEL 2
REMARK VINA RESULT:     -11.9      3.354      4.953
REMARK SMILES C[NH2+]C[C@H](C)C(=O)N1CC[C@@](C(=O)NCCCNC(=O)c2ccc(-c3c4nc(c(-c5c(F)c(F)c(F)c(F)c5F)c5ccc([nH]5)c(-c5c(F)c(F)c(F)c(F)c5F)c5nc(c(-c6c(F)c(F)c(F)c(F)c6F)c6ccc3[nH]6)C=C5)C=C4)cc2)(C(F)(F)F)C1
REMARK SMILES IDX 15 1 14 2 12 3 13 4 11 6 8 7 9 8 88 9 10 10 6 11 7 12 4 13
REMARK SMILES IDX 5 14 3 15 2 16 1 17 84 20 85 21 86 22 87 23 16 24 17 25
REMARK SMILES IDX 18 26 19 27 20 29 21 30 22 31 83 32 23 33 82 34 24 35 25 36
REMARK SMILES IDX 26 37 76 38 27 39 81 40 75 41 77 42 28 43 80 44 74 45 73 46
REMARK SMILES IDX 29 48 61 49 41 50 60 51 42 52 45 53 59 54 78 55 43 56 44 57
REMARK SMILES IDX 58 59 79 60 46 61 30 62 31 63 39 64 32 65 33 66 37 67 40 68
REMARK SMILES IDX 34 69 35 70 38 71 36 72 62 73 63 74 71 75 64 76 65 77 69 78
REMARK SMILES IDX 72 79 66 80 67 81 70 82 68 83 47 84 48 85 56 86 49 87 50 88
REMARK SMILES IDX 54 89 57 90 51 91 52 92 55 93 53 94
REMARK H PARENT 14 5 2 18 2 19 18 28 77 47 45 58
REMARK Flexibility Score: inf
ROOT
ATOM      1  C   UNL A   1      32.871  26.637  26.138  1.00  0.00     0.117 C 
ENDROOT
BRANCH   1   2
ATOM      2  N   UNL A   1      32.025  25.641  26.767  1.00  0.00    -0.355 N 
ATOM      3  C   UNL A   1      31.726  24.354  26.431  1.00  0.00     0.237 C 
ATOM      4  O   UNL A   1      30.977  23.776  27.222  1.00  0.00    -0.274 OA
ATOM      5  H   UNL A   1      31.584  25.952  27.591  1.00  0.00     0.163 HD
BRANCH   3   6
ATOM      6  C   UNL A   1      32.231  23.678  25.158  1.00  0.00     0.163 C 
ATOM      7  N   UNL A   1      33.431  21.632  24.742  1.00  0.00    -0.341 N 
ATOM      8  C   UNL A   1      34.260  22.708  24.240  1.00  0.00     0.121 C 
ATOM      9  C   UNL A   1      32.132  22.150  25.192  1.00  0.00     0.146 C 
ATOM     10  C   UNL A   1      33.718  23.973  24.888  1.00  0.00     0.050 C 
BRANCH   7  11
ATOM     11  C   UNL A   1      33.641  20.270  24.708  1.00  0.00     0.231 C 
ATOM     12  O   UNL A   1      34.796  19.844  24.860  1.00  0.00    -0.274 OA
BRANCH  11  13
ATOM     13  C   UNL A   1      32.541  19.240  24.387  1.00  0.00     0.130 C 
ATOM     14  C   UNL A   1      32.274  18.807  22.949  1.00  0.00     0.024 C 
BRANCH  13  15
ATOM     15  C   UNL A   1      32.537  18.071  25.395  1.00  0.00     0.273 C 
BRANCH  15  16
ATOM     16  N   UNL A   1      32.195  16.749  24.880  1.00  0.00    -0.348 N 
ATOM     17  C   UNL A   1      33.245  15.778  25.099  1.00  0.00     0.330 C 
ATOM     18  H   UNL A   1      31.347  16.425  25.347  1.00  0.00     0.346 HD
ATOM     19  H   UNL A   1      32.058  16.834  23.872  1.00  0.00     0.346 HD
ENDBRANCH  15  16
ENDBRANCH  13  15
ENDBRANCH  11  13
ENDBRANCH   7  11
BRANCH   6  20
ATOM     20  C   UNL A   1      31.376  24.181  24.004  1.00  0.00     0.404 C 
ATOM     21  F   UNL A   1      31.020  23.151  23.193  1.00  0.00    -0.170 F 
ATOM     22  F   UNL A   1      30.228  24.757  24.420  1.00  0.00    -0.170 F 
ATOM     23  F   UNL A   1      32.037  25.060  23.218  1.00  0.00    -0.170 F 
ENDBRANCH   6  20
ENDBRANCH   3   6
ENDBRANCH   1   2
BRANCH   1  24
ATOM     24  C   UNL A   1      32.108  27.911  25.793  1.00  0.00     0.042 C 
BRANCH  24  25
ATOM     25  C   UNL A   1      32.994  29.058  25.329  1.00  0.00     0.118 C 
BRANCH  25  26
ATOM     26  N   UNL A   1      32.560  30.348  25.857  1.00  0.00    -0.352 N 
ATOM     27  C   UNL A   1      33.021  31.141  26.881  1.00  0.00     0.251 C 
ATOM     28  H   UNL A   1      31.781  30.724  25.387  1.00  0.00     0.163 HD
ATOM     29  O   UNL A   1      32.332  32.095  27.238  1.00  0.00    -0.269 OA
BRANCH  27  30
ATOM     30  C   UNL A   1      34.303  30.877  27.578  1.00  0.00     0.039 A 
ATOM     31  C   UNL A   1      35.220  31.925  27.732  1.00  0.00     0.014 A 
ATOM     32  C   UNL A   1      34.653  29.605  28.025  1.00  0.00     0.014 A 
ATOM     33  C   UNL A   1      36.437  31.711  28.393  1.00  0.00     0.010 A 
ATOM     34  C   UNL A   1      35.802  29.419  28.788  1.00  0.00     0.010 A 
ATOM     35  C   UNL A   1      36.718  30.464  28.970  1.00  0.00    -0.014 A 
BRANCH  35  36
ATOM     36  C   UNL A   1      37.964  30.204  29.741  1.00  0.00     0.031 A 
ATOM     37  C   UNL A   1      39.004  29.263  29.188  1.00  0.00     0.074 A 
ATOM     38  C   UNL A   1      38.116  30.723  30.976  1.00  0.00     0.049 A 
ATOM     39  N   UNL A   1      40.067  28.764  29.769  1.00  0.00    -0.248 NA
ATOM     40  C   UNL A   1      38.798  28.786  27.811  1.00  0.00     0.031 C 
ATOM     41  C   UNL A   1      37.167  31.613  31.644  1.00  0.00     0.029 A 
ATOM     42  N   UNL A   1      39.120  30.556  31.899  1.00  0.00    -0.354 N 
ATOM     43  C   UNL A   1      40.628  27.891  28.844  1.00  0.00     0.074 A 
ATOM     44  C   UNL A   1      39.761  27.884  27.688  1.00  0.00     0.031 C 
ATOM     45  C   UNL A   1      37.640  31.928  32.860  1.00  0.00     0.029 A 
ATOM     46  C   UNL A   1      38.898  31.222  33.080  1.00  0.00     0.049 A 
ATOM     47  H   UNL A   1      39.921  30.009  31.731  1.00  0.00     0.167 HD
ATOM     48  C   UNL A   1      41.777  27.178  28.940  1.00  0.00     0.037 A 
ATOM     49  C   UNL A   1      39.617  31.247  34.219  1.00  0.00     0.037 A 
ATOM     50  C   UNL A   1      42.662  27.227  30.073  1.00  0.00     0.049 A 
ATOM     51  C   UNL A   1      40.891  30.450  34.299  1.00  0.00     0.074 A 
ATOM     52  C   UNL A   1      43.885  26.600  30.239  1.00  0.00     0.029 A 
ATOM     53  N   UNL A   1      42.420  27.946  31.234  1.00  0.00    -0.354 N 
ATOM     54  N   UNL A   1      41.441  29.673  33.397  1.00  0.00    -0.248 NA
ATOM     55  C   UNL A   1      41.650  30.536  35.556  1.00  0.00     0.031 C 
ATOM     56  C   UNL A   1      44.359  26.900  31.520  1.00  0.00     0.029 A 
ATOM     57  C   UNL A   1      43.460  27.761  32.130  1.00  0.00     0.049 A 
ATOM     58  H   UNL A   1      41.626  28.505  31.397  1.00  0.00     0.167 HD
ATOM     59  C   UNL A   1      42.621  29.207  33.962  1.00  0.00     0.074 A 
ATOM     60  C   UNL A   1      42.714  29.796  35.281  1.00  0.00     0.031 C 
ATOM     61  C   UNL A   1      43.546  28.370  33.433  1.00  0.00     0.037 A 
BRANCH  48  62
ATOM     62  C   UNL A   1      42.147  26.289  27.786  1.00  0.00     0.064 A 
ATOM     63  C   UNL A   1      43.073  26.689  26.810  1.00  0.00     0.173 A 
ATOM     64  C   UNL A   1      41.595  25.003  27.674  1.00  0.00     0.173 A 
ATOM     65  F   UNL A   1      43.623  27.913  26.863  1.00  0.00    -0.203 F 
ATOM     66  C   UNL A   1      43.405  25.852  25.749  1.00  0.00     0.198 A 
ATOM     67  C   UNL A   1      41.957  24.154  26.631  1.00  0.00     0.198 A 
ATOM     68  F   UNL A   1      40.710  24.565  28.582  1.00  0.00    -0.203 F 
ATOM     69  F   UNL A   1      44.249  26.280  24.799  1.00  0.00    -0.200 F 
ATOM     70  C   UNL A   1      42.854  24.582  25.664  1.00  0.00     0.200 A 
ATOM     71  F   UNL A   1      41.435  22.922  26.560  1.00  0.00    -0.200 F 
ATOM     72  F   UNL A   1      43.182  23.774  24.647  1.00  0.00    -0.200 F 
ENDBRANCH  48  62
BRANCH  49  73
ATOM     73  C   UNL A   1      39.158  32.068  35.370  1.00  0.00     0.064 A 
ATOM     74  C   UNL A   1      38.403  31.498  36.404  1.00  0.00     0.173 A 
ATOM     75  C   UNL A   1      39.458  33.436  35.462  1.00  0.00     0.173 A 
ATOM     76  F   UNL A   1      38.073  30.199  36.353  1.00  0.00    -0.203 F 
ATOM     77  C   UNL A   1      37.947  32.267  37.474  1.00  0.00     0.198 A 
ATOM     78  C   UNL A   1      39.029  34.197  36.547  1.00  0.00     0.198 A 
ATOM     79  F   UNL A   1      40.182  34.031  34.502  1.00  0.00    -0.203 F 
ATOM     80  F   UNL A   1      37.186  31.706  38.423  1.00  0.00    -0.200 F 
ATOM     81  C   UNL A   1      38.266  33.614  37.547  1.00  0.00     0.200 A 
ATOM     82  F   UNL A   1      39.352  35.495  36.622  1.00  0.00    -0.200 F 
ATOM     83  F   UNL A   1      37.830  34.352  38.578  1.00  0.00    -0.200 F 
ENDBRANCH  49  73
BRANCH  61  84
ATOM     84  C   UNL A   1      44.765  28.074  34.256  1.00  0.00     0.064 A 
ATOM     85  C   UNL A   1      45.915  28.875  34.189  1.00  0.00     0.173 A 
ATOM     86  C   UNL A   1      44.759  27.008  35.170  1.00  0.00     0.173 A 
ATOM     87  F   UNL A   1      45.975  29.897  33.322  1.00  0.00    -0.203 F 
ATOM     88  C   UNL A   1      47.020  28.607  34.992  1.00  0.00     0.198 A 
ATOM     89  C   UNL A   1      45.854  26.763  35.994  1.00  0.00     0.198 A 
ATOM     90  F   UNL A   1      43.682  26.217  35.278  1.00  0.00    -0.203 F 
ATOM     91  F   UNL A   1      48.124  29.360  34.881  1.00  0.00    -0.200 F 
ATOM     92  C   UNL A   1      46.986  27.559  35.900  1.00  0.00     0.200 A 
ATOM     93  F   UNL A   1      45.812  25.761  36.881  1.00  0.00    -0.200 F 
ATOM     94  F   UNL A   1      48.045  27.313  36.682  1.00  0.00    -0.200 F 
ENDBRANCH  61  84
ENDBRANCH  35  36
ENDBRANCH  27  30
ENDBRANCH  25  26
ENDBRANCH  24  25
ENDBRANCH   1  24
TORSDOF 15
ENDMDL
MODEL 3
REMARK VINA RESULT:     -11.9      0.691      1.806
REMARK SMILES C[NH2+]C[C@H](C)C(=O)N1CC[C@@](C(=O)NCCCNC(=O)c2ccc(-c3c4nc(c(-c5c(F)c(F)c(F)c(F)c5F)c5ccc([nH]5)c(-c5c(F)c(F)c(F)c(F)c5F)c5nc(c(-c6c(F)c(F)c(F)c(F)c6F)c6ccc3[nH]6)C=C5)C=C4)cc2)(C(F)(F)F)C1
REMARK SMILES IDX 15 1 14 2 12 3 13 4 11 6 8 7 9 8 88 9 10 10 6 11 7 12 4 13
REMARK SMILES IDX 5 14 3 15 2 16 1 17 84 20 85 21 86 22 87 23 16 24 17 25
REMARK SMILES IDX 18 26 19 27 20 29 21 30 22 31 83 32 23 33 82 34 24 35 25 36
REMARK SMILES IDX 26 37 76 38 27 39 81 40 75 41 77 42 28 43 80 44 74 45 73 46
REMARK SMILES IDX 29 48 61 49 41 50 60 51 42 52 45 53 59 54 78 55 43 56 44 57
REMARK SMILES IDX 58 59 79 60 46 61 30 62 31 63 39 64 32 65 33 66 37 67 40 68
REMARK SMILES IDX 34 69 35 70 38 71 36 72 62 73 63 74 71 75 64 76 65 77 69 78
REMARK SMILES IDX 72 79 66 80 67 81 70 82 68 83 47 84 48 85 56 86 49 87 50 88
REMARK SMILES IDX 54 89 57 90 51 91 52 92 55 93 53 94
REMARK H PARENT 14 5 2 18 2 19 18 28 77 47 45 58
REMARK Flexibility Score: inf
ROOT
ATOM      1  C   UNL A   1      33.512  30.332  26.769  1.00  0.00     0.117 C 
ENDROOT
BRANCH   1   2
ATOM      2  N   UNL A   1      32.570  29.497  27.489  1.00  0.00    -0.355 N 
ATOM      3  C   UNL A   1      31.819  28.426  27.104  1.00  0.00     0.237 C 
ATOM      4  O   UNL A   1      31.133  27.929  28.000  1.00  0.00    -0.274 OA
ATOM      5  H   UNL A   1      32.449  29.751  28.433  1.00  0.00     0.163 HD
BRANCH   3   6
ATOM      6  C   UNL A   1      31.783  27.896  25.672  1.00  0.00     0.163 C 
ATOM      7  N   UNL A   1      30.446  28.442  23.746  1.00  0.00    -0.341 N 
ATOM      8  C   UNL A   1      30.200  27.046  24.037  1.00  0.00     0.121 C 
ATOM      9  C   UNL A   1      31.496  28.975  24.624  1.00  0.00     0.146 C 
ATOM     10  C   UNL A   1      30.681  26.840  25.465  1.00  0.00     0.050 C 
BRANCH   7  11
ATOM     11  C   UNL A   1      29.960  29.226  22.720  1.00  0.00     0.231 C 
ATOM     12  O   UNL A   1      30.730  29.547  21.803  1.00  0.00    -0.274 OA
BRANCH  11  13
ATOM     13  C   UNL A   1      28.538  29.817  22.692  1.00  0.00     0.130 C 
ATOM     14  C   UNL A   1      27.347  29.008  23.197  1.00  0.00     0.024 C 
BRANCH  13  15
ATOM     15  C   UNL A   1      28.520  31.292  23.147  1.00  0.00     0.273 C 
BRANCH  15  16
ATOM     16  N   UNL A   1      29.005  32.289  22.198  1.00  0.00    -0.348 N 
ATOM     17  C   UNL A   1      28.301  32.241  20.935  1.00  0.00     0.330 C 
ATOM     18  H   UNL A   1      28.883  33.216  22.606  1.00  0.00     0.346 HD
ATOM     19  H   UNL A   1      29.988  32.087  22.012  1.00  0.00     0.346 HD
ENDBRANCH  15  16
ENDBRANCH  13  15
ENDBRANCH  11  13
ENDBRANCH   7  11
BRANCH   6  20
ATOM     20  C   UNL A   1      33.149  27.297  25.372  1.00  0.00     0.404 C 
ATOM     21  F   UNL A   1      33.871  28.134  24.582  1.00  0.00    -0.170 F 
ATOM     22  F   UNL A   1      33.883  27.093  26.486  1.00  0.00    -0.170 F 
ATOM     23  F   UNL A   1      33.063  26.130  24.694  1.00  0.00    -0.170 F 
ENDBRANCH   6  20
ENDBRANCH   3   6
ENDBRANCH   1   2
BRANCH   1  24
ATOM     24  C   UNL A   1      33.487  31.780  27.248  1.00  0.00     0.042 C 
BRANCH  24  25
ATOM     25  C   UNL A   1      32.099  32.403  27.263  1.00  0.00     0.118 C 
BRANCH  25  26
ATOM     26  N   UNL A   1      32.136  33.841  27.513  1.00  0.00    -0.352 N 
ATOM     27  C   UNL A   1      32.903  34.626  28.341  1.00  0.00     0.251 C 
ATOM     28  H   UNL A   1      31.482  34.351  26.983  1.00  0.00     0.163 HD
ATOM     29  O   UNL A   1      32.581  35.802  28.497  1.00  0.00    -0.269 OA
BRANCH  27  30
ATOM     30  C   UNL A   1      34.088  34.101  29.063  1.00  0.00     0.039 A 
ATOM     31  C   UNL A   1      33.892  33.308  30.202  1.00  0.00     0.014 A 
ATOM     32  C   UNL A   1      35.388  34.426  28.684  1.00  0.00     0.014 A 
ATOM     33  C   UNL A   1      34.990  32.789  30.901  1.00  0.00     0.010 A 
ATOM     34  C   UNL A   1      36.474  33.813  29.301  1.00  0.00     0.010 A 
ATOM     35  C   UNL A   1      36.293  32.998  30.427  1.00  0.00    -0.014 A 
BRANCH  35  36
ATOM     36  C   UNL A   1      37.488  32.414  31.093  1.00  0.00     0.031 A 
ATOM     37  C   UNL A   1      38.224  31.270  30.444  1.00  0.00     0.074 A 
ATOM     38  C   UNL A   1      37.850  32.834  32.322  1.00  0.00     0.049 A 
ATOM     39  N   UNL A   1      39.170  30.505  30.931  1.00  0.00    -0.248 NA
ATOM     40  C   UNL A   1      37.811  30.909  29.078  1.00  0.00     0.031 C 
ATOM     41  C   UNL A   1      37.198  33.903  33.079  1.00  0.00     0.029 A 
ATOM     42  N   UNL A   1      38.845  32.393  33.162  1.00  0.00    -0.354 N 
ATOM     43  C   UNL A   1      39.433  29.557  29.949  1.00  0.00     0.074 A 
ATOM     44  C   UNL A   1      38.511  29.805  28.864  1.00  0.00     0.031 C 
ATOM     45  C   UNL A   1      37.819  34.048  34.260  1.00  0.00     0.029 A 
ATOM     46  C   UNL A   1      38.877  33.049  34.369  1.00  0.00     0.049 A 
ATOM     47  H   UNL A   1      39.474  31.675  32.922  1.00  0.00     0.167 HD
ATOM     48  C   UNL A   1      40.376  28.583  29.942  1.00  0.00     0.037 A 
ATOM     49  C   UNL A   1      39.660  32.855  35.448  1.00  0.00     0.037 A 
ATOM     50  C   UNL A   1      41.323  28.373  31.004  1.00  0.00     0.049 A 
ATOM     51  C   UNL A   1      40.701  31.770  35.415  1.00  0.00     0.074 A 
ATOM     52  C   UNL A   1      42.364  27.462  31.063  1.00  0.00     0.029 A 
ATOM     53  N   UNL A   1      41.348  29.085  32.193  1.00  0.00    -0.354 N 
ATOM     54  N   UNL A   1      40.979  30.917  34.458  1.00  0.00    -0.248 NA
ATOM     55  C   UNL A   1      41.545  31.622  36.610  1.00  0.00     0.031 C 
ATOM     56  C   UNL A   1      42.986  27.589  32.308  1.00  0.00     0.029 A 
ATOM     57  C   UNL A   1      42.372  28.620  33.002  1.00  0.00     0.049 A 
ATOM     58  H   UNL A   1      40.729  29.814  32.428  1.00  0.00     0.167 HD
ATOM     59  C   UNL A   1      42.045  30.157  34.920  1.00  0.00     0.074 A 
ATOM     60  C   UNL A   1      42.373  30.656  36.239  1.00  0.00     0.031 C 
ATOM     61  C   UNL A   1      42.696  29.140  34.306  1.00  0.00     0.037 A 
BRANCH  48  62
ATOM     62  C   UNL A   1      40.433  27.675  28.746  1.00  0.00     0.064 A 
ATOM     63  C   UNL A   1      41.222  27.976  27.625  1.00  0.00     0.173 A 
ATOM     64  C   UNL A   1      39.719  26.466  28.736  1.00  0.00     0.173 A 
ATOM     65  F   UNL A   1      41.917  29.123  27.577  1.00  0.00    -0.203 F 
ATOM     66  C   UNL A   1      41.265  27.121  26.527  1.00  0.00     0.198 A 
ATOM     67  C   UNL A   1      39.793  25.597  27.651  1.00  0.00     0.198 A 
ATOM     68  F   UNL A   1      38.955  26.124  29.784  1.00  0.00    -0.203 F 
ATOM     69  F   UNL A   1      41.981  27.460  25.445  1.00  0.00    -0.200 F 
ATOM     70  C   UNL A   1      40.557  25.929  26.543  1.00  0.00     0.200 A 
ATOM     71  F   UNL A   1      39.121  24.438  27.676  1.00  0.00    -0.200 F 
ATOM     72  F   UNL A   1      40.608  25.103  25.490  1.00  0.00    -0.200 F 
ENDBRANCH  48  62
BRANCH  49  73
ATOM     73  C   UNL A   1      39.499  33.721  36.647  1.00  0.00     0.064 A 
ATOM     74  C   UNL A   1      40.150  34.958  36.733  1.00  0.00     0.173 A 
ATOM     75  C   UNL A   1      38.697  33.331  37.731  1.00  0.00     0.173 A 
ATOM     76  F   UNL A   1      40.943  35.367  35.731  1.00  0.00    -0.203 F 
ATOM     77  C   UNL A   1      40.025  35.764  37.864  1.00  0.00     0.198 A 
ATOM     78  C   UNL A   1      38.547  34.151  38.848  1.00  0.00     0.198 A 
ATOM     79  F   UNL A   1      38.046  32.159  37.699  1.00  0.00    -0.203 F 
ATOM     80  F   UNL A   1      40.699  36.919  37.938  1.00  0.00    -0.200 F 
ATOM     81  C   UNL A   1      39.219  35.362  38.917  1.00  0.00     0.200 A 
ATOM     82  F   UNL A   1      37.755  33.766  39.858  1.00  0.00    -0.200 F 
ATOM     83  F   UNL A   1      39.096  36.138  40.003  1.00  0.00    -0.200 F 
ENDBRANCH  49  73
BRANCH  61  84
ATOM     84  C   UNL A   1      43.860  28.526  35.026  1.00  0.00     0.064 A 
ATOM     85  C   UNL A   1      43.711  27.401  35.851  1.00  0.00     0.173 A 
ATOM     86  C   UNL A   1      45.155  29.036  34.836  1.00  0.00     0.173 A 
ATOM     87  F   UNL A   1      42.493  26.885  36.073  1.00  0.00    -0.203 F 
ATOM     88  C   UNL A   1      44.813  26.823  36.476  1.00  0.00     0.198 A 
ATOM     89  C   UNL A   1      46.258  28.435  35.438  1.00  0.00     0.198 A 
ATOM     90  F   UNL A   1      45.353  30.105  34.052  1.00  0.00    -0.203 F 
ATOM     91  F   UNL A   1      44.641  25.774  37.293  1.00  0.00    -0.200 F 
ATOM     92  C   UNL A   1      46.084  27.333  36.262  1.00  0.00     0.200 A 
ATOM     93  F   UNL A   1      47.487  28.919  35.217  1.00  0.00    -0.200 F 
ATOM     94  F   UNL A   1      47.144  26.765  36.852  1.00  0.00    -0.200 F 
ENDBRANCH  61  84
ENDBRANCH  35  36
ENDBRANCH  27  30
ENDBRANCH  25  26
ENDBRANCH  24  25
ENDBRANCH   1  24
TORSDOF 15
ENDMDL
