MODEL 1
REMARK VINA RESULT:     -11.9      0.000      0.000
REMARK SMILES CCc1cc(OC(F)(F)F)cc2c1O[C@@H](C(F)(F)F)C(C(=O)NCCCNC(=O)c1ccc(-c3c4nc(c(-c5c(F)c(F)c(F)c(F)c5F)c5ccc([nH]5)c(-c5c(F)c(F)c(F)c(F)c5F)c5nc(c(-c6c(F)c(F)c(F)c(F)c6F)c6ccc3[nH]6)C=C5)C=C4)cc1)=C2
REMARK SMILES IDX 25 1 24 2 23 3 21 4 22 5 20 7 3 8 4 9 13 10 5 11 12 12 14 13
REMARK SMILES IDX 11 14 93 15 15 16 2 17 1 18 6 19 7 20 8 21 9 22 10 23 16 24
REMARK SMILES IDX 17 25 18 26 19 27 26 28 27 29 28 30 29 32 30 33 31 34 92 35
REMARK SMILES IDX 32 36 91 37 33 38 34 39 35 40 85 41 36 42 90 43 84 44 86 45
REMARK SMILES IDX 37 46 89 47 83 48 82 49 38 51 70 52 50 53 69 54 51 55 54 56
REMARK SMILES IDX 68 57 87 58 52 59 53 60 67 62 88 63 55 64 39 65 40 66 48 67
REMARK SMILES IDX 41 68 42 69 46 70 49 71 43 72 44 73 47 74 45 75 71 76 72 77
REMARK SMILES IDX 80 78 73 79 74 80 78 81 81 82 75 83 76 84 79 85 77 86 56 87
REMARK SMILES IDX 57 88 65 89 58 90 59 91 63 92 66 93 60 94 61 95 64 96 62 97
REMARK H PARENT 23 6 27 31 86 50 54 61
REMARK Flexibility Score: inf
ROOT
ATOM      1  C   UNL A   1      36.849  23.047  23.725  1.00  0.00     0.042 C 
ENDROOT
BRANCH   1   2
ATOM      2  C   UNL A   1      35.334  23.086  23.497  1.00  0.00     0.118 C 
BRANCH   2   3
ATOM      3  N   UNL A   1      34.631  22.559  24.657  1.00  0.00    -0.352 N 
ATOM      4  C   UNL A   1      33.713  23.088  25.506  1.00  0.00     0.251 C 
ATOM      5  O   UNL A   1      33.410  22.435  26.501  1.00  0.00    -0.270 OA
ATOM      6  H   UNL A   1      34.870  21.627  24.868  1.00  0.00     0.163 HD
BRANCH   4   7
ATOM      7  C   UNL A   1      33.020  24.379  25.253  1.00  0.00     0.067 C 
ATOM      8  C   UNL A   1      30.921  27.905  24.289  1.00  0.00    -0.002 A 
ATOM      9  C   UNL A   1      31.458  29.141  24.707  1.00  0.00     0.054 A 
ATOM     10  C   UNL A   1      31.606  26.722  24.614  1.00  0.00     0.131 A 
ATOM     11  C   UNL A   1      32.659  29.202  25.413  1.00  0.00     0.130 A 
ATOM     12  C   UNL A   1      32.792  26.777  25.344  1.00  0.00     0.021 A 
ATOM     13  O   UNL A   1      31.105  25.546  24.140  1.00  0.00    -0.475 OA
ATOM     14  C   UNL A   1      33.314  28.014  25.736  1.00  0.00     0.058 A 
ATOM     15  C   UNL A   1      33.522  25.556  25.643  1.00  0.00     0.025 C 
ATOM     16  C   UNL A   1      31.611  24.287  24.672  1.00  0.00     0.314 C 
BRANCH   8  17
ATOM     17  C   UNL A   1      29.606  27.884  23.538  1.00  0.00     0.036 C 
ATOM     18  C   UNL A   1      29.235  29.229  22.926  1.00  0.00     0.009 C 
ENDBRANCH   8  17
BRANCH  11  19
ATOM     19  O   UNL A   1      33.301  30.328  25.840  1.00  0.00    -0.406 OA
BRANCH  19  20
ATOM     20  C   UNL A   1      33.100  30.739  27.182  1.00  0.00     0.573 C 
ATOM     21  F   UNL A   1      34.178  30.462  27.945  1.00  0.00    -0.132 F 
ATOM     22  F   UNL A   1      32.827  32.059  27.245  1.00  0.00    -0.132 F 
ATOM     23  F   UNL A   1      32.043  30.064  27.685  1.00  0.00    -0.132 F 
ENDBRANCH  19  20
ENDBRANCH  11  19
BRANCH  16  24
ATOM     24  C   UNL A   1      31.395  23.215  23.578  1.00  0.00     0.429 C 
ATOM     25  F   UNL A   1      31.456  21.954  24.059  1.00  0.00    -0.167 F 
ATOM     26  F   UNL A   1      30.158  23.330  23.022  1.00  0.00    -0.167 F 
ATOM     27  F   UNL A   1      32.288  23.326  22.567  1.00  0.00    -0.167 F 
ENDBRANCH  16  24
ENDBRANCH   4   7
ENDBRANCH   2   3
ENDBRANCH   1   2
BRANCH   1  28
ATOM     28  C   UNL A   1      37.256  23.438  25.144  1.00  0.00     0.118 C 
BRANCH  28  29
ATOM     29  N   UNL A   1      38.152  22.458  25.738  1.00  0.00    -0.352 N 
ATOM     30  C   UNL A   1      39.308  22.645  26.456  1.00  0.00     0.251 C 
ATOM     31  H   UNL A   1      37.890  21.518  25.607  1.00  0.00     0.163 HD
ATOM     32  O   UNL A   1      40.048  21.692  26.674  1.00  0.00    -0.269 OA
BRANCH  30  33
ATOM     33  C   UNL A   1      39.673  23.986  26.961  1.00  0.00     0.039 A 
ATOM     34  C   UNL A   1      39.293  24.344  28.259  1.00  0.00     0.014 A 
ATOM     35  C   UNL A   1      40.336  24.910  26.149  1.00  0.00     0.014 A 
ATOM     36  C   UNL A   1      39.625  25.606  28.760  1.00  0.00     0.010 A 
ATOM     37  C   UNL A   1      40.723  26.143  26.670  1.00  0.00     0.010 A 
ATOM     38  C   UNL A   1      40.368  26.505  27.980  1.00  0.00    -0.014 A 
BRANCH  38  39
ATOM     39  C   UNL A   1      40.783  27.830  28.507  1.00  0.00     0.031 A 
ATOM     40  C   UNL A   1      42.209  28.063  28.923  1.00  0.00     0.074 A 
ATOM     41  C   UNL A   1      39.860  28.794  28.686  1.00  0.00     0.049 A 
ATOM     42  N   UNL A   1      42.741  29.102  29.516  1.00  0.00    -0.248 NA
ATOM     43  C   UNL A   1      43.160  26.970  28.662  1.00  0.00     0.031 C 
ATOM     44  C   UNL A   1      38.439  28.674  28.357  1.00  0.00     0.029 A 
ATOM     45  N   UNL A   1      39.973  30.057  29.211  1.00  0.00    -0.354 N 
ATOM     46  C   UNL A   1      44.076  28.779  29.720  1.00  0.00     0.074 A 
ATOM     47  C   UNL A   1      44.268  27.434  29.224  1.00  0.00     0.031 C 
ATOM     48  C   UNL A   1      37.813  29.817  28.685  1.00  0.00     0.029 A 
ATOM     49  C   UNL A   1      38.779  30.733  29.282  1.00  0.00     0.049 A 
ATOM     50  H   UNL A   1      40.829  30.443  29.508  1.00  0.00     0.167 HD
ATOM     51  C   UNL A   1      45.055  29.544  30.261  1.00  0.00     0.037 A 
ATOM     52  C   UNL A   1      38.492  31.947  29.791  1.00  0.00     0.037 A 
ATOM     53  C   UNL A   1      44.867  30.895  30.720  1.00  0.00     0.049 A 
ATOM     54  C   UNL A   1      39.603  32.777  30.380  1.00  0.00     0.074 A 
ATOM     55  C   UNL A   1      45.811  31.778  31.214  1.00  0.00     0.029 A 
ATOM     56  N   UNL A   1      43.650  31.559  30.740  1.00  0.00    -0.354 N 
ATOM     57  N   UNL A   1      40.874  32.487  30.505  1.00  0.00    -0.248 NA
ATOM     58  C   UNL A   1      39.239  34.105  30.892  1.00  0.00     0.031 C 
ATOM     59  C   UNL A   1      45.158  32.960  31.576  1.00  0.00     0.029 A 
ATOM     60  C   UNL A   1      43.815  32.833  31.260  1.00  0.00     0.049 A 
ATOM     61  H   UNL A   1      42.794  31.182  30.431  1.00  0.00     0.167 HD
ATOM     62  C   UNL A   1      41.466  33.604  31.080  1.00  0.00     0.074 A 
ATOM     63  C   UNL A   1      40.416  34.583  31.267  1.00  0.00     0.031 C 
ATOM     64  C   UNL A   1      42.763  33.800  31.422  1.00  0.00     0.037 A 
BRANCH  51  65
ATOM     65  C   UNL A   1      46.425  28.944  30.386  1.00  0.00     0.064 A 
ATOM     66  C   UNL A   1      47.373  29.052  29.358  1.00  0.00     0.173 A 
ATOM     67  C   UNL A   1      46.816  28.309  31.575  1.00  0.00     0.173 A 
ATOM     68  F   UNL A   1      47.047  29.642  28.198  1.00  0.00    -0.203 F 
ATOM     69  C   UNL A   1      48.655  28.529  29.507  1.00  0.00     0.198 A 
ATOM     70  C   UNL A   1      48.108  27.813  31.732  1.00  0.00     0.198 A 
ATOM     71  F   UNL A   1      45.951  28.185  32.593  1.00  0.00    -0.203 F 
ATOM     72  F   UNL A   1      49.532  28.611  28.496  1.00  0.00    -0.200 F 
ATOM     73  C   UNL A   1      49.024  27.919  30.696  1.00  0.00     0.200 A 
ATOM     74  F   UNL A   1      48.467  27.236  32.887  1.00  0.00    -0.200 F 
ATOM     75  F   UNL A   1      50.264  27.429  30.843  1.00  0.00    -0.200 F 
ENDBRANCH  51  65
BRANCH  52  76
ATOM     76  C   UNL A   1      37.096  32.456  29.765  1.00  0.00     0.064 A 
ATOM     77  C   UNL A   1      36.619  33.197  28.674  1.00  0.00     0.173 A 
ATOM     78  C   UNL A   1      36.216  32.229  30.833  1.00  0.00     0.173 A 
ATOM     79  F   UNL A   1      37.430  33.458  27.637  1.00  0.00    -0.203 F 
ATOM     80  C   UNL A   1      35.326  33.715  28.666  1.00  0.00     0.198 A 
ATOM     81  C   UNL A   1      34.914  32.722  30.810  1.00  0.00     0.198 A 
ATOM     82  F   UNL A   1      36.620  31.521  31.898  1.00  0.00    -0.203 F 
ATOM     83  F   UNL A   1      34.914  34.465  27.634  1.00  0.00    -0.200 F 
ATOM     84  C   UNL A   1      34.472  33.473  29.731  1.00  0.00     0.200 A 
ATOM     85  F   UNL A   1      34.087  32.472  31.835  1.00  0.00    -0.200 F 
ATOM     86  F   UNL A   1      33.228  33.971  29.722  1.00  0.00    -0.200 F 
ENDBRANCH  52  76
BRANCH  64  87
ATOM     87  C   UNL A   1      43.130  35.138  31.995  1.00  0.00     0.064 A 
ATOM     88  C   UNL A   1      43.626  36.173  31.191  1.00  0.00     0.173 A 
ATOM     89  C   UNL A   1      42.932  35.401  33.360  1.00  0.00     0.173 A 
ATOM     90  F   UNL A   1      43.847  35.966  29.883  1.00  0.00    -0.203 F 
ATOM     91  C   UNL A   1      43.930  37.418  31.735  1.00  0.00     0.198 A 
ATOM     92  C   UNL A   1      43.209  36.655  33.895  1.00  0.00     0.198 A 
ATOM     93  F   UNL A   1      42.454  34.445  34.170  1.00  0.00    -0.203 F 
ATOM     94  F   UNL A   1      44.443  38.381  30.955  1.00  0.00    -0.200 F 
ATOM     95  C   UNL A   1      43.713  37.661  33.083  1.00  0.00     0.200 A 
ATOM     96  F   UNL A   1      42.985  36.893  35.194  1.00  0.00    -0.200 F 
ATOM     97  F   UNL A   1      43.996  38.863  33.602  1.00  0.00    -0.200 F 
ENDBRANCH  64  87
ENDBRANCH  38  39
ENDBRANCH  30  33
ENDBRANCH  28  29
ENDBRANCH   1  28
TORSDOF 14
ENDMDL
MODEL 2
REMARK VINA RESULT:     -11.9      1.061      2.233
REMARK SMILES CCc1cc(OC(F)(F)F)cc2c1O[C@@H](C(F)(F)F)C(C(=O)NCCCNC(=O)c1ccc(-c3c4nc(c(-c5c(F)c(F)c(F)c(F)c5F)c5ccc([nH]5)c(-c5c(F)c(F)c(F)c(F)c5F)c5nc(c(-c6c(F)c(F)c(F)c(F)c6F)c6ccc3[nH]6)C=C5)C=C4)cc1)=C2
REMARK SMILES IDX 25 1 24 2 23 3 21 4 22 5 20 7 3 8 4 9 13 10 5 11 12 12 14 13
REMARK SMILES IDX 11 14 93 15 15 16 2 17 1 18 6 19 7 20 8 21 9 22 10 23 16 24
REMARK SMILES IDX 17 25 18 26 19 27 26 28 27 29 28 30 29 32 30 33 31 34 92 35
REMARK SMILES IDX 32 36 91 37 33 38 34 39 35 40 85 41 36 42 90 43 84 44 86 45
REMARK SMILES IDX 37 46 89 47 83 48 82 49 38 51 70 52 50 53 69 54 51 55 54 56
REMARK SMILES IDX 68 57 87 58 52 59 53 60 67 62 88 63 55 64 39 65 40 66 48 67
REMARK SMILES IDX 41 68 42 69 46 70 49 71 43 72 44 73 47 74 45 75 71 76 72 77
REMARK SMILES IDX 80 78 73 79 74 80 78 81 81 82 75 83 76 84 79 85 77 86 56 87
REMARK SMILES IDX 57 88 65 89 58 90 59 91 63 92 66 93 60 94 61 95 64 96 62 97
REMARK H PARENT 23 6 27 31 86 50 54 61
REMARK Flexibility Score: inf
ROOT
ATOM      1  C   UNL A   1      35.617  23.499  26.269  1.00  0.00     0.042 C 
ENDROOT
BRANCH   1   2
ATOM      2  C   UNL A   1      34.416  23.270  25.345  1.00  0.00     0.118 C 
BRANCH   2   3
ATOM      3  N   UNL A   1      33.238  22.914  26.121  1.00  0.00    -0.352 N 
ATOM      4  C   UNL A   1      32.194  23.634  26.607  1.00  0.00     0.251 C 
ATOM      5  O   UNL A   1      31.414  23.067  27.369  1.00  0.00    -0.270 OA
ATOM      6  H   UNL A   1      33.187  21.954  26.335  1.00  0.00     0.163 HD
BRANCH   4   7
ATOM      7  C   UNL A   1      31.922  25.041  26.213  1.00  0.00     0.067 C 
ATOM      8  C   UNL A   1      31.108  28.930  24.804  1.00  0.00    -0.002 A 
ATOM      9  C   UNL A   1      31.649  30.026  25.509  1.00  0.00     0.054 A 
ATOM     10  C   UNL A   1      31.364  27.629  25.271  1.00  0.00     0.131 A 
ATOM     11  C   UNL A   1      32.443  29.833  26.640  1.00  0.00     0.130 A 
ATOM     12  C   UNL A   1      32.133  27.434  26.416  1.00  0.00     0.021 A 
ATOM     13  O   UNL A   1      30.889  26.584  24.534  1.00  0.00    -0.475 OA
ATOM     14  C   UNL A   1      32.671  28.534  27.092  1.00  0.00     0.058 A 
ATOM     15  C   UNL A   1      32.432  26.087  26.874  1.00  0.00     0.025 C 
ATOM     16  C   UNL A   1      30.886  25.246  25.111  1.00  0.00     0.314 C 
BRANCH   8  17
ATOM     17  C   UNL A   1      30.238  29.185  23.591  1.00  0.00     0.036 C 
ATOM     18  C   UNL A   1      29.493  30.512  23.647  1.00  0.00     0.009 C 
ENDBRANCH   8  17
BRANCH  11  19
ATOM     19  O   UNL A   1      33.052  30.800  27.386  1.00  0.00    -0.406 OA
BRANCH  19  20
ATOM     20  C   UNL A   1      34.459  30.727  27.547  1.00  0.00     0.573 C 
ATOM     21  F   UNL A   1      34.792  30.476  28.831  1.00  0.00    -0.132 F 
ATOM     22  F   UNL A   1      34.987  29.776  26.747  1.00  0.00    -0.132 F 
ATOM     23  F   UNL A   1      34.995  31.917  27.198  1.00  0.00    -0.132 F 
ENDBRANCH  19  20
ENDBRANCH  11  19
BRANCH  16  24
ATOM     24  C   UNL A   1      30.940  24.246  23.932  1.00  0.00     0.429 C 
ATOM     25  F   UNL A   1      30.647  22.980  24.303  1.00  0.00    -0.167 F 
ATOM     26  F   UNL A   1      30.020  24.566  22.981  1.00  0.00    -0.167 F 
ATOM     27  F   UNL A   1      32.146  24.239  23.320  1.00  0.00    -0.167 F 
ENDBRANCH  16  24
ENDBRANCH   4   7
ENDBRANCH   2   3
ENDBRANCH   1   2
BRANCH   1  28
ATOM     28  C   UNL A   1      36.892  23.877  25.517  1.00  0.00     0.118 C 
BRANCH  28  29
ATOM     29  N   UNL A   1      37.952  22.903  25.726  1.00  0.00    -0.352 N 
ATOM     30  C   UNL A   1      39.227  23.079  26.206  1.00  0.00     0.251 C 
ATOM     31  H   UNL A   1      37.721  21.976  25.487  1.00  0.00     0.163 HD
ATOM     32  O   UNL A   1      40.049  22.176  26.090  1.00  0.00    -0.269 OA
BRANCH  30  33
ATOM     33  C   UNL A   1      39.619  24.349  26.853  1.00  0.00     0.039 A 
ATOM     34  C   UNL A   1      39.244  24.572  28.182  1.00  0.00     0.014 A 
ATOM     35  C   UNL A   1      40.305  25.341  26.145  1.00  0.00     0.014 A 
ATOM     36  C   UNL A   1      39.602  25.765  28.817  1.00  0.00     0.010 A 
ATOM     37  C   UNL A   1      40.717  26.502  26.797  1.00  0.00     0.010 A 
ATOM     38  C   UNL A   1      40.366  26.727  28.138  1.00  0.00    -0.014 A 
BRANCH  38  39
ATOM     39  C   UNL A   1      40.809  27.978  28.806  1.00  0.00     0.031 A 
ATOM     40  C   UNL A   1      42.217  28.101  29.320  1.00  0.00     0.074 A 
ATOM     41  C   UNL A   1      39.922  28.968  29.021  1.00  0.00     0.049 A 
ATOM     42  N   UNL A   1      42.759  29.055  30.033  1.00  0.00    -0.248 NA
ATOM     43  C   UNL A   1      43.131  26.989  29.014  1.00  0.00     0.031 C 
ATOM     44  C   UNL A   1      38.519  28.950  28.604  1.00  0.00     0.029 A 
ATOM     45  N   UNL A   1      40.061  30.173  29.663  1.00  0.00    -0.354 N 
ATOM     46  C   UNL A   1      44.063  28.649  30.282  1.00  0.00     0.074 A 
ATOM     47  C   UNL A   1      44.223  27.345  29.676  1.00  0.00     0.031 C 
ATOM     48  C   UNL A   1      37.927  30.089  28.999  1.00  0.00     0.029 A 
ATOM     49  C   UNL A   1      38.896  30.899  29.729  1.00  0.00     0.049 A 
ATOM     50  H   UNL A   1      40.914  30.487  30.041  1.00  0.00     0.167 HD
ATOM     51  C   UNL A   1      45.041  29.313  30.943  1.00  0.00     0.037 A 
ATOM     52  C   UNL A   1      38.635  32.077  30.329  1.00  0.00     0.037 A 
ATOM     53  C   UNL A   1      44.888  30.626  31.511  1.00  0.00     0.049 A 
ATOM     54  C   UNL A   1      39.744  32.794  31.052  1.00  0.00     0.074 A 
ATOM     55  C   UNL A   1      45.840  31.413  32.135  1.00  0.00     0.029 A 
ATOM     56  N   UNL A   1      43.703  31.346  31.525  1.00  0.00    -0.354 N 
ATOM     57  N   UNL A   1      40.992  32.430  31.221  1.00  0.00    -0.248 NA
ATOM     58  C   UNL A   1      39.411  34.089  31.662  1.00  0.00     0.031 C 
ATOM     59  C   UNL A   1      45.221  32.590  32.567  1.00  0.00     0.029 A 
ATOM     60  C   UNL A   1      43.895  32.559  32.166  1.00  0.00     0.049 A 
ATOM     61  H   UNL A   1      42.851  31.041  31.136  1.00  0.00     0.167 HD
ATOM     62  C   UNL A   1      41.598  33.461  31.927  1.00  0.00     0.074 A 
ATOM     63  C   UNL A   1      40.585  34.471  32.143  1.00  0.00     0.031 C 
ATOM     64  C   UNL A   1      42.880  33.561  32.357  1.00  0.00     0.037 A 
BRANCH  51  65
ATOM     65  C   UNL A   1      46.373  28.636  31.089  1.00  0.00     0.064 A 
ATOM     66  C   UNL A   1      46.662  27.806  32.182  1.00  0.00     0.173 A 
ATOM     67  C   UNL A   1      47.350  28.768  30.090  1.00  0.00     0.173 A 
ATOM     68  F   UNL A   1      45.767  27.653  33.169  1.00  0.00    -0.203 F 
ATOM     69  C   UNL A   1      47.887  27.150  32.280  1.00  0.00     0.198 A 
ATOM     70  C   UNL A   1      48.562  28.088  30.176  1.00  0.00     0.198 A 
ATOM     71  F   UNL A   1      47.122  29.544  29.019  1.00  0.00    -0.203 F 
ATOM     72  F   UNL A   1      48.155  26.391  33.353  1.00  0.00    -0.200 F 
ATOM     73  C   UNL A   1      48.831  27.283  31.273  1.00  0.00     0.200 A 
ATOM     74  F   UNL A   1      49.467  28.206  29.196  1.00  0.00    -0.200 F 
ATOM     75  F   UNL A   1      50.003  26.639  31.363  1.00  0.00    -0.200 F 
ENDBRANCH  51  65
BRANCH  52  76
ATOM     76  C   UNL A   1      37.267  32.656  30.272  1.00  0.00     0.064 A 
ATOM     77  C   UNL A   1      36.301  32.319  31.231  1.00  0.00     0.173 A 
ATOM     78  C   UNL A   1      36.892  33.543  29.252  1.00  0.00     0.173 A 
ATOM     79  F   UNL A   1      36.606  31.459  32.215  1.00  0.00    -0.203 F 
ATOM     80  C   UNL A   1      35.005  32.824  31.155  1.00  0.00     0.198 A 
ATOM     81  C   UNL A   1      35.604  34.071  29.195  1.00  0.00     0.198 A 
ATOM     82  F   UNL A   1      37.779  33.903  28.314  1.00  0.00    -0.203 F 
ATOM     83  F   UNL A   1      34.087  32.443  32.054  1.00  0.00    -0.200 F 
ATOM     84  C   UNL A   1      34.659  33.704  30.141  1.00  0.00     0.200 A 
ATOM     85  F   UNL A   1      35.278  34.933  28.223  1.00  0.00    -0.200 F 
ATOM     86  F   UNL A   1      33.412  34.190  30.069  1.00  0.00    -0.200 F 
ENDBRANCH  52  76
BRANCH  64  87
ATOM     87  C   UNL A   1      43.272  34.822  33.068  1.00  0.00     0.064 A 
ATOM     88  C   UNL A   1      43.265  34.914  34.466  1.00  0.00     0.173 A 
ATOM     89  C   UNL A   1      43.710  35.938  32.337  1.00  0.00     0.173 A 
ATOM     90  F   UNL A   1      42.839  33.880  35.208  1.00  0.00    -0.203 F 
ATOM     91  C   UNL A   1      43.664  36.083  35.108  1.00  0.00     0.198 A 
ATOM     92  C   UNL A   1      44.136  37.095  32.983  1.00  0.00     0.198 A 
ATOM     93  F   UNL A   1      43.742  35.899  30.997  1.00  0.00    -0.203 F 
ATOM     94  F   UNL A   1      43.609  36.163  36.446  1.00  0.00    -0.200 F 
ATOM     95  C   UNL A   1      44.108  37.168  34.368  1.00  0.00     0.200 A 
ATOM     96  F   UNL A   1      44.579  38.137  32.266  1.00  0.00    -0.200 F 
ATOM     97  F   UNL A   1      44.501  38.288  34.989  1.00  0.00    -0.200 F 
ENDBRANCH  64  87
ENDBRANCH  38  39
ENDBRANCH  30  33
ENDBRANCH  28  29
ENDBRANCH   1  28
TORSDOF 14
ENDMDL
MODEL 3
REMARK VINA RESULT:     -11.8      0.975      1.641
REMARK SMILES CCc1cc(OC(F)(F)F)cc2c1O[C@@H](C(F)(F)F)C(C(=O)NCCCNC(=O)c1ccc(-c3c4nc(c(-c5c(F)c(F)c(F)c(F)c5F)c5ccc([nH]5)c(-c5c(F)c(F)c(F)c(F)c5F)c5nc(c(-c6c(F)c(F)c(F)c(F)c6F)c6ccc3[nH]6)C=C5)C=C4)cc1)=C2
REMARK SMILES IDX 25 1 24 2 23 3 21 4 22 5 20 7 3 8 4 9 13 10 5 11 12 12 14 13
REMARK SMILES IDX 11 14 93 15 15 16 2 17 1 18 6 19 7 20 8 21 9 22 10 23 16 24
REMARK SMILES IDX 17 25 18 26 19 27 26 28 27 29 28 30 29 32 30 33 31 34 92 35
REMARK SMILES IDX 32 36 91 37 33 38 34 39 35 40 85 41 36 42 90 43 84 44 86 45
REMARK SMILES IDX 37 46 89 47 83 48 82 49 38 51 70 52 50 53 69 54 51 55 54 56
REMARK SMILES IDX 68 57 87 58 52 59 53 60 67 62 88 63 55 64 39 65 40 66 48 67
REMARK SMILES IDX 41 68 42 69 46 70 49 71 43 72 44 73 47 74 45 75 71 76 72 77
REMARK SMILES IDX 80 78 73 79 74 80 78 81 81 82 75 83 76 84 79 85 77 86 56 87
REMARK SMILES IDX 57 88 65 89 58 90 59 91 63 92 66 93 60 94 61 95 64 96 62 97
REMARK H PARENT 23 6 27 31 86 50 54 61
REMARK Flexibility Score: inf
ROOT
ATOM      1  C   UNL A   1      35.063  23.263  25.608  1.00  0.00     0.042 C 
ENDROOT
BRANCH   1   2
ATOM      2  C   UNL A   1      34.164  23.237  26.849  1.00  0.00     0.118 C 
BRANCH   2   3
ATOM      3  N   UNL A   1      32.835  22.757  26.503  1.00  0.00    -0.352 N 
ATOM      4  C   UNL A   1      31.685  23.384  26.143  1.00  0.00     0.251 C 
ATOM      5  O   UNL A   1      30.665  22.705  26.058  1.00  0.00    -0.270 OA
ATOM      6  H   UNL A   1      32.753  21.776  26.535  1.00  0.00     0.163 HD
BRANCH   4   7
ATOM      7  C   UNL A   1      31.622  24.827  25.791  1.00  0.00     0.067 C 
ATOM      8  C   UNL A   1      31.469  28.835  24.494  1.00  0.00    -0.002 A 
ATOM      9  C   UNL A   1      31.888  29.845  25.385  1.00  0.00     0.054 A 
ATOM     10  C   UNL A   1      31.506  27.496  24.919  1.00  0.00     0.131 A 
ATOM     11  C   UNL A   1      32.352  29.531  26.663  1.00  0.00     0.130 A 
ATOM     12  C   UNL A   1      31.942  27.181  26.204  1.00  0.00     0.021 A 
ATOM     13  O   UNL A   1      31.162  26.533  24.017  1.00  0.00    -0.475 OA
ATOM     14  C   UNL A   1      32.366  28.196  27.068  1.00  0.00     0.058 A 
ATOM     15  C   UNL A   1      32.020  25.792  26.629  1.00  0.00     0.025 C 
ATOM     16  C   UNL A   1      30.919  25.173  24.481  1.00  0.00     0.314 C 
BRANCH   8  17
ATOM     17  C   UNL A   1      30.957  29.222  23.122  1.00  0.00     0.036 C 
ATOM     18  C   UNL A   1      29.600  29.912  23.153  1.00  0.00     0.009 C 
ENDBRANCH   8  17
BRANCH  11  19
ATOM     19  O   UNL A   1      32.817  30.405  27.602  1.00  0.00    -0.406 OA
BRANCH  19  20
ATOM     20  C   UNL A   1      34.198  30.725  27.585  1.00  0.00     0.573 C 
ATOM     21  F   UNL A   1      34.403  31.988  27.154  1.00  0.00    -0.132 F 
ATOM     22  F   UNL A   1      34.744  30.569  28.810  1.00  0.00    -0.132 F 
ATOM     23  F   UNL A   1      34.825  29.884  26.734  1.00  0.00    -0.132 F 
ENDBRANCH  19  20
ENDBRANCH  11  19
BRANCH  16  24
ATOM     24  C   UNL A   1      31.201  24.231  23.287  1.00  0.00     0.429 C 
ATOM     25  F   UNL A   1      30.219  23.322  23.093  1.00  0.00    -0.167 F 
ATOM     26  F   UNL A   1      31.281  24.931  22.123  1.00  0.00    -0.167 F 
ATOM     27  F   UNL A   1      32.371  23.566  23.424  1.00  0.00    -0.167 F 
ENDBRANCH  16  24
ENDBRANCH   4   7
ENDBRANCH   2   3
ENDBRANCH   1   2
BRANCH   1  28
ATOM     28  C   UNL A   1      36.437  23.878  25.872  1.00  0.00     0.118 C 
BRANCH  28  29
ATOM     29  N   UNL A   1      37.480  22.866  25.928  1.00  0.00    -0.352 N 
ATOM     30  C   UNL A   1      38.810  22.990  26.250  1.00  0.00     0.251 C 
ATOM     31  H   UNL A   1      37.190  21.953  25.701  1.00  0.00     0.163 HD
ATOM     32  O   UNL A   1      39.580  22.066  26.016  1.00  0.00    -0.269 OA
BRANCH  30  33
ATOM     33  C   UNL A   1      39.322  24.232  26.870  1.00  0.00     0.039 A 
ATOM     34  C   UNL A   1      40.020  25.144  26.072  1.00  0.00     0.014 A 
ATOM     35  C   UNL A   1      39.167  24.476  28.237  1.00  0.00     0.014 A 
ATOM     36  C   UNL A   1      40.515  26.325  26.633  1.00  0.00     0.010 A 
ATOM     37  C   UNL A   1      39.604  25.682  28.782  1.00  0.00     0.010 A 
ATOM     38  C   UNL A   1      40.286  26.617  27.986  1.00  0.00    -0.014 A 
BRANCH  38  39
ATOM     39  C   UNL A   1      40.750  27.889  28.595  1.00  0.00     0.031 A 
ATOM     40  C   UNL A   1      42.184  28.042  29.023  1.00  0.00     0.074 A 
ATOM     41  C   UNL A   1      39.864  28.874  28.837  1.00  0.00     0.049 A 
ATOM     42  N   UNL A   1      42.754  29.021  29.679  1.00  0.00    -0.248 NA
ATOM     43  C   UNL A   1      43.093  26.933  28.691  1.00  0.00     0.031 C 
ATOM     44  C   UNL A   1      38.439  28.829  28.504  1.00  0.00     0.029 A 
ATOM     45  N   UNL A   1      40.024  30.097  29.440  1.00  0.00    -0.354 N 
ATOM     46  C   UNL A   1      44.075  28.636  29.860  1.00  0.00     0.074 A 
ATOM     47  C   UNL A   1      44.217  27.319  29.279  1.00  0.00     0.031 C 
ATOM     48  C   UNL A   1      37.856  29.971  28.904  1.00  0.00     0.029 A 
ATOM     49  C   UNL A   1      38.856  30.811  29.556  1.00  0.00     0.049 A 
ATOM     50  H   UNL A   1      40.894  30.430  29.760  1.00  0.00     0.167 HD
ATOM     51  C   UNL A   1      45.082  29.327  30.447  1.00  0.00     0.037 A 
ATOM     52  C   UNL A   1      38.615  32.000  30.141  1.00  0.00     0.037 A 
ATOM     53  C   UNL A   1      44.944  30.653  30.990  1.00  0.00     0.049 A 
ATOM     54  C   UNL A   1      39.755  32.749  30.780  1.00  0.00     0.074 A 
ATOM     55  C   UNL A   1      45.921  31.467  31.537  1.00  0.00     0.029 A 
ATOM     56  N   UNL A   1      43.753  31.360  31.055  1.00  0.00    -0.354 N 
ATOM     57  N   UNL A   1      41.015  32.404  30.884  1.00  0.00    -0.248 NA
ATOM     58  C   UNL A   1      39.441  34.055  31.376  1.00  0.00     0.031 C 
ATOM     59  C   UNL A   1      45.313  32.647  31.975  1.00  0.00     0.029 A 
ATOM     60  C   UNL A   1      43.966  32.591  31.654  1.00  0.00     0.049 A 
ATOM     61  H   UNL A   1      42.884  31.035  30.725  1.00  0.00     0.167 HD
ATOM     62  C   UNL A   1      41.648  33.460  31.527  1.00  0.00     0.074 A 
ATOM     63  C   UNL A   1      40.635  34.463  31.778  1.00  0.00     0.031 C 
ATOM     64  C   UNL A   1      42.951  33.585  31.879  1.00  0.00     0.037 A 
BRANCH  51  65
ATOM     65  C   UNL A   1      46.429  28.670  30.531  1.00  0.00     0.064 A 
ATOM     66  C   UNL A   1      47.382  28.809  29.511  1.00  0.00     0.173 A 
ATOM     67  C   UNL A   1      46.794  27.945  31.675  1.00  0.00     0.173 A 
ATOM     68  F   UNL A   1      47.079  29.485  28.393  1.00  0.00    -0.203 F 
ATOM     69  C   UNL A   1      48.643  28.230  29.625  1.00  0.00     0.198 A 
ATOM     70  C   UNL A   1      48.066  27.391  31.798  1.00  0.00     0.198 A 
ATOM     71  F   UNL A   1      45.923  27.787  32.684  1.00  0.00    -0.203 F 
ATOM     72  F   UNL A   1      49.524  28.345  28.621  1.00  0.00    -0.200 F 
ATOM     73  C   UNL A   1      48.987  27.530  30.771  1.00  0.00     0.200 A 
ATOM     74  F   UNL A   1      48.402  26.727  32.913  1.00  0.00    -0.200 F 
ATOM     75  F   UNL A   1      50.207  26.985  30.885  1.00  0.00    -0.200 F 
ENDBRANCH  51  65
BRANCH  52  76
ATOM     76  C   UNL A   1      37.238  32.562  30.150  1.00  0.00     0.064 A 
ATOM     77  C   UNL A   1      36.817  33.451  29.152  1.00  0.00     0.173 A 
ATOM     78  C   UNL A   1      36.324  32.236  31.162  1.00  0.00     0.173 A 
ATOM     79  F   UNL A   1      37.663  33.809  28.174  1.00  0.00    -0.203 F 
ATOM     80  C   UNL A   1      35.544  34.016  29.182  1.00  0.00     0.198 A 
ATOM     81  C   UNL A   1      35.040  32.778  31.174  1.00  0.00     0.198 A 
ATOM     82  F   UNL A   1      36.674  31.385  32.137  1.00  0.00    -0.203 F 
ATOM     83  F   UNL A   1      35.185  34.904  28.245  1.00  0.00    -0.200 F 
ATOM     84  C   UNL A   1      34.654  33.675  30.190  1.00  0.00     0.200 A 
ATOM     85  F   UNL A   1      34.179  32.433  32.141  1.00  0.00    -0.200 F 
ATOM     86  F   UNL A   1      33.429  34.218  30.217  1.00  0.00    -0.200 F 
ENDBRANCH  52  76
BRANCH  64  87
ATOM     87  C   UNL A   1      43.367  34.869  32.534  1.00  0.00     0.064 A 
ATOM     88  C   UNL A   1      43.416  35.004  33.928  1.00  0.00     0.173 A 
ATOM     89  C   UNL A   1      43.773  35.962  31.752  1.00  0.00     0.173 A 
ATOM     90  F   UNL A   1      43.022  33.993  34.719  1.00  0.00    -0.203 F 
ATOM     91  C   UNL A   1      43.836  36.193  34.517  1.00  0.00     0.198 A 
ATOM     92  C   UNL A   1      44.221  37.139  32.344  1.00  0.00     0.198 A 
ATOM     93  F   UNL A   1      43.752  35.881  30.413  1.00  0.00    -0.203 F 
ATOM     94  F   UNL A   1      43.834  36.315  35.853  1.00  0.00    -0.200 F 
ATOM     95  C   UNL A   1      44.247  37.255  33.726  1.00  0.00     0.200 A 
ATOM     96  F   UNL A   1      44.632  38.159  31.579  1.00  0.00    -0.200 F 
ATOM     97  F   UNL A   1      44.662  38.395  34.296  1.00  0.00    -0.200 F 
ENDBRANCH  64  87
ENDBRANCH  38  39
ENDBRANCH  30  33
ENDBRANCH  28  29
ENDBRANCH   1  28
TORSDOF 14
ENDMDL
