MODEL 1
REMARK VINA RESULT:     -11.8      0.000      0.000
REMARK SMILES CCC(CC)(C(=O)NCCCNC(=O)c1ccc(-c2c3nc(c(-c4c(F)c(F)c(F)c(F)c4F)c4ccc([nH]4)c(-c4c(F)c(F)c(F)c(F)c4F)c4nc(c(-c5c(F)c(F)c(F)c(F)c5F)c5ccc2[nH]5)C=C4)C=C3)cc1)n1nnnc1CC[C@@H]1CCCO1
REMARK SMILES IDX 9 1 8 2 6 3 7 4 3 6 2 7 1 8 4 9 5 10 78 11 79 12 82 13 80 14
REMARK SMILES IDX 81 15 83 16 84 17 85 18 86 19 89 20 87 21 88 22 10 23 11 24
REMARK SMILES IDX 12 25 13 26 14 28 15 29 16 30 77 31 17 32 76 33 18 34 19 35
REMARK SMILES IDX 20 36 70 37 21 38 75 39 69 40 71 41 22 42 74 43 68 44 67 45
REMARK SMILES IDX 23 47 55 48 35 49 54 50 36 51 39 52 53 53 72 54 37 55 38 56
REMARK SMILES IDX 52 58 73 59 40 60 24 61 25 62 33 63 26 64 27 65 31 66 34 67
REMARK SMILES IDX 28 68 29 69 32 70 30 71 56 72 57 73 65 74 58 75 59 76 63 77
REMARK SMILES IDX 66 78 60 79 61 80 64 81 62 82 41 83 42 84 50 85 43 86 44 87
REMARK SMILES IDX 48 88 51 89 45 90 46 91 49 92 47 93
REMARK H PARENT 8 5 12 27 71 46 39 57
REMARK Flexibility Score: inf
ROOT
ATOM      1  C   UNL A   1      31.474  30.263  26.096  1.00  0.00     0.117 C 
ENDROOT
BRANCH   1   2
ATOM      2  N   UNL A   1      32.282  30.043  24.915  1.00  0.00    -0.354 N 
ATOM      3  C   UNL A   1      32.850  28.905  24.410  1.00  0.00     0.248 C 
ATOM      4  O   UNL A   1      33.114  28.955  23.203  1.00  0.00    -0.272 OA
ATOM      5  H   UNL A   1      32.454  30.853  24.382  1.00  0.00     0.163 HD
BRANCH   3   6
ATOM      6  C   UNL A   1      33.097  27.614  25.252  1.00  0.00     0.144 C 
BRANCH   6   7
ATOM      7  C   UNL A   1      34.033  26.618  24.486  1.00  0.00     0.037 C 
ATOM      8  C   UNL A   1      34.434  25.367  25.259  1.00  0.00     0.007 C 
ENDBRANCH   6   7
BRANCH   6   9
ATOM      9  C   UNL A   1      33.610  28.003  26.666  1.00  0.00     0.037 C 
ATOM     10  C   UNL A   1      34.770  28.948  26.917  1.00  0.00     0.007 C 
ENDBRANCH   6   9
BRANCH   6  11
ATOM     11  N   UNL A   1      31.768  26.919  25.369  1.00  0.00    -0.214 N 
ATOM     12  N   UNL A   1      31.494  26.293  26.545  1.00  0.00    -0.044 NA
ATOM     13  C   UNL A   1      30.614  26.894  24.598  1.00  0.00     0.152 A 
ATOM     14  N   UNL A   1      30.219  25.957  26.502  1.00  0.00    -0.024 NA
ATOM     15  N   UNL A   1      29.661  26.338  25.324  1.00  0.00    -0.114 NA
BRANCH  13  16
ATOM     16  C   UNL A   1      30.360  27.380  23.213  1.00  0.00     0.082 C 
BRANCH  16  17
ATOM     17  C   UNL A   1      29.093  28.226  23.092  1.00  0.00     0.040 C 
BRANCH  17  18
ATOM     18  C   UNL A   1      29.392  29.641  22.603  1.00  0.00     0.118 C 
ATOM     19  C   UNL A   1      28.789  30.757  23.437  1.00  0.00     0.034 C 
ATOM     20  O   UNL A   1      28.826  29.818  21.289  1.00  0.00    -0.378 OA
ATOM     21  C   UNL A   1      28.813  31.894  22.446  1.00  0.00     0.031 C 
ATOM     22  C   UNL A   1      28.452  31.198  21.149  1.00  0.00     0.160 C 
ENDBRANCH  17  18
ENDBRANCH  16  17
ENDBRANCH  13  16
ENDBRANCH   6  11
ENDBRANCH   3   6
ENDBRANCH   1   2
BRANCH   1  23
ATOM     23  C   UNL A   1      31.325  31.713  26.496  1.00  0.00     0.042 C 
BRANCH  23  24
ATOM     24  C   UNL A   1      32.581  32.287  27.123  1.00  0.00     0.118 C 
BRANCH  24  25
ATOM     25  N   UNL A   1      32.456  33.710  27.436  1.00  0.00    -0.352 N 
ATOM     26  C   UNL A   1      33.076  34.483  28.383  1.00  0.00     0.251 C 
ATOM     27  H   UNL A   1      31.817  34.197  26.867  1.00  0.00     0.163 HD
ATOM     28  O   UNL A   1      32.652  35.615  28.615  1.00  0.00    -0.269 OA
BRANCH  26  29
ATOM     29  C   UNL A   1      34.229  33.960  29.142  1.00  0.00     0.039 A 
ATOM     30  C   UNL A   1      34.015  33.010  30.143  1.00  0.00     0.014 A 
ATOM     31  C   UNL A   1      35.523  34.404  28.870  1.00  0.00     0.014 A 
ATOM     32  C   UNL A   1      35.107  32.447  30.803  1.00  0.00     0.010 A 
ATOM     33  C   UNL A   1      36.612  33.750  29.427  1.00  0.00     0.010 A 
ATOM     34  C   UNL A   1      36.416  32.772  30.410  1.00  0.00    -0.014 A 
BRANCH  34  35
ATOM     35  C   UNL A   1      37.593  32.103  31.019  1.00  0.00     0.031 A 
ATOM     36  C   UNL A   1      38.074  32.508  32.385  1.00  0.00     0.074 A 
ATOM     37  C   UNL A   1      38.258  31.169  30.310  1.00  0.00     0.049 A 
ATOM     38  N   UNL A   1      39.104  32.069  33.063  1.00  0.00    -0.248 NA
ATOM     39  C   UNL A   1      37.320  33.572  33.070  1.00  0.00     0.031 C 
ATOM     40  C   UNL A   1      37.931  30.748  28.946  1.00  0.00     0.029 A 
ATOM     41  N   UNL A   1      39.352  30.409  30.636  1.00  0.00    -0.354 N 
ATOM     42  C   UNL A   1      39.122  32.802  34.241  1.00  0.00     0.074 A 
ATOM     43  C   UNL A   1      38.050  33.768  34.158  1.00  0.00     0.031 C 
ATOM     44  C   UNL A   1      38.778  29.780  28.568  1.00  0.00     0.029 A 
ATOM     45  C   UNL A   1      39.736  29.542  29.642  1.00  0.00     0.049 A 
ATOM     46  H   UNL A   1      39.818  30.477  31.501  1.00  0.00     0.167 HD
ATOM     47  C   UNL A   1      39.933  32.657  35.315  1.00  0.00     0.037 A 
ATOM     48  C   UNL A   1      40.752  28.659  29.600  1.00  0.00     0.037 A 
ATOM     49  C   UNL A   1      40.987  31.680  35.399  1.00  0.00     0.049 A 
ATOM     50  C   UNL A   1      41.641  28.521  30.807  1.00  0.00     0.074 A 
ATOM     51  C   UNL A   1      41.837  31.417  36.458  1.00  0.00     0.029 A 
ATOM     52  N   UNL A   1      41.335  30.804  34.380  1.00  0.00    -0.354 N 
ATOM     53  N   UNL A   1      41.596  29.167  31.948  1.00  0.00    -0.248 NA
ATOM     54  C   UNL A   1      42.714  27.523  30.724  1.00  0.00     0.031 C 
ATOM     55  C   UNL A   1      42.732  30.418  36.062  1.00  0.00     0.029 A 
ATOM     56  C   UNL A   1      42.401  30.016  34.778  1.00  0.00     0.049 A 
ATOM     57  H   UNL A   1      40.889  30.752  33.504  1.00  0.00     0.167 HD
ATOM     58  C   UNL A   1      42.618  28.637  32.725  1.00  0.00     0.074 A 
ATOM     59  C   UNL A   1      43.244  27.597  31.936  1.00  0.00     0.031 C 
ATOM     60  C   UNL A   1      43.010  28.986  33.976  1.00  0.00     0.037 A 
BRANCH  47  61
ATOM     61  C   UNL A   1      39.704  33.562  36.491  1.00  0.00     0.064 A 
ATOM     62  C   UNL A   1      40.288  34.838  36.560  1.00  0.00     0.173 A 
ATOM     63  C   UNL A   1      38.857  33.173  37.540  1.00  0.00     0.173 A 
ATOM     64  F   UNL A   1      41.118  35.253  35.592  1.00  0.00    -0.203 F 
ATOM     65  C   UNL A   1      40.051  35.678  37.644  1.00  0.00     0.198 A 
ATOM     66  C   UNL A   1      38.596  34.030  38.606  1.00  0.00     0.198 A 
ATOM     67  F   UNL A   1      38.272  31.967  37.526  1.00  0.00    -0.203 F 
ATOM     68  F   UNL A   1      40.658  36.872  37.709  1.00  0.00    -0.200 F 
ATOM     69  C   UNL A   1      39.197  35.279  38.660  1.00  0.00     0.200 A 
ATOM     70  F   UNL A   1      37.761  33.648  39.581  1.00  0.00    -0.200 F 
ATOM     71  F   UNL A   1      38.959  36.095  39.697  1.00  0.00    -0.200 F 
ENDBRANCH  47  61
BRANCH  48  72
ATOM     72  C   UNL A   1      40.974  27.830  28.387  1.00  0.00     0.064 A 
ATOM     73  C   UNL A   1      41.800  28.275  27.345  1.00  0.00     0.173 A 
ATOM     74  C   UNL A   1      40.348  26.584  28.232  1.00  0.00     0.173 A 
ATOM     75  F   UNL A   1      42.411  29.467  27.437  1.00  0.00    -0.203 F 
ATOM     76  C   UNL A   1      41.965  27.525  26.182  1.00  0.00     0.198 A 
ATOM     77  C   UNL A   1      40.543  25.817  27.084  1.00  0.00     0.198 A 
ATOM     78  F   UNL A   1      39.556  26.105  29.201  1.00  0.00    -0.203 F 
ATOM     79  F   UNL A   1      42.711  28.003  25.178  1.00  0.00    -0.200 F 
ATOM     80  C   UNL A   1      41.339  26.293  26.055  1.00  0.00     0.200 A 
ATOM     81  F   UNL A   1      39.951  24.620  26.975  1.00  0.00    -0.200 F 
ATOM     82  F   UNL A   1      41.497  25.572  24.937  1.00  0.00    -0.200 F 
ENDBRANCH  48  72
BRANCH  60  83
ATOM     83  C   UNL A   1      44.152  28.213  34.572  1.00  0.00     0.064 A 
ATOM     84  C   UNL A   1      45.480  28.649  34.452  1.00  0.00     0.173 A 
ATOM     85  C   UNL A   1      43.913  27.027  35.283  1.00  0.00     0.173 A 
ATOM     86  F   UNL A   1      45.763  29.770  33.769  1.00  0.00    -0.203 F 
ATOM     87  C   UNL A   1      46.529  27.906  34.986  1.00  0.00     0.198 A 
ATOM     88  C   UNL A   1      44.961  26.307  35.849  1.00  0.00     0.198 A 
ATOM     89  F   UNL A   1      42.661  26.569  35.437  1.00  0.00    -0.203 F 
ATOM     90  F   UNL A   1      47.793  28.308  34.800  1.00  0.00    -0.200 F 
ATOM     91  C   UNL A   1      46.268  26.740  35.689  1.00  0.00     0.200 A 
ATOM     92  F   UNL A   1      44.705  25.190  36.544  1.00  0.00    -0.200 F 
ATOM     93  F   UNL A   1      47.279  26.027  36.204  1.00  0.00    -0.200 F 
ENDBRANCH  60  83
ENDBRANCH  34  35
ENDBRANCH  26  29
ENDBRANCH  24  25
ENDBRANCH  23  24
ENDBRANCH   1  23
TORSDOF 16
ENDMDL
MODEL 2
REMARK VINA RESULT:     -11.7      6.136     10.211
REMARK SMILES CCC(CC)(C(=O)NCCCNC(=O)c1ccc(-c2c3nc(c(-c4c(F)c(F)c(F)c(F)c4F)c4ccc([nH]4)c(-c4c(F)c(F)c(F)c(F)c4F)c4nc(c(-c5c(F)c(F)c(F)c(F)c5F)c5ccc2[nH]5)C=C4)C=C3)cc1)n1nnnc1CC[C@@H]1CCCO1
REMARK SMILES IDX 9 1 8 2 6 3 7 4 3 6 2 7 1 8 4 9 5 10 78 11 79 12 82 13 80 14
REMARK SMILES IDX 81 15 83 16 84 17 85 18 86 19 89 20 87 21 88 22 10 23 11 24
REMARK SMILES IDX 12 25 13 26 14 28 15 29 16 30 77 31 17 32 76 33 18 34 19 35
REMARK SMILES IDX 20 36 70 37 21 38 75 39 69 40 71 41 22 42 74 43 68 44 67 45
REMARK SMILES IDX 23 47 55 48 35 49 54 50 36 51 39 52 53 53 72 54 37 55 38 56
REMARK SMILES IDX 52 58 73 59 40 60 24 61 25 62 33 63 26 64 27 65 31 66 34 67
REMARK SMILES IDX 28 68 29 69 32 70 30 71 56 72 57 73 65 74 58 75 59 76 63 77
REMARK SMILES IDX 66 78 60 79 61 80 64 81 62 82 41 83 42 84 50 85 43 86 44 87
REMARK SMILES IDX 48 88 51 89 45 90 46 91 49 92 47 93
REMARK H PARENT 8 5 12 27 71 46 39 57
REMARK Flexibility Score: inf
ROOT
ATOM      1  C   UNL A   1      36.898  20.729  24.633  1.00  0.00     0.117 C 
ENDROOT
BRANCH   1   2
ATOM      2  N   UNL A   1      36.047  20.862  25.797  1.00  0.00    -0.354 N 
ATOM      3  C   UNL A   1      35.120  21.811  26.132  1.00  0.00     0.248 C 
ATOM      4  O   UNL A   1      34.279  21.439  26.958  1.00  0.00    -0.272 OA
ATOM      5  H   UNL A   1      36.153  20.145  26.463  1.00  0.00     0.163 HD
BRANCH   3   6
ATOM      6  C   UNL A   1      35.067  23.234  25.491  1.00  0.00     0.144 C 
BRANCH   6   7
ATOM      7  C   UNL A   1      34.218  24.212  26.373  1.00  0.00     0.037 C 
ATOM      8  C   UNL A   1      33.902  25.562  25.738  1.00  0.00     0.007 C 
ENDBRANCH   6   7
BRANCH   6   9
ATOM      9  C   UNL A   1      36.511  23.731  25.206  1.00  0.00     0.037 C 
ATOM     10  C   UNL A   1      37.540  24.012  26.283  1.00  0.00     0.007 C 
ENDBRANCH   6   9
BRANCH   6  11
ATOM     11  N   UNL A   1      34.315  23.092  24.197  1.00  0.00    -0.214 N 
ATOM     12  N   UNL A   1      34.799  23.764  23.118  1.00  0.00    -0.044 NA
ATOM     13  C   UNL A   1      33.287  22.269  23.755  1.00  0.00     0.152 A 
ATOM     14  N   UNL A   1      34.129  23.324  22.071  1.00  0.00    -0.024 NA
ATOM     15  N   UNL A   1      33.213  22.392  22.442  1.00  0.00    -0.114 NA
BRANCH  13  16
ATOM     16  C   UNL A   1      32.377  21.363  24.509  1.00  0.00     0.082 C 
BRANCH  16  17
ATOM     17  C   UNL A   1      32.292  19.958  23.913  1.00  0.00     0.040 C 
BRANCH  17  18
ATOM     18  C   UNL A   1      33.075  18.937  24.735  1.00  0.00     0.118 C 
ATOM     19  C   UNL A   1      34.012  18.045  23.941  1.00  0.00     0.034 C 
ATOM     20  O   UNL A   1      32.152  18.029  25.366  1.00  0.00    -0.378 OA
ATOM     21  C   UNL A   1      34.188  16.895  24.901  1.00  0.00     0.031 C 
ATOM     22  C   UNL A   1      32.798  16.752  25.487  1.00  0.00     0.160 C 
ENDBRANCH  17  18
ENDBRANCH  16  17
ENDBRANCH  13  16
ENDBRANCH   6  11
ENDBRANCH   3   6
ENDBRANCH   1   2
BRANCH   1  23
ATOM     23  C   UNL A   1      38.003  19.707  24.774  1.00  0.00     0.042 C 
BRANCH  23  24
ATOM     24  C   UNL A   1      39.082  20.132  25.751  1.00  0.00     0.118 C 
BRANCH  24  25
ATOM     25  N   UNL A   1      40.101  19.103  25.949  1.00  0.00    -0.352 N 
ATOM     26  C   UNL A   1      41.458  19.197  26.123  1.00  0.00     0.251 C 
ATOM     27  H   UNL A   1      39.752  18.182  25.962  1.00  0.00     0.163 HD
ATOM     28  O   UNL A   1      42.152  18.184  26.048  1.00  0.00    -0.269 OA
BRANCH  26  29
ATOM     29  C   UNL A   1      42.092  20.506  26.372  1.00  0.00     0.039 A 
ATOM     30  C   UNL A   1      42.535  21.270  25.290  1.00  0.00     0.014 A 
ATOM     31  C   UNL A   1      42.254  20.985  27.673  1.00  0.00     0.014 A 
ATOM     32  C   UNL A   1      43.056  22.544  25.513  1.00  0.00     0.010 A 
ATOM     33  C   UNL A   1      42.643  22.300  27.884  1.00  0.00     0.010 A 
ATOM     34  C   UNL A   1      43.061  23.091  26.807  1.00  0.00    -0.014 A 
BRANCH  34  35
ATOM     35  C   UNL A   1      43.504  24.486  27.054  1.00  0.00     0.031 A 
ATOM     36  C   UNL A   1      42.530  25.511  27.566  1.00  0.00     0.074 A 
ATOM     37  C   UNL A   1      44.771  24.836  26.758  1.00  0.00     0.049 A 
ATOM     38  N   UNL A   1      42.719  26.785  27.803  1.00  0.00    -0.248 NA
ATOM     39  C   UNL A   1      41.150  25.058  27.815  1.00  0.00     0.031 C 
ATOM     40  C   UNL A   1      45.784  23.947  26.185  1.00  0.00     0.029 A 
ATOM     41  N   UNL A   1      45.424  26.034  26.894  1.00  0.00    -0.354 N 
ATOM     42  C   UNL A   1      41.491  27.278  28.221  1.00  0.00     0.074 A 
ATOM     43  C   UNL A   1      40.543  26.191  28.132  1.00  0.00     0.031 C 
ATOM     44  C   UNL A   1      46.938  24.617  26.055  1.00  0.00     0.029 A 
ATOM     45  C   UNL A   1      46.737  25.995  26.493  1.00  0.00     0.049 A 
ATOM     46  H   UNL A   1      44.993  26.846  27.247  1.00  0.00     0.167 HD
ATOM     47  C   UNL A   1      41.187  28.517  28.675  1.00  0.00     0.037 A 
ATOM     48  C   UNL A   1      47.672  26.964  26.474  1.00  0.00     0.037 A 
ATOM     49  C   UNL A   1      42.141  29.590  28.778  1.00  0.00     0.049 A 
ATOM     50  C   UNL A   1      47.306  28.332  26.983  1.00  0.00     0.074 A 
ATOM     51  C   UNL A   1      41.949  30.869  29.269  1.00  0.00     0.029 A 
ATOM     52  N   UNL A   1      43.467  29.508  28.381  1.00  0.00    -0.354 N 
ATOM     53  N   UNL A   1      46.159  28.763  27.450  1.00  0.00    -0.248 NA
ATOM     54  C   UNL A   1      48.369  29.345  26.972  1.00  0.00     0.031 C 
ATOM     55  C   UNL A   1      43.147  31.576  29.122  1.00  0.00     0.029 A 
ATOM     56  C   UNL A   1      44.101  30.721  28.596  1.00  0.00     0.049 A 
ATOM     57  H   UNL A   1      43.895  28.706  28.003  1.00  0.00     0.167 HD
ATOM     58  C   UNL A   1      46.369  30.088  27.809  1.00  0.00     0.074 A 
ATOM     59  C   UNL A   1      47.761  30.378  27.535  1.00  0.00     0.031 C 
ATOM     60  C   UNL A   1      45.488  30.988  28.314  1.00  0.00     0.037 A 
BRANCH  47  61
ATOM     61  C   UNL A   1      39.773  28.774  29.111  1.00  0.00     0.064 A 
ATOM     62  C   UNL A   1      39.353  28.517  30.427  1.00  0.00     0.173 A 
ATOM     63  C   UNL A   1      38.839  29.324  28.222  1.00  0.00     0.173 A 
ATOM     64  F   UNL A   1      40.202  27.976  31.313  1.00  0.00    -0.203 F 
ATOM     65  C   UNL A   1      38.046  28.780  30.827  1.00  0.00     0.198 A 
ATOM     66  C   UNL A   1      37.541  29.617  28.636  1.00  0.00     0.198 A 
ATOM     67  F   UNL A   1      39.185  29.591  26.955  1.00  0.00    -0.203 F 
ATOM     68  F   UNL A   1      37.657  28.482  32.075  1.00  0.00    -0.200 F 
ATOM     69  C   UNL A   1      37.145  29.340  29.935  1.00  0.00     0.200 A 
ATOM     70  F   UNL A   1      36.674  30.170  27.776  1.00  0.00    -0.200 F 
ATOM     71  F   UNL A   1      35.890  29.605  30.326  1.00  0.00    -0.200 F 
ENDBRANCH  47  61
BRANCH  48  72
ATOM     72  C   UNL A   1      49.041  26.673  25.974  1.00  0.00     0.064 A 
ATOM     73  C   UNL A   1      50.015  26.109  26.812  1.00  0.00     0.173 A 
ATOM     74  C   UNL A   1      49.414  26.973  24.656  1.00  0.00     0.173 A 
ATOM     75  F   UNL A   1      49.714  25.817  28.087  1.00  0.00    -0.203 F 
ATOM     76  C   UNL A   1      51.315  25.889  26.361  1.00  0.00     0.198 A 
ATOM     77  C   UNL A   1      50.705  26.718  24.195  1.00  0.00     0.198 A 
ATOM     78  F   UNL A   1      48.520  27.504  23.809  1.00  0.00    -0.203 F 
ATOM     79  F   UNL A   1      52.240  25.406  27.201  1.00  0.00    -0.200 F 
ATOM     80  C   UNL A   1      51.658  26.189  25.051  1.00  0.00     0.200 A 
ATOM     81  F   UNL A   1      51.025  26.992  22.923  1.00  0.00    -0.200 F 
ATOM     82  F   UNL A   1      52.908  25.977  24.618  1.00  0.00    -0.200 F 
ENDBRANCH  48  72
BRANCH  60  83
ATOM     83  C   UNL A   1      46.017  32.360  28.623  1.00  0.00     0.064 A 
ATOM     84  C   UNL A   1      46.567  32.673  29.875  1.00  0.00     0.173 A 
ATOM     85  C   UNL A   1      45.984  33.370  27.650  1.00  0.00     0.173 A 
ATOM     86  F   UNL A   1      46.609  31.746  30.845  1.00  0.00    -0.203 F 
ATOM     87  C   UNL A   1      47.027  33.956  30.154  1.00  0.00     0.198 A 
ATOM     88  C   UNL A   1      46.479  34.642  27.920  1.00  0.00     0.198 A 
ATOM     89  F   UNL A   1      45.476  33.122  26.433  1.00  0.00    -0.203 F 
ATOM     90  F   UNL A   1      47.486  34.250  31.378  1.00  0.00    -0.200 F 
ATOM     91  C   UNL A   1      46.989  34.938  29.174  1.00  0.00     0.200 A 
ATOM     92  F   UNL A   1      46.458  35.584  26.966  1.00  0.00    -0.200 F 
ATOM     93  F   UNL A   1      47.433  36.173  29.445  1.00  0.00    -0.200 F 
ENDBRANCH  60  83
ENDBRANCH  34  35
ENDBRANCH  26  29
ENDBRANCH  24  25
ENDBRANCH  23  24
ENDBRANCH   1  23
TORSDOF 16
ENDMDL
MODEL 3
REMARK VINA RESULT:     -11.6      1.449      8.023
REMARK SMILES CCC(CC)(C(=O)NCCCNC(=O)c1ccc(-c2c3nc(c(-c4c(F)c(F)c(F)c(F)c4F)c4ccc([nH]4)c(-c4c(F)c(F)c(F)c(F)c4F)c4nc(c(-c5c(F)c(F)c(F)c(F)c5F)c5ccc2[nH]5)C=C4)C=C3)cc1)n1nnnc1CC[C@@H]1CCCO1
REMARK SMILES IDX 9 1 8 2 6 3 7 4 3 6 2 7 1 8 4 9 5 10 78 11 79 12 82 13 80 14
REMARK SMILES IDX 81 15 83 16 84 17 85 18 86 19 89 20 87 21 88 22 10 23 11 24
REMARK SMILES IDX 12 25 13 26 14 28 15 29 16 30 77 31 17 32 76 33 18 34 19 35
REMARK SMILES IDX 20 36 70 37 21 38 75 39 69 40 71 41 22 42 74 43 68 44 67 45
REMARK SMILES IDX 23 47 55 48 35 49 54 50 36 51 39 52 53 53 72 54 37 55 38 56
REMARK SMILES IDX 52 58 73 59 40 60 24 61 25 62 33 63 26 64 27 65 31 66 34 67
REMARK SMILES IDX 28 68 29 69 32 70 30 71 56 72 57 73 65 74 58 75 59 76 63 77
REMARK SMILES IDX 66 78 60 79 61 80 64 81 62 82 41 83 42 84 50 85 43 86 44 87
REMARK SMILES IDX 48 88 51 89 45 90 46 91 49 92 47 93
REMARK H PARENT 8 5 12 27 71 46 39 57
REMARK Flexibility Score: inf
ROOT
ATOM      1  C   UNL A   1      31.515  30.734  26.339  1.00  0.00     0.117 C 
ENDROOT
BRANCH   1   2
ATOM      2  N   UNL A   1      31.159  30.281  25.011  1.00  0.00    -0.354 N 
ATOM      3  C   UNL A   1      31.512  29.156  24.317  1.00  0.00     0.248 C 
ATOM      4  O   UNL A   1      30.737  28.851  23.404  1.00  0.00    -0.272 OA
ATOM      5  H   UNL A   1      30.557  30.887  24.522  1.00  0.00     0.163 HD
BRANCH   3   6
ATOM      6  C   UNL A   1      32.753  28.277  24.669  1.00  0.00     0.144 C 
BRANCH   6   7
ATOM      7  C   UNL A   1      33.285  27.528  23.399  1.00  0.00     0.037 C 
ATOM      8  C   UNL A   1      34.075  28.384  22.415  1.00  0.00     0.007 C 
ENDBRANCH   6   7
BRANCH   6   9
ATOM      9  C   UNL A   1      33.823  29.146  25.384  1.00  0.00     0.037 C 
ATOM     10  C   UNL A   1      34.328  28.884  26.790  1.00  0.00     0.007 C 
ENDBRANCH   6   9
BRANCH   6  11
ATOM     11  N   UNL A   1      32.266  27.203  25.603  1.00  0.00    -0.214 N 
ATOM     12  N   UNL A   1      30.993  27.314  26.069  1.00  0.00    -0.044 NA
ATOM     13  C   UNL A   1      32.755  25.967  26.003  1.00  0.00     0.152 A 
ATOM     14  N   UNL A   1      30.714  26.175  26.673  1.00  0.00    -0.024 NA
ATOM     15  N   UNL A   1      31.777  25.331  26.622  1.00  0.00    -0.114 NA
BRANCH  13  16
ATOM     16  C   UNL A   1      34.098  25.348  25.819  1.00  0.00     0.082 C 
BRANCH  16  17
ATOM     17  C   UNL A   1      34.060  23.821  25.782  1.00  0.00     0.040 C 
BRANCH  17  18
ATOM     18  C   UNL A   1      35.411  23.205  26.137  1.00  0.00     0.118 C 
ATOM     19  C   UNL A   1      36.596  23.745  25.357  1.00  0.00     0.034 C 
ATOM     20  O   UNL A   1      35.383  21.796  25.834  1.00  0.00    -0.378 OA
ATOM     21  C   UNL A   1      37.591  22.628  25.547  1.00  0.00     0.031 C 
ATOM     22  C   UNL A   1      36.712  21.396  25.462  1.00  0.00     0.160 C 
ENDBRANCH  17  18
ENDBRANCH  16  17
ENDBRANCH  13  16
ENDBRANCH   6  11
ENDBRANCH   3   6
ENDBRANCH   1   2
BRANCH   1  23
ATOM     23  C   UNL A   1      31.415  32.229  26.543  1.00  0.00     0.042 C 
BRANCH  23  24
ATOM     24  C   UNL A   1      32.602  32.807  27.287  1.00  0.00     0.118 C 
BRANCH  24  25
ATOM     25  N   UNL A   1      32.419  34.215  27.636  1.00  0.00    -0.352 N 
ATOM     26  C   UNL A   1      32.989  34.983  28.618  1.00  0.00     0.251 C 
ATOM     27  H   UNL A   1      31.776  34.695  27.065  1.00  0.00     0.163 HD
ATOM     28  O   UNL A   1      32.519  36.092  28.871  1.00  0.00    -0.269 OA
BRANCH  26  29
ATOM     29  C   UNL A   1      34.142  34.479  29.390  1.00  0.00     0.039 A 
ATOM     30  C   UNL A   1      33.925  33.883  30.634  1.00  0.00     0.014 A 
ATOM     31  C   UNL A   1      35.440  34.594  28.891  1.00  0.00     0.014 A 
ATOM     32  C   UNL A   1      35.000  33.327  31.328  1.00  0.00     0.010 A 
ATOM     33  C   UNL A   1      36.483  33.925  29.513  1.00  0.00     0.010 A 
ATOM     34  C   UNL A   1      36.278  33.294  30.746  1.00  0.00    -0.014 A 
BRANCH  34  35
ATOM     35  C   UNL A   1      37.412  32.609  31.414  1.00  0.00     0.031 A 
ATOM     36  C   UNL A   1      38.090  31.442  30.750  1.00  0.00     0.074 A 
ATOM     37  C   UNL A   1      37.788  33.007  32.646  1.00  0.00     0.049 A 
ATOM     38  N   UNL A   1      39.067  30.692  31.194  1.00  0.00    -0.248 NA
ATOM     39  C   UNL A   1      37.584  31.038  29.427  1.00  0.00     0.031 C 
ATOM     40  C   UNL A   1      37.156  34.077  33.420  1.00  0.00     0.029 A 
ATOM     41  N   UNL A   1      38.790  32.555  33.465  1.00  0.00    -0.354 N 
ATOM     42  C   UNL A   1      39.285  29.735  30.212  1.00  0.00     0.074 A 
ATOM     43  C   UNL A   1      38.291  29.946  29.184  1.00  0.00     0.031 C 
ATOM     44  C   UNL A   1      37.808  34.225  34.583  1.00  0.00     0.029 A 
ATOM     45  C   UNL A   1      38.875  33.233  34.657  1.00  0.00     0.049 A 
ATOM     46  H   UNL A   1      39.394  31.815  33.223  1.00  0.00     0.167 HD
ATOM     47  C   UNL A   1      40.253  28.790  30.153  1.00  0.00     0.037 A 
ATOM     48  C   UNL A   1      39.715  33.067  35.696  1.00  0.00     0.037 A 
ATOM     49  C   UNL A   1      41.251  28.598  31.171  1.00  0.00     0.049 A 
ATOM     50  C   UNL A   1      40.779  32.007  35.604  1.00  0.00     0.074 A 
ATOM     51  C   UNL A   1      42.304  27.701  31.188  1.00  0.00     0.029 A 
ATOM     52  N   UNL A   1      41.318  29.317  32.356  1.00  0.00    -0.354 N 
ATOM     53  N   UNL A   1      41.024  31.160  34.633  1.00  0.00    -0.248 NA
ATOM     54  C   UNL A   1      41.691  31.887  36.749  1.00  0.00     0.031 C 
ATOM     55  C   UNL A   1      42.978  27.842  32.406  1.00  0.00     0.029 A 
ATOM     56  C   UNL A   1      42.382  28.868  33.122  1.00  0.00     0.049 A 
ATOM     57  H   UNL A   1      40.701  30.039  32.615  1.00  0.00     0.167 HD
ATOM     58  C   UNL A   1      42.130  30.424  35.039  1.00  0.00     0.074 A 
ATOM     59  C   UNL A   1      42.526  30.947  36.330  1.00  0.00     0.031 C 
ATOM     60  C   UNL A   1      42.757  29.402  34.405  1.00  0.00     0.037 A 
BRANCH  47  61
ATOM     61  C   UNL A   1      40.289  27.903  28.941  1.00  0.00     0.064 A 
ATOM     62  C   UNL A   1      41.033  28.250  27.801  1.00  0.00     0.173 A 
ATOM     63  C   UNL A   1      39.614  26.674  28.933  1.00  0.00     0.173 A 
ATOM     64  F   UNL A   1      41.685  29.421  27.750  1.00  0.00    -0.203 F 
ATOM     65  C   UNL A   1      41.078  27.410  26.692  1.00  0.00     0.198 A 
ATOM     66  C   UNL A   1      39.690  25.822  27.834  1.00  0.00     0.198 A 
ATOM     67  F   UNL A   1      38.890  26.292  29.995  1.00  0.00    -0.203 F 
ATOM     68  F   UNL A   1      41.756  27.786  25.597  1.00  0.00    -0.200 F 
ATOM     69  C   UNL A   1      40.417  26.193  26.713  1.00  0.00     0.200 A 
ATOM     70  F   UNL A   1      39.060  24.639  27.860  1.00  0.00    -0.200 F 
ATOM     71  F   UNL A   1      40.473  25.379  25.649  1.00  0.00    -0.200 F 
ENDBRANCH  47  61
BRANCH  48  72
ATOM     72  C   UNL A   1      39.597  33.931  36.900  1.00  0.00     0.064 A 
ATOM     73  C   UNL A   1      38.850  33.524  38.014  1.00  0.00     0.173 A 
ATOM     74  C   UNL A   1      40.210  35.192  36.954  1.00  0.00     0.173 A 
ATOM     75  F   UNL A   1      38.231  32.333  38.007  1.00  0.00    -0.203 F 
ATOM     76  C   UNL A   1      38.691  34.356  39.121  1.00  0.00     0.198 A 
ATOM     77  C   UNL A   1      40.081  36.008  38.076  1.00  0.00     0.198 A 
ATOM     78  F   UNL A   1      40.945  35.627  35.921  1.00  0.00    -0.203 F 
ATOM     79  F   UNL A   1      37.922  33.966  40.145  1.00  0.00    -0.200 F 
ATOM     80  C   UNL A   1      39.312  35.596  39.153  1.00  0.00     0.200 A 
ATOM     81  F   UNL A   1      40.698  37.197  38.110  1.00  0.00    -0.200 F 
ATOM     82  F   UNL A   1      39.159  36.396  40.217  1.00  0.00    -0.200 F 
ENDBRANCH  48  72
BRANCH  60  83
ATOM     83  C   UNL A   1      43.952  28.805  35.093  1.00  0.00     0.064 A 
ATOM     84  C   UNL A   1      43.829  27.725  35.980  1.00  0.00     0.173 A 
ATOM     85  C   UNL A   1      45.238  29.313  34.852  1.00  0.00     0.173 A 
ATOM     86  F   UNL A   1      42.620  27.212  36.256  1.00  0.00    -0.203 F 
ATOM     87  C   UNL A   1      44.943  27.202  36.631  1.00  0.00     0.198 A 
ATOM     88  C   UNL A   1      46.354  28.763  35.475  1.00  0.00     0.198 A 
ATOM     89  F   UNL A   1      45.414  30.339  34.006  1.00  0.00    -0.203 F 
ATOM     90  F   UNL A   1      44.792  26.216  37.524  1.00  0.00    -0.200 F 
ATOM     91  C   UNL A   1      46.205  27.717  36.372  1.00  0.00     0.200 A 
ATOM     92  F   UNL A   1      47.575  29.250  35.211  1.00  0.00    -0.200 F 
ATOM     93  F   UNL A   1      47.276  27.212  36.999  1.00  0.00    -0.200 F 
ENDBRANCH  60  83
ENDBRANCH  34  35
ENDBRANCH  26  29
ENDBRANCH  24  25
ENDBRANCH  23  24
ENDBRANCH   1  23
TORSDOF 16
ENDMDL
