MODEL 1
REMARK VINA RESULT:     -11.0      0.000      0.000
REMARK SMILES CCCS[C@@H]1CC[C@@]([NH2+]CC)(C(=O)NCCCNC(=O)c2ccc(-c3c4nc(c(-c5c(F)c(F)c(F)c(F)c5F)c5ccc([nH]5)c(-c5c(F)c(F)c(F)c(F)c5F)c5nc(c(-c6c(F)c(F)c(F)c(F)c6F)c6ccc3[nH]6)C=C5)C=C4)cc2)C1
REMARK SMILES IDX 15 1 14 2 12 3 13 4 8 6 5 7 6 8 84 9 7 10 4 11 3 12 2 13
REMARK SMILES IDX 1 14 9 15 10 18 11 19 16 20 17 21 18 22 19 23 20 25 21 26
REMARK SMILES IDX 22 27 83 28 23 29 82 30 24 31 25 32 26 33 76 34 27 35 81 36
REMARK SMILES IDX 75 37 77 38 28 39 80 40 74 41 73 42 29 44 61 45 41 46 60 47
REMARK SMILES IDX 42 48 45 49 59 50 78 51 43 52 44 53 58 55 79 56 46 57 30 58
REMARK SMILES IDX 31 59 39 60 32 61 33 62 37 63 40 64 34 65 35 66 38 67 36 68
REMARK SMILES IDX 62 69 63 70 71 71 64 72 65 73 69 74 72 75 66 76 67 77 70 78
REMARK SMILES IDX 68 79 47 80 48 81 56 82 49 83 50 84 54 85 57 86 51 87 52 88
REMARK SMILES IDX 55 89 53 90
REMARK H PARENT 14 5 9 16 9 17 18 24 77 43 45 54
REMARK Flexibility Score: inf
ROOT
ATOM      1  C   UNL A   1      31.537  30.641  26.437  1.00  0.00     0.118 C 
ENDROOT
BRANCH   1   2
ATOM      2  N   UNL A   1      31.275  30.180  25.087  1.00  0.00    -0.351 N 
ATOM      3  C   UNL A   1      31.929  29.241  24.342  1.00  0.00     0.281 C 
ATOM      4  O   UNL A   1      31.543  29.084  23.180  1.00  0.00    -0.268 OA
ATOM      5  H   UNL A   1      30.510  30.608  24.639  1.00  0.00     0.163 HD
BRANCH   3   6
ATOM      6  C   UNL A   1      33.115  28.425  24.944  1.00  0.00     0.176 C 
ATOM      7  C   UNL A   1      32.254  26.161  25.120  1.00  0.00     0.053 C 
ATOM      8  C   UNL A   1      33.419  26.102  24.134  1.00  0.00     0.022 C 
ATOM      9  C   UNL A   1      32.606  27.383  25.948  1.00  0.00     0.093 C 
ATOM     10  C   UNL A   1      33.757  27.566  23.825  1.00  0.00     0.080 C 
BRANCH   7  11
ATOM     11  S   UNL A   1      32.181  24.669  26.166  1.00  0.00    -0.158 SA
BRANCH  11  12
ATOM     12  C   UNL A   1      30.841  23.726  25.357  1.00  0.00     0.069 C 
BRANCH  12  13
ATOM     13  C   UNL A   1      30.860  23.707  23.826  1.00  0.00     0.007 C 
ATOM     14  C   UNL A   1      31.848  22.737  23.198  1.00  0.00     0.005 C 
ENDBRANCH  12  13
ENDBRANCH  11  12
ENDBRANCH   7  11
BRANCH   6  15
ATOM     15  N   UNL A   1      34.107  29.325  25.585  1.00  0.00    -0.334 N 
ATOM     16  H   UNL A   1      33.643  30.216  25.767  1.00  0.00     0.347 HD
ATOM     17  H   UNL A   1      34.886  29.377  24.929  1.00  0.00     0.347 HD
BRANCH  15  18
ATOM     18  C   UNL A   1      34.695  28.866  26.848  1.00  0.00     0.257 C 
ATOM     19  C   UNL A   1      34.871  29.940  27.914  1.00  0.00     0.071 C 
ENDBRANCH  15  18
ENDBRANCH   6  15
ENDBRANCH   3   6
ENDBRANCH   1   2
BRANCH   1  20
ATOM     20  C   UNL A   1      31.465  32.158  26.527  1.00  0.00     0.042 C 
BRANCH  20  21
ATOM     21  C   UNL A   1      32.607  32.777  27.322  1.00  0.00     0.118 C 
BRANCH  21  22
ATOM     22  N   UNL A   1      32.382  34.185  27.621  1.00  0.00    -0.352 N 
ATOM     23  C   UNL A   1      32.980  34.983  28.563  1.00  0.00     0.251 C 
ATOM     24  H   UNL A   1      31.701  34.629  27.067  1.00  0.00     0.163 HD
ATOM     25  O   UNL A   1      32.528  36.100  28.804  1.00  0.00    -0.269 OA
BRANCH  23  26
ATOM     26  C   UNL A   1      34.156  34.489  29.309  1.00  0.00     0.039 A 
ATOM     27  C   UNL A   1      33.966  33.908  30.565  1.00  0.00     0.014 A 
ATOM     28  C   UNL A   1      35.440  34.590  28.768  1.00  0.00     0.014 A 
ATOM     29  C   UNL A   1      35.056  33.365  31.246  1.00  0.00     0.010 A 
ATOM     30  C   UNL A   1      36.508  33.968  29.405  1.00  0.00     0.010 A 
ATOM     31  C   UNL A   1      36.330  33.354  30.653  1.00  0.00    -0.014 A 
BRANCH  31  32
ATOM     32  C   UNL A   1      37.489  32.710  31.320  1.00  0.00     0.031 A 
ATOM     33  C   UNL A   1      38.212  31.577  30.646  1.00  0.00     0.074 A 
ATOM     34  C   UNL A   1      37.847  33.100  32.559  1.00  0.00     0.049 A 
ATOM     35  N   UNL A   1      39.191  30.833  31.096  1.00  0.00    -0.248 NA
ATOM     36  C   UNL A   1      37.754  31.211  29.296  1.00  0.00     0.031 C 
ATOM     37  C   UNL A   1      37.196  34.156  33.335  1.00  0.00     0.029 A 
ATOM     38  N   UNL A   1      38.839  32.642  33.390  1.00  0.00    -0.354 N 
ATOM     39  C   UNL A   1      39.452  29.907  30.095  1.00  0.00     0.074 A 
ATOM     40  C   UNL A   1      38.492  30.142  29.039  1.00  0.00     0.031 C 
ATOM     41  C   UNL A   1      37.820  34.281  34.517  1.00  0.00     0.029 A 
ATOM     42  C   UNL A   1      38.884  33.287  34.601  1.00  0.00     0.049 A 
ATOM     43  H   UNL A   1      39.461  31.920  33.140  1.00  0.00     0.167 HD
ATOM     44  C   UNL A   1      40.422  28.963  30.050  1.00  0.00     0.037 A 
ATOM     45  C   UNL A   1      39.685  33.089  35.666  1.00  0.00     0.037 A 
ATOM     46  C   UNL A   1      41.387  28.747  31.096  1.00  0.00     0.049 A 
ATOM     47  C   UNL A   1      40.742  32.018  35.599  1.00  0.00     0.074 A 
ATOM     48  C   UNL A   1      42.445  27.856  31.121  1.00  0.00     0.029 A 
ATOM     49  N   UNL A   1      41.407  29.428  32.304  1.00  0.00    -0.354 N 
ATOM     50  N   UNL A   1      41.025  31.194  34.619  1.00  0.00    -0.248 NA
ATOM     51  C   UNL A   1      41.592  31.852  36.786  1.00  0.00     0.031 C 
ATOM     52  C   UNL A   1      43.071  27.957  32.368  1.00  0.00     0.029 A 
ATOM     53  C   UNL A   1      42.443  28.956  33.095  1.00  0.00     0.049 A 
ATOM     54  H   UNL A   1      40.779  30.141  32.562  1.00  0.00     0.167 HD
ATOM     55  C   UNL A   1      42.104  30.437  35.056  1.00  0.00     0.074 A 
ATOM     56  C   UNL A   1      42.433  30.909  36.385  1.00  0.00     0.031 C 
ATOM     57  C   UNL A   1      42.765  29.443  34.413  1.00  0.00     0.037 A 
BRANCH  44  58
ATOM     58  C   UNL A   1      40.485  28.090  28.829  1.00  0.00     0.064 A 
ATOM     59  C   UNL A   1      39.790  26.873  28.755  1.00  0.00     0.173 A 
ATOM     60  C   UNL A   1      41.224  28.490  27.704  1.00  0.00     0.173 A 
ATOM     61  F   UNL A   1      39.077  26.438  29.805  1.00  0.00    -0.203 F 
ATOM     62  C   UNL A   1      39.859  26.074  27.617  1.00  0.00     0.198 A 
ATOM     63  C   UNL A   1      41.262  27.705  26.554  1.00  0.00     0.198 A 
ATOM     64  F   UNL A   1      41.903  29.646  27.717  1.00  0.00    -0.203 F 
ATOM     65  F   UNL A   1      39.232  24.890  27.591  1.00  0.00    -0.200 F 
ATOM     66  C   UNL A   1      40.589  26.494  26.514  1.00  0.00     0.200 A 
ATOM     67  F   UNL A   1      41.955  28.121  25.485  1.00  0.00    -0.200 F 
ATOM     68  F   UNL A   1      40.648  25.729  25.417  1.00  0.00    -0.200 F 
ENDBRANCH  44  58
BRANCH  45  69
ATOM     69  C   UNL A   1      39.532  33.933  36.880  1.00  0.00     0.064 A 
ATOM     70  C   UNL A   1      38.775  33.492  37.974  1.00  0.00     0.173 A 
ATOM     71  C   UNL A   1      40.132  35.198  36.971  1.00  0.00     0.173 A 
ATOM     72  F   UNL A   1      38.166  32.297  37.928  1.00  0.00    -0.203 F 
ATOM     73  C   UNL A   1      38.605  34.291  39.103  1.00  0.00     0.198 A 
ATOM     74  C   UNL A   1      39.986  35.984  38.112  1.00  0.00     0.198 A 
ATOM     75  F   UNL A   1      40.871  35.666  35.955  1.00  0.00    -0.203 F 
ATOM     76  F   UNL A   1      37.834  33.865  40.112  1.00  0.00    -0.200 F 
ATOM     77  C   UNL A   1      39.214  35.535  39.173  1.00  0.00     0.200 A 
ATOM     78  F   UNL A   1      40.591  37.177  38.184  1.00  0.00    -0.200 F 
ATOM     79  F   UNL A   1      39.053  36.302  40.259  1.00  0.00    -0.200 F 
ENDBRANCH  45  69
BRANCH  57  80
ATOM     80  C   UNL A   1      43.936  28.822  35.118  1.00  0.00     0.064 A 
ATOM     81  C   UNL A   1      43.796  27.685  35.926  1.00  0.00     0.173 A 
ATOM     82  C   UNL A   1      45.226  29.348  34.943  1.00  0.00     0.173 A 
ATOM     83  F   UNL A   1      42.583  27.152  36.138  1.00  0.00    -0.203 F 
ATOM     84  C   UNL A   1      44.899  27.112  36.553  1.00  0.00     0.198 A 
ATOM     85  C   UNL A   1      46.331  28.753  35.544  1.00  0.00     0.198 A 
ATOM     86  F   UNL A   1      45.416  30.431  34.174  1.00  0.00    -0.203 F 
ATOM     87  F   UNL A   1      44.734  26.055  37.360  1.00  0.00    -0.200 F 
ATOM     88  C   UNL A   1      46.167  27.640  36.354  1.00  0.00     0.200 A 
ATOM     89  F   UNL A   1      47.556  29.255  35.336  1.00  0.00    -0.200 F 
ATOM     90  F   UNL A   1      47.229  27.080  36.949  1.00  0.00    -0.200 F 
ENDBRANCH  57  80
ENDBRANCH  31  32
ENDBRANCH  23  26
ENDBRANCH  21  22
ENDBRANCH  20  21
ENDBRANCH   1  20
TORSDOF 15
ENDMDL
MODEL 2
REMARK VINA RESULT:     -10.9      0.629      1.833
REMARK SMILES CCCS[C@@H]1CC[C@@]([NH2+]CC)(C(=O)NCCCNC(=O)c2ccc(-c3c4nc(c(-c5c(F)c(F)c(F)c(F)c5F)c5ccc([nH]5)c(-c5c(F)c(F)c(F)c(F)c5F)c5nc(c(-c6c(F)c(F)c(F)c(F)c6F)c6ccc3[nH]6)C=C5)C=C4)cc2)C1
REMARK SMILES IDX 15 1 14 2 12 3 13 4 8 6 5 7 6 8 84 9 7 10 4 11 3 12 2 13
REMARK SMILES IDX 1 14 9 15 10 18 11 19 16 20 17 21 18 22 19 23 20 25 21 26
REMARK SMILES IDX 22 27 83 28 23 29 82 30 24 31 25 32 26 33 76 34 27 35 81 36
REMARK SMILES IDX 75 37 77 38 28 39 80 40 74 41 73 42 29 44 61 45 41 46 60 47
REMARK SMILES IDX 42 48 45 49 59 50 78 51 43 52 44 53 58 55 79 56 46 57 30 58
REMARK SMILES IDX 31 59 39 60 32 61 33 62 37 63 40 64 34 65 35 66 38 67 36 68
REMARK SMILES IDX 62 69 63 70 71 71 64 72 65 73 69 74 72 75 66 76 67 77 70 78
REMARK SMILES IDX 68 79 47 80 48 81 56 82 49 83 50 84 54 85 57 86 51 87 52 88
REMARK SMILES IDX 55 89 53 90
REMARK H PARENT 14 5 9 16 9 17 18 24 77 43 45 54
REMARK Flexibility Score: inf
ROOT
ATOM      1  C   UNL A   1      31.616  30.632  26.351  1.00  0.00     0.118 C 
ENDROOT
BRANCH   1   2
ATOM      2  N   UNL A   1      31.188  30.219  25.027  1.00  0.00    -0.351 N 
ATOM      3  C   UNL A   1      31.767  29.341  24.157  1.00  0.00     0.281 C 
ATOM      4  O   UNL A   1      31.230  29.218  23.052  1.00  0.00    -0.268 OA
ATOM      5  H   UNL A   1      30.354  30.633  24.709  1.00  0.00     0.163 HD
BRANCH   3   6
ATOM      6  C   UNL A   1      33.053  28.552  24.552  1.00  0.00     0.176 C 
ATOM      7  C   UNL A   1      32.429  26.220  24.283  1.00  0.00     0.053 C 
ATOM      8  C   UNL A   1      33.549  26.483  23.278  1.00  0.00     0.022 C 
ATOM      9  C   UNL A   1      32.695  27.282  25.334  1.00  0.00     0.093 C 
ATOM     10  C   UNL A   1      33.727  28.007  23.267  1.00  0.00     0.080 C 
BRANCH   7  11
ATOM     11  S   UNL A   1      32.550  24.549  25.004  1.00  0.00    -0.158 SA
BRANCH  11  12
ATOM     12  C   UNL A   1      33.772  23.765  23.895  1.00  0.00     0.069 C 
BRANCH  12  13
ATOM     13  C   UNL A   1      35.017  23.182  24.569  1.00  0.00     0.007 C 
ATOM     14  C   UNL A   1      35.712  24.100  25.561  1.00  0.00     0.005 C 
ENDBRANCH  12  13
ENDBRANCH  11  12
ENDBRANCH   7  11
BRANCH   6  15
ATOM     15  N   UNL A   1      33.979  29.405  25.339  1.00  0.00    -0.334 N 
ATOM     16  H   UNL A   1      33.444  30.202  25.687  1.00  0.00     0.347 HD
ATOM     17  H   UNL A   1      34.733  29.647  24.697  1.00  0.00     0.347 HD
BRANCH  15  18
ATOM     18  C   UNL A   1      34.637  28.777  26.490  1.00  0.00     0.257 C 
ATOM     19  C   UNL A   1      34.871  29.691  27.686  1.00  0.00     0.071 C 
ENDBRANCH  15  18
ENDBRANCH   6  15
ENDBRANCH   3   6
ENDBRANCH   1   2
BRANCH   1  20
ATOM     20  C   UNL A   1      31.477  32.137  26.532  1.00  0.00     0.042 C 
BRANCH  20  21
ATOM     21  C   UNL A   1      32.632  32.770  27.295  1.00  0.00     0.118 C 
BRANCH  21  22
ATOM     22  N   UNL A   1      32.395  34.172  27.610  1.00  0.00    -0.352 N 
ATOM     23  C   UNL A   1      32.978  34.962  28.568  1.00  0.00     0.251 C 
ATOM     24  H   UNL A   1      31.716  34.618  27.054  1.00  0.00     0.163 HD
ATOM     25  O   UNL A   1      32.515  36.073  28.817  1.00  0.00    -0.269 OA
BRANCH  23  26
ATOM     26  C   UNL A   1      34.149  34.467  29.319  1.00  0.00     0.039 A 
ATOM     27  C   UNL A   1      33.951  33.866  30.564  1.00  0.00     0.014 A 
ATOM     28  C   UNL A   1      35.439  34.586  28.794  1.00  0.00     0.014 A 
ATOM     29  C   UNL A   1      35.038  33.322  31.249  1.00  0.00     0.010 A 
ATOM     30  C   UNL A   1      36.505  33.964  29.432  1.00  0.00     0.010 A 
ATOM     31  C   UNL A   1      36.318  33.330  30.670  1.00  0.00    -0.014 A 
BRANCH  31  32
ATOM     32  C   UNL A   1      37.476  32.686  31.340  1.00  0.00     0.031 A 
ATOM     33  C   UNL A   1      38.192  31.545  30.673  1.00  0.00     0.074 A 
ATOM     34  C   UNL A   1      37.837  33.082  32.576  1.00  0.00     0.049 A 
ATOM     35  N   UNL A   1      39.169  30.800  31.128  1.00  0.00    -0.248 NA
ATOM     36  C   UNL A   1      37.731  31.172  29.326  1.00  0.00     0.031 C 
ATOM     37  C   UNL A   1      37.191  34.147  33.345  1.00  0.00     0.029 A 
ATOM     38  N   UNL A   1      38.828  32.626  33.409  1.00  0.00    -0.354 N 
ATOM     39  C   UNL A   1      39.425  29.865  30.133  1.00  0.00     0.074 A 
ATOM     40  C   UNL A   1      38.465  30.097  29.077  1.00  0.00     0.031 C 
ATOM     41  C   UNL A   1      37.817  34.278  34.526  1.00  0.00     0.029 A 
ATOM     42  C   UNL A   1      38.877  33.279  34.616  1.00  0.00     0.049 A 
ATOM     43  H   UNL A   1      39.446  31.900  33.163  1.00  0.00     0.167 HD
ATOM     44  C   UNL A   1      40.390  28.918  30.093  1.00  0.00     0.037 A 
ATOM     45  C   UNL A   1      39.678  33.086  35.681  1.00  0.00     0.037 A 
ATOM     46  C   UNL A   1      41.356  28.704  31.139  1.00  0.00     0.049 A 
ATOM     47  C   UNL A   1      40.730  32.010  35.620  1.00  0.00     0.074 A 
ATOM     48  C   UNL A   1      42.410  27.809  31.170  1.00  0.00     0.029 A 
ATOM     49  N   UNL A   1      41.380  29.394  32.343  1.00  0.00    -0.354 N 
ATOM     50  N   UNL A   1      41.009  31.178  34.645  1.00  0.00    -0.248 NA
ATOM     51  C   UNL A   1      41.581  31.849  36.807  1.00  0.00     0.031 C 
ATOM     52  C   UNL A   1      43.038  27.916  32.415  1.00  0.00     0.029 A 
ATOM     53  C   UNL A   1      42.415  28.923  33.135  1.00  0.00     0.049 A 
ATOM     54  H   UNL A   1      40.756  30.111  32.596  1.00  0.00     0.167 HD
ATOM     55  C   UNL A   1      42.085  30.420  35.086  1.00  0.00     0.074 A 
ATOM     56  C   UNL A   1      42.418  30.899  36.412  1.00  0.00     0.031 C 
ATOM     57  C   UNL A   1      42.741  29.418  34.450  1.00  0.00     0.037 A 
BRANCH  44  58
ATOM     58  C   UNL A   1      40.449  28.035  28.878  1.00  0.00     0.064 A 
ATOM     59  C   UNL A   1      39.742  26.824  28.810  1.00  0.00     0.173 A 
ATOM     60  C   UNL A   1      41.195  28.420  27.753  1.00  0.00     0.173 A 
ATOM     61  F   UNL A   1      39.021  26.404  29.861  1.00  0.00    -0.203 F 
ATOM     62  C   UNL A   1      39.806  26.017  27.678  1.00  0.00     0.198 A 
ATOM     63  C   UNL A   1      41.229  27.627  26.609  1.00  0.00     0.198 A 
ATOM     64  F   UNL A   1      41.885  29.569  27.760  1.00  0.00    -0.203 F 
ATOM     65  F   UNL A   1      39.167  24.840  27.659  1.00  0.00    -0.200 F 
ATOM     66  C   UNL A   1      40.543  26.422  26.575  1.00  0.00     0.200 A 
ATOM     67  F   UNL A   1      41.929  28.028  25.539  1.00  0.00    -0.200 F 
ATOM     68  F   UNL A   1      40.598  25.650  25.483  1.00  0.00    -0.200 F 
ENDBRANCH  44  58
BRANCH  45  69
ATOM     69  C   UNL A   1      39.531  33.939  36.888  1.00  0.00     0.064 A 
ATOM     70  C   UNL A   1      40.161  35.189  36.968  1.00  0.00     0.173 A 
ATOM     71  C   UNL A   1      38.764  33.526  37.988  1.00  0.00     0.173 A 
ATOM     72  F   UNL A   1      40.921  35.622  35.951  1.00  0.00    -0.203 F 
ATOM     73  C   UNL A   1      40.050  35.981  38.109  1.00  0.00     0.198 A 
ATOM     74  C   UNL A   1      38.629  34.332  39.116  1.00  0.00     0.198 A 
ATOM     75  F   UNL A   1      38.135  32.342  37.961  1.00  0.00    -0.203 F 
ATOM     76  F   UNL A   1      40.705  37.147  38.178  1.00  0.00    -0.200 F 
ATOM     77  C   UNL A   1      39.280  35.555  39.181  1.00  0.00     0.200 A 
ATOM     78  F   UNL A   1      37.869  33.925  40.142  1.00  0.00    -0.200 F 
ATOM     79  F   UNL A   1      39.170  36.318  40.276  1.00  0.00    -0.200 F 
ENDBRANCH  45  69
BRANCH  57  80
ATOM     80  C   UNL A   1      43.910  28.797  35.158  1.00  0.00     0.064 A 
ATOM     81  C   UNL A   1      45.203  29.331  35.059  1.00  0.00     0.173 A 
ATOM     82  C   UNL A   1      43.723  27.678  35.984  1.00  0.00     0.173 A 
ATOM     83  F   UNL A   1      45.438  30.391  34.271  1.00  0.00    -0.203 F 
ATOM     84  C   UNL A   1      46.270  28.753  35.742  1.00  0.00     0.198 A 
ATOM     85  C   UNL A   1      44.786  27.123  36.693  1.00  0.00     0.198 A 
ATOM     86  F   UNL A   1      42.505  27.133  36.120  1.00  0.00    -0.203 F 
ATOM     87  F   UNL A   1      47.505  29.250  35.595  1.00  0.00    -0.200 F 
ATOM     88  C   UNL A   1      46.059  27.656  36.566  1.00  0.00     0.200 A 
ATOM     89  F   UNL A   1      44.576  26.075  37.500  1.00  0.00    -0.200 F 
ATOM     90  F   UNL A   1      47.085  27.108  37.231  1.00  0.00    -0.200 F 
ENDBRANCH  57  80
ENDBRANCH  31  32
ENDBRANCH  23  26
ENDBRANCH  21  22
ENDBRANCH  20  21
ENDBRANCH   1  20
TORSDOF 15
ENDMDL
MODEL 3
REMARK VINA RESULT:     -10.8      0.709      7.651
REMARK SMILES CCCS[C@@H]1CC[C@@]([NH2+]CC)(C(=O)NCCCNC(=O)c2ccc(-c3c4nc(c(-c5c(F)c(F)c(F)c(F)c5F)c5ccc([nH]5)c(-c5c(F)c(F)c(F)c(F)c5F)c5nc(c(-c6c(F)c(F)c(F)c(F)c6F)c6ccc3[nH]6)C=C5)C=C4)cc2)C1
REMARK SMILES IDX 15 1 14 2 12 3 13 4 8 6 5 7 6 8 84 9 7 10 4 11 3 12 2 13
REMARK SMILES IDX 1 14 9 15 10 18 11 19 16 20 17 21 18 22 19 23 20 25 21 26
REMARK SMILES IDX 22 27 83 28 23 29 82 30 24 31 25 32 26 33 76 34 27 35 81 36
REMARK SMILES IDX 75 37 77 38 28 39 80 40 74 41 73 42 29 44 61 45 41 46 60 47
REMARK SMILES IDX 42 48 45 49 59 50 78 51 43 52 44 53 58 55 79 56 46 57 30 58
REMARK SMILES IDX 31 59 39 60 32 61 33 62 37 63 40 64 34 65 35 66 38 67 36 68
REMARK SMILES IDX 62 69 63 70 71 71 64 72 65 73 69 74 72 75 66 76 67 77 70 78
REMARK SMILES IDX 68 79 47 80 48 81 56 82 49 83 50 84 54 85 57 86 51 87 52 88
REMARK SMILES IDX 55 89 53 90
REMARK H PARENT 14 5 9 16 9 17 18 24 77 43 45 54
REMARK Flexibility Score: inf
ROOT
ATOM      1  C   UNL A   1      31.363  30.840  26.506  1.00  0.00     0.118 C 
ENDROOT
BRANCH   1   2
ATOM      2  N   UNL A   1      32.063  30.364  25.328  1.00  0.00    -0.351 N 
ATOM      3  C   UNL A   1      32.786  29.221  25.145  1.00  0.00     0.281 C 
ATOM      4  O   UNL A   1      33.346  29.085  24.052  1.00  0.00    -0.268 OA
ATOM      5  H   UNL A   1      32.006  30.952  24.541  1.00  0.00     0.163 HD
BRANCH   3   6
ATOM      6  C   UNL A   1      32.902  28.156  26.279  1.00  0.00     0.176 C 
ATOM      7  C   UNL A   1      31.558  26.294  25.490  1.00  0.00     0.053 C 
ATOM      8  C   UNL A   1      32.990  25.776  25.593  1.00  0.00     0.022 C 
ATOM      9  C   UNL A   1      31.565  27.436  26.489  1.00  0.00     0.093 C 
ATOM     10  C   UNL A   1      33.854  27.024  25.814  1.00  0.00     0.080 C 
BRANCH   7  11
ATOM     11  S   UNL A   1      30.344  25.020  25.969  1.00  0.00    -0.158 SA
BRANCH  11  12
ATOM     12  C   UNL A   1      31.026  23.542  25.141  1.00  0.00     0.069 C 
BRANCH  12  13
ATOM     13  C   UNL A   1      31.026  23.566  23.610  1.00  0.00     0.007 C 
ATOM     14  C   UNL A   1      31.928  22.542  22.941  1.00  0.00     0.005 C 
ENDBRANCH  12  13
ENDBRANCH  11  12
ENDBRANCH   7  11
BRANCH   6  15
ATOM     15  N   UNL A   1      33.365  28.778  27.545  1.00  0.00    -0.334 N 
ATOM     16  H   UNL A   1      33.270  28.081  28.284  1.00  0.00     0.347 HD
ATOM     17  H   UNL A   1      32.785  29.608  27.665  1.00  0.00     0.347 HD
BRANCH  15  18
ATOM     18  C   UNL A   1      34.749  29.267  27.573  1.00  0.00     0.257 C 
ATOM     19  C   UNL A   1      34.906  30.763  27.812  1.00  0.00     0.071 C 
ENDBRANCH  15  18
ENDBRANCH   6  15
ENDBRANCH   3   6
ENDBRANCH   1   2
BRANCH   1  20
ATOM     20  C   UNL A   1      31.377  32.360  26.581  1.00  0.00     0.042 C 
BRANCH  20  21
ATOM     21  C   UNL A   1      32.620  32.927  27.253  1.00  0.00     0.118 C 
BRANCH  21  22
ATOM     22  N   UNL A   1      32.450  34.313  27.669  1.00  0.00    -0.352 N 
ATOM     23  C   UNL A   1      33.074  35.005  28.675  1.00  0.00     0.251 C 
ATOM     24  H   UNL A   1      31.790  34.828  27.151  1.00  0.00     0.163 HD
ATOM     25  O   UNL A   1      32.665  36.115  29.007  1.00  0.00    -0.269 OA
BRANCH  23  26
ATOM     26  C   UNL A   1      34.224  34.404  29.380  1.00  0.00     0.039 A 
ATOM     27  C   UNL A   1      33.992  33.622  30.513  1.00  0.00     0.014 A 
ATOM     28  C   UNL A   1      35.529  34.603  28.920  1.00  0.00     0.014 A 
ATOM     29  C   UNL A   1      35.060  32.983  31.143  1.00  0.00     0.010 A 
ATOM     30  C   UNL A   1      36.578  33.893  29.491  1.00  0.00     0.010 A 
ATOM     31  C   UNL A   1      36.357  33.079  30.612  1.00  0.00    -0.014 A 
BRANCH  31  32
ATOM     32  C   UNL A   1      37.498  32.344  31.214  1.00  0.00     0.031 A 
ATOM     33  C   UNL A   1      38.005  32.726  32.577  1.00  0.00     0.074 A 
ATOM     34  C   UNL A   1      38.119  31.381  30.506  1.00  0.00     0.049 A 
ATOM     35  N   UNL A   1      39.036  32.263  33.238  1.00  0.00    -0.248 NA
ATOM     36  C   UNL A   1      37.272  33.792  33.280  1.00  0.00     0.031 C 
ATOM     37  C   UNL A   1      37.749  30.951  29.157  1.00  0.00     0.029 A 
ATOM     38  N   UNL A   1      39.202  30.598  30.818  1.00  0.00    -0.354 N 
ATOM     39  C   UNL A   1      39.083  32.990  34.420  1.00  0.00     0.074 A 
ATOM     40  C   UNL A   1      38.016  33.963  34.362  1.00  0.00     0.031 C 
ATOM     41  C   UNL A   1      38.575  29.967  28.767  1.00  0.00     0.029 A 
ATOM     42  C   UNL A   1      39.559  29.727  29.818  1.00  0.00     0.049 A 
ATOM     43  H   UNL A   1      39.677  30.654  31.679  1.00  0.00     0.167 HD
ATOM     44  C   UNL A   1      39.924  32.840  35.470  1.00  0.00     0.037 A 
ATOM     45  C   UNL A   1      40.574  28.844  29.751  1.00  0.00     0.037 A 
ATOM     46  C   UNL A   1      40.973  31.855  35.531  1.00  0.00     0.049 A 
ATOM     47  C   UNL A   1      41.509  28.712  30.924  1.00  0.00     0.074 A 
ATOM     48  C   UNL A   1      41.841  31.583  36.573  1.00  0.00     0.029 A 
ATOM     49  N   UNL A   1      41.296  30.983  34.501  1.00  0.00    -0.354 N 
ATOM     50  N   UNL A   1      41.501  29.356  32.066  1.00  0.00    -0.248 NA
ATOM     51  C   UNL A   1      42.592  27.727  30.798  1.00  0.00     0.031 C 
ATOM     52  C   UNL A   1      42.728  30.587  36.154  1.00  0.00     0.029 A 
ATOM     53  C   UNL A   1      42.372  30.192  34.874  1.00  0.00     0.049 A 
ATOM     54  H   UNL A   1      40.831  30.933  33.636  1.00  0.00     0.167 HD
ATOM     55  C   UNL A   1      42.552  28.833  32.806  1.00  0.00     0.074 A 
ATOM     56  C   UNL A   1      43.169  27.809  31.989  1.00  0.00     0.031 C 
ATOM     57  C   UNL A   1      42.969  29.169  34.052  1.00  0.00     0.037 A 
BRANCH  44  58
ATOM     58  C   UNL A   1      39.747  33.765  36.641  1.00  0.00     0.064 A 
ATOM     59  C   UNL A   1      40.374  35.020  36.692  1.00  0.00     0.173 A 
ATOM     60  C   UNL A   1      38.912  33.407  37.712  1.00  0.00     0.173 A 
ATOM     61  F   UNL A   1      41.190  35.407  35.700  1.00  0.00    -0.203 F 
ATOM     62  C   UNL A   1      40.200  35.866  37.783  1.00  0.00     0.198 A 
ATOM     63  C   UNL A   1      38.713  34.272  38.786  1.00  0.00     0.198 A 
ATOM     64  F   UNL A   1      38.284  32.223  37.713  1.00  0.00    -0.203 F 
ATOM     65  F   UNL A   1      40.853  37.035  37.834  1.00  0.00    -0.200 F 
ATOM     66  C   UNL A   1      39.364  35.495  38.826  1.00  0.00     0.200 A 
ATOM     67  F   UNL A   1      37.892  33.918  39.784  1.00  0.00    -0.200 F 
ATOM     68  F   UNL A   1      39.191  36.314  39.872  1.00  0.00    -0.200 F 
ENDBRANCH  44  58
BRANCH  45  69
ATOM     69  C   UNL A   1      40.749  28.003  28.538  1.00  0.00     0.064 A 
ATOM     70  C   UNL A   1      41.524  28.448  27.458  1.00  0.00     0.173 A 
ATOM     71  C   UNL A   1      40.144  26.741  28.429  1.00  0.00     0.173 A 
ATOM     72  F   UNL A   1      42.107  29.655  27.505  1.00  0.00    -0.203 F 
ATOM     73  C   UNL A   1      41.667  27.676  26.306  1.00  0.00     0.198 A 
ATOM     74  C   UNL A   1      40.313  25.958  27.290  1.00  0.00     0.198 A 
ATOM     75  F   UNL A   1      39.397  26.265  29.436  1.00  0.00    -0.203 F 
ATOM     76  F   UNL A   1      42.371  28.149  25.270  1.00  0.00    -0.200 F 
ATOM     77  C   UNL A   1      41.066  26.429  26.225  1.00  0.00     0.200 A 
ATOM     78  F   UNL A   1      39.746  24.745  27.222  1.00  0.00    -0.200 F 
ATOM     79  F   UNL A   1      41.208  25.685  25.120  1.00  0.00    -0.200 F 
ENDBRANCH  45  69
BRANCH  57  80
ATOM     80  C   UNL A   1      44.121  28.397  34.628  1.00  0.00     0.064 A 
ATOM     81  C   UNL A   1      43.931  27.196  35.327  1.00  0.00     0.173 A 
ATOM     82  C   UNL A   1      45.437  28.845  34.437  1.00  0.00     0.173 A 
ATOM     83  F   UNL A   1      42.692  26.733  35.550  1.00  0.00    -0.203 F 
ATOM     84  C   UNL A   1      45.015  26.484  35.834  1.00  0.00     0.198 A 
ATOM     85  C   UNL A   1      46.521  28.113  34.916  1.00  0.00     0.198 A 
ATOM     86  F   UNL A   1      45.675  29.984  33.769  1.00  0.00    -0.203 F 
ATOM     87  F   UNL A   1      44.808  25.365  36.540  1.00  0.00    -0.200 F 
ATOM     88  C   UNL A   1      46.310  26.938  35.620  1.00  0.00     0.200 A 
ATOM     89  F   UNL A   1      47.770  28.545  34.693  1.00  0.00    -0.200 F 
ATOM     90  F   UNL A   1      47.352  26.246  36.098  1.00  0.00    -0.200 F 
ENDBRANCH  57  80
ENDBRANCH  31  32
ENDBRANCH  23  26
ENDBRANCH  21  22
ENDBRANCH  20  21
ENDBRANCH   1  20
TORSDOF 15
ENDMDL
