MODEL 1
REMARK VINA RESULT:     -13.4      0.000      0.000
REMARK SMILES O=C(NCCCNC(=O)[C@@H](c1cccc(O)c1)[NH+]1CC[NH+](C2CCCC2)CC1)c1ccc(-c2c3nc(c(-c4c(F)c(F)c(F)c(F)c4F)c4ccc([nH]4)c(-c4c(F)c(F)c(F)c(F)c4F)c4nc(c(-c5c(F)c(F)c(F)c(F)c5F)c5ccc2[nH]5)C=C4)C=C3)cc1
REMARK SMILES IDX 5 1 4 2 3 3 1 4 2 5 29 7 30 8 91 9 31 10 90 11 32 12 33 13
REMARK SMILES IDX 34 14 84 15 35 16 89 17 83 18 85 19 36 20 88 21 82 22 81 23
REMARK SMILES IDX 37 25 69 26 49 27 68 28 50 29 53 30 67 31 86 32 51 33 52 34
REMARK SMILES IDX 66 36 87 37 54 38 38 39 39 40 47 41 40 42 41 43 45 44 48 45
REMARK SMILES IDX 42 46 43 47 46 48 44 49 70 50 71 51 79 52 72 53 73 54 77 55
REMARK SMILES IDX 80 56 74 57 75 58 78 59 76 60 55 61 56 62 64 63 57 64 58 65
REMARK SMILES IDX 62 66 65 67 59 68 60 69 63 70 61 71 6 72 7 73 8 74 9 76
REMARK SMILES IDX 10 77 11 78 12 79 17 80 13 81 15 82 14 83 16 84 18 86 19 87
REMARK SMILES IDX 28 88 20 90 27 91 21 92 22 94 23 95 26 96 24 97 25 98
REMARK H PARENT 3 6 85 24 53 35 7 75 16 85 18 89 21 93
REMARK Flexibility Score: inf
ROOT
ATOM      1  C   UNL A   1      33.432  28.969  24.087  1.00  0.00     0.042 C 
ENDROOT
BRANCH   1   2
ATOM      2  C   UNL A   1      33.200  28.993  25.588  1.00  0.00     0.118 C 
BRANCH   2   3
ATOM      3  N   UNL A   1      32.682  30.280  26.062  1.00  0.00    -0.352 N 
ATOM      4  O   UNL A   1      32.434  32.112  27.354  1.00  0.00    -0.269 OA
ATOM      5  C   UNL A   1      33.148  31.176  26.998  1.00  0.00     0.251 C 
ATOM      6  H   UNL A   1      31.842  30.556  25.629  1.00  0.00     0.163 HD
BRANCH   5   7
ATOM      7  C   UNL A   1      34.479  31.001  27.619  1.00  0.00     0.039 A 
ATOM      8  C   UNL A   1      34.877  29.752  28.065  1.00  0.00     0.014 A 
ATOM      9  C   UNL A   1      35.356  32.083  27.762  1.00  0.00     0.014 A 
ATOM     10  C   UNL A   1      35.969  29.633  28.899  1.00  0.00     0.010 A 
ATOM     11  C   UNL A   1      36.579  31.914  28.429  1.00  0.00     0.010 A 
ATOM     12  C   UNL A   1      36.875  30.693  29.050  1.00  0.00    -0.014 A 
BRANCH  12  13
ATOM     13  C   UNL A   1      38.129  30.412  29.806  1.00  0.00     0.031 A 
ATOM     14  C   UNL A   1      38.300  30.826  31.240  1.00  0.00     0.074 A 
ATOM     15  C   UNL A   1      39.065  29.646  29.206  1.00  0.00     0.049 A 
ATOM     16  N   UNL A   1      39.290  30.556  32.057  1.00  0.00    -0.248 NA
ATOM     17  C   UNL A   1      37.247  31.659  31.840  1.00  0.00     0.031 C 
ATOM     18  C   UNL A   1      39.016  29.208  27.805  1.00  0.00     0.029 A 
ATOM     19  N   UNL A   1      40.186  29.029  29.698  1.00  0.00    -0.354 N 
ATOM     20  C   UNL A   1      38.999  31.212  33.245  1.00  0.00     0.074 A 
ATOM     21  C   UNL A   1      37.745  31.905  33.045  1.00  0.00     0.031 C 
ATOM     22  C   UNL A   1      39.967  28.291  27.594  1.00  0.00     0.029 A 
ATOM     23  C   UNL A   1      40.773  28.169  28.799  1.00  0.00     0.049 A 
ATOM     24  H   UNL A   1      40.535  29.186  30.605  1.00  0.00     0.167 HD
ATOM     25  C   UNL A   1      39.715  31.228  34.394  1.00  0.00     0.037 A 
ATOM     26  C   UNL A   1      41.855  27.378  28.919  1.00  0.00     0.037 A 
ATOM     27  C   UNL A   1      40.948  30.507  34.591  1.00  0.00     0.049 A 
ATOM     28  C   UNL A   1      42.606  27.393  30.216  1.00  0.00     0.074 A 
ATOM     29  C   UNL A   1      41.758  30.467  35.713  1.00  0.00     0.029 A 
ATOM     30  N   UNL A   1      41.543  29.686  33.642  1.00  0.00    -0.354 N 
ATOM     31  N   UNL A   1      42.331  28.046  31.318  1.00  0.00    -0.248 NA
ATOM     32  C   UNL A   1      43.830  26.587  30.278  1.00  0.00     0.031 C 
ATOM     33  C   UNL A   1      42.858  29.648  35.433  1.00  0.00     0.029 A 
ATOM     34  C   UNL A   1      42.711  29.141  34.152  1.00  0.00     0.049 A 
ATOM     35  H   UNL A   1      41.187  29.515  32.740  1.00  0.00     0.167 HD
ATOM     36  C   UNL A   1      43.355  27.746  32.201  1.00  0.00     0.074 A 
ATOM     37  C   UNL A   1      44.229  26.808  31.523  1.00  0.00     0.031 C 
ATOM     38  C   UNL A   1      43.571  28.223  33.450  1.00  0.00     0.037 A 
BRANCH  25  39
ATOM     39  C   UNL A   1      39.201  32.067  35.530  1.00  0.00     0.064 A 
ATOM     40  C   UNL A   1      38.402  31.525  36.547  1.00  0.00     0.173 A 
ATOM     41  C   UNL A   1      39.568  33.419  35.634  1.00  0.00     0.173 A 
ATOM     42  F   UNL A   1      38.011  30.243  36.488  1.00  0.00    -0.203 F 
ATOM     43  C   UNL A   1      37.979  32.307  37.619  1.00  0.00     0.198 A 
ATOM     44  C   UNL A   1      39.164  34.191  36.721  1.00  0.00     0.198 A 
ATOM     45  F   UNL A   1      40.334  33.986  34.691  1.00  0.00    -0.203 F 
ATOM     46  F   UNL A   1      37.188  31.776  38.562  1.00  0.00    -0.200 F 
ATOM     47  C   UNL A   1      38.367  33.636  37.711  1.00  0.00     0.200 A 
ATOM     48  F   UNL A   1      39.549  35.471  36.812  1.00  0.00    -0.200 F 
ATOM     49  F   UNL A   1      37.969  34.383  38.750  1.00  0.00    -0.200 F 
ENDBRANCH  25  39
BRANCH  26  50
ATOM     50  C   UNL A   1      42.308  26.556  27.765  1.00  0.00     0.064 A 
ATOM     51  C   UNL A   1      41.786  25.277  27.528  1.00  0.00     0.173 A 
ATOM     52  C   UNL A   1      43.265  27.045  26.861  1.00  0.00     0.173 A 
ATOM     53  F   UNL A   1      40.884  24.755  28.372  1.00  0.00    -0.203 F 
ATOM     54  C   UNL A   1      42.212  24.516  26.440  1.00  0.00     0.198 A 
ATOM     55  C   UNL A   1      43.659  26.301  25.753  1.00  0.00     0.198 A 
ATOM     56  F   UNL A   1      43.795  28.264  27.038  1.00  0.00    -0.203 F 
ATOM     57  F   UNL A   1      41.730  23.279  26.261  1.00  0.00    -0.200 F 
ATOM     58  C   UNL A   1      43.139  25.034  25.548  1.00  0.00     0.200 A 
ATOM     59  F   UNL A   1      44.537  26.817  24.881  1.00  0.00    -0.200 F 
ATOM     60  F   UNL A   1      43.536  24.308  24.494  1.00  0.00    -0.200 F 
ENDBRANCH  26  50
BRANCH  38  61
ATOM     61  C   UNL A   1      44.803  27.731  34.147  1.00  0.00     0.064 A 
ATOM     62  C   UNL A   1      44.780  26.568  34.931  1.00  0.00     0.173 A 
ATOM     63  C   UNL A   1      46.012  28.433  34.040  1.00  0.00     0.173 A 
ATOM     64  F   UNL A   1      43.640  25.875  35.078  1.00  0.00    -0.203 F 
ATOM     65  C   UNL A   1      45.915  26.146  35.616  1.00  0.00     0.198 A 
ATOM     66  C   UNL A   1      47.153  27.991  34.703  1.00  0.00     0.198 A 
ATOM     67  F   UNL A   1      46.083  29.548  33.299  1.00  0.00    -0.203 F 
ATOM     68  F   UNL A   1      45.855  25.068  36.409  1.00  0.00    -0.200 F 
ATOM     69  C   UNL A   1      47.101  26.856  35.498  1.00  0.00     0.200 A 
ATOM     70  F   UNL A   1      48.300  28.674  34.583  1.00  0.00    -0.200 F 
ATOM     71  F   UNL A   1      48.192  26.453  36.164  1.00  0.00    -0.200 F 
ENDBRANCH  38  61
ENDBRANCH  12  13
ENDBRANCH   5   7
ENDBRANCH   2   3
ENDBRANCH   1   2
BRANCH   1  72
ATOM     72  C   UNL A   1      33.812  27.574  23.645  1.00  0.00     0.118 C 
BRANCH  72  73
ATOM     73  N   UNL A   1      33.042  27.106  22.518  1.00  0.00    -0.351 N 
ATOM     74  C   UNL A   1      31.691  27.031  22.372  1.00  0.00     0.283 C 
ATOM     75  H   UNL A   1      33.568  26.799  21.744  1.00  0.00     0.163 HD
ATOM     76  O   UNL A   1      31.290  26.843  21.215  1.00  0.00    -0.268 OA
BRANCH  74  77
ATOM     77  C   UNL A   1      30.685  27.166  23.557  1.00  0.00     0.306 C 
BRANCH  77  78
ATOM     78  C   UNL A   1      29.673  28.303  23.332  1.00  0.00     0.023 A 
ATOM     79  C   UNL A   1      29.951  29.677  23.372  1.00  0.00     0.011 A 
ATOM     80  C   UNL A   1      28.312  27.938  23.216  1.00  0.00     0.056 A 
ATOM     81  C   UNL A   1      28.934  30.638  23.304  1.00  0.00     0.004 A 
ATOM     82  C   UNL A   1      27.303  28.896  23.156  1.00  0.00     0.116 A 
ATOM     83  C   UNL A   1      27.603  30.249  23.200  1.00  0.00     0.046 A 
BRANCH  82  84
ATOM     84  O   UNL A   1      26.015  28.459  23.081  1.00  0.00    -0.508 OA
ATOM     85  H   UNL A   1      25.672  28.150  22.266  1.00  0.00     0.293 HD
ENDBRANCH  82  84
ENDBRANCH  77  78
BRANCH  77  86
ATOM     86  N   UNL A   1      30.363  25.914  24.303  1.00  0.00    -0.312 N 
ATOM     87  C   UNL A   1      30.662  24.580  23.807  1.00  0.00     0.325 C 
ATOM     88  C   UNL A   1      30.691  25.943  25.742  1.00  0.00     0.325 C 
ATOM     89  H   UNL A   1      29.368  26.004  24.098  1.00  0.00     0.349 HD
ATOM     90  C   UNL A   1      32.109  24.110  24.020  1.00  0.00     0.324 C 
ATOM     91  C   UNL A   1      32.129  25.478  26.089  1.00  0.00     0.324 C 
ATOM     92  N   UNL A   1      32.647  24.303  25.375  1.00  0.00    -0.323 N 
ATOM     93  H   UNL A   1      33.611  24.621  25.268  1.00  0.00     0.348 HD
BRANCH  92  94
ATOM     94  C   UNL A   1      32.870  23.057  26.100  1.00  0.00     0.184 C 
ATOM     95  C   UNL A   1      33.059  21.754  25.314  1.00  0.00     0.065 C 
ATOM     96  C   UNL A   1      34.074  23.030  27.049  1.00  0.00     0.065 C 
ATOM     97  C   UNL A   1      33.418  20.759  26.411  1.00  0.00     0.006 C 
ATOM     98  C   UNL A   1      34.248  21.556  27.417  1.00  0.00     0.006 C 
ENDBRANCH  92  94
ENDBRANCH  77  86
ENDBRANCH  74  77
ENDBRANCH  72  73
ENDBRANCH   1  72
TORSDOF 14
ENDMDL
MODEL 2
REMARK VINA RESULT:     -13.1      4.391      9.800
REMARK SMILES O=C(NCCCNC(=O)[C@@H](c1cccc(O)c1)[NH+]1CC[NH+](C2CCCC2)CC1)c1ccc(-c2c3nc(c(-c4c(F)c(F)c(F)c(F)c4F)c4ccc([nH]4)c(-c4c(F)c(F)c(F)c(F)c4F)c4nc(c(-c5c(F)c(F)c(F)c(F)c5F)c5ccc2[nH]5)C=C4)C=C3)cc1
REMARK SMILES IDX 5 1 4 2 3 3 1 4 2 5 29 7 30 8 91 9 31 10 90 11 32 12 33 13
REMARK SMILES IDX 34 14 84 15 35 16 89 17 83 18 85 19 36 20 88 21 82 22 81 23
REMARK SMILES IDX 37 25 69 26 49 27 68 28 50 29 53 30 67 31 86 32 51 33 52 34
REMARK SMILES IDX 66 36 87 37 54 38 38 39 39 40 47 41 40 42 41 43 45 44 48 45
REMARK SMILES IDX 42 46 43 47 46 48 44 49 70 50 71 51 79 52 72 53 73 54 77 55
REMARK SMILES IDX 80 56 74 57 75 58 78 59 76 60 55 61 56 62 64 63 57 64 58 65
REMARK SMILES IDX 62 66 65 67 59 68 60 69 63 70 61 71 6 72 7 73 8 74 9 76
REMARK SMILES IDX 10 77 11 78 12 79 17 80 13 81 15 82 14 83 16 84 18 86 19 87
REMARK SMILES IDX 28 88 20 90 27 91 21 92 22 94 23 95 26 96 24 97 25 98
REMARK H PARENT 3 6 85 24 53 35 7 75 16 85 18 89 21 93
REMARK Flexibility Score: inf
ROOT
ATOM      1  C   UNL A   1      34.825  21.883  26.962  1.00  0.00     0.042 C 
ENDROOT
BRANCH   1   2
ATOM      2  C   UNL A   1      36.000  22.447  26.180  1.00  0.00     0.118 C 
BRANCH   2   3
ATOM      3  N   UNL A   1      36.999  21.429  25.844  1.00  0.00    -0.352 N 
ATOM      4  O   UNL A   1      39.004  20.511  25.371  1.00  0.00    -0.269 OA
ATOM      5  C   UNL A   1      38.376  21.438  25.878  1.00  0.00     0.251 C 
ATOM      6  H   UNL A   1      36.614  20.577  25.535  1.00  0.00     0.163 HD
BRANCH   5   7
ATOM      7  C   UNL A   1      39.112  22.574  26.476  1.00  0.00     0.039 A 
ATOM      8  C   UNL A   1      38.771  23.873  26.141  1.00  0.00     0.014 A 
ATOM      9  C   UNL A   1      40.155  22.359  27.384  1.00  0.00     0.014 A 
ATOM     10  C   UNL A   1      39.624  24.912  26.451  1.00  0.00     0.010 A 
ATOM     11  C   UNL A   1      40.896  23.446  27.874  1.00  0.00     0.010 A 
ATOM     12  C   UNL A   1      40.668  24.733  27.371  1.00  0.00    -0.014 A 
BRANCH  12  13
ATOM     13  C   UNL A   1      41.412  25.951  27.799  1.00  0.00     0.031 A 
ATOM     14  C   UNL A   1      42.791  26.260  27.288  1.00  0.00     0.074 A 
ATOM     15  C   UNL A   1      40.755  26.853  28.559  1.00  0.00     0.049 A 
ATOM     16  N   UNL A   1      43.516  27.334  27.488  1.00  0.00    -0.248 NA
ATOM     17  C   UNL A   1      43.456  25.239  26.464  1.00  0.00     0.031 C 
ATOM     18  C   UNL A   1      39.420  26.648  29.136  1.00  0.00     0.029 A 
ATOM     19  N   UNL A   1      41.063  28.141  28.912  1.00  0.00    -0.354 N 
ATOM     20  C   UNL A   1      44.728  27.103  26.851  1.00  0.00     0.074 A 
ATOM     21  C   UNL A   1      44.650  25.783  26.264  1.00  0.00     0.031 C 
ATOM     22  C   UNL A   1      38.972  27.803  29.639  1.00  0.00     0.029 A 
ATOM     23  C   UNL A   1      40.030  28.797  29.540  1.00  0.00     0.049 A 
ATOM     24  H   UNL A   1      41.938  28.556  28.733  1.00  0.00     0.167 HD
ATOM     25  C   UNL A   1      45.802  27.925  26.764  1.00  0.00     0.037 A 
ATOM     26  C   UNL A   1      39.942  30.057  30.006  1.00  0.00     0.037 A 
ATOM     27  C   UNL A   1      45.855  29.251  27.326  1.00  0.00     0.049 A 
ATOM     28  C   UNL A   1      41.137  30.950  29.864  1.00  0.00     0.074 A 
ATOM     29  C   UNL A   1      46.900  30.159  27.305  1.00  0.00     0.029 A 
ATOM     30  N   UNL A   1      44.809  29.866  28.002  1.00  0.00    -0.354 N 
ATOM     31  N   UNL A   1      42.286  30.702  29.284  1.00  0.00    -0.248 NA
ATOM     32  C   UNL A   1      41.035  32.286  30.462  1.00  0.00     0.031 C 
ATOM     33  C   UNL A   1      46.498  31.310  27.994  1.00  0.00     0.029 A 
ATOM     34  C   UNL A   1      45.187  31.137  28.406  1.00  0.00     0.049 A 
ATOM     35  H   UNL A   1      43.928  29.459  28.169  1.00  0.00     0.167 HD
ATOM     36  C   UNL A   1      43.053  31.842  29.463  1.00  0.00     0.074 A 
ATOM     37  C   UNL A   1      42.217  32.802  30.157  1.00  0.00     0.031 C 
ATOM     38  C   UNL A   1      44.341  32.066  29.110  1.00  0.00     0.037 A 
BRANCH  25  39
ATOM     39  C   UNL A   1      47.022  27.412  26.054  1.00  0.00     0.064 A 
ATOM     40  C   UNL A   1      47.239  27.650  24.689  1.00  0.00     0.173 A 
ATOM     41  C   UNL A   1      48.020  26.726  26.766  1.00  0.00     0.173 A 
ATOM     42  F   UNL A   1      46.310  28.288  23.960  1.00  0.00    -0.203 F 
ATOM     43  C   UNL A   1      48.402  27.211  24.060  1.00  0.00     0.198 A 
ATOM     44  C   UNL A   1      49.193  26.310  26.139  1.00  0.00     0.198 A 
ATOM     45  F   UNL A   1      47.866  26.473  28.074  1.00  0.00    -0.203 F 
ATOM     46  F   UNL A   1      48.571  27.422  22.747  1.00  0.00    -0.200 F 
ATOM     47  C   UNL A   1      49.381  26.550  24.786  1.00  0.00     0.200 A 
ATOM     48  F   UNL A   1      50.142  25.681  26.846  1.00  0.00    -0.200 F 
ATOM     49  F   UNL A   1      50.505  26.140  24.182  1.00  0.00    -0.200 F 
ENDBRANCH  25  39
BRANCH  26  50
ATOM     50  C   UNL A   1      38.702  30.515  30.686  1.00  0.00     0.064 A 
ATOM     51  C   UNL A   1      38.584  30.495  32.083  1.00  0.00     0.173 A 
ATOM     52  C   UNL A   1      37.611  31.001  29.949  1.00  0.00     0.173 A 
ATOM     53  F   UNL A   1      39.589  30.022  32.834  1.00  0.00    -0.203 F 
ATOM     54  C   UNL A   1      37.420  30.932  32.712  1.00  0.00     0.198 A 
ATOM     55  C   UNL A   1      36.465  31.475  30.580  1.00  0.00     0.198 A 
ATOM     56  F   UNL A   1      37.671  31.044  28.610  1.00  0.00    -0.203 F 
ATOM     57  F   UNL A   1      37.315  30.862  34.046  1.00  0.00    -0.200 F 
ATOM     58  C   UNL A   1      36.366  31.432  31.962  1.00  0.00     0.200 A 
ATOM     59  F   UNL A   1      35.461  31.979  29.850  1.00  0.00    -0.200 F 
ATOM     60  F   UNL A   1      35.254  31.867  32.569  1.00  0.00    -0.200 F 
ENDBRANCH  26  50
BRANCH  38  61
ATOM     61  C   UNL A   1      44.909  33.403  29.478  1.00  0.00     0.064 A 
ATOM     62  C   UNL A   1      44.805  34.502  28.613  1.00  0.00     0.173 A 
ATOM     63  C   UNL A   1      45.574  33.584  30.700  1.00  0.00     0.173 A 
ATOM     64  F   UNL A   1      44.195  34.370  27.425  1.00  0.00    -0.203 F 
ATOM     65  C   UNL A   1      45.379  35.726  28.941  1.00  0.00     0.198 A 
ATOM     66  C   UNL A   1      46.120  34.818  31.037  1.00  0.00     0.198 A 
ATOM     67  F   UNL A   1      45.695  32.563  31.561  1.00  0.00    -0.203 F 
ATOM     68  F   UNL A   1      45.322  36.745  28.072  1.00  0.00    -0.200 F 
ATOM     69  C   UNL A   1      46.034  35.884  30.154  1.00  0.00     0.200 A 
ATOM     70  F   UNL A   1      46.747  34.972  32.212  1.00  0.00    -0.200 F 
ATOM     71  F   UNL A   1      46.593  37.061  30.465  1.00  0.00    -0.200 F 
ENDBRANCH  38  61
ENDBRANCH  12  13
ENDBRANCH   5   7
ENDBRANCH   2   3
ENDBRANCH   1   2
BRANCH   1  72
ATOM     72  C   UNL A   1      33.755  22.940  27.123  1.00  0.00     0.118 C 
BRANCH  72  73
ATOM     73  N   UNL A   1      32.435  22.465  26.789  1.00  0.00    -0.351 N 
ATOM     74  C   UNL A   1      32.032  21.730  25.717  1.00  0.00     0.283 C 
ATOM     75  H   UNL A   1      31.725  22.706  27.427  1.00  0.00     0.163 HD
ATOM     76  O   UNL A   1      30.899  21.235  25.806  1.00  0.00    -0.268 OA
BRANCH  74  77
ATOM     77  C   UNL A   1      32.907  21.505  24.445  1.00  0.00     0.306 C 
BRANCH  77  78
ATOM     78  C   UNL A   1      33.128  20.012  24.150  1.00  0.00     0.023 A 
ATOM     79  C   UNL A   1      34.158  19.211  24.665  1.00  0.00     0.011 A 
ATOM     80  C   UNL A   1      32.306  19.423  23.161  1.00  0.00     0.056 A 
ATOM     81  C   UNL A   1      34.365  17.898  24.219  1.00  0.00     0.004 A 
ATOM     82  C   UNL A   1      32.520  18.121  22.716  1.00  0.00     0.116 A 
ATOM     83  C   UNL A   1      33.547  17.350  23.239  1.00  0.00     0.046 A 
BRANCH  82  84
ATOM     84  O   UNL A   1      31.705  17.643  21.735  1.00  0.00    -0.508 OA
ATOM     85  H   UNL A   1      30.959  17.121  21.957  1.00  0.00     0.293 HD
ENDBRANCH  82  84
ENDBRANCH  77  78
BRANCH  77  86
ATOM     86  N   UNL A   1      32.817  22.550  23.382  1.00  0.00    -0.312 N 
ATOM     87  C   UNL A   1      31.719  23.496  23.273  1.00  0.00     0.325 C 
ATOM     88  C   UNL A   1      34.071  23.280  23.118  1.00  0.00     0.325 C 
ATOM     89  H   UNL A   1      32.578  21.857  22.671  1.00  0.00     0.349 HD
ATOM     90  C   UNL A   1      31.813  24.718  24.199  1.00  0.00     0.324 C 
ATOM     91  C   UNL A   1      34.278  24.548  23.988  1.00  0.00     0.324 C 
ATOM     92  N   UNL A   1      33.110  25.410  24.209  1.00  0.00    -0.323 N 
ATOM     93  H   UNL A   1      33.304  25.661  25.179  1.00  0.00     0.348 HD
BRANCH  92  94
ATOM     94  C   UNL A   1      33.070  26.739  23.608  1.00  0.00     0.184 C 
ATOM     95  C   UNL A   1      33.738  27.912  24.334  1.00  0.00     0.065 C 
ATOM     96  C   UNL A   1      33.661  26.864  22.199  1.00  0.00     0.065 C 
ATOM     97  C   UNL A   1      33.614  29.041  23.318  1.00  0.00     0.006 C 
ATOM     98  C   UNL A   1      33.773  28.369  21.954  1.00  0.00     0.006 C 
ENDBRANCH  92  94
ENDBRANCH  77  86
ENDBRANCH  74  77
ENDBRANCH  72  73
ENDBRANCH   1  72
TORSDOF 14
ENDMDL
MODEL 3
REMARK VINA RESULT:     -13.1      1.210      1.734
REMARK SMILES O=C(NCCCNC(=O)[C@@H](c1cccc(O)c1)[NH+]1CC[NH+](C2CCCC2)CC1)c1ccc(-c2c3nc(c(-c4c(F)c(F)c(F)c(F)c4F)c4ccc([nH]4)c(-c4c(F)c(F)c(F)c(F)c4F)c4nc(c(-c5c(F)c(F)c(F)c(F)c5F)c5ccc2[nH]5)C=C4)C=C3)cc1
REMARK SMILES IDX 5 1 4 2 3 3 1 4 2 5 29 7 30 8 91 9 31 10 90 11 32 12 33 13
REMARK SMILES IDX 34 14 84 15 35 16 89 17 83 18 85 19 36 20 88 21 82 22 81 23
REMARK SMILES IDX 37 25 69 26 49 27 68 28 50 29 53 30 67 31 86 32 51 33 52 34
REMARK SMILES IDX 66 36 87 37 54 38 38 39 39 40 47 41 40 42 41 43 45 44 48 45
REMARK SMILES IDX 42 46 43 47 46 48 44 49 70 50 71 51 79 52 72 53 73 54 77 55
REMARK SMILES IDX 80 56 74 57 75 58 78 59 76 60 55 61 56 62 64 63 57 64 58 65
REMARK SMILES IDX 62 66 65 67 59 68 60 69 63 70 61 71 6 72 7 73 8 74 9 76
REMARK SMILES IDX 10 77 11 78 12 79 17 80 13 81 15 82 14 83 16 84 18 86 19 87
REMARK SMILES IDX 28 88 20 90 27 91 21 92 22 94 23 95 26 96 24 97 25 98
REMARK H PARENT 3 6 85 24 53 35 7 75 16 85 18 89 21 93
REMARK Flexibility Score: inf
ROOT
ATOM      1  C   UNL A   1      32.847  27.795  26.560  1.00  0.00     0.042 C 
ENDROOT
BRANCH   1   2
ATOM      2  C   UNL A   1      33.321  28.934  25.673  1.00  0.00     0.118 C 
BRANCH   2   3
ATOM      3  N   UNL A   1      32.822  30.240  26.112  1.00  0.00    -0.352 N 
ATOM      4  O   UNL A   1      32.601  32.110  27.354  1.00  0.00    -0.269 OA
ATOM      5  C   UNL A   1      33.301  31.155  27.023  1.00  0.00     0.251 C 
ATOM      6  H   UNL A   1      31.985  30.516  25.673  1.00  0.00     0.163 HD
BRANCH   5   7
ATOM      7  C   UNL A   1      34.631  30.979  27.647  1.00  0.00     0.039 A 
ATOM      8  C   UNL A   1      35.019  29.734  28.112  1.00  0.00     0.014 A 
ATOM      9  C   UNL A   1      35.516  32.056  27.774  1.00  0.00     0.014 A 
ATOM     10  C   UNL A   1      36.110  29.618  28.948  1.00  0.00     0.010 A 
ATOM     11  C   UNL A   1      36.738  31.887  28.444  1.00  0.00     0.010 A 
ATOM     12  C   UNL A   1      37.024  30.674  29.083  1.00  0.00    -0.014 A 
BRANCH  12  13
ATOM     13  C   UNL A   1      38.276  30.395  29.843  1.00  0.00     0.031 A 
ATOM     14  C   UNL A   1      38.444  30.813  31.276  1.00  0.00     0.074 A 
ATOM     15  C   UNL A   1      39.212  29.625  29.248  1.00  0.00     0.049 A 
ATOM     16  N   UNL A   1      39.432  30.545  32.096  1.00  0.00    -0.248 NA
ATOM     17  C   UNL A   1      37.390  31.650  31.870  1.00  0.00     0.031 C 
ATOM     18  C   UNL A   1      39.167  29.182  27.849  1.00  0.00     0.029 A 
ATOM     19  N   UNL A   1      40.331  29.009  29.745  1.00  0.00    -0.354 N 
ATOM     20  C   UNL A   1      39.137  31.206  33.281  1.00  0.00     0.074 A 
ATOM     21  C   UNL A   1      37.884  31.899  33.076  1.00  0.00     0.031 C 
ATOM     22  C   UNL A   1      40.117  28.263  27.644  1.00  0.00     0.029 A 
ATOM     23  C   UNL A   1      40.920  28.145  28.852  1.00  0.00     0.049 A 
ATOM     24  H   UNL A   1      40.679  29.168  30.653  1.00  0.00     0.167 HD
ATOM     25  C   UNL A   1      39.851  31.225  34.433  1.00  0.00     0.037 A 
ATOM     26  C   UNL A   1      42.002  27.353  28.977  1.00  0.00     0.037 A 
ATOM     27  C   UNL A   1      41.082  30.504  34.635  1.00  0.00     0.049 A 
ATOM     28  C   UNL A   1      42.749  27.373  30.276  1.00  0.00     0.074 A 
ATOM     29  C   UNL A   1      41.889  30.467  35.760  1.00  0.00     0.029 A 
ATOM     30  N   UNL A   1      41.679  29.678  33.691  1.00  0.00    -0.354 N 
ATOM     31  N   UNL A   1      42.471  28.030  31.375  1.00  0.00    -0.248 NA
ATOM     32  C   UNL A   1      43.972  26.565  30.344  1.00  0.00     0.031 C 
ATOM     33  C   UNL A   1      42.989  29.646  35.486  1.00  0.00     0.029 A 
ATOM     34  C   UNL A   1      42.845  29.135  34.206  1.00  0.00     0.049 A 
ATOM     35  H   UNL A   1      41.326  29.505  32.788  1.00  0.00     0.167 HD
ATOM     36  C   UNL A   1      43.493  27.732  32.262  1.00  0.00     0.074 A 
ATOM     37  C   UNL A   1      44.367  26.791  31.589  1.00  0.00     0.031 C 
ATOM     38  C   UNL A   1      43.706  28.213  33.510  1.00  0.00     0.037 A 
BRANCH  25  39
ATOM     39  C   UNL A   1      39.335  32.069  35.564  1.00  0.00     0.064 A 
ATOM     40  C   UNL A   1      38.489  31.544  36.552  1.00  0.00     0.173 A 
ATOM     41  C   UNL A   1      39.745  33.406  35.695  1.00  0.00     0.173 A 
ATOM     42  F   UNL A   1      38.055  30.277  36.465  1.00  0.00    -0.203 F 
ATOM     43  C   UNL A   1      38.063  32.328  37.621  1.00  0.00     0.198 A 
ATOM     44  C   UNL A   1      39.338  34.180  36.779  1.00  0.00     0.198 A 
ATOM     45  F   UNL A   1      40.557  33.957  34.780  1.00  0.00    -0.203 F 
ATOM     46  F   UNL A   1      37.228  31.815  38.535  1.00  0.00    -0.200 F 
ATOM     47  C   UNL A   1      38.494  33.641  37.740  1.00  0.00     0.200 A 
ATOM     48  F   UNL A   1      39.765  35.444  36.897  1.00  0.00    -0.200 F 
ATOM     49  F   UNL A   1      38.094  34.390  38.777  1.00  0.00    -0.200 F 
ENDBRANCH  25  39
BRANCH  26  50
ATOM     50  C   UNL A   1      42.457  26.527  27.827  1.00  0.00     0.064 A 
ATOM     51  C   UNL A   1      41.979  25.224  27.628  1.00  0.00     0.173 A 
ATOM     52  C   UNL A   1      43.370  27.034  26.889  1.00  0.00     0.173 A 
ATOM     53  F   UNL A   1      41.121  24.684  28.506  1.00  0.00    -0.203 F 
ATOM     54  C   UNL A   1      42.407  24.459  26.544  1.00  0.00     0.198 A 
ATOM     55  C   UNL A   1      43.764  26.285  25.785  1.00  0.00     0.198 A 
ATOM     56  F   UNL A   1      43.856  28.276  27.029  1.00  0.00    -0.203 F 
ATOM     57  F   UNL A   1      41.970  23.200  26.401  1.00  0.00    -0.200 F 
ATOM     58  C   UNL A   1      43.290  24.994  25.618  1.00  0.00     0.200 A 
ATOM     59  F   UNL A   1      44.598  26.817  24.881  1.00  0.00    -0.200 F 
ATOM     60  F   UNL A   1      43.687  24.263  24.568  1.00  0.00    -0.200 F 
ENDBRANCH  26  50
BRANCH  38  61
ATOM     61  C   UNL A   1      44.935  27.722  34.211  1.00  0.00     0.064 A 
ATOM     62  C   UNL A   1      44.910  26.561  34.998  1.00  0.00     0.173 A 
ATOM     63  C   UNL A   1      46.145  28.424  34.108  1.00  0.00     0.173 A 
ATOM     64  F   UNL A   1      43.770  25.868  35.142  1.00  0.00    -0.203 F 
ATOM     65  C   UNL A   1      46.043  26.140  35.687  1.00  0.00     0.198 A 
ATOM     66  C   UNL A   1      47.283  27.984  34.774  1.00  0.00     0.198 A 
ATOM     67  F   UNL A   1      46.219  29.538  33.364  1.00  0.00    -0.203 F 
ATOM     68  F   UNL A   1      45.980  25.063  36.483  1.00  0.00    -0.200 F 
ATOM     69  C   UNL A   1      47.230  26.850  35.572  1.00  0.00     0.200 A 
ATOM     70  F   UNL A   1      48.431  28.666  34.658  1.00  0.00    -0.200 F 
ATOM     71  F   UNL A   1      48.318  26.449  36.242  1.00  0.00    -0.200 F 
ENDBRANCH  38  61
ENDBRANCH  12  13
ENDBRANCH   5   7
ENDBRANCH   2   3
ENDBRANCH   1   2
BRANCH   1  72
ATOM     72  C   UNL A   1      31.337  27.709  26.527  1.00  0.00     0.118 C 
BRANCH  72  73
ATOM     73  N   UNL A   1      30.846  26.352  26.534  1.00  0.00    -0.351 N 
ATOM     74  C   UNL A   1      30.839  25.437  25.527  1.00  0.00     0.283 C 
ATOM     75  H   UNL A   1      30.464  26.046  27.388  1.00  0.00     0.163 HD
ATOM     76  O   UNL A   1      30.603  24.269  25.871  1.00  0.00    -0.268 OA
BRANCH  74  77
ATOM     77  C   UNL A   1      31.101  25.794  24.032  1.00  0.00     0.306 C 
BRANCH  77  78
ATOM     78  C   UNL A   1      30.295  27.023  23.579  1.00  0.00     0.023 A 
ATOM     79  C   UNL A   1      28.904  27.179  23.669  1.00  0.00     0.011 A 
ATOM     80  C   UNL A   1      30.998  28.030  22.877  1.00  0.00     0.056 A 
ATOM     81  C   UNL A   1      28.245  28.272  23.092  1.00  0.00     0.004 A 
ATOM     82  C   UNL A   1      30.338  29.111  22.298  1.00  0.00     0.116 A 
ATOM     83  C   UNL A   1      28.961  29.242  22.400  1.00  0.00     0.046 A 
BRANCH  82  84
ATOM     84  O   UNL A   1      31.086  30.018  21.610  1.00  0.00    -0.508 OA
ATOM     85  H   UNL A   1      31.138  30.905  21.906  1.00  0.00     0.293 HD
ENDBRANCH  82  84
ENDBRANCH  77  78
BRANCH  77  86
ATOM     86  N   UNL A   1      32.450  25.449  23.491  1.00  0.00    -0.312 N 
ATOM     87  C   UNL A   1      33.664  25.456  24.291  1.00  0.00     0.325 C 
ATOM     88  C   UNL A   1      32.488  24.257  22.623  1.00  0.00     0.325 C 
ATOM     89  H   UNL A   1      32.515  26.336  22.990  1.00  0.00     0.349 HD
ATOM     90  C   UNL A   1      33.894  24.199  25.144  1.00  0.00     0.324 C 
ATOM     91  C   UNL A   1      32.727  22.918  23.370  1.00  0.00     0.324 C 
ATOM     92  N   UNL A   1      33.729  22.917  24.444  1.00  0.00    -0.323 N 
ATOM     93  H   UNL A   1      33.242  22.291  25.086  1.00  0.00     0.348 HD
BRANCH  92  94
ATOM     94  C   UNL A   1      34.975  22.180  24.268  1.00  0.00     0.184 C 
ATOM     95  C   UNL A   1      36.310  22.890  24.528  1.00  0.00     0.065 C 
ATOM     96  C   UNL A   1      35.132  20.901  25.099  1.00  0.00     0.065 C 
ATOM     97  C   UNL A   1      37.316  21.753  24.394  1.00  0.00     0.006 C 
ATOM     98  C   UNL A   1      36.606  20.523  24.960  1.00  0.00     0.006 C 
ENDBRANCH  92  94
ENDBRANCH  77  86
ENDBRANCH  74  77
ENDBRANCH  72  73
ENDBRANCH   1  72
TORSDOF 14
ENDMDL
