MODEL 1
REMARK VINA RESULT:     -14.2      0.000      0.000
REMARK SMILES Cc1cc(F)cc(N[C@](C)(C(=O)NCCCNC(=O)c2ccc(-c3c4nc(c(-c5c(F)c(F)c(F)c(F)c5F)c5ccc([nH]5)c(-c5c(F)c(F)c(F)c(F)c5F)c5nc(c(-c6c(F)c(F)c(F)c(F)c6F)c6ccc3[nH]6)C=C5)C=C4)cc2)c2cccc(F)c2)c1
REMARK SMILES IDX 15 1 14 2 13 3 11 4 12 5 9 7 10 8 8 9 7 11 1 12 2 13 3 14
REMARK SMILES IDX 90 15 4 16 5 17 6 18 83 19 84 20 89 21 85 22 87 23 86 24
REMARK SMILES IDX 88 25 16 26 17 27 18 28 19 30 20 31 21 32 82 33 22 34 81 35
REMARK SMILES IDX 23 36 24 37 25 38 75 39 26 40 80 41 74 42 76 43 27 44 79 45
REMARK SMILES IDX 73 46 72 47 28 49 60 50 40 51 59 52 41 53 44 54 58 55 77 56
REMARK SMILES IDX 42 57 43 58 57 60 78 61 45 62 29 63 30 64 38 65 31 66 32 67
REMARK SMILES IDX 36 68 39 69 33 70 34 71 37 72 35 73 61 74 62 75 70 76 63 77
REMARK SMILES IDX 64 78 68 79 71 80 65 81 66 82 69 83 67 84 46 85 47 86 55 87
REMARK SMILES IDX 48 88 49 89 53 90 56 91 50 92 51 93 54 94 52 95
REMARK H PARENT 13 6 8 10 17 29 76 48 44 59
REMARK Flexibility Score: inf
ROOT
ATOM      1  C   UNL A   1      36.670  23.674  26.154  1.00  0.00     0.042 C 
ENDROOT
BRANCH   1   2
ATOM      2  C   UNL A   1      36.412  22.192  25.904  1.00  0.00     0.117 C 
BRANCH   2   3
ATOM      3  N   UNL A   1      35.409  21.703  26.820  1.00  0.00    -0.354 N 
ATOM      4  C   UNL A   1      34.054  21.829  26.764  1.00  0.00     0.250 C 
ATOM      5  O   UNL A   1      33.478  21.768  27.861  1.00  0.00    -0.272 OA
ATOM      6  H   UNL A   1      35.754  21.206  27.597  1.00  0.00     0.163 HD
BRANCH   4   7
ATOM      7  C   UNL A   1      33.238  22.040  25.408  1.00  0.00     0.139 C 
ATOM      8  C   UNL A   1      34.020  22.020  24.070  1.00  0.00     0.051 C 
BRANCH   7   9
ATOM      9  N   UNL A   1      32.307  20.875  25.325  1.00  0.00    -0.368 N 
ATOM     10  H   UNL A   1      31.461  20.943  25.825  1.00  0.00     0.161 HD
BRANCH   9  11
ATOM     11  C   UNL A   1      32.523  19.698  24.605  1.00  0.00     0.038 A 
ATOM     12  C   UNL A   1      33.734  16.173  25.483  1.00  0.00     0.044 C 
ATOM     13  C   UNL A   1      33.214  17.338  24.699  1.00  0.00    -0.046 A 
ATOM     14  C   UNL A   1      32.937  17.196  23.339  1.00  0.00     0.042 A 
ATOM     15  C   UNL A   1      32.991  18.581  25.316  1.00  0.00     0.029 A 
ATOM     16  C   UNL A   1      32.464  18.286  22.627  1.00  0.00     0.125 A 
ATOM     17  F   UNL A   1      32.204  18.157  21.319  1.00  0.00    -0.207 F 
ATOM     18  C   UNL A   1      32.257  19.518  23.244  1.00  0.00     0.065 A 
ENDBRANCH   9  11
ENDBRANCH   7   9
BRANCH   7  19
ATOM     19  C   UNL A   1      32.459  23.391  25.549  1.00  0.00    -0.011 A 
ATOM     20  C   UNL A   1      31.059  23.479  25.664  1.00  0.00     0.007 A 
ATOM     21  C   UNL A   1      33.163  24.601  25.725  1.00  0.00     0.046 A 
ATOM     22  C   UNL A   1      30.419  24.687  25.991  1.00  0.00     0.003 A 
ATOM     23  C   UNL A   1      32.530  25.780  26.115  1.00  0.00     0.123 A 
ATOM     24  C   UNL A   1      31.159  25.834  26.253  1.00  0.00     0.039 A 
ATOM     25  F   UNL A   1      33.276  26.854  26.407  1.00  0.00    -0.207 F 
ENDBRANCH   7  19
ENDBRANCH   4   7
ENDBRANCH   2   3
ENDBRANCH   1   2
BRANCH   1  26
ATOM     26  C   UNL A   1      38.034  24.044  25.670  1.00  0.00     0.118 C 
BRANCH  26  27
ATOM     27  N   UNL A   1      39.080  23.379  26.441  1.00  0.00    -0.352 N 
ATOM     28  C   UNL A   1      40.134  23.960  27.114  1.00  0.00     0.251 C 
ATOM     29  H   UNL A   1      39.025  22.397  26.487  1.00  0.00     0.163 HD
ATOM     30  O   UNL A   1      41.096  23.296  27.461  1.00  0.00    -0.269 OA
BRANCH  28  31
ATOM     31  C   UNL A   1      40.053  25.397  27.423  1.00  0.00     0.039 A 
ATOM     32  C   UNL A   1      40.415  26.385  26.504  1.00  0.00     0.014 A 
ATOM     33  C   UNL A   1      39.655  25.749  28.706  1.00  0.00     0.014 A 
ATOM     34  C   UNL A   1      40.415  27.713  26.922  1.00  0.00     0.010 A 
ATOM     35  C   UNL A   1      39.322  27.024  28.992  1.00  0.00     0.010 A 
ATOM     36  C   UNL A   1      39.892  27.993  28.182  1.00  0.00    -0.014 A 
BRANCH  36  37
ATOM     37  C   UNL A   1      40.055  29.215  28.934  1.00  0.00     0.031 A 
ATOM     38  C   UNL A   1      38.958  30.170  28.966  1.00  0.00     0.074 A 
ATOM     39  C   UNL A   1      41.080  29.166  29.819  1.00  0.00     0.049 A 
ATOM     40  N   UNL A   1      39.097  31.411  29.249  1.00  0.00    -0.248 NA
ATOM     41  C   UNL A   1      37.577  29.784  28.679  1.00  0.00     0.031 C 
ATOM     42  C   UNL A   1      41.339  29.935  31.023  1.00  0.00     0.029 A 
ATOM     43  N   UNL A   1      42.192  28.302  29.737  1.00  0.00    -0.354 N 
ATOM     44  C   UNL A   1      37.842  31.881  29.552  1.00  0.00     0.074 A 
ATOM     45  C   UNL A   1      36.921  30.892  29.042  1.00  0.00     0.031 C 
ATOM     46  C   UNL A   1      42.637  29.777  31.357  1.00  0.00     0.029 A 
ATOM     47  C   UNL A   1      43.271  28.988  30.308  1.00  0.00     0.049 A 
ATOM     48  H   UNL A   1      42.207  27.394  29.355  1.00  0.00     0.167 HD
ATOM     49  C   UNL A   1      37.739  32.943  30.401  1.00  0.00     0.037 A 
ATOM     50  C   UNL A   1      44.243  29.424  29.452  1.00  0.00     0.037 A 
ATOM     51  C   UNL A   1      39.073  33.338  30.865  1.00  0.00     0.049 A 
ATOM     52  C   UNL A   1      44.173  30.923  29.301  1.00  0.00     0.074 A 
ATOM     53  C   UNL A   1      39.773  33.030  32.022  1.00  0.00     0.029 A 
ATOM     54  N   UNL A   1      40.027  33.759  29.937  1.00  0.00    -0.354 N 
ATOM     55  N   UNL A   1      43.082  31.626  29.462  1.00  0.00    -0.248 NA
ATOM     56  C   UNL A   1      45.349  31.746  29.064  1.00  0.00     0.031 C 
ATOM     57  C   UNL A   1      41.159  33.186  31.753  1.00  0.00     0.029 A 
ATOM     58  C   UNL A   1      41.308  33.592  30.438  1.00  0.00     0.049 A 
ATOM     59  H   UNL A   1      39.818  34.125  29.048  1.00  0.00     0.167 HD
ATOM     60  C   UNL A   1      43.395  32.956  29.425  1.00  0.00     0.074 A 
ATOM     61  C   UNL A   1      44.824  32.978  29.159  1.00  0.00     0.031 C 
ATOM     62  C   UNL A   1      42.481  33.949  29.649  1.00  0.00     0.037 A 
BRANCH  49  63
ATOM     63  C   UNL A   1      36.442  33.359  31.052  1.00  0.00     0.064 A 
ATOM     64  C   UNL A   1      35.473  34.100  30.343  1.00  0.00     0.173 A 
ATOM     65  C   UNL A   1      36.099  33.056  32.385  1.00  0.00     0.173 A 
ATOM     66  F   UNL A   1      35.630  34.405  29.050  1.00  0.00    -0.203 F 
ATOM     67  C   UNL A   1      34.296  34.562  30.939  1.00  0.00     0.198 A 
ATOM     68  C   UNL A   1      34.943  33.557  32.995  1.00  0.00     0.198 A 
ATOM     69  F   UNL A   1      36.854  32.231  33.123  1.00  0.00    -0.203 F 
ATOM     70  F   UNL A   1      33.413  35.259  30.209  1.00  0.00    -0.200 F 
ATOM     71  C   UNL A   1      34.041  34.313  32.271  1.00  0.00     0.200 A 
ATOM     72  F   UNL A   1      34.705  33.298  34.289  1.00  0.00    -0.200 F 
ATOM     73  F   UNL A   1      32.924  34.776  32.847  1.00  0.00    -0.200 F 
ENDBRANCH  49  63
BRANCH  50  74
ATOM     74  C   UNL A   1      44.527  28.413  28.379  1.00  0.00     0.064 A 
ATOM     75  C   UNL A   1      44.932  27.128  28.807  1.00  0.00     0.173 A 
ATOM     76  C   UNL A   1      44.005  28.512  27.080  1.00  0.00     0.173 A 
ATOM     77  F   UNL A   1      45.445  26.968  30.037  1.00  0.00    -0.203 F 
ATOM     78  C   UNL A   1      44.687  25.988  28.042  1.00  0.00     0.198 A 
ATOM     79  C   UNL A   1      43.786  27.366  26.303  1.00  0.00     0.198 A 
ATOM     80  F   UNL A   1      43.597  29.696  26.602  1.00  0.00    -0.203 F 
ATOM     81  F   UNL A   1      44.958  24.774  28.545  1.00  0.00    -0.200 F 
ATOM     82  C   UNL A   1      44.087  26.106  26.801  1.00  0.00     0.200 A 
ATOM     83  F   UNL A   1      43.211  27.476  25.096  1.00  0.00    -0.200 F 
ATOM     84  F   UNL A   1      43.774  25.003  26.105  1.00  0.00    -0.200 F 
ENDBRANCH  50  74
BRANCH  62  85
ATOM     85  C   UNL A   1      42.682  35.391  29.262  1.00  0.00     0.064 A 
ATOM     86  C   UNL A   1      42.048  35.990  28.162  1.00  0.00     0.173 A 
ATOM     87  C   UNL A   1      43.418  36.271  30.094  1.00  0.00     0.173 A 
ATOM     88  F   UNL A   1      41.192  35.309  27.389  1.00  0.00    -0.203 F 
ATOM     89  C   UNL A   1      42.227  37.337  27.851  1.00  0.00     0.198 A 
ATOM     90  C   UNL A   1      43.523  37.633  29.826  1.00  0.00     0.198 A 
ATOM     91  F   UNL A   1      44.030  35.849  31.210  1.00  0.00    -0.203 F 
ATOM     92  F   UNL A   1      41.663  37.839  26.744  1.00  0.00    -0.200 F 
ATOM     93  C   UNL A   1      42.956  38.160  28.686  1.00  0.00     0.200 A 
ATOM     94  F   UNL A   1      44.167  38.431  30.690  1.00  0.00    -0.200 F 
ATOM     95  F   UNL A   1      43.090  39.462  28.407  1.00  0.00    -0.200 F 
ENDBRANCH  62  85
ENDBRANCH  36  37
ENDBRANCH  28  31
ENDBRANCH  26  27
ENDBRANCH   1  26
TORSDOF 13
ENDMDL
MODEL 2
REMARK VINA RESULT:     -14.2      3.904      9.716
REMARK SMILES Cc1cc(F)cc(N[C@](C)(C(=O)NCCCNC(=O)c2ccc(-c3c4nc(c(-c5c(F)c(F)c(F)c(F)c5F)c5ccc([nH]5)c(-c5c(F)c(F)c(F)c(F)c5F)c5nc(c(-c6c(F)c(F)c(F)c(F)c6F)c6ccc3[nH]6)C=C5)C=C4)cc2)c2cccc(F)c2)c1
REMARK SMILES IDX 15 1 14 2 13 3 11 4 12 5 9 7 10 8 8 9 7 11 1 12 2 13 3 14
REMARK SMILES IDX 90 15 4 16 5 17 6 18 83 19 84 20 89 21 85 22 87 23 86 24
REMARK SMILES IDX 88 25 16 26 17 27 18 28 19 30 20 31 21 32 82 33 22 34 81 35
REMARK SMILES IDX 23 36 24 37 25 38 75 39 26 40 80 41 74 42 76 43 27 44 79 45
REMARK SMILES IDX 73 46 72 47 28 49 60 50 40 51 59 52 41 53 44 54 58 55 77 56
REMARK SMILES IDX 42 57 43 58 57 60 78 61 45 62 29 63 30 64 38 65 31 66 32 67
REMARK SMILES IDX 36 68 39 69 33 70 34 71 37 72 35 73 61 74 62 75 70 76 63 77
REMARK SMILES IDX 64 78 68 79 71 80 65 81 66 82 69 83 67 84 46 85 47 86 55 87
REMARK SMILES IDX 48 88 49 89 53 90 56 91 50 92 51 93 54 94 52 95
REMARK H PARENT 13 6 8 10 17 29 76 48 44 59
REMARK Flexibility Score: inf
ROOT
ATOM      1  C   UNL A   1      32.928  29.066  26.941  1.00  0.00     0.042 C 
ENDROOT
BRANCH   1   2
ATOM      2  C   UNL A   1      32.066  29.683  25.844  1.00  0.00     0.117 C 
BRANCH   2   3
ATOM      3  N   UNL A   1      32.791  29.700  24.595  1.00  0.00    -0.354 N 
ATOM      4  C   UNL A   1      32.789  28.786  23.586  1.00  0.00     0.250 C 
ATOM      5  O   UNL A   1      33.817  28.775  22.890  1.00  0.00    -0.272 OA
ATOM      6  H   UNL A   1      33.368  30.485  24.453  1.00  0.00     0.163 HD
BRANCH   4   7
ATOM      7  C   UNL A   1      31.577  27.790  23.291  1.00  0.00     0.139 C 
ATOM      8  C   UNL A   1      31.761  26.715  22.190  1.00  0.00     0.051 C 
BRANCH   7   9
ATOM      9  N   UNL A   1      31.389  27.017  24.555  1.00  0.00    -0.368 N 
ATOM     10  H   UNL A   1      30.666  27.310  25.155  1.00  0.00     0.161 HD
BRANCH   9  11
ATOM     11  C   UNL A   1      32.143  25.915  24.965  1.00  0.00     0.038 A 
ATOM     12  C   UNL A   1      31.368  22.248  25.752  1.00  0.00     0.044 C 
ATOM     13  C   UNL A   1      32.127  23.521  25.537  1.00  0.00    -0.046 A 
ATOM     14  C   UNL A   1      33.511  23.546  25.709  1.00  0.00     0.042 A 
ATOM     15  C   UNL A   1      31.464  24.700  25.155  1.00  0.00     0.029 A 
ATOM     16  C   UNL A   1      34.196  24.734  25.515  1.00  0.00     0.125 A 
ATOM     17  F   UNL A   1      35.524  24.765  25.686  1.00  0.00    -0.207 F 
ATOM     18  C   UNL A   1      33.530  25.901  25.147  1.00  0.00     0.065 A 
ENDBRANCH   9  11
ENDBRANCH   7   9
BRANCH   7  19
ATOM     19  C   UNL A   1      30.327  28.675  22.967  1.00  0.00    -0.011 A 
ATOM     20  C   UNL A   1      30.334  29.730  22.035  1.00  0.00     0.007 A 
ATOM     21  C   UNL A   1      29.063  28.342  23.500  1.00  0.00     0.046 A 
ATOM     22  C   UNL A   1      29.147  30.364  21.627  1.00  0.00     0.003 A 
ATOM     23  C   UNL A   1      27.884  28.926  23.043  1.00  0.00     0.123 A 
ATOM     24  C   UNL A   1      27.914  29.937  22.105  1.00  0.00     0.039 A 
ATOM     25  F   UNL A   1      26.709  28.459  23.486  1.00  0.00    -0.207 F 
ENDBRANCH   7  19
ENDBRANCH   4   7
ENDBRANCH   2   3
ENDBRANCH   1   2
BRANCH   1  26
ATOM     26  C   UNL A   1      34.360  29.441  26.739  1.00  0.00     0.118 C 
BRANCH  26  27
ATOM     27  N   UNL A   1      34.645  30.777  27.251  1.00  0.00    -0.352 N 
ATOM     28  C   UNL A   1      35.581  31.139  28.196  1.00  0.00     0.251 C 
ATOM     29  H   UNL A   1      34.105  31.509  26.874  1.00  0.00     0.163 HD
ATOM     30  O   UNL A   1      35.520  32.221  28.755  1.00  0.00    -0.269 OA
BRANCH  28  31
ATOM     31  C   UNL A   1      36.668  30.193  28.494  1.00  0.00     0.039 A 
ATOM     32  C   UNL A   1      36.653  29.358  29.615  1.00  0.00     0.014 A 
ATOM     33  C   UNL A   1      37.766  30.197  27.643  1.00  0.00     0.014 A 
ATOM     34  C   UNL A   1      37.776  28.578  29.878  1.00  0.00     0.010 A 
ATOM     35  C   UNL A   1      38.678  29.206  27.700  1.00  0.00     0.010 A 
ATOM     36  C   UNL A   1      38.783  28.550  28.916  1.00  0.00    -0.014 A 
BRANCH  36  37
ATOM     37  C   UNL A   1      40.133  28.070  29.091  1.00  0.00     0.031 A 
ATOM     38  C   UNL A   1      40.450  26.709  28.688  1.00  0.00     0.074 A 
ATOM     39  C   UNL A   1      41.034  29.065  29.279  1.00  0.00     0.049 A 
ATOM     40  N   UNL A   1      41.456  26.049  29.127  1.00  0.00    -0.248 NA
ATOM     41  C   UNL A   1      39.637  25.969  27.725  1.00  0.00     0.031 C 
ATOM     42  C   UNL A   1      42.471  29.102  29.075  1.00  0.00     0.029 A 
ATOM     43  N   UNL A   1      40.738  30.358  29.759  1.00  0.00    -0.354 N 
ATOM     44  C   UNL A   1      41.639  25.001  28.258  1.00  0.00     0.074 A 
ATOM     45  C   UNL A   1      40.412  24.901  27.503  1.00  0.00     0.031 C 
ATOM     46  C   UNL A   1      42.966  30.173  29.731  1.00  0.00     0.029 A 
ATOM     47  C   UNL A   1      41.868  30.787  30.467  1.00  0.00     0.049 A 
ATOM     48  H   UNL A   1      39.902  30.861  29.622  1.00  0.00     0.167 HD
ATOM     49  C   UNL A   1      42.894  24.485  28.123  1.00  0.00     0.037 A 
ATOM     50  C   UNL A   1      41.751  30.854  31.827  1.00  0.00     0.037 A 
ATOM     51  C   UNL A   1      43.834  25.245  28.955  1.00  0.00     0.049 A 
ATOM     52  C   UNL A   1      42.535  29.741  32.475  1.00  0.00     0.074 A 
ATOM     53  C   UNL A   1      44.693  26.290  28.650  1.00  0.00     0.029 A 
ATOM     54  N   UNL A   1      43.649  25.288  30.338  1.00  0.00    -0.354 N 
ATOM     55  N   UNL A   1      42.797  28.597  31.899  1.00  0.00    -0.248 NA
ATOM     56  C   UNL A   1      43.170  29.880  33.777  1.00  0.00     0.031 C 
ATOM     57  C   UNL A   1      44.954  27.010  29.847  1.00  0.00     0.029 A 
ATOM     58  C   UNL A   1      44.258  26.407  30.881  1.00  0.00     0.049 A 
ATOM     59  H   UNL A   1      43.152  24.615  30.856  1.00  0.00     0.167 HD
ATOM     60  C   UNL A   1      43.664  27.887  32.682  1.00  0.00     0.074 A 
ATOM     61  C   UNL A   1      43.855  28.727  33.853  1.00  0.00     0.031 C 
ATOM     62  C   UNL A   1      44.196  26.682  32.311  1.00  0.00     0.037 A 
BRANCH  49  63
ATOM     63  C   UNL A   1      43.293  23.559  27.001  1.00  0.00     0.064 A 
ATOM     64  C   UNL A   1      42.960  22.188  27.031  1.00  0.00     0.173 A 
ATOM     65  C   UNL A   1      44.013  23.969  25.860  1.00  0.00     0.173 A 
ATOM     66  F   UNL A   1      42.223  21.666  28.018  1.00  0.00    -0.203 F 
ATOM     67  C   UNL A   1      43.377  21.291  26.044  1.00  0.00     0.198 A 
ATOM     68  C   UNL A   1      44.469  23.064  24.896  1.00  0.00     0.198 A 
ATOM     69  F   UNL A   1      44.259  25.266  25.628  1.00  0.00    -0.203 F 
ATOM     70  F   UNL A   1      43.026  20.000  26.129  1.00  0.00    -0.200 F 
ATOM     71  C   UNL A   1      44.153  21.723  24.989  1.00  0.00     0.200 A 
ATOM     72  F   UNL A   1      45.215  23.502  23.870  1.00  0.00    -0.200 F 
ATOM     73  F   UNL A   1      44.572  20.858  24.054  1.00  0.00    -0.200 F 
ENDBRANCH  49  63
BRANCH  50  74
ATOM     74  C   UNL A   1      40.407  31.382  32.239  1.00  0.00     0.064 A 
ATOM     75  C   UNL A   1      40.067  32.677  31.787  1.00  0.00     0.173 A 
ATOM     76  C   UNL A   1      39.347  30.548  32.629  1.00  0.00     0.173 A 
ATOM     77  F   UNL A   1      41.035  33.525  31.406  1.00  0.00    -0.203 F 
ATOM     78  C   UNL A   1      38.740  33.062  31.592  1.00  0.00     0.198 A 
ATOM     79  C   UNL A   1      38.016  30.950  32.456  1.00  0.00     0.198 A 
ATOM     80  F   UNL A   1      39.588  29.305  33.067  1.00  0.00    -0.203 F 
ATOM     81  F   UNL A   1      38.464  34.248  31.028  1.00  0.00    -0.200 F 
ATOM     82  C   UNL A   1      37.716  32.186  31.899  1.00  0.00     0.200 A 
ATOM     83  F   UNL A   1      37.018  30.106  32.759  1.00  0.00    -0.200 F 
ATOM     84  F   UNL A   1      36.446  32.524  31.629  1.00  0.00    -0.200 F 
ENDBRANCH  50  74
BRANCH  62  85
ATOM     85  C   UNL A   1      44.841  25.710  33.265  1.00  0.00     0.064 A 
ATOM     86  C   UNL A   1      44.112  24.917  34.166  1.00  0.00     0.173 A 
ATOM     87  C   UNL A   1      46.228  25.433  33.194  1.00  0.00     0.173 A 
ATOM     88  F   UNL A   1      42.775  24.960  34.218  1.00  0.00    -0.203 F 
ATOM     89  C   UNL A   1      44.735  24.000  35.011  1.00  0.00     0.198 A 
ATOM     90  C   UNL A   1      46.832  24.456  33.979  1.00  0.00     0.198 A 
ATOM     91  F   UNL A   1      47.038  26.074  32.339  1.00  0.00    -0.203 F 
ATOM     92  F   UNL A   1      44.003  23.326  35.908  1.00  0.00    -0.200 F 
ATOM     93  C   UNL A   1      46.092  23.762  34.912  1.00  0.00     0.200 A 
ATOM     94  F   UNL A   1      48.134  24.183  33.813  1.00  0.00    -0.200 F 
ATOM     95  F   UNL A   1      46.680  22.850  35.696  1.00  0.00    -0.200 F 
ENDBRANCH  62  85
ENDBRANCH  36  37
ENDBRANCH  28  31
ENDBRANCH  26  27
ENDBRANCH   1  26
TORSDOF 13
ENDMDL
MODEL 3
REMARK VINA RESULT:     -14.2      4.246     10.482
REMARK SMILES Cc1cc(F)cc(N[C@](C)(C(=O)NCCCNC(=O)c2ccc(-c3c4nc(c(-c5c(F)c(F)c(F)c(F)c5F)c5ccc([nH]5)c(-c5c(F)c(F)c(F)c(F)c5F)c5nc(c(-c6c(F)c(F)c(F)c(F)c6F)c6ccc3[nH]6)C=C5)C=C4)cc2)c2cccc(F)c2)c1
REMARK SMILES IDX 15 1 14 2 13 3 11 4 12 5 9 7 10 8 8 9 7 11 1 12 2 13 3 14
REMARK SMILES IDX 90 15 4 16 5 17 6 18 83 19 84 20 89 21 85 22 87 23 86 24
REMARK SMILES IDX 88 25 16 26 17 27 18 28 19 30 20 31 21 32 82 33 22 34 81 35
REMARK SMILES IDX 23 36 24 37 25 38 75 39 26 40 80 41 74 42 76 43 27 44 79 45
REMARK SMILES IDX 73 46 72 47 28 49 60 50 40 51 59 52 41 53 44 54 58 55 77 56
REMARK SMILES IDX 42 57 43 58 57 60 78 61 45 62 29 63 30 64 38 65 31 66 32 67
REMARK SMILES IDX 36 68 39 69 33 70 34 71 37 72 35 73 61 74 62 75 70 76 63 77
REMARK SMILES IDX 64 78 68 79 71 80 65 81 66 82 69 83 67 84 46 85 47 86 55 87
REMARK SMILES IDX 48 88 49 89 53 90 56 91 50 92 51 93 54 94 52 95
REMARK H PARENT 13 6 8 10 17 29 76 48 44 59
REMARK Flexibility Score: inf
ROOT
ATOM      1  C   UNL A   1      33.726  28.894  26.854  1.00  0.00     0.042 C 
ENDROOT
BRANCH   1   2
ATOM      2  C   UNL A   1      32.868  29.795  25.971  1.00  0.00     0.117 C 
BRANCH   2   3
ATOM      3  N   UNL A   1      33.289  29.686  24.594  1.00  0.00    -0.354 N 
ATOM      4  C   UNL A   1      33.133  28.650  23.725  1.00  0.00     0.250 C 
ATOM      5  O   UNL A   1      33.976  28.601  22.815  1.00  0.00    -0.272 OA
ATOM      6  H   UNL A   1      33.755  30.474  24.232  1.00  0.00     0.163 HD
BRANCH   4   7
ATOM      7  C   UNL A   1      31.970  27.563  23.838  1.00  0.00     0.139 C 
ATOM      8  C   UNL A   1      31.074  27.575  25.103  1.00  0.00     0.051 C 
BRANCH   7   9
ATOM      9  N   UNL A   1      31.041  27.863  22.708  1.00  0.00    -0.368 N 
ATOM     10  H   UNL A   1      31.301  27.536  21.817  1.00  0.00     0.161 HD
BRANCH   9  11
ATOM     11  C   UNL A   1      29.836  28.565  22.797  1.00  0.00     0.038 A 
ATOM     12  C   UNL A   1      28.766  32.190  22.183  1.00  0.00     0.044 C 
ATOM     13  C   UNL A   1      28.701  30.729  22.505  1.00  0.00    -0.046 A 
ATOM     14  C   UNL A   1      27.480  30.139  22.831  1.00  0.00     0.042 A 
ATOM     15  C   UNL A   1      29.860  29.933  22.480  1.00  0.00     0.029 A 
ATOM     16  C   UNL A   1      27.440  28.789  23.135  1.00  0.00     0.125 A 
ATOM     17  F   UNL A   1      26.270  28.220  23.456  1.00  0.00    -0.207 F 
ATOM     18  C   UNL A   1      28.594  28.009  23.119  1.00  0.00     0.065 A 
ENDBRANCH   9  11
ENDBRANCH   7   9
BRANCH   7  19
ATOM     19  C   UNL A   1      32.639  26.157  23.674  1.00  0.00    -0.011 A 
ATOM     20  C   UNL A   1      32.438  25.318  22.562  1.00  0.00     0.007 A 
ATOM     21  C   UNL A   1      33.621  25.727  24.592  1.00  0.00     0.046 A 
ATOM     22  C   UNL A   1      33.211  24.161  22.359  1.00  0.00     0.003 A 
ATOM     23  C   UNL A   1      34.430  24.618  24.353  1.00  0.00     0.123 A 
ATOM     24  C   UNL A   1      34.235  23.829  23.238  1.00  0.00     0.039 A 
ATOM     25  F   UNL A   1      35.439  24.353  25.193  1.00  0.00    -0.207 F 
ENDBRANCH   7  19
ENDBRANCH   4   7
ENDBRANCH   2   3
ENDBRANCH   1   2
BRANCH   1  26
ATOM     26  C   UNL A   1      35.171  29.227  26.674  1.00  0.00     0.118 C 
BRANCH  26  27
ATOM     27  N   UNL A   1      35.508  30.511  27.279  1.00  0.00    -0.352 N 
ATOM     28  C   UNL A   1      36.432  30.763  28.271  1.00  0.00     0.251 C 
ATOM     29  H   UNL A   1      35.018  31.293  26.936  1.00  0.00     0.163 HD
ATOM     30  O   UNL A   1      36.409  31.809  28.897  1.00  0.00    -0.269 OA
BRANCH  28  31
ATOM     31  C   UNL A   1      37.460  29.744  28.537  1.00  0.00     0.039 A 
ATOM     32  C   UNL A   1      37.399  28.882  29.635  1.00  0.00     0.014 A 
ATOM     33  C   UNL A   1      38.551  29.703  27.679  1.00  0.00     0.014 A 
ATOM     34  C   UNL A   1      38.472  28.028  29.870  1.00  0.00     0.010 A 
ATOM     35  C   UNL A   1      39.401  28.657  27.703  1.00  0.00     0.010 A 
ATOM     36  C   UNL A   1      39.471  27.963  28.900  1.00  0.00    -0.014 A 
BRANCH  36  37
ATOM     37  C   UNL A   1      40.789  27.396  29.054  1.00  0.00     0.031 A 
ATOM     38  C   UNL A   1      41.041  26.059  28.541  1.00  0.00     0.074 A 
ATOM     39  C   UNL A   1      41.739  28.320  29.340  1.00  0.00     0.049 A 
ATOM     40  N   UNL A   1      42.001  25.310  28.936  1.00  0.00    -0.248 NA
ATOM     41  C   UNL A   1      40.208  25.449  27.506  1.00  0.00     0.031 C 
ATOM     42  C   UNL A   1      43.180  28.295  29.160  1.00  0.00     0.029 A 
ATOM     43  N   UNL A   1      41.504  29.583  29.924  1.00  0.00    -0.354 N 
ATOM     44  C   UNL A   1      42.144  24.330  27.983  1.00  0.00     0.074 A 
ATOM     45  C   UNL A   1      40.928  24.363  27.204  1.00  0.00     0.031 C 
ATOM     46  C   UNL A   1      43.719  29.277  29.913  1.00  0.00     0.029 A 
ATOM     47  C   UNL A   1      42.641  29.887  30.682  1.00  0.00     0.049 A 
ATOM     48  H   UNL A   1      40.699  30.141  29.818  1.00  0.00     0.167 HD
ATOM     49  C   UNL A   1      43.373  23.759  27.823  1.00  0.00     0.037 A 
ATOM     50  C   UNL A   1      42.502  29.845  32.041  1.00  0.00     0.037 A 
ATOM     51  C   UNL A   1      44.335  24.393  28.731  1.00  0.00     0.049 A 
ATOM     52  C   UNL A   1      43.212  28.640  32.603  1.00  0.00     0.074 A 
ATOM     53  C   UNL A   1      45.255  25.411  28.530  1.00  0.00     0.029 A 
ATOM     54  N   UNL A   1      44.126  24.329  30.110  1.00  0.00    -0.354 N 
ATOM     55  N   UNL A   1      43.424  27.536  31.935  1.00  0.00    -0.248 NA
ATOM     56  C   UNL A   1      43.828  28.633  33.921  1.00  0.00     0.031 C 
ATOM     57  C   UNL A   1      45.531  26.011  29.787  1.00  0.00     0.029 A 
ATOM     58  C   UNL A   1      44.784  25.363  30.756  1.00  0.00     0.049 A 
ATOM     59  H   UNL A   1      43.584  23.642  30.561  1.00  0.00     0.167 HD
ATOM     60  C   UNL A   1      44.235  26.715  32.668  1.00  0.00     0.074 A 
ATOM     61  C   UNL A   1      44.448  27.441  33.908  1.00  0.00     0.031 C 
ATOM     62  C   UNL A   1      44.710  25.519  32.203  1.00  0.00     0.037 A 
BRANCH  49  63
ATOM     63  C   UNL A   1      43.743  22.910  26.632  1.00  0.00     0.064 A 
ATOM     64  C   UNL A   1      43.248  21.596  26.488  1.00  0.00     0.173 A 
ATOM     65  C   UNL A   1      44.590  23.342  25.592  1.00  0.00     0.173 A 
ATOM     66  F   UNL A   1      42.381  21.073  27.363  1.00  0.00    -0.203 F 
ATOM     67  C   UNL A   1      43.629  20.760  25.435  1.00  0.00     0.198 A 
ATOM     68  C   UNL A   1      45.008  22.490  24.563  1.00  0.00     0.198 A 
ATOM     69  F   UNL A   1      45.005  24.614  25.521  1.00  0.00    -0.203 F 
ATOM     70  F   UNL A   1      43.122  19.522  25.354  1.00  0.00    -0.200 F 
ATOM     71  C   UNL A   1      44.528  21.198  24.485  1.00  0.00     0.200 A 
ATOM     72  F   UNL A   1      45.876  22.934  23.641  1.00  0.00    -0.200 F 
ATOM     73  F   UNL A   1      44.912  20.388  23.489  1.00  0.00    -0.200 F 
ENDBRANCH  49  63
BRANCH  50  74
ATOM     74  C   UNL A   1      41.181  30.410  32.478  1.00  0.00     0.064 A 
ATOM     75  C   UNL A   1      40.890  31.733  32.074  1.00  0.00     0.173 A 
ATOM     76  C   UNL A   1      40.090  29.604  32.840  1.00  0.00     0.173 A 
ATOM     77  F   UNL A   1      41.890  32.556  31.721  1.00  0.00    -0.203 F 
ATOM     78  C   UNL A   1      39.579  32.176  31.898  1.00  0.00     0.198 A 
ATOM     79  C   UNL A   1      38.774  30.064  32.686  1.00  0.00     0.198 A 
ATOM     80  F   UNL A   1      40.283  28.337  33.232  1.00  0.00    -0.203 F 
ATOM     81  F   UNL A   1      39.348  33.392  31.379  1.00  0.00    -0.200 F 
ATOM     82  C   UNL A   1      38.522  31.330  32.176  1.00  0.00     0.200 A 
ATOM     83  F   UNL A   1      37.745  29.249  32.963  1.00  0.00    -0.200 F 
ATOM     84  F   UNL A   1      37.266  31.727  31.923  1.00  0.00    -0.200 F 
ENDBRANCH  50  74
BRANCH  62  85
ATOM     85  C   UNL A   1      45.282  24.435  33.080  1.00  0.00     0.064 A 
ATOM     86  C   UNL A   1      46.535  24.533  33.707  1.00  0.00     0.173 A 
ATOM     87  C   UNL A   1      44.505  23.308  33.443  1.00  0.00     0.173 A 
ATOM     88  F   UNL A   1      47.300  25.624  33.580  1.00  0.00    -0.203 F 
ATOM     89  C   UNL A   1      47.021  23.528  34.542  1.00  0.00     0.198 A 
ATOM     90  C   UNL A   1      44.961  22.350  34.344  1.00  0.00     0.198 A 
ATOM     91  F   UNL A   1      43.268  23.114  32.965  1.00  0.00    -0.203 F 
ATOM     92  F   UNL A   1      48.256  23.634  35.051  1.00  0.00    -0.200 F 
ATOM     93  C   UNL A   1      46.232  22.442  34.868  1.00  0.00     0.200 A 
ATOM     94  F   UNL A   1      44.152  21.346  34.710  1.00  0.00    -0.200 F 
ATOM     95  F   UNL A   1      46.686  21.501  35.704  1.00  0.00    -0.200 F 
ENDBRANCH  62  85
ENDBRANCH  36  37
ENDBRANCH  28  31
ENDBRANCH  26  27
ENDBRANCH   1  26
TORSDOF 13
ENDMDL
