MODEL 1
REMARK VINA RESULT:     -13.2      0.000      0.000
REMARK SMILES [NH3+][C@H](CS[C@@H]1CC(=O)N(c2ccc3ccccc3c2)C1=O)C(=O)NCCCNC(=O)c1ccc(-c2c3nc(c(-c4c(F)c(F)c(F)c(F)c4F)c4ccc([nH]4)c(-c4c(F)c(F)c(F)c(F)c4F)c4nc(c(-c5c(F)c(F)c(F)c(F)c5F)c5ccc2[nH]5)C=C4)C=C3)cc1
REMARK SMILES IDX 25 1 24 2 22 3 23 4 2 6 1 7 3 11 4 12 5 13 6 14 20 15 7 16
REMARK SMILES IDX 9 17 21 18 8 19 10 20 11 21 19 22 12 23 18 24 13 25 17 26
REMARK SMILES IDX 14 27 16 28 15 29 26 30 27 31 28 32 29 33 30 35 31 36 32 37
REMARK SMILES IDX 93 38 33 39 92 40 34 41 35 42 36 43 86 44 37 45 91 46 85 47
REMARK SMILES IDX 87 48 38 49 90 50 84 51 83 52 39 54 71 55 51 56 70 57 52 58
REMARK SMILES IDX 55 59 69 60 88 61 53 62 54 63 68 65 89 66 56 67 40 68 41 69
REMARK SMILES IDX 49 70 42 71 43 72 47 73 50 74 44 75 45 76 48 77 46 78 72 79
REMARK SMILES IDX 73 80 81 81 74 82 75 83 79 84 82 85 76 86 77 87 80 88 78 89
REMARK SMILES IDX 57 90 58 91 66 92 59 93 60 94 64 95 67 96 61 97 62 98 65 99
REMARK SMILES IDX 63 100
REMARK H PARENT 24 5 1 8 1 9 1 10 28 34 87 53 55 64
REMARK Flexibility Score: inf
ROOT
ATOM      1  C   UNL A   1      31.011  31.183  25.453  1.00  0.00     0.118 C 
ENDROOT
BRANCH   1   2
ATOM      2  N   UNL A   1      29.902  31.584  24.601  1.00  0.00    -0.351 N 
ATOM      3  C   UNL A   1      29.259  30.993  23.557  1.00  0.00     0.279 C 
ATOM      4  O   UNL A   1      28.230  31.565  23.176  1.00  0.00    -0.268 OA
ATOM      5  H   UNL A   1      29.539  32.471  24.829  1.00  0.00     0.163 HD
BRANCH   3   6
ATOM      6  C   UNL A   1      29.775  29.768  22.780  1.00  0.00     0.280 C 
BRANCH   6   7
ATOM      7  N   UNL A   1      30.243  30.117  21.424  1.00  0.00    -0.347 N 
ATOM      8  H   UNL A   1      29.605  29.724  20.732  1.00  0.00     0.345 HD
ATOM      9  H   UNL A   1      31.178  29.737  21.278  1.00  0.00     0.345 HD
ATOM     10  H   UNL A   1      30.270  31.133  21.324  1.00  0.00     0.345 HD
ENDBRANCH   6   7
BRANCH   6  11
ATOM     11  C   UNL A   1      28.937  28.475  22.894  1.00  0.00     0.145 C 
BRANCH  11  12
ATOM     12  S   UNL A   1      29.654  26.974  23.617  1.00  0.00    -0.141 SA
BRANCH  12  13
ATOM     13  C   UNL A   1      31.394  26.911  22.980  1.00  0.00     0.146 C 
ATOM     14  C   UNL A   1      31.720  26.565  21.541  1.00  0.00     0.125 C 
ATOM     15  C   UNL A   1      32.162  25.890  23.785  1.00  0.00     0.247 C 
ATOM     16  C   UNL A   1      32.705  25.441  21.618  1.00  0.00     0.235 C 
ATOM     17  N   UNL A   1      32.782  25.020  22.922  1.00  0.00    -0.250 N 
ATOM     18  O   UNL A   1      32.264  25.929  25.007  1.00  0.00    -0.273 OA
ATOM     19  O   UNL A   1      33.253  24.987  20.629  1.00  0.00    -0.274 OA
BRANCH  17  20
ATOM     20  C   UNL A   1      33.395  23.816  23.334  1.00  0.00     0.052 A 
ATOM     21  C   UNL A   1      32.655  22.724  23.796  1.00  0.00     0.027 A 
ATOM     22  C   UNL A   1      34.794  23.753  23.385  1.00  0.00     0.035 A 
ATOM     23  C   UNL A   1      33.301  21.588  24.293  1.00  0.00     0.011 A 
ATOM     24  C   UNL A   1      35.453  22.652  23.941  1.00  0.00    -0.016 A 
ATOM     25  C   UNL A   1      34.700  21.547  24.390  1.00  0.00    -0.018 A 
ATOM     26  C   UNL A   1      36.848  22.651  24.083  1.00  0.00     0.009 A 
ATOM     27  C   UNL A   1      35.372  20.448  24.945  1.00  0.00     0.009 A 
ATOM     28  C   UNL A   1      37.498  21.562  24.660  1.00  0.00     0.001 A 
ATOM     29  C   UNL A   1      36.761  20.459  25.082  1.00  0.00     0.001 A 
ENDBRANCH  17  20
ENDBRANCH  12  13
ENDBRANCH  11  12
ENDBRANCH   6  11
ENDBRANCH   3   6
ENDBRANCH   1   2
BRANCH   1  30
ATOM     30  C   UNL A   1      31.156  31.968  26.760  1.00  0.00     0.042 C 
BRANCH  30  31
ATOM     31  C   UNL A   1      32.524  32.565  27.055  1.00  0.00     0.118 C 
BRANCH  31  32
ATOM     32  N   UNL A   1      32.447  33.896  27.616  1.00  0.00    -0.352 N 
ATOM     33  C   UNL A   1      33.207  34.490  28.593  1.00  0.00     0.251 C 
ATOM     34  H   UNL A   1      31.738  34.466  27.239  1.00  0.00     0.163 HD
ATOM     35  O   UNL A   1      32.837  35.567  29.057  1.00  0.00    -0.269 OA
BRANCH  33  36
ATOM     36  C   UNL A   1      34.445  33.862  29.118  1.00  0.00     0.039 A 
ATOM     37  C   UNL A   1      34.306  32.798  30.016  1.00  0.00     0.014 A 
ATOM     38  C   UNL A   1      35.724  34.345  28.822  1.00  0.00     0.014 A 
ATOM     39  C   UNL A   1      35.435  32.209  30.590  1.00  0.00     0.010 A 
ATOM     40  C   UNL A   1      36.857  33.704  29.337  1.00  0.00     0.010 A 
ATOM     41  C   UNL A   1      36.726  32.644  30.246  1.00  0.00    -0.014 A 
BRANCH  41  42
ATOM     42  C   UNL A   1      37.918  32.000  30.862  1.00  0.00     0.031 A 
ATOM     43  C   UNL A   1      38.358  32.362  32.257  1.00  0.00     0.074 A 
ATOM     44  C   UNL A   1      38.608  31.071  30.171  1.00  0.00     0.049 A 
ATOM     45  N   UNL A   1      39.328  31.855  32.980  1.00  0.00    -0.248 NA
ATOM     46  C   UNL A   1      37.625  33.449  32.925  1.00  0.00     0.031 C 
ATOM     47  C   UNL A   1      38.323  30.663  28.795  1.00  0.00     0.029 A 
ATOM     48  N   UNL A   1      39.682  30.295  30.531  1.00  0.00    -0.354 N 
ATOM     49  C   UNL A   1      39.321  32.559  34.177  1.00  0.00     0.074 A 
ATOM     50  C   UNL A   1      38.291  33.569  34.065  1.00  0.00     0.031 C 
ATOM     51  C   UNL A   1      39.172  29.685  28.441  1.00  0.00     0.029 A 
ATOM     52  C   UNL A   1      40.081  29.418  29.552  1.00  0.00     0.049 A 
ATOM     53  H   UNL A   1      40.124  30.360  31.409  1.00  0.00     0.167 HD
ATOM     54  C   UNL A   1      40.084  32.366  35.281  1.00  0.00     0.037 A 
ATOM     55  C   UNL A   1      41.063  28.495  29.551  1.00  0.00     0.037 A 
ATOM     56  C   UNL A   1      41.100  31.352  35.402  1.00  0.00     0.049 A 
ATOM     57  C   UNL A   1      41.895  28.300  30.790  1.00  0.00     0.074 A 
ATOM     58  C   UNL A   1      41.887  31.044  36.499  1.00  0.00     0.029 A 
ATOM     59  N   UNL A   1      41.475  30.483  34.388  1.00  0.00    -0.354 N 
ATOM     60  N   UNL A   1      41.820  28.916  31.945  1.00  0.00    -0.248 NA
ATOM     61  C   UNL A   1      42.940  27.269  30.727  1.00  0.00     0.031 C 
ATOM     62  C   UNL A   1      42.772  30.024  36.133  1.00  0.00     0.029 A 
ATOM     63  C   UNL A   1      42.498  29.657  34.826  1.00  0.00     0.049 A 
ATOM     64  H   UNL A   1      41.074  30.459  33.489  1.00  0.00     0.167 HD
ATOM     65  C   UNL A   1      42.786  28.331  32.753  1.00  0.00     0.074 A 
ATOM     66  C   UNL A   1      43.419  27.295  31.963  1.00  0.00     0.031 C 
ATOM     67  C   UNL A   1      43.119  28.627  34.034  1.00  0.00     0.037 A 
BRANCH  54  68
ATOM     68  C   UNL A   1      39.847  33.272  36.457  1.00  0.00     0.064 A 
ATOM     69  C   UNL A   1      40.555  34.475  36.613  1.00  0.00     0.173 A 
ATOM     70  C   UNL A   1      38.870  32.960  37.414  1.00  0.00     0.173 A 
ATOM     71  F   UNL A   1      41.505  34.818  35.730  1.00  0.00    -0.203 F 
ATOM     72  C   UNL A   1      40.316  35.314  37.698  1.00  0.00     0.198 A 
ATOM     73  C   UNL A   1      38.611  33.816  38.482  1.00  0.00     0.198 A 
ATOM     74  F   UNL A   1      38.158  31.829  37.309  1.00  0.00    -0.203 F 
ATOM     75  F   UNL A   1      41.038  36.432  37.851  1.00  0.00    -0.200 F 
ATOM     76  C   UNL A   1      39.339  34.989  38.628  1.00  0.00     0.200 A 
ATOM     77  F   UNL A   1      37.656  33.508  39.370  1.00  0.00    -0.200 F 
ATOM     78  F   UNL A   1      39.103  35.800  39.667  1.00  0.00    -0.200 F 
ENDBRANCH  54  68
BRANCH  55  79
ATOM     79  C   UNL A   1      41.291  27.657  28.344  1.00  0.00     0.064 A 
ATOM     80  C   UNL A   1      40.596  26.453  28.158  1.00  0.00     0.173 A 
ATOM     81  C   UNL A   1      42.216  28.035  27.359  1.00  0.00     0.173 A 
ATOM     82  F   UNL A   1      39.717  26.038  29.082  1.00  0.00    -0.203 F 
ATOM     83  C   UNL A   1      40.834  25.650  27.045  1.00  0.00     0.198 A 
ATOM     84  C   UNL A   1      42.430  27.245  26.232  1.00  0.00     0.198 A 
ATOM     85  F   UNL A   1      42.904  29.178  27.488  1.00  0.00    -0.203 F 
ATOM     86  F   UNL A   1      40.192  24.480  26.917  1.00  0.00    -0.200 F 
ATOM     87  C   UNL A   1      41.745  26.049  26.080  1.00  0.00     0.200 A 
ATOM     88  F   UNL A   1      43.300  27.642  25.294  1.00  0.00    -0.200 F 
ATOM     89  F   UNL A   1      41.971  25.277  25.008  1.00  0.00    -0.200 F 
ENDBRANCH  55  79
BRANCH  67  90
ATOM     90  C   UNL A   1      44.196  27.795  34.673  1.00  0.00     0.064 A 
ATOM     91  C   UNL A   1      45.543  28.187  34.650  1.00  0.00     0.173 A 
ATOM     92  C   UNL A   1      43.872  26.600  35.333  1.00  0.00     0.173 A 
ATOM     93  F   UNL A   1      45.908  29.314  34.020  1.00  0.00    -0.203 F 
ATOM     94  C   UNL A   1      46.529  27.396  35.233  1.00  0.00     0.198 A 
ATOM     95  C   UNL A   1      44.857  25.829  35.944  1.00  0.00     0.198 A 
ATOM     96  F   UNL A   1      42.600  26.183  35.392  1.00  0.00    -0.203 F 
ATOM     97  F   UNL A   1      47.816  27.761  35.147  1.00  0.00    -0.200 F 
ATOM     98  C   UNL A   1      46.185  26.221  35.885  1.00  0.00     0.200 A 
ATOM     99  F   UNL A   1      44.521  24.701  36.586  1.00  0.00    -0.200 F 
ATOM    100  F   UNL A   1      47.136  25.462  36.447  1.00  0.00    -0.200 F 
ENDBRANCH  67  90
ENDBRANCH  41  42
ENDBRANCH  33  36
ENDBRANCH  31  32
ENDBRANCH  30  31
ENDBRANCH   1  30
TORSDOF 15
ENDMDL
MODEL 2
REMARK VINA RESULT:     -13.1      0.065      1.909
REMARK SMILES [NH3+][C@H](CS[C@@H]1CC(=O)N(c2ccc3ccccc3c2)C1=O)C(=O)NCCCNC(=O)c1ccc(-c2c3nc(c(-c4c(F)c(F)c(F)c(F)c4F)c4ccc([nH]4)c(-c4c(F)c(F)c(F)c(F)c4F)c4nc(c(-c5c(F)c(F)c(F)c(F)c5F)c5ccc2[nH]5)C=C4)C=C3)cc1
REMARK SMILES IDX 25 1 24 2 22 3 23 4 2 6 1 7 3 11 4 12 5 13 6 14 20 15 7 16
REMARK SMILES IDX 9 17 21 18 8 19 10 20 11 21 19 22 12 23 18 24 13 25 17 26
REMARK SMILES IDX 14 27 16 28 15 29 26 30 27 31 28 32 29 33 30 35 31 36 32 37
REMARK SMILES IDX 93 38 33 39 92 40 34 41 35 42 36 43 86 44 37 45 91 46 85 47
REMARK SMILES IDX 87 48 38 49 90 50 84 51 83 52 39 54 71 55 51 56 70 57 52 58
REMARK SMILES IDX 55 59 69 60 88 61 53 62 54 63 68 65 89 66 56 67 40 68 41 69
REMARK SMILES IDX 49 70 42 71 43 72 47 73 50 74 44 75 45 76 48 77 46 78 72 79
REMARK SMILES IDX 73 80 81 81 74 82 75 83 79 84 82 85 76 86 77 87 80 88 78 89
REMARK SMILES IDX 57 90 58 91 66 92 59 93 60 94 64 95 67 96 61 97 62 98 65 99
REMARK SMILES IDX 63 100
REMARK H PARENT 24 5 1 8 1 9 1 10 28 34 87 53 55 64
REMARK Flexibility Score: inf
ROOT
ATOM      1  C   UNL A   1      31.001  31.161  25.419  1.00  0.00     0.118 C 
ENDROOT
BRANCH   1   2
ATOM      2  N   UNL A   1      29.891  31.560  24.570  1.00  0.00    -0.351 N 
ATOM      3  C   UNL A   1      29.247  30.968  23.526  1.00  0.00     0.279 C 
ATOM      4  O   UNL A   1      28.216  31.539  23.147  1.00  0.00    -0.268 OA
ATOM      5  H   UNL A   1      29.526  32.445  24.798  1.00  0.00     0.163 HD
BRANCH   3   6
ATOM      6  C   UNL A   1      29.765  29.746  22.746  1.00  0.00     0.280 C 
BRANCH   6   7
ATOM      7  N   UNL A   1      30.207  30.094  21.381  1.00  0.00    -0.347 N 
ATOM      8  H   UNL A   1      31.179  30.401  21.406  1.00  0.00     0.345 HD
ATOM      9  H   UNL A   1      29.623  30.845  21.015  1.00  0.00     0.345 HD
ATOM     10  H   UNL A   1      30.124  29.275  20.777  1.00  0.00     0.345 HD
ENDBRANCH   6   7
BRANCH   6  11
ATOM     11  C   UNL A   1      28.944  28.444  22.880  1.00  0.00     0.145 C 
BRANCH  11  12
ATOM     12  S   UNL A   1      29.673  26.972  23.649  1.00  0.00    -0.141 SA
BRANCH  12  13
ATOM     13  C   UNL A   1      31.419  26.912  23.029  1.00  0.00     0.146 C 
ATOM     14  C   UNL A   1      31.759  26.584  21.590  1.00  0.00     0.125 C 
ATOM     15  C   UNL A   1      32.177  25.881  23.829  1.00  0.00     0.247 C 
ATOM     16  C   UNL A   1      32.742  25.457  21.662  1.00  0.00     0.235 C 
ATOM     17  N   UNL A   1      32.805  25.021  22.962  1.00  0.00    -0.250 N 
ATOM     18  O   UNL A   1      32.267  25.905  25.052  1.00  0.00    -0.273 OA
ATOM     19  O   UNL A   1      33.299  25.015  20.674  1.00  0.00    -0.274 OA
BRANCH  17  20
ATOM     20  C   UNL A   1      33.411  23.810  23.366  1.00  0.00     0.052 A 
ATOM     21  C   UNL A   1      32.667  22.723  23.832  1.00  0.00     0.027 A 
ATOM     22  C   UNL A   1      34.811  23.736  23.404  1.00  0.00     0.035 A 
ATOM     23  C   UNL A   1      33.308  21.581  24.320  1.00  0.00     0.011 A 
ATOM     24  C   UNL A   1      35.466  22.628  23.951  1.00  0.00    -0.016 A 
ATOM     25  C   UNL A   1      34.707  21.529  24.405  1.00  0.00    -0.018 A 
ATOM     26  C   UNL A   1      36.862  22.615  24.080  1.00  0.00     0.009 A 
ATOM     27  C   UNL A   1      35.375  20.422  24.950  1.00  0.00     0.009 A 
ATOM     28  C   UNL A   1      37.507  21.519  24.648  1.00  0.00     0.001 A 
ATOM     29  C   UNL A   1      36.766  20.422  25.075  1.00  0.00     0.001 A 
ENDBRANCH  17  20
ENDBRANCH  12  13
ENDBRANCH  11  12
ENDBRANCH   6  11
ENDBRANCH   3   6
ENDBRANCH   1   2
BRANCH   1  30
ATOM     30  C   UNL A   1      31.140  31.937  26.732  1.00  0.00     0.042 C 
BRANCH  30  31
ATOM     31  C   UNL A   1      32.509  32.527  27.039  1.00  0.00     0.118 C 
BRANCH  31  32
ATOM     32  N   UNL A   1      32.435  33.866  27.581  1.00  0.00    -0.352 N 
ATOM     33  C   UNL A   1      33.196  34.473  28.550  1.00  0.00     0.251 C 
ATOM     34  H   UNL A   1      31.728  34.432  27.195  1.00  0.00     0.163 HD
ATOM     35  O   UNL A   1      32.828  35.557  28.998  1.00  0.00    -0.269 OA
BRANCH  33  36
ATOM     36  C   UNL A   1      34.432  33.849  29.084  1.00  0.00     0.039 A 
ATOM     37  C   UNL A   1      34.290  32.789  29.986  1.00  0.00     0.014 A 
ATOM     38  C   UNL A   1      35.712  34.333  28.794  1.00  0.00     0.014 A 
ATOM     39  C   UNL A   1      35.417  32.205  30.569  1.00  0.00     0.010 A 
ATOM     40  C   UNL A   1      36.843  33.697  29.318  1.00  0.00     0.010 A 
ATOM     41  C   UNL A   1      36.709  32.641  30.230  1.00  0.00    -0.014 A 
BRANCH  41  42
ATOM     42  C   UNL A   1      37.899  32.002  30.857  1.00  0.00     0.031 A 
ATOM     43  C   UNL A   1      38.322  32.361  32.257  1.00  0.00     0.074 A 
ATOM     44  C   UNL A   1      38.602  31.081  30.168  1.00  0.00     0.049 A 
ATOM     45  N   UNL A   1      39.287  31.857  32.988  1.00  0.00    -0.248 NA
ATOM     46  C   UNL A   1      37.574  33.440  32.923  1.00  0.00     0.031 C 
ATOM     47  C   UNL A   1      38.334  30.677  28.787  1.00  0.00     0.029 A 
ATOM     48  N   UNL A   1      39.677  30.310  30.536  1.00  0.00    -0.354 N 
ATOM     49  C   UNL A   1      39.263  32.555  34.188  1.00  0.00     0.074 A 
ATOM     50  C   UNL A   1      38.227  33.558  34.070  1.00  0.00     0.031 C 
ATOM     51  C   UNL A   1      39.194  29.707  28.438  1.00  0.00     0.029 A 
ATOM     52  C   UNL A   1      40.093  29.440  29.557  1.00  0.00     0.049 A 
ATOM     53  H   UNL A   1      40.110  30.375  31.419  1.00  0.00     0.167 HD
ATOM     54  C   UNL A   1      40.016  32.363  35.299  1.00  0.00     0.037 A 
ATOM     55  C   UNL A   1      41.081  28.524  29.562  1.00  0.00     0.037 A 
ATOM     56  C   UNL A   1      41.037  31.354  35.426  1.00  0.00     0.049 A 
ATOM     57  C   UNL A   1      41.901  28.329  30.809  1.00  0.00     0.074 A 
ATOM     58  C   UNL A   1      41.815  31.047  36.531  1.00  0.00     0.029 A 
ATOM     59  N   UNL A   1      41.429  30.493  34.412  1.00  0.00    -0.354 N 
ATOM     60  N   UNL A   1      41.810  28.939  31.966  1.00  0.00    -0.248 NA
ATOM     61  C   UNL A   1      42.953  27.305  30.753  1.00  0.00     0.031 C 
ATOM     62  C   UNL A   1      42.710  30.034  36.169  1.00  0.00     0.029 A 
ATOM     63  C   UNL A   1      42.452  29.671  34.857  1.00  0.00     0.049 A 
ATOM     64  H   UNL A   1      41.037  30.470  33.509  1.00  0.00     0.167 HD
ATOM     65  C   UNL A   1      42.771  28.357  32.782  1.00  0.00     0.074 A 
ATOM     66  C   UNL A   1      43.419  27.328  31.994  1.00  0.00     0.031 C 
ATOM     67  C   UNL A   1      43.089  28.649  34.067  1.00  0.00     0.037 A 
BRANCH  54  68
ATOM     68  C   UNL A   1      39.761  33.262  36.477  1.00  0.00     0.064 A 
ATOM     69  C   UNL A   1      38.817  32.933  37.462  1.00  0.00     0.173 A 
ATOM     70  C   UNL A   1      40.500  34.442  36.647  1.00  0.00     0.173 A 
ATOM     71  F   UNL A   1      38.078  31.819  37.345  1.00  0.00    -0.203 F 
ATOM     72  C   UNL A   1      38.601  33.766  38.557  1.00  0.00     0.198 A 
ATOM     73  C   UNL A   1      40.304  35.258  37.759  1.00  0.00     0.198 A 
ATOM     74  F   UNL A   1      41.422  34.800  35.741  1.00  0.00    -0.203 F 
ATOM     75  F   UNL A   1      37.661  33.455  39.459  1.00  0.00    -0.200 F 
ATOM     76  C   UNL A   1      39.350  34.924  38.709  1.00  0.00     0.200 A 
ATOM     77  F   UNL A   1      41.039  36.368  37.912  1.00  0.00    -0.200 F 
ATOM     78  F   UNL A   1      39.148  35.721  39.767  1.00  0.00    -0.200 F 
ENDBRANCH  54  68
BRANCH  55  79
ATOM     79  C   UNL A   1      41.327  27.693  28.355  1.00  0.00     0.064 A 
ATOM     80  C   UNL A   1      42.242  28.100  27.372  1.00  0.00     0.173 A 
ATOM     81  C   UNL A   1      40.647  26.484  28.151  1.00  0.00     0.173 A 
ATOM     82  F   UNL A   1      42.902  29.259  27.511  1.00  0.00    -0.203 F 
ATOM     83  C   UNL A   1      42.450  27.340  26.224  1.00  0.00     0.198 A 
ATOM     84  C   UNL A   1      40.878  25.710  27.016  1.00  0.00     0.198 A 
ATOM     85  F   UNL A   1      39.764  26.049  29.062  1.00  0.00    -0.203 F 
ATOM     86  F   UNL A   1      43.292  27.776  25.277  1.00  0.00    -0.200 F 
ATOM     87  C   UNL A   1      41.772  26.143  26.049  1.00  0.00     0.200 A 
ATOM     88  F   UNL A   1      40.233  24.546  26.859  1.00  0.00    -0.200 F 
ATOM     89  F   UNL A   1      41.975  25.410  24.945  1.00  0.00    -0.200 F 
ENDBRANCH  55  79
BRANCH  67  90
ATOM     90  C   UNL A   1      44.165  27.822  34.714  1.00  0.00     0.064 A 
ATOM     91  C   UNL A   1      43.877  26.610  35.359  1.00  0.00     0.173 A 
ATOM     92  C   UNL A   1      45.504  28.240  34.670  1.00  0.00     0.173 A 
ATOM     93  F   UNL A   1      42.612  26.172  35.442  1.00  0.00    -0.203 F 
ATOM     94  C   UNL A   1      44.884  25.866  35.967  1.00  0.00     0.198 A 
ATOM     95  C   UNL A   1      46.513  27.476  35.250  1.00  0.00     0.198 A 
ATOM     96  F   UNL A   1      45.836  29.386  34.059  1.00  0.00    -0.203 F 
ATOM     97  F   UNL A   1      44.578  24.741  36.629  1.00  0.00    -0.200 F 
ATOM     98  C   UNL A   1      46.202  26.296  35.907  1.00  0.00     0.200 A 
ATOM     99  F   UNL A   1      47.787  27.886  35.179  1.00  0.00    -0.200 F 
ATOM    100  F   UNL A   1      47.170  25.577  36.492  1.00  0.00    -0.200 F 
ENDBRANCH  67  90
ENDBRANCH  41  42
ENDBRANCH  33  36
ENDBRANCH  31  32
ENDBRANCH  30  31
ENDBRANCH   1  30
TORSDOF 15
ENDMDL
MODEL 3
REMARK VINA RESULT:     -13.0      1.623      2.806
REMARK SMILES [NH3+][C@H](CS[C@@H]1CC(=O)N(c2ccc3ccccc3c2)C1=O)C(=O)NCCCNC(=O)c1ccc(-c2c3nc(c(-c4c(F)c(F)c(F)c(F)c4F)c4ccc([nH]4)c(-c4c(F)c(F)c(F)c(F)c4F)c4nc(c(-c5c(F)c(F)c(F)c(F)c5F)c5ccc2[nH]5)C=C4)C=C3)cc1
REMARK SMILES IDX 25 1 24 2 22 3 23 4 2 6 1 7 3 11 4 12 5 13 6 14 20 15 7 16
REMARK SMILES IDX 9 17 21 18 8 19 10 20 11 21 19 22 12 23 18 24 13 25 17 26
REMARK SMILES IDX 14 27 16 28 15 29 26 30 27 31 28 32 29 33 30 35 31 36 32 37
REMARK SMILES IDX 93 38 33 39 92 40 34 41 35 42 36 43 86 44 37 45 91 46 85 47
REMARK SMILES IDX 87 48 38 49 90 50 84 51 83 52 39 54 71 55 51 56 70 57 52 58
REMARK SMILES IDX 55 59 69 60 88 61 53 62 54 63 68 65 89 66 56 67 40 68 41 69
REMARK SMILES IDX 49 70 42 71 43 72 47 73 50 74 44 75 45 76 48 77 46 78 72 79
REMARK SMILES IDX 73 80 81 81 74 82 75 83 79 84 82 85 76 86 77 87 80 88 78 89
REMARK SMILES IDX 57 90 58 91 66 92 59 93 60 94 64 95 67 96 61 97 62 98 65 99
REMARK SMILES IDX 63 100
REMARK H PARENT 24 5 1 8 1 9 1 10 28 34 87 53 55 64
REMARK Flexibility Score: inf
ROOT
ATOM      1  C   UNL A   1      31.392  30.849  26.107  1.00  0.00     0.118 C 
ENDROOT
BRANCH   1   2
ATOM      2  N   UNL A   1      32.377  29.980  26.730  1.00  0.00    -0.351 N 
ATOM      3  C   UNL A   1      33.210  29.014  26.255  1.00  0.00     0.279 C 
ATOM      4  O   UNL A   1      34.049  28.594  27.063  1.00  0.00    -0.268 OA
ATOM      5  H   UNL A   1      32.460  30.121  27.701  1.00  0.00     0.163 HD
BRANCH   3   6
ATOM      6  C   UNL A   1      33.104  28.358  24.866  1.00  0.00     0.280 C 
BRANCH   6   7
ATOM      7  N   UNL A   1      33.576  29.246  23.785  1.00  0.00    -0.347 N 
ATOM      8  H   UNL A   1      34.516  28.968  23.503  1.00  0.00     0.345 HD
ATOM      9  H   UNL A   1      33.593  30.210  24.119  1.00  0.00     0.345 HD
ATOM     10  H   UNL A   1      32.946  29.175  22.986  1.00  0.00     0.345 HD
ENDBRANCH   6   7
BRANCH   6  11
ATOM     11  C   UNL A   1      31.809  27.567  24.574  1.00  0.00     0.145 C 
BRANCH  11  12
ATOM     12  S   UNL A   1      31.864  26.041  23.596  1.00  0.00    -0.141 SA
BRANCH  12  13
ATOM     13  C   UNL A   1      31.156  24.730  24.698  1.00  0.00     0.146 C 
ATOM     14  C   UNL A   1      31.395  24.710  26.194  1.00  0.00     0.125 C 
ATOM     15  C   UNL A   1      31.660  23.386  24.230  1.00  0.00     0.247 C 
ATOM     16  C   UNL A   1      31.933  23.345  26.491  1.00  0.00     0.235 C 
ATOM     17  N   UNL A   1      32.194  22.714  25.301  1.00  0.00    -0.250 N 
ATOM     18  O   UNL A   1      31.507  22.967  23.087  1.00  0.00    -0.273 OA
ATOM     19  O   UNL A   1      32.140  22.960  27.628  1.00  0.00    -0.274 OA
BRANCH  17  20
ATOM     20  C   UNL A   1      32.954  21.529  25.179  1.00  0.00     0.052 A 
ATOM     21  C   UNL A   1      34.351  21.532  25.230  1.00  0.00     0.027 A 
ATOM     22  C   UNL A   1      32.292  20.328  24.889  1.00  0.00     0.035 A 
ATOM     23  C   UNL A   1      35.071  20.356  25.001  1.00  0.00     0.011 A 
ATOM     24  C   UNL A   1      33.001  19.160  24.592  1.00  0.00    -0.016 A 
ATOM     25  C   UNL A   1      34.410  19.168  24.661  1.00  0.00    -0.018 A 
ATOM     26  C   UNL A   1      32.326  17.995  24.198  1.00  0.00     0.009 A 
ATOM     27  C   UNL A   1      35.110  17.989  24.363  1.00  0.00     0.009 A 
ATOM     28  C   UNL A   1      33.038  16.841  23.880  1.00  0.00     0.001 A 
ATOM     29  C   UNL A   1      34.427  16.836  23.971  1.00  0.00     0.001 A 
ENDBRANCH  17  20
ENDBRANCH  12  13
ENDBRANCH  11  12
ENDBRANCH   6  11
ENDBRANCH   3   6
ENDBRANCH   1   2
BRANCH   1  30
ATOM     30  C   UNL A   1      31.305  32.267  26.680  1.00  0.00     0.042 C 
BRANCH  30  31
ATOM     31  C   UNL A   1      32.622  32.962  26.993  1.00  0.00     0.118 C 
BRANCH  31  32
ATOM     32  N   UNL A   1      32.441  34.250  27.626  1.00  0.00    -0.352 N 
ATOM     33  C   UNL A   1      33.034  34.778  28.746  1.00  0.00     0.251 C 
ATOM     34  H   UNL A   1      31.789  34.842  27.184  1.00  0.00     0.163 HD
ATOM     35  O   UNL A   1      32.581  35.817  29.221  1.00  0.00    -0.269 OA
BRANCH  33  36
ATOM     36  C   UNL A   1      34.187  34.119  29.410  1.00  0.00     0.039 A 
ATOM     37  C   UNL A   1      35.472  34.471  28.986  1.00  0.00     0.014 A 
ATOM     38  C   UNL A   1      34.034  33.109  30.366  1.00  0.00     0.014 A 
ATOM     39  C   UNL A   1      36.591  33.837  29.531  1.00  0.00     0.010 A 
ATOM     40  C   UNL A   1      35.158  32.531  30.967  1.00  0.00     0.010 A 
ATOM     41  C   UNL A   1      36.450  32.871  30.540  1.00  0.00    -0.014 A 
BRANCH  41  42
ATOM     42  C   UNL A   1      37.654  32.211  31.115  1.00  0.00     0.031 A 
ATOM     43  C   UNL A   1      38.136  32.553  32.501  1.00  0.00     0.074 A 
ATOM     44  C   UNL A   1      38.317  31.285  30.393  1.00  0.00     0.049 A 
ATOM     45  N   UNL A   1      39.122  32.031  33.189  1.00  0.00    -0.248 NA
ATOM     46  C   UNL A   1      37.431  33.638  33.202  1.00  0.00     0.031 C 
ATOM     47  C   UNL A   1      37.989  30.895  29.021  1.00  0.00     0.029 A 
ATOM     48  N   UNL A   1      39.394  30.497  30.714  1.00  0.00    -0.354 N 
ATOM     49  C   UNL A   1      39.155  32.720  34.394  1.00  0.00     0.074 A 
ATOM     50  C   UNL A   1      38.130  33.739  34.324  1.00  0.00     0.031 C 
ATOM     51  C   UNL A   1      38.820  29.916  28.632  1.00  0.00     0.029 A 
ATOM     52  C   UNL A   1      39.758  29.628  29.713  1.00  0.00     0.049 A 
ATOM     53  H   UNL A   1      39.862  30.549  31.579  1.00  0.00     0.167 HD
ATOM     54  C   UNL A   1      39.948  32.509  35.474  1.00  0.00     0.037 A 
ATOM     55  C   UNL A   1      40.732  28.698  29.674  1.00  0.00     0.037 A 
ATOM     56  C   UNL A   1      40.959  31.485  35.554  1.00  0.00     0.049 A 
ATOM     57  C   UNL A   1      41.597  28.482  30.886  1.00  0.00     0.074 A 
ATOM     58  C   UNL A   1      41.774  31.159  36.625  1.00  0.00     0.029 A 
ATOM     59  N   UNL A   1      41.297  30.626  34.520  1.00  0.00    -0.354 N 
ATOM     60  N   UNL A   1      41.560  29.085  32.050  1.00  0.00    -0.248 NA
ATOM     61  C   UNL A   1      42.632  27.444  30.782  1.00  0.00     0.031 C 
ATOM     62  C   UNL A   1      42.640  30.136  36.222  1.00  0.00     0.029 A 
ATOM     63  C   UNL A   1      42.326  29.786  34.919  1.00  0.00     0.049 A 
ATOM     64  H   UNL A   1      40.870  30.615  33.632  1.00  0.00     0.167 HD
ATOM     65  C   UNL A   1      42.544  28.483  32.823  1.00  0.00     0.074 A 
ATOM     66  C   UNL A   1      43.146  27.451  32.004  1.00  0.00     0.031 C 
ATOM     67  C   UNL A   1      42.916  28.761  34.097  1.00  0.00     0.037 A 
BRANCH  54  68
ATOM     68  C   UNL A   1      39.752  33.403  36.667  1.00  0.00     0.064 A 
ATOM     69  C   UNL A   1      40.436  34.622  36.791  1.00  0.00     0.173 A 
ATOM     70  C   UNL A   1      38.836  33.061  37.673  1.00  0.00     0.173 A 
ATOM     71  F   UNL A   1      41.328  34.994  35.861  1.00  0.00    -0.203 F 
ATOM     72  C   UNL A   1      40.234  35.449  37.894  1.00  0.00     0.198 A 
ATOM     73  C   UNL A   1      38.613  33.905  38.759  1.00  0.00     0.198 A 
ATOM     74  F   UNL A   1      38.148  31.912  37.599  1.00  0.00    -0.203 F 
ATOM     75  F   UNL A   1      40.935  36.585  38.015  1.00  0.00    -0.200 F 
ATOM     76  C   UNL A   1      39.318  35.094  38.872  1.00  0.00     0.200 A 
ATOM     77  F   UNL A   1      37.716  33.568  39.695  1.00  0.00    -0.200 F 
ATOM     78  F   UNL A   1      39.118  35.894  39.928  1.00  0.00    -0.200 F 
ENDBRANCH  54  68
BRANCH  55  79
ATOM     79  C   UNL A   1      40.919  27.873  28.451  1.00  0.00     0.064 A 
ATOM     80  C   UNL A   1      41.764  28.297  27.415  1.00  0.00     0.173 A 
ATOM     81  C   UNL A   1      40.251  26.650  28.288  1.00  0.00     0.173 A 
ATOM     82  F   UNL A   1      42.408  29.469  27.514  1.00  0.00    -0.203 F 
ATOM     83  C   UNL A   1      41.914  27.542  26.254  1.00  0.00     0.198 A 
ATOM     84  C   UNL A   1      40.427  25.881  27.140  1.00  0.00     0.198 A 
ATOM     85  F   UNL A   1      39.436  26.197  29.251  1.00  0.00    -0.203 F 
ATOM     86  F   UNL A   1      42.688  27.995  25.258  1.00  0.00    -0.200 F 
ATOM     87  C   UNL A   1      41.250  26.332  26.120  1.00  0.00     0.200 A 
ATOM     88  F   UNL A   1      39.796  24.706  27.021  1.00  0.00    -0.200 F 
ATOM     89  F   UNL A   1      41.398  25.604  25.005  1.00  0.00    -0.200 F 
ENDBRANCH  55  79
BRANCH  67  90
ATOM     90  C   UNL A   1      44.004  27.914  34.696  1.00  0.00     0.064 A 
ATOM     91  C   UNL A   1      43.724  26.704  35.348  1.00  0.00     0.173 A 
ATOM     92  C   UNL A   1      45.347  28.311  34.598  1.00  0.00     0.173 A 
ATOM     93  F   UNL A   1      42.456  26.286  35.482  1.00  0.00    -0.203 F 
ATOM     94  C   UNL A   1      44.743  25.941  35.911  1.00  0.00     0.198 A 
ATOM     95  C   UNL A   1      46.367  27.528  35.133  1.00  0.00     0.198 A 
ATOM     96  F   UNL A   1      45.672  29.454  33.978  1.00  0.00    -0.203 F 
ATOM     97  F   UNL A   1      44.446  24.818  36.581  1.00  0.00    -0.200 F 
ATOM     98  C   UNL A   1      46.064  26.350  35.798  1.00  0.00     0.200 A 
ATOM     99  F   UNL A   1      47.644  27.917  35.010  1.00  0.00    -0.200 F 
ATOM    100  F   UNL A   1      47.044  25.613  36.339  1.00  0.00    -0.200 F 
ENDBRANCH  67  90
ENDBRANCH  41  42
ENDBRANCH  33  36
ENDBRANCH  31  32
ENDBRANCH  30  31
ENDBRANCH   1  30
TORSDOF 15
ENDMDL
