MODEL 1
REMARK VINA RESULT:     -15.0      0.000      0.000
REMARK SMILES Cc1coc2cc3c(cc12)[C@@H](C)[C@H](CCC(=O)N[C@@H](Cc1c[nH]c2ccccc12)C(=O)NCCCNC(=O)c1ccc(-c2c4nc(c(-c5c(F)c(F)c(F)c(F)c5F)c5ccc([nH]5)c(-c5c(F)c(F)c(F)c(F)c5F)c5nc(c(-c6c(F)c(F)c(F)c(F)c6F)c6ccc2[nH]6)C=C5)C=C4)cc1)C(=O)O3
REMARK SMILES IDX 33 1 32 2 30 3 31 4 19 6 18 7 16 8 17 9 15 11 14 12 13 13
REMARK SMILES IDX 1 14 2 15 3 16 10 17 4 18 5 19 9 20 6 21 8 22 7 23 11 24
REMARK SMILES IDX 104 25 12 26 102 27 103 28 20 29 21 30 22 31 29 32 23 33
REMARK SMILES IDX 24 34 28 35 25 37 27 38 26 39 34 40 35 41 36 42 37 43 38 45
REMARK SMILES IDX 39 46 40 47 101 48 41 49 100 50 42 51 43 52 44 53 94 54
REMARK SMILES IDX 45 55 99 56 93 57 95 58 46 59 98 60 92 61 91 62 47 64 79 65
REMARK SMILES IDX 59 66 78 67 60 68 63 69 77 70 96 71 61 72 62 73 76 75 97 76
REMARK SMILES IDX 64 77 48 78 49 79 57 80 50 81 51 82 55 83 58 84 52 85 53 86
REMARK SMILES IDX 56 87 54 88 80 89 81 90 89 91 82 92 83 93 87 94 90 95 84 96
REMARK SMILES IDX 85 97 88 98 86 99 65 100 66 101 74 102 67 103 68 104 72 105
REMARK SMILES IDX 75 106 69 107 70 108 73 109 71 110
REMARK H PARENT 32 5 18 10 23 36 36 44 95 63 63 74
REMARK Flexibility Score: inf
ROOT
ATOM      1  C   UNL A   1      32.531  28.165  25.102  1.00  0.00     0.117 C 
ENDROOT
BRANCH   1   2
ATOM      2  N   UNL A   1      31.658  27.453  26.056  1.00  0.00    -0.354 N 
ATOM      3  C   UNL A   1      30.782  26.406  26.031  1.00  0.00     0.242 C 
ATOM      4  O   UNL A   1      30.005  26.374  27.000  1.00  0.00    -0.273 OA
ATOM      5  H   UNL A   1      31.725  27.840  26.960  1.00  0.00     0.163 HD
BRANCH   3   6
ATOM      6  C   UNL A   1      30.709  25.235  24.990  1.00  0.00     0.175 C 
BRANCH   6   7
ATOM      7  N   UNL A   1      30.332  23.910  25.654  1.00  0.00    -0.344 N 
ATOM      8  C   UNL A   1      30.732  22.605  25.793  1.00  0.00     0.220 C 
ATOM      9  O   UNL A   1      29.909  21.880  26.379  1.00  0.00    -0.275 OA
ATOM     10  H   UNL A   1      29.502  24.041  26.168  1.00  0.00     0.164 HD
BRANCH   8  11
ATOM     11  C   UNL A   1      32.086  21.944  25.369  1.00  0.00     0.101 C 
BRANCH  11  12
ATOM     12  C   UNL A   1      32.690  22.129  23.889  1.00  0.00     0.026 C 
BRANCH  12  13
ATOM     13  C   UNL A   1      33.035  23.612  23.473  1.00  0.00     0.107 C 
ATOM     14  C   UNL A   1      39.026  24.984  27.283  1.00  0.00     0.048 C 
ATOM     15  C   UNL A   1      38.580  23.780  26.550  1.00  0.00    -0.005 A 
ATOM     16  C   UNL A   1      39.284  22.601  26.397  1.00  0.00     0.199 A 
ATOM     17  C   UNL A   1      37.367  23.614  25.816  1.00  0.00     0.024 A 
ATOM     18  O   UNL A   1      38.615  21.737  25.599  1.00  0.00    -0.464 OA
ATOM     19  C   UNL A   1      37.477  22.367  25.209  1.00  0.00     0.137 A 
ATOM     20  C   UNL A   1      36.207  24.393  25.571  1.00  0.00     0.020 A 
ATOM     21  C   UNL A   1      36.586  21.882  24.272  1.00  0.00     0.095 A 
ATOM     22  C   UNL A   1      35.274  23.928  24.640  1.00  0.00    -0.001 A 
ATOM     23  C   UNL A   1      35.594  22.788  23.923  1.00  0.00     0.138 A 
ATOM     24  C   UNL A   1      33.978  24.606  24.256  1.00  0.00     0.034 C 
ATOM     25  O   UNL A   1      34.987  22.656  22.656  1.00  0.00    -0.426 OA
ATOM     26  C   UNL A   1      34.348  25.824  23.358  1.00  0.00     0.014 C 
ATOM     27  C   UNL A   1      33.840  23.375  22.274  1.00  0.00     0.314 C 
ATOM     28  O   UNL A   1      33.482  23.629  21.144  1.00  0.00    -0.251 OA
ENDBRANCH  12  13
ENDBRANCH  11  12
ENDBRANCH   8  11
ENDBRANCH   6   7
BRANCH   6  29
ATOM     29  C   UNL A   1      30.042  25.686  23.661  1.00  0.00     0.072 C 
BRANCH  29  30
ATOM     30  C   UNL A   1      29.090  26.856  23.523  1.00  0.00    -0.020 A 
ATOM     31  C   UNL A   1      27.766  26.751  23.938  1.00  0.00     0.087 A 
ATOM     32  C   UNL A   1      29.218  28.178  22.972  1.00  0.00     0.003 A 
ATOM     33  N   UNL A   1      27.084  27.866  23.546  1.00  0.00    -0.361 N 
ATOM     34  C   UNL A   1      27.929  28.719  22.886  1.00  0.00     0.046 A 
ATOM     35  C   UNL A   1      30.268  28.960  22.445  1.00  0.00     0.010 A 
ATOM     36  H   UNL A   1      26.128  28.032  23.714  1.00  0.00     0.166 HD
ATOM     37  C   UNL A   1      27.641  29.911  22.209  1.00  0.00     0.026 A 
ATOM     38  C   UNL A   1      30.007  30.158  21.775  1.00  0.00     0.001 A 
ATOM     39  C   UNL A   1      28.706  30.613  21.644  1.00  0.00     0.002 A 
ENDBRANCH  29  30
ENDBRANCH   6  29
ENDBRANCH   3   6
ENDBRANCH   1   2
BRANCH   1  40
ATOM     40  C   UNL A   1      33.139  29.426  25.714  1.00  0.00     0.042 C 
BRANCH  40  41
ATOM     41  C   UNL A   1      32.996  29.588  27.216  1.00  0.00     0.118 C 
BRANCH  41  42
ATOM     42  N   UNL A   1      33.482  30.871  27.674  1.00  0.00    -0.352 N 
ATOM     43  C   UNL A   1      34.674  31.386  28.096  1.00  0.00     0.251 C 
ATOM     44  H   UNL A   1      32.768  31.549  27.683  1.00  0.00     0.163 HD
ATOM     45  O   UNL A   1      34.622  32.572  28.440  1.00  0.00    -0.269 OA
BRANCH  43  46
ATOM     46  C   UNL A   1      35.992  30.687  28.214  1.00  0.00     0.039 A 
ATOM     47  C   UNL A   1      36.312  29.381  27.847  1.00  0.00     0.014 A 
ATOM     48  C   UNL A   1      37.027  31.478  28.752  1.00  0.00     0.014 A 
ATOM     49  C   UNL A   1      37.599  28.866  28.104  1.00  0.00     0.010 A 
ATOM     50  C   UNL A   1      38.303  30.976  28.989  1.00  0.00     0.010 A 
ATOM     51  C   UNL A   1      38.583  29.641  28.737  1.00  0.00    -0.014 A 
BRANCH  51  52
ATOM     52  C   UNL A   1      39.919  29.078  29.023  1.00  0.00     0.031 A 
ATOM     53  C   UNL A   1      40.249  28.904  30.474  1.00  0.00     0.074 A 
ATOM     54  C   UNL A   1      40.746  28.573  28.073  1.00  0.00     0.049 A 
ATOM     55  N   UNL A   1      41.282  29.341  31.123  1.00  0.00    -0.248 NA
ATOM     56  C   UNL A   1      39.261  28.222  31.327  1.00  0.00     0.031 C 
ATOM     57  C   UNL A   1      40.490  28.429  26.636  1.00  0.00     0.029 A 
ATOM     58  N   UNL A   1      41.971  27.974  28.207  1.00  0.00    -0.354 N 
ATOM     59  C   UNL A   1      41.155  28.867  32.430  1.00  0.00     0.074 A 
ATOM     60  C   UNL A   1      39.838  28.293  32.527  1.00  0.00     0.031 C 
ATOM     61  C   UNL A   1      41.387  27.575  26.095  1.00  0.00     0.029 A 
ATOM     62  C   UNL A   1      42.367  27.218  27.104  1.00  0.00     0.049 A 
ATOM     63  H   UNL A   1      42.525  28.068  29.015  1.00  0.00     0.167 HD
ATOM     64  C   UNL A   1      42.214  28.810  33.285  1.00  0.00     0.037 A 
ATOM     65  C   UNL A   1      43.392  26.326  27.032  1.00  0.00     0.037 A 
ATOM     66  C   UNL A   1      43.273  29.690  32.873  1.00  0.00     0.049 A 
ATOM     67  C   UNL A   1      44.322  26.636  28.144  1.00  0.00     0.074 A 
ATOM     68  C   UNL A   1      43.376  31.053  32.679  1.00  0.00     0.029 A 
ATOM     69  N   UNL A   1      44.376  29.150  32.261  1.00  0.00    -0.354 N 
ATOM     70  N   UNL A   1      45.048  27.717  28.204  1.00  0.00    -0.248 NA
ATOM     71  C   UNL A   1      44.099  25.952  29.409  1.00  0.00     0.031 C 
ATOM     72  C   UNL A   1      44.217  31.198  31.540  1.00  0.00     0.029 A 
ATOM     73  C   UNL A   1      44.629  29.922  31.157  1.00  0.00     0.049 A 
ATOM     74  H   UNL A   1      44.888  28.362  32.557  1.00  0.00     0.167 HD
ATOM     75  C   UNL A   1      44.999  28.088  29.537  1.00  0.00     0.074 A 
ATOM     76  C   UNL A   1      44.460  26.927  30.243  1.00  0.00     0.031 C 
ATOM     77  C   UNL A   1      45.122  29.393  29.911  1.00  0.00     0.037 A 
BRANCH  64  78
ATOM     78  C   UNL A   1      42.433  27.721  34.309  1.00  0.00     0.064 A 
ATOM     79  C   UNL A   1      43.013  26.498  33.912  1.00  0.00     0.173 A 
ATOM     80  C   UNL A   1      41.815  27.715  35.578  1.00  0.00     0.173 A 
ATOM     81  F   UNL A   1      43.610  26.379  32.717  1.00  0.00    -0.203 F 
ATOM     82  C   UNL A   1      42.908  25.342  34.691  1.00  0.00     0.198 A 
ATOM     83  C   UNL A   1      41.758  26.573  36.375  1.00  0.00     0.198 A 
ATOM     84  F   UNL A   1      41.145  28.774  36.047  1.00  0.00    -0.203 F 
ATOM     85  F   UNL A   1      43.360  24.174  34.214  1.00  0.00    -0.200 F 
ATOM     86  C   UNL A   1      42.274  25.378  35.918  1.00  0.00     0.200 A 
ATOM     87  F   UNL A   1      41.121  26.624  37.554  1.00  0.00    -0.200 F 
ATOM     88  F   UNL A   1      42.113  24.260  36.637  1.00  0.00    -0.200 F 
ENDBRANCH  64  78
BRANCH  65  89
ATOM     89  C   UNL A   1      43.470  25.042  26.279  1.00  0.00     0.064 A 
ATOM     90  C   UNL A   1      44.407  24.857  25.243  1.00  0.00     0.173 A 
ATOM     91  C   UNL A   1      42.832  23.876  26.745  1.00  0.00     0.173 A 
ATOM     92  F   UNL A   1      45.098  25.900  24.762  1.00  0.00    -0.203 F 
ATOM     93  C   UNL A   1      44.706  23.585  24.734  1.00  0.00     0.198 A 
ATOM     94  C   UNL A   1      43.125  22.610  26.231  1.00  0.00     0.198 A 
ATOM     95  F   UNL A   1      41.978  23.923  27.777  1.00  0.00    -0.203 F 
ATOM     96  F   UNL A   1      45.653  23.444  23.795  1.00  0.00    -0.200 F 
ATOM     97  C   UNL A   1      44.074  22.462  25.237  1.00  0.00     0.200 A 
ATOM     98  F   UNL A   1      42.528  21.528  26.752  1.00  0.00    -0.200 F 
ATOM     99  F   UNL A   1      44.404  21.239  24.798  1.00  0.00    -0.200 F 
ENDBRANCH  65  89
BRANCH  77 100
ATOM    100  C   UNL A   1      45.540  30.406  28.883  1.00  0.00     0.064 A 
ATOM    101  C   UNL A   1      44.642  31.064  28.027  1.00  0.00     0.173 A 
ATOM    102  C   UNL A   1      46.858  30.880  28.926  1.00  0.00     0.173 A 
ATOM    103  F   UNL A   1      43.347  30.727  27.990  1.00  0.00    -0.203 F 
ATOM    104  C   UNL A   1      45.050  32.143  27.244  1.00  0.00     0.198 A 
ATOM    105  C   UNL A   1      47.255  31.980  28.170  1.00  0.00     0.198 A 
ATOM    106  F   UNL A   1      47.747  30.320  29.762  1.00  0.00    -0.203 F 
ATOM    107  F   UNL A   1      44.171  32.768  26.446  1.00  0.00    -0.200 F 
ATOM    108  C   UNL A   1      46.351  32.609  27.329  1.00  0.00     0.200 A 
ATOM    109  F   UNL A   1      48.501  32.456  28.291  1.00  0.00    -0.200 F 
ATOM    110  F   UNL A   1      46.726  33.688  26.626  1.00  0.00    -0.200 F 
ENDBRANCH  77 100
ENDBRANCH  51  52
ENDBRANCH  43  46
ENDBRANCH  41  42
ENDBRANCH  40  41
ENDBRANCH   1  40
TORSDOF 16
ENDMDL
MODEL 2
REMARK VINA RESULT:     -14.7      1.864      2.833
REMARK SMILES Cc1coc2cc3c(cc12)[C@@H](C)[C@H](CCC(=O)N[C@@H](Cc1c[nH]c2ccccc12)C(=O)NCCCNC(=O)c1ccc(-c2c4nc(c(-c5c(F)c(F)c(F)c(F)c5F)c5ccc([nH]5)c(-c5c(F)c(F)c(F)c(F)c5F)c5nc(c(-c6c(F)c(F)c(F)c(F)c6F)c6ccc2[nH]6)C=C5)C=C4)cc1)C(=O)O3
REMARK SMILES IDX 33 1 32 2 30 3 31 4 19 6 18 7 16 8 17 9 15 11 14 12 13 13
REMARK SMILES IDX 1 14 2 15 3 16 10 17 4 18 5 19 9 20 6 21 8 22 7 23 11 24
REMARK SMILES IDX 104 25 12 26 102 27 103 28 20 29 21 30 22 31 29 32 23 33
REMARK SMILES IDX 24 34 28 35 25 37 27 38 26 39 34 40 35 41 36 42 37 43 38 45
REMARK SMILES IDX 39 46 40 47 101 48 41 49 100 50 42 51 43 52 44 53 94 54
REMARK SMILES IDX 45 55 99 56 93 57 95 58 46 59 98 60 92 61 91 62 47 64 79 65
REMARK SMILES IDX 59 66 78 67 60 68 63 69 77 70 96 71 61 72 62 73 76 75 97 76
REMARK SMILES IDX 64 77 48 78 49 79 57 80 50 81 51 82 55 83 58 84 52 85 53 86
REMARK SMILES IDX 56 87 54 88 80 89 81 90 89 91 82 92 83 93 87 94 90 95 84 96
REMARK SMILES IDX 85 97 88 98 86 99 65 100 66 101 74 102 67 103 68 104 72 105
REMARK SMILES IDX 75 106 69 107 70 108 73 109 71 110
REMARK H PARENT 32 5 18 10 23 36 36 44 95 63 63 74
REMARK Flexibility Score: inf
ROOT
ATOM      1  C   UNL A   1      33.864  29.656  27.219  1.00  0.00     0.117 C 
ENDROOT
BRANCH   1   2
ATOM      2  N   UNL A   1      34.030  29.438  25.769  1.00  0.00    -0.354 N 
ATOM      3  C   UNL A   1      33.371  28.783  24.767  1.00  0.00     0.242 C 
ATOM      4  O   UNL A   1      34.065  28.579  23.757  1.00  0.00    -0.273 OA
ATOM      5  H   UNL A   1      34.838  29.889  25.430  1.00  0.00     0.163 HD
BRANCH   3   6
ATOM      6  C   UNL A   1      31.864  28.350  24.726  1.00  0.00     0.175 C 
BRANCH   6   7
ATOM      7  N   UNL A   1      31.578  27.208  25.702  1.00  0.00    -0.344 N 
ATOM      8  C   UNL A   1      32.113  26.058  26.225  1.00  0.00     0.220 C 
ATOM      9  O   UNL A   1      31.324  25.403  26.928  1.00  0.00    -0.275 OA
ATOM     10  H   UNL A   1      30.688  27.349  26.099  1.00  0.00     0.164 HD
BRANCH   8  11
ATOM     11  C   UNL A   1      33.575  25.510  26.099  1.00  0.00     0.101 C 
BRANCH  11  12
ATOM     12  C   UNL A   1      33.873  23.947  25.861  1.00  0.00     0.026 C 
BRANCH  12  13
ATOM     13  C   UNL A   1      35.080  23.620  24.899  1.00  0.00     0.107 C 
ATOM     14  C   UNL A   1      35.153  16.390  24.830  1.00  0.00     0.048 C 
ATOM     15  C   UNL A   1      34.040  17.363  24.802  1.00  0.00    -0.005 A 
ATOM     16  C   UNL A   1      32.693  17.070  24.710  1.00  0.00     0.199 A 
ATOM     17  C   UNL A   1      34.137  18.787  24.813  1.00  0.00     0.024 A 
ATOM     18  O   UNL A   1      31.957  18.203  24.628  1.00  0.00    -0.464 OA
ATOM     19  C   UNL A   1      32.832  19.241  24.643  1.00  0.00     0.137 A 
ATOM     20  C   UNL A   1      35.184  19.739  24.913  1.00  0.00     0.020 A 
ATOM     21  C   UNL A   1      32.496  20.564  24.433  1.00  0.00     0.095 A 
ATOM     22  C   UNL A   1      34.879  21.090  24.720  1.00  0.00    -0.001 A 
ATOM     23  C   UNL A   1      33.590  21.409  24.328  1.00  0.00     0.138 A 
ATOM     24  C   UNL A   1      35.850  22.246  24.800  1.00  0.00     0.034 C 
ATOM     25  O   UNL A   1      33.438  22.610  23.603  1.00  0.00    -0.426 OA
ATOM     26  C   UNL A   1      36.719  22.203  23.507  1.00  0.00     0.014 C 
ATOM     27  C   UNL A   1      34.401  23.636  23.601  1.00  0.00     0.314 C 
ATOM     28  O   UNL A   1      34.557  24.488  22.755  1.00  0.00    -0.251 OA
ENDBRANCH  12  13
ENDBRANCH  11  12
ENDBRANCH   8  11
ENDBRANCH   6   7
BRANCH   6  29
ATOM     29  C   UNL A   1      30.916  29.575  24.622  1.00  0.00     0.072 C 
BRANCH  29  30
ATOM     30  C   UNL A   1      29.840  29.752  23.571  1.00  0.00    -0.020 A 
ATOM     31  C   UNL A   1      29.328  28.657  22.882  1.00  0.00     0.087 A 
ATOM     32  C   UNL A   1      29.174  30.900  23.017  1.00  0.00     0.003 A 
ATOM     33  N   UNL A   1      28.513  29.097  21.880  1.00  0.00    -0.361 N 
ATOM     34  C   UNL A   1      28.463  30.466  21.891  1.00  0.00     0.046 A 
ATOM     35  C   UNL A   1      29.155  32.286  23.280  1.00  0.00     0.010 A 
ATOM     36  H   UNL A   1      28.033  28.517  21.246  1.00  0.00     0.166 HD
ATOM     37  C   UNL A   1      27.859  31.342  20.981  1.00  0.00     0.026 A 
ATOM     38  C   UNL A   1      28.551  33.180  22.393  1.00  0.00     0.001 A 
ATOM     39  C   UNL A   1      27.928  32.710  21.249  1.00  0.00     0.002 A 
ENDBRANCH  29  30
ENDBRANCH   6  29
ENDBRANCH   3   6
ENDBRANCH   1   2
BRANCH   1  40
ATOM     40  C   UNL A   1      33.160  30.979  27.522  1.00  0.00     0.042 C 
BRANCH  40  41
ATOM     41  C   UNL A   1      34.052  32.158  27.862  1.00  0.00     0.118 C 
BRANCH  41  42
ATOM     42  N   UNL A   1      34.172  32.357  29.290  1.00  0.00    -0.352 N 
ATOM     43  C   UNL A   1      35.027  31.959  30.276  1.00  0.00     0.251 C 
ATOM     44  H   UNL A   1      33.450  32.927  29.641  1.00  0.00     0.163 HD
ATOM     45  O   UNL A   1      34.715  32.351  31.407  1.00  0.00    -0.269 OA
BRANCH  43  46
ATOM     46  C   UNL A   1      36.246  31.101  30.151  1.00  0.00     0.039 A 
ATOM     47  C   UNL A   1      36.325  29.709  30.143  1.00  0.00     0.014 A 
ATOM     48  C   UNL A   1      37.453  31.817  30.009  1.00  0.00     0.014 A 
ATOM     49  C   UNL A   1      37.580  29.069  30.091  1.00  0.00     0.010 A 
ATOM     50  C   UNL A   1      38.691  31.185  29.939  1.00  0.00     0.010 A 
ATOM     51  C   UNL A   1      38.774  29.805  30.054  1.00  0.00    -0.014 A 
BRANCH  51  52
ATOM     52  C   UNL A   1      40.084  29.119  30.027  1.00  0.00     0.031 A 
ATOM     53  C   UNL A   1      40.755  28.957  31.356  1.00  0.00     0.074 A 
ATOM     54  C   UNL A   1      40.591  28.505  28.929  1.00  0.00     0.049 A 
ATOM     55  N   UNL A   1      41.954  29.307  31.700  1.00  0.00    -0.248 NA
ATOM     56  C   UNL A   1      39.960  28.403  32.465  1.00  0.00     0.031 C 
ATOM     57  C   UNL A   1      39.966  28.345  27.612  1.00  0.00     0.029 A 
ATOM     58  N   UNL A   1      41.751  27.790  28.784  1.00  0.00    -0.354 N 
ATOM     59  C   UNL A   1      42.123  28.887  33.021  1.00  0.00     0.074 A 
ATOM     60  C   UNL A   1      40.828  28.452  33.477  1.00  0.00     0.031 C 
ATOM     61  C   UNL A   1      40.615  27.388  26.910  1.00  0.00     0.029 A 
ATOM     62  C   UNL A   1      41.784  26.965  27.659  1.00  0.00     0.049 A 
ATOM     63  H   UNL A   1      42.500  27.852  29.420  1.00  0.00     0.167 HD
ATOM     64  C   UNL A   1      43.356  28.750  33.585  1.00  0.00     0.037 A 
ATOM     65  C   UNL A   1      42.672  25.973  27.382  1.00  0.00     0.037 A 
ATOM     66  C   UNL A   1      44.349  29.505  32.872  1.00  0.00     0.049 A 
ATOM     67  C   UNL A   1      43.878  26.221  28.206  1.00  0.00     0.074 A 
ATOM     68  C   UNL A   1      44.521  30.845  32.585  1.00  0.00     0.029 A 
ATOM     69  N   UNL A   1      45.207  28.839  32.034  1.00  0.00    -0.354 N 
ATOM     70  N   UNL A   1      44.690  27.224  28.023  1.00  0.00    -0.248 NA
ATOM     71  C   UNL A   1      43.925  25.600  29.522  1.00  0.00     0.031 C 
ATOM     72  C   UNL A   1      45.053  30.870  31.265  1.00  0.00     0.029 A 
ATOM     73  C   UNL A   1      45.238  29.548  30.862  1.00  0.00     0.049 A 
ATOM     74  H   UNL A   1      45.704  28.013  32.235  1.00  0.00     0.167 HD
ATOM     75  C   UNL A   1      45.016  27.639  29.303  1.00  0.00     0.074 A 
ATOM     76  C   UNL A   1      44.573  26.559  30.184  1.00  0.00     0.031 C 
ATOM     77  C   UNL A   1      45.348  28.935  29.563  1.00  0.00     0.037 A 
BRANCH  64  78
ATOM     78  C   UNL A   1      43.729  27.676  34.579  1.00  0.00     0.064 A 
ATOM     79  C   UNL A   1      43.552  26.318  34.238  1.00  0.00     0.173 A 
ATOM     80  C   UNL A   1      43.953  27.931  35.949  1.00  0.00     0.173 A 
ATOM     81  F   UNL A   1      43.312  25.957  32.968  1.00  0.00    -0.203 F 
ATOM     82  C   UNL A   1      43.521  25.309  35.205  1.00  0.00     0.198 A 
ATOM     83  C   UNL A   1      43.973  26.916  36.904  1.00  0.00     0.198 A 
ATOM     84  F   UNL A   1      44.047  29.175  36.433  1.00  0.00    -0.203 F 
ATOM     85  F   UNL A   1      43.219  24.054  34.849  1.00  0.00    -0.200 F 
ATOM     86  C   UNL A   1      43.723  25.610  36.539  1.00  0.00     0.200 A 
ATOM     87  F   UNL A   1      44.151  27.231  38.195  1.00  0.00    -0.200 F 
ATOM     88  F   UNL A   1      43.628  24.658  37.476  1.00  0.00    -0.200 F 
ENDBRANCH  64  78
BRANCH  65  89
ATOM     89  C   UNL A   1      42.439  24.665  26.704  1.00  0.00     0.064 A 
ATOM     90  C   UNL A   1      43.214  24.267  25.596  1.00  0.00     0.173 A 
ATOM     91  C   UNL A   1      41.656  23.657  27.300  1.00  0.00     0.173 A 
ATOM     92  F   UNL A   1      44.025  25.143  24.988  1.00  0.00    -0.203 F 
ATOM     93  C   UNL A   1      43.226  22.941  25.140  1.00  0.00     0.198 A 
ATOM     94  C   UNL A   1      41.663  22.338  26.839  1.00  0.00     0.198 A 
ATOM     95  F   UNL A   1      40.939  23.904  28.404  1.00  0.00    -0.203 F 
ATOM     96  F   UNL A   1      44.029  22.589  24.125  1.00  0.00    -0.200 F 
ATOM     97  C   UNL A   1      42.460  21.976  25.769  1.00  0.00     0.200 A 
ATOM     98  F   UNL A   1      40.941  21.408  27.479  1.00  0.00    -0.200 F 
ATOM     99  F   UNL A   1      42.519  20.696  25.376  1.00  0.00    -0.200 F 
ENDBRANCH  65  89
BRANCH  77 100
ATOM    100  C   UNL A   1      45.579  29.869  28.409  1.00  0.00     0.064 A 
ATOM    101  C   UNL A   1      44.554  30.583  27.766  1.00  0.00     0.173 A 
ATOM    102  C   UNL A   1      46.901  30.215  28.098  1.00  0.00     0.173 A 
ATOM    103  F   UNL A   1      43.268  30.372  28.070  1.00  0.00    -0.203 F 
ATOM    104  C   UNL A   1      44.843  31.592  26.849  1.00  0.00     0.198 A 
ATOM    105  C   UNL A   1      47.187  31.246  27.208  1.00  0.00     0.198 A 
ATOM    106  F   UNL A   1      47.920  29.598  28.718  1.00  0.00    -0.203 F 
ATOM    107  F   UNL A   1      43.849  32.273  26.260  1.00  0.00    -0.200 F 
ATOM    108  C   UNL A   1      46.159  31.933  26.583  1.00  0.00     0.200 A 
ATOM    109  F   UNL A   1      48.460  31.603  26.991  1.00  0.00    -0.200 F 
ATOM    110  F   UNL A   1      46.436  32.947  25.751  1.00  0.00    -0.200 F 
ENDBRANCH  77 100
ENDBRANCH  51  52
ENDBRANCH  43  46
ENDBRANCH  41  42
ENDBRANCH  40  41
ENDBRANCH   1  40
TORSDOF 16
ENDMDL
MODEL 3
REMARK VINA RESULT:     -14.5      1.767      2.760
REMARK SMILES Cc1coc2cc3c(cc12)[C@@H](C)[C@H](CCC(=O)N[C@@H](Cc1c[nH]c2ccccc12)C(=O)NCCCNC(=O)c1ccc(-c2c4nc(c(-c5c(F)c(F)c(F)c(F)c5F)c5ccc([nH]5)c(-c5c(F)c(F)c(F)c(F)c5F)c5nc(c(-c6c(F)c(F)c(F)c(F)c6F)c6ccc2[nH]6)C=C5)C=C4)cc1)C(=O)O3
REMARK SMILES IDX 33 1 32 2 30 3 31 4 19 6 18 7 16 8 17 9 15 11 14 12 13 13
REMARK SMILES IDX 1 14 2 15 3 16 10 17 4 18 5 19 9 20 6 21 8 22 7 23 11 24
REMARK SMILES IDX 104 25 12 26 102 27 103 28 20 29 21 30 22 31 29 32 23 33
REMARK SMILES IDX 24 34 28 35 25 37 27 38 26 39 34 40 35 41 36 42 37 43 38 45
REMARK SMILES IDX 39 46 40 47 101 48 41 49 100 50 42 51 43 52 44 53 94 54
REMARK SMILES IDX 45 55 99 56 93 57 95 58 46 59 98 60 92 61 91 62 47 64 79 65
REMARK SMILES IDX 59 66 78 67 60 68 63 69 77 70 96 71 61 72 62 73 76 75 97 76
REMARK SMILES IDX 64 77 48 78 49 79 57 80 50 81 51 82 55 83 58 84 52 85 53 86
REMARK SMILES IDX 56 87 54 88 80 89 81 90 89 91 82 92 83 93 87 94 90 95 84 96
REMARK SMILES IDX 85 97 88 98 86 99 65 100 66 101 74 102 67 103 68 104 72 105
REMARK SMILES IDX 75 106 69 107 70 108 73 109 71 110
REMARK H PARENT 32 5 18 10 23 36 36 44 95 63 63 74
REMARK Flexibility Score: inf
ROOT
ATOM      1  C   UNL A   1      33.686  31.400  27.643  1.00  0.00     0.117 C 
ENDROOT
BRANCH   1   2
ATOM      2  N   UNL A   1      34.138  30.128  27.046  1.00  0.00    -0.354 N 
ATOM      3  C   UNL A   1      33.733  29.282  26.052  1.00  0.00     0.242 C 
ATOM      4  O   UNL A   1      34.224  28.143  26.128  1.00  0.00    -0.273 OA
ATOM      5  H   UNL A   1      34.955  29.797  27.485  1.00  0.00     0.163 HD
BRANCH   3   6
ATOM      6  C   UNL A   1      32.814  29.608  24.824  1.00  0.00     0.175 C 
BRANCH   6   7
ATOM      7  N   UNL A   1      33.496  29.262  23.500  1.00  0.00    -0.344 N 
ATOM      8  C   UNL A   1      33.639  28.259  22.575  1.00  0.00     0.220 C 
ATOM      9  O   UNL A   1      34.486  28.493  21.696  1.00  0.00    -0.275 OA
ATOM     10  H   UNL A   1      34.021  30.040  23.204  1.00  0.00     0.164 HD
BRANCH   8  11
ATOM     11  C   UNL A   1      32.847  26.913  22.456  1.00  0.00     0.101 C 
BRANCH  11  12
ATOM     12  C   UNL A   1      33.519  25.501  22.834  1.00  0.00     0.026 C 
BRANCH  12  13
ATOM     13  C   UNL A   1      32.595  24.495  23.625  1.00  0.00     0.107 C 
ATOM     14  C   UNL A   1      37.058  18.970  24.986  1.00  0.00     0.048 C 
ATOM     15  C   UNL A   1      37.264  20.433  25.023  1.00  0.00    -0.005 A 
ATOM     16  C   UNL A   1      38.421  21.092  25.390  1.00  0.00     0.199 A 
ATOM     17  C   UNL A   1      36.303  21.449  24.739  1.00  0.00     0.024 A 
ATOM     18  O   UNL A   1      38.236  22.433  25.388  1.00  0.00    -0.464 OA
ATOM     19  C   UNL A   1      36.941  22.649  25.040  1.00  0.00     0.137 A 
ATOM     20  C   UNL A   1      34.955  21.485  24.296  1.00  0.00     0.020 A 
ATOM     21  C   UNL A   1      36.310  23.876  25.060  1.00  0.00     0.095 A 
ATOM     22  C   UNL A   1      34.287  22.713  24.289  1.00  0.00    -0.001 A 
ATOM     23  C   UNL A   1      34.944  23.807  24.826  1.00  0.00     0.138 A 
ATOM     24  C   UNL A   1      32.864  22.955  23.841  1.00  0.00     0.034 C 
ATOM     25  O   UNL A   1      34.127  24.837  25.337  1.00  0.00    -0.426 OA
ATOM     26  C   UNL A   1      31.932  22.393  24.956  1.00  0.00     0.014 C 
ATOM     27  C   UNL A   1      32.771  24.987  24.993  1.00  0.00     0.314 C 
ATOM     28  O   UNL A   1      31.915  25.556  25.634  1.00  0.00    -0.251 OA
ENDBRANCH  12  13
ENDBRANCH  11  12
ENDBRANCH   8  11
ENDBRANCH   6   7
BRANCH   6  29
ATOM     29  C   UNL A   1      31.335  29.219  25.092  1.00  0.00     0.072 C 
BRANCH  29  30
ATOM     30  C   UNL A   1      30.218  29.304  24.073  1.00  0.00    -0.020 A 
ATOM     31  C   UNL A   1      29.787  28.171  23.390  1.00  0.00     0.087 A 
ATOM     32  C   UNL A   1      29.434  30.390  23.548  1.00  0.00     0.003 A 
ATOM     33  N   UNL A   1      28.907  28.541  22.415  1.00  0.00    -0.361 N 
ATOM     34  C   UNL A   1      28.733  29.900  22.439  1.00  0.00     0.046 A 
ATOM     35  C   UNL A   1      29.298  31.768  23.824  1.00  0.00     0.010 A 
ATOM     36  H   UNL A   1      28.463  27.925  21.789  1.00  0.00     0.166 HD
ATOM     37  C   UNL A   1      28.026  30.724  21.554  1.00  0.00     0.026 A 
ATOM     38  C   UNL A   1      28.589  32.608  22.962  1.00  0.00     0.001 A 
ATOM     39  C   UNL A   1      27.979  32.090  21.832  1.00  0.00     0.002 A 
ENDBRANCH  29  30
ENDBRANCH   6  29
ENDBRANCH   3   6
ENDBRANCH   1   2
BRANCH   1  40
ATOM     40  C   UNL A   1      34.836  32.393  27.810  1.00  0.00     0.042 C 
BRANCH  40  41
ATOM     41  C   UNL A   1      34.582  33.576  28.725  1.00  0.00     0.118 C 
BRANCH  41  42
ATOM     42  N   UNL A   1      34.373  33.168  30.097  1.00  0.00    -0.352 N 
ATOM     43  C   UNL A   1      34.978  32.322  30.982  1.00  0.00     0.251 C 
ATOM     44  H   UNL A   1      33.593  33.617  30.497  1.00  0.00     0.163 HD
ATOM     45  O   UNL A   1      34.418  32.253  32.082  1.00  0.00    -0.269 OA
BRANCH  43  46
ATOM     46  C   UNL A   1      36.189  31.471  30.766  1.00  0.00     0.039 A 
ATOM     47  C   UNL A   1      36.264  30.081  30.687  1.00  0.00     0.014 A 
ATOM     48  C   UNL A   1      37.390  32.192  30.608  1.00  0.00     0.014 A 
ATOM     49  C   UNL A   1      37.514  29.444  30.552  1.00  0.00     0.010 A 
ATOM     50  C   UNL A   1      38.622  31.564  30.456  1.00  0.00     0.010 A 
ATOM     51  C   UNL A   1      38.708  30.180  30.502  1.00  0.00    -0.014 A 
BRANCH  51  52
ATOM     52  C   UNL A   1      40.013  29.496  30.387  1.00  0.00     0.031 A 
ATOM     53  C   UNL A   1      40.763  29.317  31.672  1.00  0.00     0.074 A 
ATOM     54  C   UNL A   1      40.455  28.898  29.253  1.00  0.00     0.049 A 
ATOM     55  N   UNL A   1      41.980  29.663  31.949  1.00  0.00    -0.248 NA
ATOM     56  C   UNL A   1      40.035  28.747  32.819  1.00  0.00     0.031 C 
ATOM     57  C   UNL A   1      39.752  28.754  27.974  1.00  0.00     0.029 A 
ATOM     58  N   UNL A   1      41.604  28.185  29.030  1.00  0.00    -0.354 N 
ATOM     59  C   UNL A   1      42.226  29.225  33.252  1.00  0.00     0.074 A 
ATOM     60  C   UNL A   1      40.961  28.783  33.778  1.00  0.00     0.031 C 
ATOM     61  C   UNL A   1      40.359  27.808  27.222  1.00  0.00     0.029 A 
ATOM     62  C   UNL A   1      41.570  27.376  27.894  1.00  0.00     0.049 A 
ATOM     63  H   UNL A   1      42.389  28.240  29.621  1.00  0.00     0.167 HD
ATOM     64  C   UNL A   1      43.491  29.082  33.740  1.00  0.00     0.037 A 
ATOM     65  C   UNL A   1      42.440  26.388  27.551  1.00  0.00     0.037 A 
ATOM     66  C   UNL A   1      44.440  29.848  32.980  1.00  0.00     0.049 A 
ATOM     67  C   UNL A   1      43.693  26.626  28.306  1.00  0.00     0.074 A 
ATOM     68  C   UNL A   1      44.595  31.192  32.701  1.00  0.00     0.029 A 
ATOM     69  N   UNL A   1      45.247  29.194  32.083  1.00  0.00    -0.354 N 
ATOM     70  N   UNL A   1      44.493  27.632  28.088  1.00  0.00    -0.248 NA
ATOM     71  C   UNL A   1      43.818  25.988  29.608  1.00  0.00     0.031 C 
ATOM     72  C   UNL A   1      45.047  31.235  31.352  1.00  0.00     0.029 A 
ATOM     73  C   UNL A   1      45.207  29.919  30.921  1.00  0.00     0.049 A 
ATOM     74  H   UNL A   1      45.755  28.365  32.243  1.00  0.00     0.167 HD
ATOM     75  C   UNL A   1      44.894  28.030  29.353  1.00  0.00     0.074 A 
ATOM     76  C   UNL A   1      44.504  26.938  30.243  1.00  0.00     0.031 C 
ATOM     77  C   UNL A   1      45.240  29.323  29.609  1.00  0.00     0.037 A 
BRANCH  64  78
ATOM     78  C   UNL A   1      43.923  27.995  34.696  1.00  0.00     0.064 A 
ATOM     79  C   UNL A   1      43.710  26.642  34.355  1.00  0.00     0.173 A 
ATOM     80  C   UNL A   1      44.245  28.235  36.049  1.00  0.00     0.173 A 
ATOM     81  F   UNL A   1      43.377  26.295  33.102  1.00  0.00    -0.203 F 
ATOM     82  C   UNL A   1      43.737  25.625  35.313  1.00  0.00     0.198 A 
ATOM     83  C   UNL A   1      44.321  27.211  36.991  1.00  0.00     0.198 A 
ATOM     84  F   UNL A   1      44.384  29.473  36.536  1.00  0.00    -0.203 F 
ATOM     85  F   UNL A   1      43.399  24.375  34.967  1.00  0.00    -0.200 F 
ATOM     86  C   UNL A   1      44.035  25.911  36.632  1.00  0.00     0.200 A 
ATOM     87  F   UNL A   1      44.593  27.512  38.269  1.00  0.00    -0.200 F 
ATOM     88  F   UNL A   1      43.996  24.950  37.564  1.00  0.00    -0.200 F 
ENDBRANCH  64  78
BRANCH  65  89
ATOM     89  C   UNL A   1      42.168  25.089  26.871  1.00  0.00     0.064 A 
ATOM     90  C   UNL A   1      42.893  24.695  25.730  1.00  0.00     0.173 A 
ATOM     91  C   UNL A   1      41.399  24.082  27.488  1.00  0.00     0.173 A 
ATOM     92  F   UNL A   1      43.688  25.569  25.098  1.00  0.00    -0.203 F 
ATOM     93  C   UNL A   1      42.874  23.373  25.261  1.00  0.00     0.198 A 
ATOM     94  C   UNL A   1      41.375  22.768  27.015  1.00  0.00     0.198 A 
ATOM     95  F   UNL A   1      40.729  24.325  28.623  1.00  0.00    -0.203 F 
ATOM     96  F   UNL A   1      43.632  23.024  24.211  1.00  0.00    -0.200 F 
ATOM     97  C   UNL A   1      42.125  22.409  25.911  1.00  0.00     0.200 A 
ATOM     98  F   UNL A   1      40.670  21.838  27.675  1.00  0.00    -0.200 F 
ATOM     99  F   UNL A   1      42.155  21.133  25.503  1.00  0.00    -0.200 F 
ENDBRANCH  65  89
BRANCH  77 100
ATOM    100  C   UNL A   1      45.402  30.272  28.456  1.00  0.00     0.064 A 
ATOM    101  C   UNL A   1      44.346  31.016  27.904  1.00  0.00     0.173 A 
ATOM    102  C   UNL A   1      46.704  30.600  28.053  1.00  0.00     0.173 A 
ATOM    103  F   UNL A   1      43.082  30.823  28.299  1.00  0.00    -0.203 F 
ATOM    104  C   UNL A   1      44.585  32.035  26.983  1.00  0.00     0.198 A 
ATOM    105  C   UNL A   1      46.942  31.641  27.160  1.00  0.00     0.198 A 
ATOM    106  F   UNL A   1      47.754  29.955  28.585  1.00  0.00    -0.203 F 
ATOM    107  F   UNL A   1      43.562  32.744  26.481  1.00  0.00    -0.200 F 
ATOM    108  C   UNL A   1      45.883  32.357  26.626  1.00  0.00     0.200 A 
ATOM    109  F   UNL A   1      48.202  31.979  26.854  1.00  0.00    -0.200 F 
ATOM    110  F   UNL A   1      46.116  33.380  25.791  1.00  0.00    -0.200 F 
ENDBRANCH  77 100
ENDBRANCH  51  52
ENDBRANCH  43  46
ENDBRANCH  41  42
ENDBRANCH  40  41
ENDBRANCH   1  40
TORSDOF 16
ENDMDL
