MODEL 1
REMARK VINA RESULT:     -12.9      0.000      0.000
REMARK SMILES Cc1ccccc1[C@@H](CC(=O)NCCCNC(=O)c1ccc(-c2c3nc(c(-c4c(F)c(F)c(F)c(F)c4F)c4ccc([nH]4)c(-c4c(F)c(F)c(F)c(F)c4F)c4nc(c(-c5c(F)c(F)c(F)c(F)c5F)c5ccc2[nH]5)C=C4)C=C3)cc1)NC(=O)C(F)(F)F
REMARK SMILES IDX 13 1 12 2 10 3 11 4 9 6 8 7 7 8 1 9 2 10 3 11 4 12 6 13 5 14
REMARK SMILES IDX 82 15 83 16 84 18 85 19 86 20 87 21 88 22 14 23 15 24 16 25
REMARK SMILES IDX 17 26 18 28 19 29 20 30 81 31 21 32 80 33 22 34 23 35 24 36
REMARK SMILES IDX 74 37 25 38 79 39 73 40 75 41 26 42 78 43 72 44 71 45 27 47
REMARK SMILES IDX 59 48 39 49 58 50 40 51 43 52 57 53 76 54 41 55 42 56 56 58
REMARK SMILES IDX 77 59 44 60 28 61 29 62 37 63 30 64 31 65 35 66 38 67 32 68
REMARK SMILES IDX 33 69 36 70 34 71 60 72 61 73 69 74 62 75 63 76 67 77 70 78
REMARK SMILES IDX 64 79 65 80 68 81 66 82 45 83 46 84 54 85 47 86 48 87 52 88
REMARK SMILES IDX 55 89 49 90 50 91 53 92 51 93
REMARK H PARENT 12 5 82 17 16 27 75 46 43 57
REMARK Flexibility Score: inf
ROOT
ATOM      1  C   UNL A   1      37.902  22.698  25.351  1.00  0.00     0.117 C 
ENDROOT
BRANCH   1   2
ATOM      2  N   UNL A   1      36.674  22.408  26.073  1.00  0.00    -0.356 N 
ATOM      3  C   UNL A   1      35.536  23.123  26.241  1.00  0.00     0.222 C 
ATOM      4  O   UNL A   1      34.739  22.725  27.093  1.00  0.00    -0.275 OA
ATOM      5  H   UNL A   1      36.668  21.532  26.520  1.00  0.00     0.163 HD
BRANCH   3   6
ATOM      6  C   UNL A   1      35.228  24.337  25.402  1.00  0.00     0.129 C 
BRANCH   6   7
ATOM      7  C   UNL A   1      33.739  24.565  25.058  1.00  0.00     0.122 C 
BRANCH   7   8
ATOM      8  C   UNL A   1      33.587  25.789  24.158  1.00  0.00    -0.022 A 
ATOM      9  C   UNL A   1      33.005  24.425  22.038  1.00  0.00     0.045 C 
ATOM     10  C   UNL A   1      33.393  25.691  22.759  1.00  0.00    -0.046 A 
ATOM     11  C   UNL A   1      33.478  26.855  21.969  1.00  0.00     0.004 A 
ATOM     12  C   UNL A   1      33.735  28.099  22.538  1.00  0.00     0.000 A 
ATOM     13  C   UNL A   1      33.762  27.069  24.714  1.00  0.00     0.006 A 
ATOM     14  C   UNL A   1      33.850  28.210  23.915  1.00  0.00     0.000 A 
ENDBRANCH   7   8
BRANCH   7  15
ATOM     15  N   UNL A   1      32.841  24.612  26.207  1.00  0.00    -0.341 N 
ATOM     16  C   UNL A   1      31.668  23.911  26.390  1.00  0.00     0.326 C 
ATOM     17  H   UNL A   1      33.104  25.216  26.938  1.00  0.00     0.164 HD
ATOM     18  O   UNL A   1      31.013  24.164  27.406  1.00  0.00    -0.265 OA
BRANCH  16  19
ATOM     19  C   UNL A   1      31.239  22.851  25.349  1.00  0.00     0.471 C 
ATOM     20  F   UNL A   1      30.296  21.996  25.839  1.00  0.00    -0.162 F 
ATOM     21  F   UNL A   1      30.687  23.420  24.239  1.00  0.00    -0.162 F 
ATOM     22  F   UNL A   1      32.268  22.077  24.910  1.00  0.00    -0.162 F 
ENDBRANCH  16  19
ENDBRANCH   7  15
ENDBRANCH   6   7
ENDBRANCH   3   6
ENDBRANCH   1   2
BRANCH   1  23
ATOM     23  C   UNL A   1      38.970  21.689  25.766  1.00  0.00     0.042 C 
BRANCH  23  24
ATOM     24  C   UNL A   1      39.739  22.094  27.014  1.00  0.00     0.118 C 
BRANCH  24  25
ATOM     25  N   UNL A   1      41.116  22.523  26.773  1.00  0.00    -0.352 N 
ATOM     26  C   UNL A   1      41.631  23.810  26.824  1.00  0.00     0.251 C 
ATOM     27  H   UNL A   1      41.757  21.811  26.545  1.00  0.00     0.163 HD
ATOM     28  O   UNL A   1      42.834  24.030  26.833  1.00  0.00    -0.269 OA
BRANCH  26  29
ATOM     29  C   UNL A   1      40.660  24.917  26.899  1.00  0.00     0.039 A 
ATOM     30  C   UNL A   1      40.840  26.009  26.041  1.00  0.00     0.014 A 
ATOM     31  C   UNL A   1      39.935  25.022  28.083  1.00  0.00     0.014 A 
ATOM     32  C   UNL A   1      40.532  27.281  26.512  1.00  0.00     0.010 A 
ATOM     33  C   UNL A   1      39.700  26.293  28.572  1.00  0.00     0.010 A 
ATOM     34  C   UNL A   1      40.106  27.423  27.833  1.00  0.00    -0.014 A 
BRANCH  34  35
ATOM     35  C   UNL A   1      40.338  28.641  28.623  1.00  0.00     0.031 A 
ATOM     36  C   UNL A   1      39.293  29.688  28.729  1.00  0.00     0.074 A 
ATOM     37  C   UNL A   1      41.397  28.680  29.470  1.00  0.00     0.049 A 
ATOM     38  N   UNL A   1      39.444  30.815  29.339  1.00  0.00    -0.248 NA
ATOM     39  C   UNL A   1      37.983  29.561  28.105  1.00  0.00     0.031 C 
ATOM     40  C   UNL A   1      41.524  29.489  30.682  1.00  0.00     0.029 A 
ATOM     41  N   UNL A   1      42.674  28.103  29.315  1.00  0.00    -0.354 N 
ATOM     42  C   UNL A   1      38.212  31.421  29.447  1.00  0.00     0.074 A 
ATOM     43  C   UNL A   1      37.352  30.630  28.602  1.00  0.00     0.031 C 
ATOM     44  C   UNL A   1      42.819  29.607  31.005  1.00  0.00     0.029 A 
ATOM     45  C   UNL A   1      43.578  29.009  29.925  1.00  0.00     0.049 A 
ATOM     46  H   UNL A   1      42.892  27.250  28.875  1.00  0.00     0.167 HD
ATOM     47  C   UNL A   1      38.068  32.452  30.331  1.00  0.00     0.037 A 
ATOM     48  C   UNL A   1      44.560  29.649  29.226  1.00  0.00     0.037 A 
ATOM     49  C   UNL A   1      39.373  32.882  30.843  1.00  0.00     0.049 A 
ATOM     50  C   UNL A   1      44.493  31.157  29.289  1.00  0.00     0.074 A 
ATOM     51  C   UNL A   1      40.051  32.684  32.035  1.00  0.00     0.029 A 
ATOM     52  N   UNL A   1      40.297  33.418  29.952  1.00  0.00    -0.354 N 
ATOM     53  N   UNL A   1      43.433  31.815  29.667  1.00  0.00    -0.248 NA
ATOM     54  C   UNL A   1      45.586  32.043  28.899  1.00  0.00     0.031 C 
ATOM     55  C   UNL A   1      41.401  33.079  31.843  1.00  0.00     0.029 A 
ATOM     56  C   UNL A   1      41.538  33.527  30.542  1.00  0.00     0.049 A 
ATOM     57  H   UNL A   1      40.091  33.684  29.026  1.00  0.00     0.167 HD
ATOM     58  C   UNL A   1      43.656  33.163  29.539  1.00  0.00     0.074 A 
ATOM     59  C   UNL A   1      45.030  33.253  29.083  1.00  0.00     0.031 C 
ATOM     60  C   UNL A   1      42.669  34.071  29.801  1.00  0.00     0.037 A 
BRANCH  47  61
ATOM     61  C   UNL A   1      36.754  32.950  30.919  1.00  0.00     0.064 A 
ATOM     62  C   UNL A   1      35.910  33.806  30.170  1.00  0.00     0.173 A 
ATOM     63  C   UNL A   1      36.289  32.691  32.222  1.00  0.00     0.173 A 
ATOM     64  F   UNL A   1      36.157  34.090  28.885  1.00  0.00    -0.203 F 
ATOM     65  C   UNL A   1      34.770  34.415  30.711  1.00  0.00     0.198 A 
ATOM     66  C   UNL A   1      35.170  33.325  32.776  1.00  0.00     0.198 A 
ATOM     67  F   UNL A   1      36.853  31.774  33.006  1.00  0.00    -0.203 F 
ATOM     68  F   UNL A   1      34.024  35.226  29.948  1.00  0.00    -0.200 F 
ATOM     69  C   UNL A   1      34.415  34.196  32.023  1.00  0.00     0.200 A 
ATOM     70  F   UNL A   1      34.832  33.073  34.048  1.00  0.00    -0.200 F 
ATOM     71  F   UNL A   1      33.341  34.796  32.553  1.00  0.00    -0.200 F 
ENDBRANCH  47  61
BRANCH  48  72
ATOM     72  C   UNL A   1      45.062  28.855  28.079  1.00  0.00     0.064 A 
ATOM     73  C   UNL A   1      46.010  27.849  28.349  1.00  0.00     0.173 A 
ATOM     74  C   UNL A   1      44.334  28.764  26.888  1.00  0.00     0.173 A 
ATOM     75  F   UNL A   1      46.729  27.893  29.482  1.00  0.00    -0.203 F 
ATOM     76  C   UNL A   1      46.121  26.728  27.532  1.00  0.00     0.198 A 
ATOM     77  C   UNL A   1      44.456  27.642  26.066  1.00  0.00     0.198 A 
ATOM     78  F   UNL A   1      43.403  29.683  26.592  1.00  0.00    -0.203 F 
ATOM     79  F   UNL A   1      46.934  25.722  27.886  1.00  0.00    -0.200 F 
ATOM     80  C   UNL A   1      45.318  26.609  26.411  1.00  0.00     0.200 A 
ATOM     81  F   UNL A   1      43.653  27.506  25.002  1.00  0.00    -0.200 F 
ATOM     82  F   UNL A   1      45.330  25.476  25.693  1.00  0.00    -0.200 F 
ENDBRANCH  48  72
BRANCH  60  83
ATOM     83  C   UNL A   1      42.668  35.546  29.455  1.00  0.00     0.064 A 
ATOM     84  C   UNL A   1      43.374  36.530  30.167  1.00  0.00     0.173 A 
ATOM     85  C   UNL A   1      42.052  35.998  28.259  1.00  0.00     0.173 A 
ATOM     86  F   UNL A   1      44.100  36.226  31.250  1.00  0.00    -0.203 F 
ATOM     87  C   UNL A   1      43.416  37.865  29.749  1.00  0.00     0.198 A 
ATOM     88  C   UNL A   1      42.148  37.316  27.812  1.00  0.00     0.198 A 
ATOM     89  F   UNL A   1      41.364  35.166  27.464  1.00  0.00    -0.203 F 
ATOM     90  F   UNL A   1      44.074  38.770  30.488  1.00  0.00    -0.200 F 
ATOM     91  C   UNL A   1      42.817  38.255  28.566  1.00  0.00     0.200 A 
ATOM     92  F   UNL A   1      41.609  37.661  26.634  1.00  0.00    -0.200 F 
ATOM     93  F   UNL A   1      42.906  39.523  28.144  1.00  0.00    -0.200 F 
ENDBRANCH  60  83
ENDBRANCH  34  35
ENDBRANCH  26  29
ENDBRANCH  24  25
ENDBRANCH  23  24
ENDBRANCH   1  23
TORSDOF 14
ENDMDL
MODEL 2
REMARK VINA RESULT:     -12.8      1.191      1.798
REMARK SMILES Cc1ccccc1[C@@H](CC(=O)NCCCNC(=O)c1ccc(-c2c3nc(c(-c4c(F)c(F)c(F)c(F)c4F)c4ccc([nH]4)c(-c4c(F)c(F)c(F)c(F)c4F)c4nc(c(-c5c(F)c(F)c(F)c(F)c5F)c5ccc2[nH]5)C=C4)C=C3)cc1)NC(=O)C(F)(F)F
REMARK SMILES IDX 13 1 12 2 10 3 11 4 9 6 8 7 7 8 1 9 2 10 3 11 4 12 6 13 5 14
REMARK SMILES IDX 82 15 83 16 84 18 85 19 86 20 87 21 88 22 14 23 15 24 16 25
REMARK SMILES IDX 17 26 18 28 19 29 20 30 81 31 21 32 80 33 22 34 23 35 24 36
REMARK SMILES IDX 74 37 25 38 79 39 73 40 75 41 26 42 78 43 72 44 71 45 27 47
REMARK SMILES IDX 59 48 39 49 58 50 40 51 43 52 57 53 76 54 41 55 42 56 56 58
REMARK SMILES IDX 77 59 44 60 28 61 29 62 37 63 30 64 31 65 35 66 38 67 32 68
REMARK SMILES IDX 33 69 36 70 34 71 60 72 61 73 69 74 62 75 63 76 67 77 70 78
REMARK SMILES IDX 64 79 65 80 68 81 66 82 45 83 46 84 54 85 47 86 48 87 52 88
REMARK SMILES IDX 55 89 49 90 50 91 53 92 51 93
REMARK H PARENT 12 5 82 17 16 27 75 46 43 57
REMARK Flexibility Score: inf
ROOT
ATOM      1  C   UNL A   1      37.037  21.188  25.087  1.00  0.00     0.117 C 
ENDROOT
BRANCH   1   2
ATOM      2  N   UNL A   1      36.089  21.643  26.090  1.00  0.00    -0.356 N 
ATOM      3  C   UNL A   1      35.417  22.810  26.233  1.00  0.00     0.222 C 
ATOM      4  O   UNL A   1      34.846  23.006  27.308  1.00  0.00    -0.275 OA
ATOM      5  H   UNL A   1      35.901  20.982  26.795  1.00  0.00     0.163 HD
BRANCH   3   6
ATOM      6  C   UNL A   1      35.331  23.821  25.117  1.00  0.00     0.129 C 
BRANCH   6   7
ATOM      7  C   UNL A   1      33.909  24.169  24.623  1.00  0.00     0.122 C 
BRANCH   7   8
ATOM      8  C   UNL A   1      33.695  25.680  24.656  1.00  0.00    -0.022 A 
ATOM      9  C   UNL A   1      33.325  25.900  22.105  1.00  0.00     0.045 C 
ATOM     10  C   UNL A   1      33.572  26.462  23.483  1.00  0.00    -0.046 A 
ATOM     11  C   UNL A   1      33.594  27.867  23.586  1.00  0.00     0.004 A 
ATOM     12  C   UNL A   1      33.720  28.500  24.819  1.00  0.00     0.000 A 
ATOM     13  C   UNL A   1      33.736  26.346  25.895  1.00  0.00     0.006 A 
ATOM     14  C   UNL A   1      33.763  27.740  25.977  1.00  0.00     0.000 A 
ENDBRANCH   7   8
BRANCH   7  15
ATOM     15  N   UNL A   1      32.831  23.445  25.288  1.00  0.00    -0.341 N 
ATOM     16  C   UNL A   1      32.201  22.294  24.865  1.00  0.00     0.326 C 
ATOM     17  H   UNL A   1      32.516  23.824  26.141  1.00  0.00     0.164 HD
ATOM     18  O   UNL A   1      31.248  21.892  25.542  1.00  0.00    -0.265 OA
BRANCH  16  19
ATOM     19  C   UNL A   1      32.709  21.563  23.602  1.00  0.00     0.471 C 
ATOM     20  F   UNL A   1      33.958  21.042  23.772  1.00  0.00    -0.162 F 
ATOM     21  F   UNL A   1      31.908  20.512  23.263  1.00  0.00    -0.162 F 
ATOM     22  F   UNL A   1      32.774  22.363  22.503  1.00  0.00    -0.162 F 
ENDBRANCH  16  19
ENDBRANCH   7  15
ENDBRANCH   6   7
ENDBRANCH   3   6
ENDBRANCH   1   2
BRANCH   1  23
ATOM     23  C   UNL A   1      38.448  21.270  25.664  1.00  0.00     0.042 C 
BRANCH  23  24
ATOM     24  C   UNL A   1      38.779  22.623  26.273  1.00  0.00     0.118 C 
BRANCH  24  25
ATOM     25  N   UNL A   1      40.110  22.715  26.873  1.00  0.00    -0.352 N 
ATOM     26  C   UNL A   1      40.647  23.765  27.604  1.00  0.00     0.251 C 
ATOM     27  H   UNL A   1      40.698  21.937  26.740  1.00  0.00     0.163 HD
ATOM     28  O   UNL A   1      41.678  23.646  28.252  1.00  0.00    -0.269 OA
BRANCH  26  29
ATOM     29  C   UNL A   1      39.902  25.037  27.595  1.00  0.00     0.039 A 
ATOM     30  C   UNL A   1      40.262  26.003  26.648  1.00  0.00     0.014 A 
ATOM     31  C   UNL A   1      39.239  25.371  28.773  1.00  0.00     0.014 A 
ATOM     32  C   UNL A   1      40.209  27.344  27.014  1.00  0.00     0.010 A 
ATOM     33  C   UNL A   1      39.258  26.698  29.156  1.00  0.00     0.010 A 
ATOM     34  C   UNL A   1      39.850  27.669  28.322  1.00  0.00    -0.014 A 
BRANCH  34  35
ATOM     35  C   UNL A   1      40.324  28.881  29.005  1.00  0.00     0.031 A 
ATOM     36  C   UNL A   1      39.382  29.966  29.371  1.00  0.00     0.074 A 
ATOM     37  C   UNL A   1      41.571  28.884  29.541  1.00  0.00     0.049 A 
ATOM     38  N   UNL A   1      39.728  31.089  29.903  1.00  0.00    -0.248 NA
ATOM     39  C   UNL A   1      37.950  29.885  29.118  1.00  0.00     0.031 C 
ATOM     40  C   UNL A   1      42.043  29.693  30.665  1.00  0.00     0.029 A 
ATOM     41  N   UNL A   1      42.740  28.261  29.060  1.00  0.00    -0.354 N 
ATOM     42  C   UNL A   1      38.590  31.740  30.326  1.00  0.00     0.074 A 
ATOM     43  C   UNL A   1      37.510  30.978  29.750  1.00  0.00     0.031 C 
ATOM     44  C   UNL A   1      43.381  29.764  30.630  1.00  0.00     0.029 A 
ATOM     45  C   UNL A   1      43.804  29.135  29.397  1.00  0.00     0.049 A 
ATOM     46  H   UNL A   1      42.804  27.398  28.590  1.00  0.00     0.167 HD
ATOM     47  C   UNL A   1      38.722  32.779  31.202  1.00  0.00     0.037 A 
ATOM     48  C   UNL A   1      44.587  29.736  28.453  1.00  0.00     0.037 A 
ATOM     49  C   UNL A   1      40.130  33.163  31.344  1.00  0.00     0.049 A 
ATOM     50  C   UNL A   1      44.591  31.245  28.511  1.00  0.00     0.074 A 
ATOM     51  C   UNL A   1      41.093  32.945  32.315  1.00  0.00     0.029 A 
ATOM     52  N   UNL A   1      40.801  33.661  30.232  1.00  0.00    -0.354 N 
ATOM     53  N   UNL A   1      43.693  31.943  29.147  1.00  0.00    -0.248 NA
ATOM     54  C   UNL A   1      45.571  32.089  27.833  1.00  0.00     0.031 C 
ATOM     55  C   UNL A   1      42.356  33.290  31.768  1.00  0.00     0.029 A 
ATOM     56  C   UNL A   1      42.158  33.727  30.470  1.00  0.00     0.049 A 
ATOM     57  H   UNL A   1      40.367  33.931  29.390  1.00  0.00     0.167 HD
ATOM     58  C   UNL A   1      43.920  33.281  28.947  1.00  0.00     0.074 A 
ATOM     59  C   UNL A   1      45.125  33.319  28.141  1.00  0.00     0.031 C 
ATOM     60  C   UNL A   1      43.069  34.226  29.449  1.00  0.00     0.037 A 
BRANCH  47  61
ATOM     61  C   UNL A   1      37.629  33.328  32.110  1.00  0.00     0.064 A 
ATOM     62  C   UNL A   1      36.554  34.077  31.572  1.00  0.00     0.173 A 
ATOM     63  C   UNL A   1      37.600  33.222  33.514  1.00  0.00     0.173 A 
ATOM     64  F   UNL A   1      36.380  34.207  30.250  1.00  0.00    -0.203 F 
ATOM     65  C   UNL A   1      35.607  34.731  32.370  1.00  0.00     0.198 A 
ATOM     66  C   UNL A   1      36.676  33.903  34.314  1.00  0.00     0.198 A 
ATOM     67  F   UNL A   1      38.422  32.412  34.180  1.00  0.00    -0.203 F 
ATOM     68  F   UNL A   1      34.624  35.436  31.791  1.00  0.00    -0.200 F 
ATOM     69  C   UNL A   1      35.684  34.667  33.743  1.00  0.00     0.200 A 
ATOM     70  F   UNL A   1      36.757  33.801  35.649  1.00  0.00    -0.200 F 
ATOM     71  F   UNL A   1      34.796  35.314  34.510  1.00  0.00    -0.200 F 
ENDBRANCH  47  61
BRANCH  48  72
ATOM     72  C   UNL A   1      44.739  28.919  27.225  1.00  0.00     0.064 A 
ATOM     73  C   UNL A   1      45.697  27.887  27.244  1.00  0.00     0.173 A 
ATOM     74  C   UNL A   1      43.713  28.842  26.276  1.00  0.00     0.173 A 
ATOM     75  F   UNL A   1      46.697  27.918  28.140  1.00  0.00    -0.203 F 
ATOM     76  C   UNL A   1      45.553  26.758  26.443  1.00  0.00     0.198 A 
ATOM     77  C   UNL A   1      43.579  27.711  25.469  1.00  0.00     0.198 A 
ATOM     78  F   UNL A   1      42.763  29.786  26.229  1.00  0.00    -0.203 F 
ATOM     79  F   UNL A   1      46.405  25.730  26.580  1.00  0.00    -0.200 F 
ATOM     80  C   UNL A   1      44.474  26.655  25.583  1.00  0.00     0.200 A 
ATOM     81  F   UNL A   1      42.515  27.591  24.663  1.00  0.00    -0.200 F 
ATOM     82  F   UNL A   1      44.261  25.517  24.906  1.00  0.00    -0.200 F 
ENDBRANCH  48  72
BRANCH  60  83
ATOM     83  C   UNL A   1      43.027  35.699  29.096  1.00  0.00     0.064 A 
ATOM     84  C   UNL A   1      42.336  36.234  27.997  1.00  0.00     0.173 A 
ATOM     85  C   UNL A   1      43.581  36.660  29.982  1.00  0.00     0.173 A 
ATOM     86  F   UNL A   1      41.664  35.452  27.143  1.00  0.00    -0.203 F 
ATOM     87  C   UNL A   1      42.251  37.613  27.771  1.00  0.00     0.198 A 
ATOM     88  C   UNL A   1      43.441  38.035  29.787  1.00  0.00     0.198 A 
ATOM     89  F   UNL A   1      44.248  36.297  31.087  1.00  0.00    -0.203 F 
ATOM     90  F   UNL A   1      41.609  38.068  26.685  1.00  0.00    -0.200 F 
ATOM     91  C   UNL A   1      42.789  38.512  28.672  1.00  0.00     0.200 A 
ATOM     92  F   UNL A   1      43.921  38.889  30.702  1.00  0.00    -0.200 F 
ATOM     93  F   UNL A   1      42.658  39.831  28.478  1.00  0.00    -0.200 F 
ENDBRANCH  60  83
ENDBRANCH  34  35
ENDBRANCH  26  29
ENDBRANCH  24  25
ENDBRANCH  23  24
ENDBRANCH   1  23
TORSDOF 14
ENDMDL
MODEL 3
REMARK VINA RESULT:     -12.8      4.189     10.114
REMARK SMILES Cc1ccccc1[C@@H](CC(=O)NCCCNC(=O)c1ccc(-c2c3nc(c(-c4c(F)c(F)c(F)c(F)c4F)c4ccc([nH]4)c(-c4c(F)c(F)c(F)c(F)c4F)c4nc(c(-c5c(F)c(F)c(F)c(F)c5F)c5ccc2[nH]5)C=C4)C=C3)cc1)NC(=O)C(F)(F)F
REMARK SMILES IDX 13 1 12 2 10 3 11 4 9 6 8 7 7 8 1 9 2 10 3 11 4 12 6 13 5 14
REMARK SMILES IDX 82 15 83 16 84 18 85 19 86 20 87 21 88 22 14 23 15 24 16 25
REMARK SMILES IDX 17 26 18 28 19 29 20 30 81 31 21 32 80 33 22 34 23 35 24 36
REMARK SMILES IDX 74 37 25 38 79 39 73 40 75 41 26 42 78 43 72 44 71 45 27 47
REMARK SMILES IDX 59 48 39 49 58 50 40 51 43 52 57 53 76 54 41 55 42 56 56 58
REMARK SMILES IDX 77 59 44 60 28 61 29 62 37 63 30 64 31 65 35 66 38 67 32 68
REMARK SMILES IDX 33 69 36 70 34 71 60 72 61 73 69 74 62 75 63 76 67 77 70 78
REMARK SMILES IDX 64 79 65 80 68 81 66 82 45 83 46 84 54 85 47 86 48 87 52 88
REMARK SMILES IDX 55 89 49 90 50 91 53 92 51 93
REMARK H PARENT 12 5 82 17 16 27 75 46 43 57
REMARK Flexibility Score: inf
ROOT
ATOM      1  C   UNL A   1      32.097  30.308  26.481  1.00  0.00     0.117 C 
ENDROOT
BRANCH   1   2
ATOM      2  N   UNL A   1      32.586  30.079  25.131  1.00  0.00    -0.356 N 
ATOM      3  C   UNL A   1      33.299  29.063  24.590  1.00  0.00     0.222 C 
ATOM      4  O   UNL A   1      33.770  29.240  23.464  1.00  0.00    -0.275 OA
ATOM      5  H   UNL A   1      32.357  30.794  24.494  1.00  0.00     0.163 HD
BRANCH   3   6
ATOM      6  C   UNL A   1      33.485  27.750  25.308  1.00  0.00     0.129 C 
BRANCH   6   7
ATOM      7  C   UNL A   1      32.616  26.574  24.811  1.00  0.00     0.122 C 
BRANCH   7   8
ATOM      8  C   UNL A   1      33.181  25.250  25.319  1.00  0.00    -0.022 A 
ATOM      9  C   UNL A   1      30.910  24.371  26.193  1.00  0.00     0.045 C 
ATOM     10  C   UNL A   1      32.413  24.328  26.069  1.00  0.00    -0.046 A 
ATOM     11  C   UNL A   1      33.056  23.236  26.685  1.00  0.00     0.004 A 
ATOM     12  C   UNL A   1      34.428  23.039  26.558  1.00  0.00     0.000 A 
ATOM     13  C   UNL A   1      34.550  24.979  25.138  1.00  0.00     0.006 A 
ATOM     14  C   UNL A   1      35.171  23.895  25.762  1.00  0.00     0.000 A 
ENDBRANCH   7   8
BRANCH   7  15
ATOM     15  N   UNL A   1      32.372  26.553  23.372  1.00  0.00    -0.341 N 
ATOM     16  C   UNL A   1      31.177  26.755  22.716  1.00  0.00     0.326 C 
ATOM     17  H   UNL A   1      33.154  26.373  22.802  1.00  0.00     0.164 HD
ATOM     18  O   UNL A   1      31.175  26.608  21.489  1.00  0.00    -0.265 OA
BRANCH  16  19
ATOM     19  C   UNL A   1      29.921  27.162  23.521  1.00  0.00     0.471 C 
ATOM     20  F   UNL A   1      30.224  27.957  24.587  1.00  0.00    -0.162 F 
ATOM     21  F   UNL A   1      29.038  27.875  22.764  1.00  0.00    -0.162 F 
ATOM     22  F   UNL A   1      29.229  26.102  24.018  1.00  0.00    -0.162 F 
ENDBRANCH  16  19
ENDBRANCH   7  15
ENDBRANCH   6   7
ENDBRANCH   3   6
ENDBRANCH   1   2
BRANCH   1  23
ATOM     23  C   UNL A   1      33.036  31.279  27.191  1.00  0.00     0.042 C 
BRANCH  23  24
ATOM     24  C   UNL A   1      34.353  30.650  27.619  1.00  0.00     0.118 C 
BRANCH  24  25
ATOM     25  N   UNL A   1      35.303  31.577  28.234  1.00  0.00    -0.352 N 
ATOM     26  C   UNL A   1      36.646  31.367  28.506  1.00  0.00     0.251 C 
ATOM     27  H   UNL A   1      34.943  32.458  28.486  1.00  0.00     0.163 HD
ATOM     28  O   UNL A   1      37.400  32.283  28.807  1.00  0.00    -0.269 OA
BRANCH  26  29
ATOM     29  C   UNL A   1      37.146  29.985  28.388  1.00  0.00     0.039 A 
ATOM     30  C   UNL A   1      37.114  29.175  29.529  1.00  0.00     0.014 A 
ATOM     31  C   UNL A   1      38.013  29.731  27.328  1.00  0.00     0.014 A 
ATOM     32  C   UNL A   1      38.152  28.272  29.731  1.00  0.00     0.010 A 
ATOM     33  C   UNL A   1      39.079  28.887  27.569  1.00  0.00     0.010 A 
ATOM     34  C   UNL A   1      39.207  28.247  28.819  1.00  0.00    -0.014 A 
BRANCH  34  35
ATOM     35  C   UNL A   1      40.575  27.854  29.187  1.00  0.00     0.031 A 
ATOM     36  C   UNL A   1      41.182  26.614  28.646  1.00  0.00     0.074 A 
ATOM     37  C   UNL A   1      41.373  28.762  29.803  1.00  0.00     0.049 A 
ATOM     38  N   UNL A   1      42.345  26.162  28.976  1.00  0.00    -0.248 NA
ATOM     39  C   UNL A   1      40.492  25.745  27.702  1.00  0.00     0.031 C 
ATOM     40  C   UNL A   1      42.836  28.809  29.778  1.00  0.00     0.029 A 
ATOM     41  N   UNL A   1      41.021  29.759  30.736  1.00  0.00    -0.354 N 
ATOM     42  C   UNL A   1      42.679  25.146  28.109  1.00  0.00     0.074 A 
ATOM     43  C   UNL A   1      41.462  24.883  27.382  1.00  0.00     0.031 C 
ATOM     44  C   UNL A   1      43.275  29.536  30.813  1.00  0.00     0.029 A 
ATOM     45  C   UNL A   1      42.120  29.851  31.628  1.00  0.00     0.049 A 
ATOM     46  H   UNL A   1      40.187  30.281  30.763  1.00  0.00     0.167 HD
ATOM     47  C   UNL A   1      43.983  24.740  28.052  1.00  0.00     0.037 A 
ATOM     48  C   UNL A   1      42.012  29.564  32.958  1.00  0.00     0.037 A 
ATOM     49  C   UNL A   1      44.758  25.335  29.145  1.00  0.00     0.049 A 
ATOM     50  C   UNL A   1      42.936  28.471  33.440  1.00  0.00     0.074 A 
ATOM     51  C   UNL A   1      45.664  26.381  29.222  1.00  0.00     0.029 A 
ATOM     52  N   UNL A   1      44.430  25.005  30.455  1.00  0.00    -0.354 N 
ATOM     53  N   UNL A   1      43.534  27.631  32.643  1.00  0.00    -0.248 NA
ATOM     54  C   UNL A   1      43.231  28.208  34.846  1.00  0.00     0.031 C 
ATOM     55  C   UNL A   1      45.855  26.696  30.593  1.00  0.00     0.029 A 
ATOM     56  C   UNL A   1      45.077  25.835  31.346  1.00  0.00     0.049 A 
ATOM     57  H   UNL A   1      43.819  24.275  30.712  1.00  0.00     0.167 HD
ATOM     58  C   UNL A   1      44.235  26.712  33.382  1.00  0.00     0.074 A 
ATOM     59  C   UNL A   1      44.037  27.136  34.755  1.00  0.00     0.031 C 
ATOM     60  C   UNL A   1      44.891  25.674  32.782  1.00  0.00     0.037 A 
BRANCH  47  61
ATOM     61  C   UNL A   1      44.635  23.983  26.902  1.00  0.00     0.064 A 
ATOM     62  C   UNL A   1      44.345  22.614  26.686  1.00  0.00     0.173 A 
ATOM     63  C   UNL A   1      45.599  24.507  26.020  1.00  0.00     0.173 A 
ATOM     64  F   UNL A   1      43.392  21.979  27.380  1.00  0.00    -0.203 F 
ATOM     65  C   UNL A   1      45.025  21.832  25.744  1.00  0.00     0.198 A 
ATOM     66  C   UNL A   1      46.305  23.719  25.103  1.00  0.00     0.198 A 
ATOM     67  F   UNL A   1      45.868  25.810  25.956  1.00  0.00    -0.203 F 
ATOM     68  F   UNL A   1      44.708  20.537  25.602  1.00  0.00    -0.200 F 
ATOM     69  C   UNL A   1      46.025  22.378  24.971  1.00  0.00     0.200 A 
ATOM     70  F   UNL A   1      47.255  24.282  24.343  1.00  0.00    -0.200 F 
ATOM     71  F   UNL A   1      46.697  21.627  24.088  1.00  0.00    -0.200 F 
ENDBRANCH  47  61
BRANCH  48  72
ATOM     72  C   UNL A   1      40.666  29.860  33.504  1.00  0.00     0.064 A 
ATOM     73  C   UNL A   1      40.383  31.193  33.856  1.00  0.00     0.173 A 
ATOM     74  C   UNL A   1      39.584  29.004  33.263  1.00  0.00     0.173 A 
ATOM     75  F   UNL A   1      41.390  32.051  34.091  1.00  0.00    -0.203 F 
ATOM     76  C   UNL A   1      39.081  31.684  33.829  1.00  0.00     0.198 A 
ATOM     77  C   UNL A   1      38.279  29.499  33.248  1.00  0.00     0.198 A 
ATOM     78  F   UNL A   1      39.797  27.730  32.903  1.00  0.00    -0.203 F 
ATOM     79  F   UNL A   1      38.856  32.990  34.036  1.00  0.00    -0.200 F 
ATOM     80  C   UNL A   1      38.034  30.845  33.489  1.00  0.00     0.200 A 
ATOM     81  F   UNL A   1      37.268  28.699  32.881  1.00  0.00    -0.200 F 
ATOM     82  F   UNL A   1      36.798  31.341  33.338  1.00  0.00    -0.200 F 
ENDBRANCH  48  72
BRANCH  60  83
ATOM     83  C   UNL A   1      45.472  24.447  33.456  1.00  0.00     0.064 A 
ATOM     84  C   UNL A   1      46.765  24.377  34.001  1.00  0.00     0.173 A 
ATOM     85  C   UNL A   1      44.651  23.319  33.712  1.00  0.00     0.173 A 
ATOM     86  F   UNL A   1      47.610  25.414  33.939  1.00  0.00    -0.203 F 
ATOM     87  C   UNL A   1      47.218  23.250  34.697  1.00  0.00     0.198 A 
ATOM     88  C   UNL A   1      45.085  22.223  34.459  1.00  0.00     0.198 A 
ATOM     89  F   UNL A   1      43.385  23.255  33.274  1.00  0.00    -0.203 F 
ATOM     90  F   UNL A   1      48.474  23.222  35.164  1.00  0.00    -0.200 F 
ATOM     91  C   UNL A   1      46.375  22.182  34.939  1.00  0.00     0.200 A 
ATOM     92  F   UNL A   1      44.235  21.223  34.731  1.00  0.00    -0.200 F 
ATOM     93  F   UNL A   1      46.798  21.129  35.652  1.00  0.00    -0.200 F 
ENDBRANCH  60  83
ENDBRANCH  34  35
ENDBRANCH  26  29
ENDBRANCH  24  25
ENDBRANCH  23  24
ENDBRANCH   1  23
TORSDOF 14
ENDMDL
