MODEL 1
REMARK VINA RESULT:     -12.1      0.000      0.000
REMARK SMILES C/C(C(=O)NCCCNC(=O)c1ccc(-c2c3nc(c(-c4c(F)c(F)c(F)c(F)c4F)c4ccc([nH]4)c(-c4c(F)c(F)c(F)c(F)c4F)c4nc(c(-c5c(F)c(F)c(F)c(F)c5F)c5ccc2[nH]5)C=C4)C=C3)cc1)=C(\C)C(=O)N[C@H]1CCCC1(C)C
REMARK SMILES IDX 7 1 6 2 5 3 3 4 4 5 2 7 1 8 75 9 76 10 77 11 78 12 79 13
REMARK SMILES IDX 80 15 81 16 84 17 82 18 83 19 85 20 86 21 8 22 9 23 10 24
REMARK SMILES IDX 11 26 12 27 13 28 74 29 14 30 73 31 15 32 16 33 17 34 67 35
REMARK SMILES IDX 18 36 72 37 66 38 68 39 19 40 71 41 65 42 64 43 20 45 52 46
REMARK SMILES IDX 32 47 51 48 33 49 36 50 50 51 69 52 34 53 35 54 49 56 70 57
REMARK SMILES IDX 37 58 21 59 22 60 30 61 23 62 24 63 28 64 31 65 25 66 26 67
REMARK SMILES IDX 29 68 27 69 53 70 54 71 62 72 55 73 56 74 60 75 63 76 57 77
REMARK SMILES IDX 58 78 61 79 59 80 38 81 39 82 47 83 40 84 41 85 45 86 48 87
REMARK SMILES IDX 42 88 43 89 46 90 44 91
REMARK H PARENT 5 6 79 14 9 25 68 44 36 55
REMARK Flexibility Score: inf
ROOT
ATOM      1  C   UNL A   1      38.017  19.739  24.656  1.00  0.00     0.042 C 
ENDROOT
BRANCH   1   2
ATOM      2  C   UNL A   1      36.528  19.673  25.001  1.00  0.00     0.118 C 
BRANCH   2   3
ATOM      3  N   UNL A   1      36.016  20.833  25.717  1.00  0.00    -0.352 N 
ATOM      4  C   UNL A   1      34.800  21.447  25.827  1.00  0.00     0.247 C 
ATOM      5  O   UNL A   1      34.649  22.086  26.870  1.00  0.00    -0.270 OA
ATOM      6  H   UNL A   1      36.713  21.283  26.247  1.00  0.00     0.163 HD
BRANCH   4   7
ATOM      7  C   UNL A   1      33.687  21.335  24.805  1.00  0.00     0.022 C 
ATOM      8  C   UNL A   1      32.672  20.241  24.983  1.00  0.00     0.051 C 
ATOM      9  C   UNL A   1      33.575  22.219  23.768  1.00  0.00     0.022 C 
ATOM     10  C   UNL A   1      32.524  22.091  22.699  1.00  0.00     0.051 C 
BRANCH   9  11
ATOM     11  C   UNL A   1      34.585  23.298  23.499  1.00  0.00     0.247 C 
ATOM     12  O   UNL A   1      35.538  23.081  22.750  1.00  0.00    -0.270 OA
ATOM     13  N   UNL A   1      34.412  24.567  23.988  1.00  0.00    -0.349 N 
ATOM     14  H   UNL A   1      35.234  25.111  23.997  1.00  0.00     0.164 HD
BRANCH  13  15
ATOM     15  C   UNL A   1      33.228  25.264  24.501  1.00  0.00     0.088 C 
ATOM     16  C   UNL A   1      33.337  25.604  25.995  1.00  0.00     0.025 C 
ATOM     17  C   UNL A   1      32.902  26.627  23.812  1.00  0.00    -0.015 C 
ATOM     18  C   UNL A   1      33.515  27.117  26.106  1.00  0.00     0.003 C 
ATOM     19  C   UNL A   1      33.657  27.638  24.683  1.00  0.00     0.008 C 
ATOM     20  C   UNL A   1      33.323  26.749  22.343  1.00  0.00     0.013 C 
ATOM     21  C   UNL A   1      31.378  26.884  23.879  1.00  0.00     0.013 C 
ENDBRANCH  13  15
ENDBRANCH   9  11
ENDBRANCH   4   7
ENDBRANCH   2   3
ENDBRANCH   1   2
BRANCH   1  22
ATOM     22  C   UNL A   1      38.929  20.100  25.827  1.00  0.00     0.118 C 
BRANCH  22  23
ATOM     23  N   UNL A   1      40.045  19.173  25.976  1.00  0.00    -0.352 N 
ATOM     24  C   UNL A   1      41.389  19.400  26.123  1.00  0.00     0.251 C 
ATOM     25  H   UNL A   1      39.789  18.221  25.970  1.00  0.00     0.163 HD
ATOM     26  O   UNL A   1      42.175  18.457  25.996  1.00  0.00    -0.269 OA
BRANCH  24  27
ATOM     27  C   UNL A   1      41.920  20.744  26.430  1.00  0.00     0.039 A 
ATOM     28  C   UNL A   1      42.152  21.637  25.377  1.00  0.00     0.014 A 
ATOM     29  C   UNL A   1      42.265  21.109  27.734  1.00  0.00     0.014 A 
ATOM     30  C   UNL A   1      42.670  22.909  25.637  1.00  0.00     0.010 A 
ATOM     31  C   UNL A   1      42.718  22.400  28.001  1.00  0.00     0.010 A 
ATOM     32  C   UNL A   1      42.930  23.312  26.956  1.00  0.00    -0.014 A 
BRANCH  32  33
ATOM     33  C   UNL A   1      43.415  24.681  27.265  1.00  0.00     0.031 A 
ATOM     34  C   UNL A   1      42.473  25.715  27.817  1.00  0.00     0.074 A 
ATOM     35  C   UNL A   1      44.689  25.014  26.977  1.00  0.00     0.049 A 
ATOM     36  N   UNL A   1      42.685  26.984  28.062  1.00  0.00    -0.248 NA
ATOM     37  C   UNL A   1      41.103  25.269  28.108  1.00  0.00     0.031 C 
ATOM     38  C   UNL A   1      45.686  24.111  26.399  1.00  0.00     0.029 A 
ATOM     39  N   UNL A   1      45.359  26.203  27.114  1.00  0.00    -0.354 N 
ATOM     40  C   UNL A   1      41.474  27.489  28.515  1.00  0.00     0.074 A 
ATOM     41  C   UNL A   1      40.519  26.403  28.469  1.00  0.00     0.031 C 
ATOM     42  C   UNL A   1      46.843  24.774  26.245  1.00  0.00     0.029 A 
ATOM     43  C   UNL A   1      46.659  26.156  26.674  1.00  0.00     0.049 A 
ATOM     44  H   UNL A   1      44.946  27.015  27.491  1.00  0.00     0.167 HD
ATOM     45  C   UNL A   1      41.191  28.742  28.950  1.00  0.00     0.037 A 
ATOM     46  C   UNL A   1      47.594  27.123  26.612  1.00  0.00     0.037 A 
ATOM     47  C   UNL A   1      42.151  29.811  29.018  1.00  0.00     0.049 A 
ATOM     48  C   UNL A   1      47.252  28.506  27.095  1.00  0.00     0.074 A 
ATOM     49  C   UNL A   1      41.981  31.096  29.501  1.00  0.00     0.029 A 
ATOM     50  N   UNL A   1      43.465  29.720  28.581  1.00  0.00    -0.354 N 
ATOM     51  N   UNL A   1      46.123  28.955  27.585  1.00  0.00    -0.248 NA
ATOM     52  C   UNL A   1      48.316  29.516  27.020  1.00  0.00     0.031 C 
ATOM     53  C   UNL A   1      43.177  31.797  29.317  1.00  0.00     0.029 A 
ATOM     54  C   UNL A   1      44.110  30.934  28.764  1.00  0.00     0.049 A 
ATOM     55  H   UNL A   1      43.879  28.913  28.198  1.00  0.00     0.167 HD
ATOM     56  C   UNL A   1      46.346  30.288  27.901  1.00  0.00     0.074 A 
ATOM     57  C   UNL A   1      47.724  30.572  27.561  1.00  0.00     0.031 C 
ATOM     58  C   UNL A   1      45.486  31.196  28.424  1.00  0.00     0.037 A 
BRANCH  45  59
ATOM     59  C   UNL A   1      39.782  29.023  29.389  1.00  0.00     0.064 A 
ATOM     60  C   UNL A   1      38.804  29.468  28.486  1.00  0.00     0.173 A 
ATOM     61  C   UNL A   1      39.393  28.809  30.720  1.00  0.00     0.173 A 
ATOM     62  F   UNL A   1      39.123  29.698  27.203  1.00  0.00    -0.203 F 
ATOM     63  C   UNL A   1      37.500  29.718  28.906  1.00  0.00     0.198 A 
ATOM     64  C   UNL A   1      38.080  29.030  31.130  1.00  0.00     0.198 A 
ATOM     65  F   UNL A   1      40.285  28.376  31.625  1.00  0.00    -0.203 F 
ATOM     66  F   UNL A   1      36.596  30.190  28.036  1.00  0.00    -0.200 F 
ATOM     67  C   UNL A   1      37.137  29.493  30.225  1.00  0.00     0.200 A 
ATOM     68  F   UNL A   1      37.729  28.798  32.403  1.00  0.00    -0.200 F 
ATOM     69  F   UNL A   1      35.880  29.727  30.625  1.00  0.00    -0.200 F 
ENDBRANCH  45  59
BRANCH  46  70
ATOM     70  C   UNL A   1      48.951  26.810  26.091  1.00  0.00     0.064 A 
ATOM     71  C   UNL A   1      49.265  27.012  24.739  1.00  0.00     0.173 A 
ATOM     72  C   UNL A   1      49.958  26.308  26.927  1.00  0.00     0.173 A 
ATOM     73  F   UNL A   1      48.328  27.471  23.896  1.00  0.00    -0.203 F 
ATOM     74  C   UNL A   1      50.530  26.707  24.241  1.00  0.00     0.198 A 
ATOM     75  C   UNL A   1      51.231  26.031  26.434  1.00  0.00     0.198 A 
ATOM     76  F   UNL A   1      49.710  26.104  28.229  1.00  0.00    -0.203 F 
ATOM     77  F   UNL A   1      50.791  26.869  22.937  1.00  0.00    -0.200 F 
ATOM     78  C   UNL A   1      51.514  26.223  25.089  1.00  0.00     0.200 A 
ATOM     79  F   UNL A   1      52.184  25.578  27.261  1.00  0.00    -0.200 F 
ATOM     80  F   UNL A   1      52.732  25.936  24.611  1.00  0.00    -0.200 F 
ENDBRANCH  46  70
BRANCH  58  81
ATOM     81  C   UNL A   1      46.019  32.573  28.691  1.00  0.00     0.064 A 
ATOM     82  C   UNL A   1      46.646  32.897  29.904  1.00  0.00     0.173 A 
ATOM     83  C   UNL A   1      45.938  33.570  27.706  1.00  0.00     0.173 A 
ATOM     84  F   UNL A   1      46.734  31.984  30.883  1.00  0.00    -0.203 F 
ATOM     85  C   UNL A   1      47.151  34.174  30.129  1.00  0.00     0.198 A 
ATOM     86  C   UNL A   1      46.471  34.836  27.923  1.00  0.00     0.198 A 
ATOM     87  F   UNL A   1      45.353  33.309  26.527  1.00  0.00    -0.203 F 
ATOM     88  F   UNL A   1      47.705  34.475  31.311  1.00  0.00    -0.200 F 
ATOM     89  C   UNL A   1      47.071  35.140  29.136  1.00  0.00     0.200 A 
ATOM     90  F   UNL A   1      46.405  35.764  26.958  1.00  0.00    -0.200 F 
ATOM     91  F   UNL A   1      47.566  36.367  29.352  1.00  0.00    -0.200 F 
ENDBRANCH  58  81
ENDBRANCH  32  33
ENDBRANCH  24  27
ENDBRANCH  22  23
ENDBRANCH   1  22
TORSDOF 12
ENDMDL
MODEL 2
REMARK VINA RESULT:     -12.1      0.296      1.646
REMARK SMILES C/C(C(=O)NCCCNC(=O)c1ccc(-c2c3nc(c(-c4c(F)c(F)c(F)c(F)c4F)c4ccc([nH]4)c(-c4c(F)c(F)c(F)c(F)c4F)c4nc(c(-c5c(F)c(F)c(F)c(F)c5F)c5ccc2[nH]5)C=C4)C=C3)cc1)=C(\C)C(=O)N[C@H]1CCCC1(C)C
REMARK SMILES IDX 7 1 6 2 5 3 3 4 4 5 2 7 1 8 75 9 76 10 77 11 78 12 79 13
REMARK SMILES IDX 80 15 81 16 84 17 82 18 83 19 85 20 86 21 8 22 9 23 10 24
REMARK SMILES IDX 11 26 12 27 13 28 74 29 14 30 73 31 15 32 16 33 17 34 67 35
REMARK SMILES IDX 18 36 72 37 66 38 68 39 19 40 71 41 65 42 64 43 20 45 52 46
REMARK SMILES IDX 32 47 51 48 33 49 36 50 50 51 69 52 34 53 35 54 49 56 70 57
REMARK SMILES IDX 37 58 21 59 22 60 30 61 23 62 24 63 28 64 31 65 25 66 26 67
REMARK SMILES IDX 29 68 27 69 53 70 54 71 62 72 55 73 56 74 60 75 63 76 57 77
REMARK SMILES IDX 58 78 61 79 59 80 38 81 39 82 47 83 40 84 41 85 45 86 48 87
REMARK SMILES IDX 42 88 43 89 46 90 44 91
REMARK H PARENT 5 6 79 14 9 25 68 44 36 55
REMARK Flexibility Score: inf
ROOT
ATOM      1  C   UNL A   1      37.979  19.713  24.595  1.00  0.00     0.042 C 
ENDROOT
BRANCH   1   2
ATOM      2  C   UNL A   1      36.491  19.668  24.945  1.00  0.00     0.118 C 
BRANCH   2   3
ATOM      3  N   UNL A   1      36.000  20.831  25.673  1.00  0.00    -0.352 N 
ATOM      4  C   UNL A   1      34.806  21.490  25.757  1.00  0.00     0.247 C 
ATOM      5  O   UNL A   1      34.644  22.109  26.810  1.00  0.00    -0.270 OA
ATOM      6  H   UNL A   1      36.695  21.239  26.238  1.00  0.00     0.163 HD
BRANCH   4   7
ATOM      7  C   UNL A   1      33.726  21.448  24.695  1.00  0.00     0.022 C 
ATOM      8  C   UNL A   1      32.661  20.393  24.811  1.00  0.00     0.051 C 
ATOM      9  C   UNL A   1      33.687  22.358  23.676  1.00  0.00     0.022 C 
ATOM     10  C   UNL A   1      32.671  22.298  22.568  1.00  0.00     0.051 C 
BRANCH   9  11
ATOM     11  C   UNL A   1      34.750  23.400  23.467  1.00  0.00     0.247 C 
ATOM     12  O   UNL A   1      35.726  23.156  22.758  1.00  0.00    -0.270 OA
ATOM     13  N   UNL A   1      34.604  24.669  23.968  1.00  0.00    -0.349 N 
ATOM     14  H   UNL A   1      35.446  25.179  24.021  1.00  0.00     0.164 HD
BRANCH  13  15
ATOM     15  C   UNL A   1      33.427  25.405  24.438  1.00  0.00     0.088 C 
ATOM     16  C   UNL A   1      33.628  26.023  25.830  1.00  0.00     0.025 C 
ATOM     17  C   UNL A   1      32.982  26.601  23.539  1.00  0.00    -0.015 C 
ATOM     18  C   UNL A   1      33.735  27.536  25.646  1.00  0.00     0.003 C 
ATOM     19  C   UNL A   1      33.746  27.785  24.145  1.00  0.00     0.008 C 
ATOM     20  C   UNL A   1      33.287  26.461  22.043  1.00  0.00     0.013 C 
ATOM     21  C   UNL A   1      31.455  26.810  23.682  1.00  0.00     0.013 C 
ENDBRANCH  13  15
ENDBRANCH   9  11
ENDBRANCH   4   7
ENDBRANCH   2   3
ENDBRANCH   1   2
BRANCH   1  22
ATOM     22  C   UNL A   1      38.898  20.086  25.758  1.00  0.00     0.118 C 
BRANCH  22  23
ATOM     23  N   UNL A   1      40.006  19.152  25.919  1.00  0.00    -0.352 N 
ATOM     24  C   UNL A   1      41.347  19.371  26.103  1.00  0.00     0.251 C 
ATOM     25  H   UNL A   1      39.748  18.201  25.889  1.00  0.00     0.163 HD
ATOM     26  O   UNL A   1      42.133  18.427  25.979  1.00  0.00    -0.269 OA
BRANCH  24  27
ATOM     27  C   UNL A   1      41.875  20.707  26.448  1.00  0.00     0.039 A 
ATOM     28  C   UNL A   1      42.106  21.629  25.420  1.00  0.00     0.014 A 
ATOM     29  C   UNL A   1      42.218  21.037  27.762  1.00  0.00     0.014 A 
ATOM     30  C   UNL A   1      42.621  22.895  25.716  1.00  0.00     0.010 A 
ATOM     31  C   UNL A   1      42.668  22.321  28.065  1.00  0.00     0.010 A 
ATOM     32  C   UNL A   1      42.879  23.262  27.045  1.00  0.00    -0.014 A 
BRANCH  32  33
ATOM     33  C   UNL A   1      43.361  24.623  27.393  1.00  0.00     0.031 A 
ATOM     34  C   UNL A   1      42.411  25.646  27.954  1.00  0.00     0.074 A 
ATOM     35  C   UNL A   1      44.639  24.960  27.131  1.00  0.00     0.049 A 
ATOM     36  N   UNL A   1      42.620  26.909  28.231  1.00  0.00    -0.248 NA
ATOM     37  C   UNL A   1      41.036  25.195  28.214  1.00  0.00     0.031 C 
ATOM     38  C   UNL A   1      45.644  24.070  26.549  1.00  0.00     0.029 A 
ATOM     39  N   UNL A   1      45.307  26.146  27.306  1.00  0.00    -0.354 N 
ATOM     40  C   UNL A   1      41.403  27.405  28.677  1.00  0.00     0.074 A 
ATOM     41  C   UNL A   1      40.448  26.321  28.592  1.00  0.00     0.031 C 
ATOM     42  C   UNL A   1      46.803  24.735  26.427  1.00  0.00     0.029 A 
ATOM     43  C   UNL A   1      46.614  26.107  26.884  1.00  0.00     0.049 A 
ATOM     44  H   UNL A   1      44.890  26.949  27.695  1.00  0.00     0.167 HD
ATOM     45  C   UNL A   1      41.114  28.647  29.136  1.00  0.00     0.037 A 
ATOM     46  C   UNL A   1      47.551  27.074  26.858  1.00  0.00     0.037 A 
ATOM     47  C   UNL A   1      42.075  29.714  29.242  1.00  0.00     0.049 A 
ATOM     48  C   UNL A   1      47.202  28.446  27.367  1.00  0.00     0.074 A 
ATOM     49  C   UNL A   1      41.899  30.988  29.752  1.00  0.00     0.029 A 
ATOM     50  N   UNL A   1      43.395  29.631  28.823  1.00  0.00    -0.354 N 
ATOM     51  N   UNL A   1      46.066  28.885  27.851  1.00  0.00    -0.248 NA
ATOM     52  C   UNL A   1      48.269  29.456  27.331  1.00  0.00     0.031 C 
ATOM     53  C   UNL A   1      43.098  31.691  29.601  1.00  0.00     0.029 A 
ATOM     54  C   UNL A   1      44.038  30.839  29.043  1.00  0.00     0.049 A 
ATOM     55  H   UNL A   1      43.814  28.832  28.429  1.00  0.00     0.167 HD
ATOM     56  C   UNL A   1      46.286  30.211  28.199  1.00  0.00     0.074 A 
ATOM     57  C   UNL A   1      47.670  30.500  27.887  1.00  0.00     0.031 C 
ATOM     58  C   UNL A   1      45.419  31.108  28.730  1.00  0.00     0.037 A 
BRANCH  45  59
ATOM     59  C   UNL A   1      39.699  28.921  29.560  1.00  0.00     0.064 A 
ATOM     60  C   UNL A   1      38.740  29.404  28.657  1.00  0.00     0.173 A 
ATOM     61  C   UNL A   1      39.285  28.660  30.875  1.00  0.00     0.173 A 
ATOM     62  F   UNL A   1      39.084  29.679  27.389  1.00  0.00    -0.203 F 
ATOM     63  C   UNL A   1      37.430  29.646  29.063  1.00  0.00     0.198 A 
ATOM     64  C   UNL A   1      37.967  28.873  31.269  1.00  0.00     0.198 A 
ATOM     65  F   UNL A   1      40.159  28.188  31.779  1.00  0.00    -0.203 F 
ATOM     66  F   UNL A   1      36.544  30.155  28.194  1.00  0.00    -0.200 F 
ATOM     67  C   UNL A   1      37.042  29.374  30.366  1.00  0.00     0.200 A 
ATOM     68  F   UNL A   1      37.591  28.596  32.526  1.00  0.00    -0.200 F 
ATOM     69  F   UNL A   1      35.779  29.601  30.752  1.00  0.00    -0.200 F 
ENDBRANCH  45  59
BRANCH  46  70
ATOM     70  C   UNL A   1      48.915  26.771  26.351  1.00  0.00     0.064 A 
ATOM     71  C   UNL A   1      49.899  26.250  27.203  1.00  0.00     0.173 A 
ATOM     72  C   UNL A   1      49.263  26.991  25.011  1.00  0.00     0.173 A 
ATOM     73  F   UNL A   1      49.619  26.042  28.498  1.00  0.00    -0.203 F 
ATOM     74  C   UNL A   1      51.183  25.977  26.738  1.00  0.00     0.198 A 
ATOM     75  C   UNL A   1      50.539  26.691  24.540  1.00  0.00     0.198 A 
ATOM     76  F   UNL A   1      48.356  27.483  24.153  1.00  0.00    -0.203 F 
ATOM     77  F   UNL A   1      52.116  25.520  27.583  1.00  0.00    -0.200 F 
ATOM     78  C   UNL A   1      51.501  26.192  25.405  1.00  0.00     0.200 A 
ATOM     79  F   UNL A   1      50.837  26.885  23.247  1.00  0.00    -0.200 F 
ATOM     80  F   UNL A   1      52.735  25.923  24.956  1.00  0.00    -0.200 F 
ENDBRANCH  46  70
BRANCH  58  81
ATOM     81  C   UNL A   1      45.950  32.478  29.036  1.00  0.00     0.064 A 
ATOM     82  C   UNL A   1      45.857  33.527  28.109  1.00  0.00     0.173 A 
ATOM     83  C   UNL A   1      46.522  32.754  30.287  1.00  0.00     0.173 A 
ATOM     84  F   UNL A   1      45.333  33.309  26.893  1.00  0.00    -0.203 F 
ATOM     85  C   UNL A   1      46.338  34.796  28.416  1.00  0.00     0.198 A 
ATOM     86  C   UNL A   1      46.974  34.032  30.601  1.00  0.00     0.198 A 
ATOM     87  F   UNL A   1      46.630  31.787  31.210  1.00  0.00    -0.203 F 
ATOM     88  F   UNL A   1      46.280  35.772  27.499  1.00  0.00    -0.200 F 
ATOM     89  C   UNL A   1      46.889  35.051  29.663  1.00  0.00     0.200 A 
ATOM     90  F   UNL A   1      47.494  34.279  31.811  1.00  0.00    -0.200 F 
ATOM     91  F   UNL A   1      47.344  36.276  29.959  1.00  0.00    -0.200 F 
ENDBRANCH  58  81
ENDBRANCH  32  33
ENDBRANCH  24  27
ENDBRANCH  22  23
ENDBRANCH   1  22
TORSDOF 12
ENDMDL
MODEL 3
REMARK VINA RESULT:     -12.1      5.821     11.297
REMARK SMILES C/C(C(=O)NCCCNC(=O)c1ccc(-c2c3nc(c(-c4c(F)c(F)c(F)c(F)c4F)c4ccc([nH]4)c(-c4c(F)c(F)c(F)c(F)c4F)c4nc(c(-c5c(F)c(F)c(F)c(F)c5F)c5ccc2[nH]5)C=C4)C=C3)cc1)=C(\C)C(=O)N[C@H]1CCCC1(C)C
REMARK SMILES IDX 7 1 6 2 5 3 3 4 4 5 2 7 1 8 75 9 76 10 77 11 78 12 79 13
REMARK SMILES IDX 80 15 81 16 84 17 82 18 83 19 85 20 86 21 8 22 9 23 10 24
REMARK SMILES IDX 11 26 12 27 13 28 74 29 14 30 73 31 15 32 16 33 17 34 67 35
REMARK SMILES IDX 18 36 72 37 66 38 68 39 19 40 71 41 65 42 64 43 20 45 52 46
REMARK SMILES IDX 32 47 51 48 33 49 36 50 50 51 69 52 34 53 35 54 49 56 70 57
REMARK SMILES IDX 37 58 21 59 22 60 30 61 23 62 24 63 28 64 31 65 25 66 26 67
REMARK SMILES IDX 29 68 27 69 53 70 54 71 62 72 55 73 56 74 60 75 63 76 57 77
REMARK SMILES IDX 58 78 61 79 59 80 38 81 39 82 47 83 40 84 41 85 45 86 48 87
REMARK SMILES IDX 42 88 43 89 46 90 44 91
REMARK H PARENT 5 6 79 14 9 25 68 44 36 55
REMARK Flexibility Score: inf
ROOT
ATOM      1  C   UNL A   1      31.330  32.334  26.420  1.00  0.00     0.042 C 
ENDROOT
BRANCH   1   2
ATOM      2  C   UNL A   1      31.202  30.813  26.327  1.00  0.00     0.118 C 
BRANCH   2   3
ATOM      3  N   UNL A   1      32.231  30.162  25.528  1.00  0.00    -0.352 N 
ATOM      4  C   UNL A   1      32.237  29.262  24.500  1.00  0.00     0.247 C 
ATOM      5  O   UNL A   1      33.238  29.319  23.784  1.00  0.00    -0.270 OA
ATOM      6  H   UNL A   1      33.139  30.436  25.792  1.00  0.00     0.163 HD
BRANCH   4   7
ATOM      7  C   UNL A   1      31.109  28.295  24.201  1.00  0.00     0.022 C 
ATOM      8  C   UNL A   1      30.276  28.539  22.974  1.00  0.00     0.051 C 
ATOM      9  C   UNL A   1      30.868  27.207  24.993  1.00  0.00     0.022 C 
ATOM     10  C   UNL A   1      29.713  26.271  24.762  1.00  0.00     0.051 C 
BRANCH   9  11
ATOM     11  C   UNL A   1      31.624  26.935  26.263  1.00  0.00     0.247 C 
ATOM     12  O   UNL A   1      31.247  27.430  27.325  1.00  0.00    -0.270 OA
ATOM     13  N   UNL A   1      32.673  26.052  26.287  1.00  0.00    -0.349 N 
ATOM     14  H   UNL A   1      33.262  26.149  27.071  1.00  0.00     0.164 HD
BRANCH  13  15
ATOM     15  C   UNL A   1      33.078  24.991  25.360  1.00  0.00     0.088 C 
ATOM     16  C   UNL A   1      34.505  25.184  24.822  1.00  0.00     0.025 C 
ATOM     17  C   UNL A   1      33.076  23.547  25.952  1.00  0.00    -0.015 C 
ATOM     18  C   UNL A   1      35.383  24.110  25.463  1.00  0.00     0.003 C 
ATOM     19  C   UNL A   1      34.507  23.391  26.480  1.00  0.00     0.008 C 
ATOM     20  C   UNL A   1      32.052  23.284  27.063  1.00  0.00     0.013 C 
ATOM     21  C   UNL A   1      32.800  22.529  24.820  1.00  0.00     0.013 C 
ENDBRANCH  13  15
ENDBRANCH   9  11
ENDBRANCH   4   7
ENDBRANCH   2   3
ENDBRANCH   1   2
BRANCH   1  22
ATOM     22  C   UNL A   1      32.578  32.828  27.148  1.00  0.00     0.118 C 
BRANCH  22  23
ATOM     23  N   UNL A   1      32.451  34.205  27.612  1.00  0.00    -0.352 N 
ATOM     24  C   UNL A   1      33.060  34.865  28.647  1.00  0.00     0.251 C 
ATOM     25  H   UNL A   1      31.819  34.754  27.092  1.00  0.00     0.163 HD
ATOM     26  O   UNL A   1      32.623  35.965  29.000  1.00  0.00    -0.269 OA
BRANCH  24  27
ATOM     27  C   UNL A   1      34.227  34.295  29.352  1.00  0.00     0.039 A 
ATOM     28  C   UNL A   1      34.014  33.537  30.510  1.00  0.00     0.014 A 
ATOM     29  C   UNL A   1      35.532  34.561  28.931  1.00  0.00     0.014 A 
ATOM     30  C   UNL A   1      35.101  33.000  31.206  1.00  0.00     0.010 A 
ATOM     31  C   UNL A   1      36.612  33.971  29.586  1.00  0.00     0.010 A 
ATOM     32  C   UNL A   1      36.408  33.188  30.733  1.00  0.00    -0.014 A 
BRANCH  32  33
ATOM     33  C   UNL A   1      37.575  32.570  31.415  1.00  0.00     0.031 A 
ATOM     34  C   UNL A   1      38.303  31.417  30.781  1.00  0.00     0.074 A 
ATOM     35  C   UNL A   1      37.930  33.002  32.641  1.00  0.00     0.049 A 
ATOM     36  N   UNL A   1      39.279  30.688  31.261  1.00  0.00    -0.248 NA
ATOM     37  C   UNL A   1      37.854  31.011  29.441  1.00  0.00     0.031 C 
ATOM     38  C   UNL A   1      37.275  34.085  33.376  1.00  0.00     0.029 A 
ATOM     39  N   UNL A   1      38.918  32.574  33.491  1.00  0.00    -0.354 N 
ATOM     40  C   UNL A   1      39.548  29.730  30.293  1.00  0.00     0.074 A 
ATOM     41  C   UNL A   1      38.602  29.940  29.218  1.00  0.00     0.031 C 
ATOM     42  C   UNL A   1      37.887  34.245  34.560  1.00  0.00     0.029 A 
ATOM     43  C   UNL A   1      38.949  33.252  34.684  1.00  0.00     0.049 A 
ATOM     44  H   UNL A   1      39.545  31.847  33.268  1.00  0.00     0.167 HD
ATOM     45  C   UNL A   1      40.510  28.776  30.293  1.00  0.00     0.037 A 
ATOM     46  C   UNL A   1      39.738  33.085  35.763  1.00  0.00     0.037 A 
ATOM     47  C   UNL A   1      41.464  28.588  31.354  1.00  0.00     0.049 A 
ATOM     48  C   UNL A   1      40.794  32.014  35.739  1.00  0.00     0.074 A 
ATOM     49  C   UNL A   1      42.517  27.693  31.422  1.00  0.00     0.029 A 
ATOM     50  N   UNL A   1      41.477  29.309  32.540  1.00  0.00    -0.354 N 
ATOM     51  N   UNL A   1      41.083  31.158  34.790  1.00  0.00    -0.248 NA
ATOM     52  C   UNL A   1      41.636  31.889  36.937  1.00  0.00     0.031 C 
ATOM     53  C   UNL A   1      43.139  27.840  32.666  1.00  0.00     0.029 A 
ATOM     54  C   UNL A   1      42.505  28.863  33.355  1.00  0.00     0.049 A 
ATOM     55  H   UNL A   1      40.848  30.031  32.769  1.00  0.00     0.167 HD
ATOM     56  C   UNL A   1      42.154  30.412  35.262  1.00  0.00     0.074 A 
ATOM     57  C   UNL A   1      42.475  30.926  36.576  1.00  0.00     0.031 C 
ATOM     58  C   UNL A   1      42.812  29.391  34.660  1.00  0.00     0.037 A 
BRANCH  45  59
ATOM     59  C   UNL A   1      40.580  27.859  29.105  1.00  0.00     0.064 A 
ATOM     60  C   UNL A   1      41.470  28.094  28.045  1.00  0.00     0.173 A 
ATOM     61  C   UNL A   1      39.777  26.710  29.041  1.00  0.00     0.173 A 
ATOM     62  F   UNL A   1      42.255  29.182  28.050  1.00  0.00    -0.203 F 
ATOM     63  C   UNL A   1      41.529  27.230  26.953  1.00  0.00     0.198 A 
ATOM     64  C   UNL A   1      39.861  25.833  27.963  1.00  0.00     0.198 A 
ATOM     65  F   UNL A   1      38.914  26.432  30.031  1.00  0.00    -0.203 F 
ATOM     66  F   UNL A   1      42.352  27.502  25.930  1.00  0.00    -0.200 F 
ATOM     67  C   UNL A   1      40.731  26.098  26.916  1.00  0.00     0.200 A 
ATOM     68  F   UNL A   1      39.098  24.731  27.936  1.00  0.00    -0.200 F 
ATOM     69  F   UNL A   1      40.795  25.265  25.868  1.00  0.00    -0.200 F 
ENDBRANCH  45  59
BRANCH  46  70
ATOM     70  C   UNL A   1      39.572  33.968  36.947  1.00  0.00     0.064 A 
ATOM     71  C   UNL A   1      38.792  33.564  38.040  1.00  0.00     0.173 A 
ATOM     72  C   UNL A   1      40.186  35.226  37.014  1.00  0.00     0.173 A 
ATOM     73  F   UNL A   1      38.168  32.377  38.014  1.00  0.00    -0.203 F 
ATOM     74  C   UNL A   1      38.621  34.392  39.148  1.00  0.00     0.198 A 
ATOM     75  C   UNL A   1      40.037  36.042  38.134  1.00  0.00     0.198 A 
ATOM     76  F   UNL A   1      40.947  35.657  35.997  1.00  0.00    -0.203 F 
ATOM     77  F   UNL A   1      37.836  33.999  40.160  1.00  0.00    -0.200 F 
ATOM     78  C   UNL A   1      39.248  35.628  39.196  1.00  0.00     0.200 A 
ATOM     79  F   UNL A   1      40.658  37.229  38.183  1.00  0.00    -0.200 F 
ATOM     80  F   UNL A   1      39.087  36.422  40.264  1.00  0.00    -0.200 F 
ENDBRANCH  46  70
BRANCH  58  81
ATOM     81  C   UNL A   1      43.965  28.783  35.404  1.00  0.00     0.064 A 
ATOM     82  C   UNL A   1      45.277  29.256  35.242  1.00  0.00     0.173 A 
ATOM     83  C   UNL A   1      43.750  27.743  36.321  1.00  0.00     0.173 A 
ATOM     84  F   UNL A   1      45.537  30.237  34.365  1.00  0.00    -0.203 F 
ATOM     85  C   UNL A   1      46.332  28.693  35.953  1.00  0.00     0.198 A 
ATOM     86  C   UNL A   1      44.803  27.204  37.052  1.00  0.00     0.198 A 
ATOM     87  F   UNL A   1      42.514  27.259  36.516  1.00  0.00    -0.203 F 
ATOM     88  F   UNL A   1      47.583  29.129  35.748  1.00  0.00    -0.200 F 
ATOM     89  C   UNL A   1      46.095  27.673  36.863  1.00  0.00     0.200 A 
ATOM     90  F   UNL A   1      44.570  26.228  37.941  1.00  0.00    -0.200 F 
ATOM     91  F   UNL A   1      47.111  27.139  37.553  1.00  0.00    -0.200 F 
ENDBRANCH  58  81
ENDBRANCH  32  33
ENDBRANCH  24  27
ENDBRANCH  22  23
ENDBRANCH   1  22
TORSDOF 12
ENDMDL
