MODEL 1
REMARK VINA RESULT:     -13.2      0.000      0.000
REMARK SMILES N#Cc1ccc(C(=O)NCCCNC(=O)c2ccc(-c3c4nc(c(-c5c(F)c(F)c(F)c(F)c5F)c5ccc([nH]5)c(-c5c(F)c(F)c(F)c(F)c5F)c5nc(c(-c6c(F)c(F)c(F)c(F)c6F)c6ccc3[nH]6)C=C5)C=C4)cc2)nc1/C=C/c1ccc(O)c(Cl)c1
REMARK SMILES IDX 10 1 9 2 7 3 8 4 6 6 3 7 4 8 80 9 5 10 79 11 2 12 1 13 81 14
REMARK SMILES IDX 82 15 83 16 84 17 90 18 85 19 88 20 86 21 89 22 87 23 11 25
REMARK SMILES IDX 12 26 13 27 14 28 15 30 16 31 17 32 78 33 18 34 77 35 19 36
REMARK SMILES IDX 20 37 21 38 71 39 22 40 76 41 70 42 72 43 23 44 75 45 69 46
REMARK SMILES IDX 68 47 24 49 56 50 36 51 55 52 37 53 40 54 54 55 73 56 38 57
REMARK SMILES IDX 39 58 53 60 74 61 41 62 25 63 26 64 34 65 27 66 28 67 32 68
REMARK SMILES IDX 35 69 29 70 30 71 33 72 31 73 57 74 58 75 66 76 59 77 60 78
REMARK SMILES IDX 64 79 67 80 61 81 62 82 65 83 63 84 42 85 43 86 51 87 44 88
REMARK SMILES IDX 45 89 49 90 52 91 46 92 47 93 50 94 48 95
REMARK H PARENT 9 5 87 24 13 29 72 48 40 59
REMARK Flexibility Score: inf
ROOT
ATOM      1  C   UNL A   1      31.584  30.847  26.152  1.00  0.00     0.118 C 
ENDROOT
BRANCH   1   2
ATOM      2  N   UNL A   1      32.813  30.239  26.622  1.00  0.00    -0.351 N 
ATOM      3  C   UNL A   1      33.687  29.287  26.154  1.00  0.00     0.269 C 
ATOM      4  O   UNL A   1      34.659  29.078  26.886  1.00  0.00    -0.268 OA
ATOM      5  H   UNL A   1      33.093  30.599  27.494  1.00  0.00     0.163 HD
BRANCH   3   6
ATOM      6  C   UNL A   1      33.549  28.504  24.868  1.00  0.00     0.128 A 
ATOM      7  C   UNL A   1      33.329  26.813  22.680  1.00  0.00     0.078 A 
ATOM      8  C   UNL A   1      33.078  28.173  22.537  1.00  0.00     0.024 A 
ATOM      9  C   UNL A   1      33.720  26.347  23.934  1.00  0.00     0.082 A 
ATOM     10  C   UNL A   1      33.185  29.022  23.638  1.00  0.00     0.035 A 
ATOM     11  N   UNL A   1      33.821  27.173  25.007  1.00  0.00    -0.242 NA
BRANCH   7  12
ATOM     12  C   UNL A   1      33.188  25.966  21.539  1.00  0.00     0.101 C 
ATOM     13  N   UNL A   1      33.062  25.290  20.602  1.00  0.00    -0.192 NA
ENDBRANCH   7  12
BRANCH   9  14
ATOM     14  C   UNL A   1      34.124  24.946  24.146  1.00  0.00     0.030 C 
ATOM     15  C   UNL A   1      35.125  24.529  24.939  1.00  0.00     0.010 C 
BRANCH  15  16
ATOM     16  C   UNL A   1      35.528  23.117  24.946  1.00  0.00    -0.024 A 
ATOM     17  C   UNL A   1      36.884  22.767  24.971  1.00  0.00     0.012 A 
ATOM     18  C   UNL A   1      34.559  22.101  24.901  1.00  0.00     0.032 A 
ATOM     19  C   UNL A   1      37.265  21.420  24.993  1.00  0.00     0.048 A 
ATOM     20  C   UNL A   1      34.941  20.761  24.926  1.00  0.00     0.083 A 
ATOM     21  C   UNL A   1      36.292  20.425  24.979  1.00  0.00     0.134 A 
ATOM     22  Cl  UNL A   1      33.729  19.534  24.900  1.00  0.00    -0.080 Cl
BRANCH  21  23
ATOM     23  O   UNL A   1      36.713  19.125  25.018  1.00  0.00    -0.506 OA
ATOM     24  H   UNL A   1      37.425  18.846  24.477  1.00  0.00     0.293 HD
ENDBRANCH  21  23
ENDBRANCH  15  16
ENDBRANCH   9  14
ENDBRANCH   3   6
ENDBRANCH   1   2
BRANCH   1  25
ATOM     25  C   UNL A   1      31.369  32.227  26.760  1.00  0.00     0.042 C 
BRANCH  25  26
ATOM     26  C   UNL A   1      32.672  32.839  27.273  1.00  0.00     0.118 C 
BRANCH  26  27
ATOM     27  N   UNL A   1      32.510  34.251  27.617  1.00  0.00    -0.352 N 
ATOM     28  C   UNL A   1      33.044  34.992  28.639  1.00  0.00     0.251 C 
ATOM     29  H   UNL A   1      31.920  34.755  27.011  1.00  0.00     0.163 HD
ATOM     30  O   UNL A   1      32.550  36.075  28.931  1.00  0.00    -0.269 OA
BRANCH  28  31
ATOM     31  C   UNL A   1      34.206  34.484  29.390  1.00  0.00     0.039 A 
ATOM     32  C   UNL A   1      34.007  33.883  30.636  1.00  0.00     0.014 A 
ATOM     33  C   UNL A   1      35.495  34.619  28.871  1.00  0.00     0.014 A 
ATOM     34  C   UNL A   1      35.098  33.345  31.320  1.00  0.00     0.010 A 
ATOM     35  C   UNL A   1      36.560  33.990  29.499  1.00  0.00     0.010 A 
ATOM     36  C   UNL A   1      36.373  33.350  30.731  1.00  0.00    -0.014 A 
BRANCH  36  37
ATOM     37  C   UNL A   1      37.525  32.682  31.383  1.00  0.00     0.031 A 
ATOM     38  C   UNL A   1      38.195  31.512  30.719  1.00  0.00     0.074 A 
ATOM     39  C   UNL A   1      37.918  33.087  32.606  1.00  0.00     0.049 A 
ATOM     40  N   UNL A   1      39.164  30.752  31.165  1.00  0.00    -0.248 NA
ATOM     41  C   UNL A   1      37.691  31.125  29.392  1.00  0.00     0.031 C 
ATOM     42  C   UNL A   1      37.312  34.181  33.369  1.00  0.00     0.029 A 
ATOM     43  N   UNL A   1      38.912  32.621  33.429  1.00  0.00    -0.354 N 
ATOM     44  C   UNL A   1      39.376  29.798  30.179  1.00  0.00     0.074 A 
ATOM     45  C   UNL A   1      38.394  30.030  29.144  1.00  0.00     0.031 C 
ATOM     46  C   UNL A   1      37.967  34.324  34.531  1.00  0.00     0.029 A 
ATOM     47  C   UNL A   1      38.999  33.297  34.623  1.00  0.00     0.049 A 
ATOM     48  H   UNL A   1      39.505  31.874  33.188  1.00  0.00     0.167 HD
ATOM     49  C   UNL A   1      40.324  28.832  30.132  1.00  0.00     0.037 A 
ATOM     50  C   UNL A   1      39.810  33.097  35.678  1.00  0.00     0.037 A 
ATOM     51  C   UNL A   1      41.302  28.613  31.165  1.00  0.00     0.049 A 
ATOM     52  C   UNL A   1      40.825  31.987  35.617  1.00  0.00     0.074 A 
ATOM     53  C   UNL A   1      42.336  27.694  31.192  1.00  0.00     0.029 A 
ATOM     54  N   UNL A   1      41.357  29.313  32.362  1.00  0.00    -0.354 N 
ATOM     55  N   UNL A   1      41.068  31.139  34.648  1.00  0.00    -0.248 NA
ATOM     56  C   UNL A   1      41.682  31.811  36.797  1.00  0.00     0.031 C 
ATOM     57  C   UNL A   1      42.969  27.787  32.435  1.00  0.00     0.029 A 
ATOM     58  C   UNL A   1      42.383  28.818  33.152  1.00  0.00     0.049 A 
ATOM     59  H   UNL A   1      40.755  30.051  32.614  1.00  0.00     0.167 HD
ATOM     60  C   UNL A   1      42.124  30.350  35.086  1.00  0.00     0.074 A 
ATOM     61  C   UNL A   1      42.487  30.836  36.400  1.00  0.00     0.031 C 
ATOM     62  C   UNL A   1      42.736  29.316  34.458  1.00  0.00     0.037 A 
BRANCH  49  63
ATOM     63  C   UNL A   1      40.342  27.931  28.928  1.00  0.00     0.064 A 
ATOM     64  C   UNL A   1      41.099  28.237  27.785  1.00  0.00     0.173 A 
ATOM     65  C   UNL A   1      39.621  26.727  28.930  1.00  0.00     0.173 A 
ATOM     66  F   UNL A   1      41.799  29.380  27.725  1.00  0.00    -0.203 F 
ATOM     67  C   UNL A   1      41.104  27.391  26.680  1.00  0.00     0.198 A 
ATOM     68  C   UNL A   1      39.661  25.865  27.839  1.00  0.00     0.198 A 
ATOM     69  F   UNL A   1      38.885  26.381  29.996  1.00  0.00    -0.203 F 
ATOM     70  F   UNL A   1      41.786  27.735  25.578  1.00  0.00    -0.200 F 
ATOM     71  C   UNL A   1      40.392  26.201  26.710  1.00  0.00     0.200 A 
ATOM     72  F   UNL A   1      38.986  24.707  27.877  1.00  0.00    -0.200 F 
ATOM     73  F   UNL A   1      40.407  25.383  25.650  1.00  0.00    -0.200 F 
ENDBRANCH  49  63
BRANCH  50  74
ATOM     74  C   UNL A   1      39.700  33.968  36.879  1.00  0.00     0.064 A 
ATOM     75  C   UNL A   1      38.910  33.593  37.975  1.00  0.00     0.173 A 
ATOM     76  C   UNL A   1      40.368  35.201  36.952  1.00  0.00     0.173 A 
ATOM     77  F   UNL A   1      38.239  32.431  37.949  1.00  0.00    -0.203 F 
ATOM     78  C   UNL A   1      38.765  34.428  39.080  1.00  0.00     0.198 A 
ATOM     79  C   UNL A   1      40.253  36.018  38.074  1.00  0.00     0.198 A 
ATOM     80  F   UNL A   1      41.144  35.606  35.936  1.00  0.00    -0.203 F 
ATOM     81  F   UNL A   1      37.956  34.069  40.086  1.00  0.00    -0.200 F 
ATOM     82  C   UNL A   1      39.442  35.637  39.131  1.00  0.00     0.200 A 
ATOM     83  F   UNL A   1      40.926  37.175  38.129  1.00  0.00    -0.200 F 
ATOM     84  F   UNL A   1      39.306  36.439  40.197  1.00  0.00    -0.200 F 
ENDBRANCH  50  74
BRANCH  62  85
ATOM     85  C   UNL A   1      43.891  28.664  35.166  1.00  0.00     0.064 A 
ATOM     86  C   UNL A   1      43.711  27.579  36.037  1.00  0.00     0.173 A 
ATOM     87  C   UNL A   1      45.203  29.108  34.936  1.00  0.00     0.173 A 
ATOM     88  F   UNL A   1      42.478  27.123  36.302  1.00  0.00    -0.203 F 
ATOM     89  C   UNL A   1      44.797  26.987  36.677  1.00  0.00     0.198 A 
ATOM     90  C   UNL A   1      46.289  28.485  35.546  1.00  0.00     0.198 A 
ATOM     91  F   UNL A   1      45.435  30.135  34.105  1.00  0.00    -0.203 F 
ATOM     92  F   UNL A   1      44.593  25.992  37.553  1.00  0.00    -0.200 F 
ATOM     93  C   UNL A   1      46.084  27.434  36.424  1.00  0.00     0.200 A 
ATOM     94  F   UNL A   1      47.534  28.906  35.281  1.00  0.00    -0.200 F 
ATOM     95  F   UNL A   1      47.128  26.854  37.032  1.00  0.00    -0.200 F 
ENDBRANCH  62  85
ENDBRANCH  36  37
ENDBRANCH  28  31
ENDBRANCH  26  27
ENDBRANCH  25  26
ENDBRANCH   1  25
TORSDOF 14
ENDMDL
MODEL 2
REMARK VINA RESULT:     -13.2      0.113      1.588
REMARK SMILES N#Cc1ccc(C(=O)NCCCNC(=O)c2ccc(-c3c4nc(c(-c5c(F)c(F)c(F)c(F)c5F)c5ccc([nH]5)c(-c5c(F)c(F)c(F)c(F)c5F)c5nc(c(-c6c(F)c(F)c(F)c(F)c6F)c6ccc3[nH]6)C=C5)C=C4)cc2)nc1/C=C/c1ccc(O)c(Cl)c1
REMARK SMILES IDX 10 1 9 2 7 3 8 4 6 6 3 7 4 8 80 9 5 10 79 11 2 12 1 13 81 14
REMARK SMILES IDX 82 15 83 16 84 17 90 18 85 19 88 20 86 21 89 22 87 23 11 25
REMARK SMILES IDX 12 26 13 27 14 28 15 30 16 31 17 32 78 33 18 34 77 35 19 36
REMARK SMILES IDX 20 37 21 38 71 39 22 40 76 41 70 42 72 43 23 44 75 45 69 46
REMARK SMILES IDX 68 47 24 49 56 50 36 51 55 52 37 53 40 54 54 55 73 56 38 57
REMARK SMILES IDX 39 58 53 60 74 61 41 62 25 63 26 64 34 65 27 66 28 67 32 68
REMARK SMILES IDX 35 69 29 70 30 71 33 72 31 73 57 74 58 75 66 76 59 77 60 78
REMARK SMILES IDX 64 79 67 80 61 81 62 82 65 83 63 84 42 85 43 86 51 87 44 88
REMARK SMILES IDX 45 89 49 90 52 91 46 92 47 93 50 94 48 95
REMARK H PARENT 9 5 87 24 13 29 72 48 40 59
REMARK Flexibility Score: inf
ROOT
ATOM      1  C   UNL A   1      31.483  30.739  26.378  1.00  0.00     0.118 C 
ENDROOT
BRANCH   1   2
ATOM      2  N   UNL A   1      32.761  30.204  26.803  1.00  0.00    -0.351 N 
ATOM      3  C   UNL A   1      33.679  29.317  26.293  1.00  0.00     0.269 C 
ATOM      4  O   UNL A   1      34.683  29.159  26.994  1.00  0.00    -0.268 OA
ATOM      5  H   UNL A   1      33.043  30.567  27.673  1.00  0.00     0.163 HD
BRANCH   3   6
ATOM      6  C   UNL A   1      33.554  28.547  24.999  1.00  0.00     0.128 A 
ATOM      7  C   UNL A   1      33.356  26.879  22.791  1.00  0.00     0.078 A 
ATOM      8  C   UNL A   1      33.106  28.241  22.659  1.00  0.00     0.024 A 
ATOM      9  C   UNL A   1      33.735  26.401  24.044  1.00  0.00     0.082 A 
ATOM     10  C   UNL A   1      33.202  29.078  23.770  1.00  0.00     0.035 A 
ATOM     11  N   UNL A   1      33.825  27.215  25.126  1.00  0.00    -0.242 NA
BRANCH   7  12
ATOM     12  C   UNL A   1      33.226  26.044  21.640  1.00  0.00     0.101 C 
ATOM     13  N   UNL A   1      33.102  25.358  20.710  1.00  0.00    -0.192 NA
ENDBRANCH   7  12
BRANCH   9  14
ATOM     14  C   UNL A   1      34.137  24.998  24.245  1.00  0.00     0.030 C 
ATOM     15  C   UNL A   1      35.146  24.574  25.025  1.00  0.00     0.010 C 
BRANCH  15  16
ATOM     16  C   UNL A   1      35.545  23.160  25.021  1.00  0.00    -0.024 A 
ATOM     17  C   UNL A   1      36.891  22.804  25.168  1.00  0.00     0.012 A 
ATOM     18  C   UNL A   1      34.584  22.151  24.844  1.00  0.00     0.032 A 
ATOM     19  C   UNL A   1      37.266  21.456  25.179  1.00  0.00     0.048 A 
ATOM     20  C   UNL A   1      34.960  20.810  24.859  1.00  0.00     0.083 A 
ATOM     21  C   UNL A   1      36.299  20.466  25.033  1.00  0.00     0.134 A 
ATOM     22  Cl  UNL A   1      33.756  19.590  24.668  1.00  0.00    -0.080 Cl
BRANCH  21  23
ATOM     23  O   UNL A   1      36.713  19.164  25.067  1.00  0.00    -0.506 OA
ATOM     24  H   UNL A   1      37.612  18.953  24.910  1.00  0.00     0.293 HD
ENDBRANCH  21  23
ENDBRANCH  15  16
ENDBRANCH   9  14
ENDBRANCH   3   6
ENDBRANCH   1   2
BRANCH   1  25
ATOM     25  C   UNL A   1      31.416  32.251  26.560  1.00  0.00     0.042 C 
BRANCH  25  26
ATOM     26  C   UNL A   1      32.628  32.793  27.316  1.00  0.00     0.118 C 
BRANCH  26  27
ATOM     27  N   UNL A   1      32.483  34.215  27.627  1.00  0.00    -0.352 N 
ATOM     28  C   UNL A   1      33.028  34.973  28.630  1.00  0.00     0.251 C 
ATOM     29  H   UNL A   1      31.895  34.710  27.011  1.00  0.00     0.163 HD
ATOM     30  O   UNL A   1      32.546  36.069  28.897  1.00  0.00    -0.269 OA
BRANCH  28  31
ATOM     31  C   UNL A   1      34.188  34.471  29.387  1.00  0.00     0.039 A 
ATOM     32  C   UNL A   1      33.983  33.858  30.627  1.00  0.00     0.014 A 
ATOM     33  C   UNL A   1      35.481  34.622  28.882  1.00  0.00     0.014 A 
ATOM     34  C   UNL A   1      35.072  33.326  31.317  1.00  0.00     0.010 A 
ATOM     35  C   UNL A   1      36.545  33.999  29.516  1.00  0.00     0.010 A 
ATOM     36  C   UNL A   1      36.353  33.347  30.741  1.00  0.00    -0.014 A 
BRANCH  36  37
ATOM     37  C   UNL A   1      37.505  32.686  31.399  1.00  0.00     0.031 A 
ATOM     38  C   UNL A   1      38.186  31.521  30.738  1.00  0.00     0.074 A 
ATOM     39  C   UNL A   1      37.888  33.092  32.625  1.00  0.00     0.049 A 
ATOM     40  N   UNL A   1      39.157  30.767  31.189  1.00  0.00    -0.248 NA
ATOM     41  C   UNL A   1      37.693  31.133  29.407  1.00  0.00     0.031 C 
ATOM     42  C   UNL A   1      37.271  34.181  33.385  1.00  0.00     0.029 A 
ATOM     43  N   UNL A   1      38.880  32.631  33.454  1.00  0.00    -0.354 N 
ATOM     44  C   UNL A   1      39.381  29.815  30.202  1.00  0.00     0.074 A 
ATOM     45  C   UNL A   1      38.403  30.042  29.162  1.00  0.00     0.031 C 
ATOM     46  C   UNL A   1      37.918  34.326  34.552  1.00  0.00     0.029 A 
ATOM     47  C   UNL A   1      38.956  33.305  34.648  1.00  0.00     0.049 A 
ATOM     48  H   UNL A   1      39.479  31.888  33.214  1.00  0.00     0.167 HD
ATOM     49  C   UNL A   1      40.335  28.855  30.160  1.00  0.00     0.037 A 
ATOM     50  C   UNL A   1      39.762  33.110  35.708  1.00  0.00     0.037 A 
ATOM     51  C   UNL A   1      41.308  28.641  31.199  1.00  0.00     0.049 A 
ATOM     52  C   UNL A   1      40.783  32.006  35.652  1.00  0.00     0.074 A 
ATOM     53  C   UNL A   1      42.347  27.728  31.231  1.00  0.00     0.029 A 
ATOM     54  N   UNL A   1      41.352  29.339  32.397  1.00  0.00    -0.354 N 
ATOM     55  N   UNL A   1      41.038  31.160  34.684  1.00  0.00    -0.248 NA
ATOM     56  C   UNL A   1      41.634  31.833  36.837  1.00  0.00     0.031 C 
ATOM     57  C   UNL A   1      42.972  27.823  32.477  1.00  0.00     0.029 A 
ATOM     58  C   UNL A   1      42.376  28.850  33.192  1.00  0.00     0.049 A 
ATOM     59  H   UNL A   1      40.744  30.073  32.646  1.00  0.00     0.167 HD
ATOM     60  C   UNL A   1      42.096  30.377  35.127  1.00  0.00     0.074 A 
ATOM     61  C   UNL A   1      42.448  30.864  36.444  1.00  0.00     0.031 C 
ATOM     62  C   UNL A   1      42.718  29.348  34.501  1.00  0.00     0.037 A 
BRANCH  49  63
ATOM     63  C   UNL A   1      40.366  27.956  28.955  1.00  0.00     0.064 A 
ATOM     64  C   UNL A   1      39.639  26.755  28.908  1.00  0.00     0.173 A 
ATOM     65  C   UNL A   1      41.104  28.316  27.818  1.00  0.00     0.173 A 
ATOM     66  F   UNL A   1      38.924  26.356  29.971  1.00  0.00    -0.203 F 
ATOM     67  C   UNL A   1      39.680  25.935  27.784  1.00  0.00     0.198 A 
ATOM     68  C   UNL A   1      41.111  27.514  26.681  1.00  0.00     0.198 A 
ATOM     69  F   UNL A   1      41.814  29.454  27.804  1.00  0.00    -0.203 F 
ATOM     70  F   UNL A   1      39.026  24.765  27.787  1.00  0.00    -0.200 F 
ATOM     71  C   UNL A   1      40.408  26.318  26.668  1.00  0.00     0.200 A 
ATOM     72  F   UNL A   1      41.801  27.895  25.597  1.00  0.00    -0.200 F 
ATOM     73  F   UNL A   1      40.437  25.534  25.583  1.00  0.00    -0.200 F 
ENDBRANCH  49  63
BRANCH  50  74
ATOM     74  C   UNL A   1      39.639  33.979  36.910  1.00  0.00     0.064 A 
ATOM     75  C   UNL A   1      38.856  33.590  38.006  1.00  0.00     0.173 A 
ATOM     76  C   UNL A   1      40.287  35.222  36.982  1.00  0.00     0.173 A 
ATOM     77  F   UNL A   1      38.204  32.418  37.981  1.00  0.00    -0.203 F 
ATOM     78  C   UNL A   1      38.699  34.423  39.112  1.00  0.00     0.198 A 
ATOM     79  C   UNL A   1      40.161  36.037  38.105  1.00  0.00     0.198 A 
ATOM     80  F   UNL A   1      41.056  35.640  35.966  1.00  0.00    -0.203 F 
ATOM     81  F   UNL A   1      37.897  34.051  40.118  1.00  0.00    -0.200 F 
ATOM     82  C   UNL A   1      39.357  35.643  39.163  1.00  0.00     0.200 A 
ATOM     83  F   UNL A   1      40.816  37.204  38.159  1.00  0.00    -0.200 F 
ATOM     84  F   UNL A   1      39.209  36.442  40.229  1.00  0.00    -0.200 F 
ENDBRANCH  50  74
BRANCH  62  85
ATOM     85  C   UNL A   1      43.873  28.702  35.215  1.00  0.00     0.064 A 
ATOM     86  C   UNL A   1      45.190  29.163  35.064  1.00  0.00     0.173 A 
ATOM     87  C   UNL A   1      43.651  27.631  36.094  1.00  0.00     0.173 A 
ATOM     88  F   UNL A   1      45.460  30.175  34.227  1.00  0.00    -0.203 F 
ATOM     89  C   UNL A   1      46.243  28.552  35.741  1.00  0.00     0.198 A 
ATOM     90  C   UNL A   1      44.702  27.051  36.800  1.00  0.00     0.198 A 
ATOM     91  F   UNL A   1      42.411  27.156  36.284  1.00  0.00    -0.203 F 
ATOM     92  F   UNL A   1      47.500  28.970  35.533  1.00  0.00    -0.200 F 
ATOM     93  C   UNL A   1      45.997  27.505  36.614  1.00  0.00     0.200 A 
ATOM     94  F   UNL A   1      44.457  26.052  37.660  1.00  0.00    -0.200 F 
ATOM     95  F   UNL A   1      47.012  26.927  37.273  1.00  0.00    -0.200 F 
ENDBRANCH  62  85
ENDBRANCH  36  37
ENDBRANCH  28  31
ENDBRANCH  26  27
ENDBRANCH  25  26
ENDBRANCH   1  25
TORSDOF 14
ENDMDL
MODEL 3
REMARK VINA RESULT:     -13.1      5.690     11.398
REMARK SMILES N#Cc1ccc(C(=O)NCCCNC(=O)c2ccc(-c3c4nc(c(-c5c(F)c(F)c(F)c(F)c5F)c5ccc([nH]5)c(-c5c(F)c(F)c(F)c(F)c5F)c5nc(c(-c6c(F)c(F)c(F)c(F)c6F)c6ccc3[nH]6)C=C5)C=C4)cc2)nc1/C=C/c1ccc(O)c(Cl)c1
REMARK SMILES IDX 10 1 9 2 7 3 8 4 6 6 3 7 4 8 80 9 5 10 79 11 2 12 1 13 81 14
REMARK SMILES IDX 82 15 83 16 84 17 90 18 85 19 88 20 86 21 89 22 87 23 11 25
REMARK SMILES IDX 12 26 13 27 14 28 15 30 16 31 17 32 78 33 18 34 77 35 19 36
REMARK SMILES IDX 20 37 21 38 71 39 22 40 76 41 70 42 72 43 23 44 75 45 69 46
REMARK SMILES IDX 68 47 24 49 56 50 36 51 55 52 37 53 40 54 54 55 73 56 38 57
REMARK SMILES IDX 39 58 53 60 74 61 41 62 25 63 26 64 34 65 27 66 28 67 32 68
REMARK SMILES IDX 35 69 29 70 30 71 33 72 31 73 57 74 58 75 66 76 59 77 60 78
REMARK SMILES IDX 64 79 67 80 61 81 62 82 65 83 63 84 42 85 43 86 51 87 44 88
REMARK SMILES IDX 45 89 49 90 52 91 46 92 47 93 50 94 48 95
REMARK H PARENT 9 5 87 24 13 29 72 48 40 59
REMARK Flexibility Score: inf
ROOT
ATOM      1  C   UNL A   1      37.159  20.517  24.611  1.00  0.00     0.118 C 
ENDROOT
BRANCH   1   2
ATOM      2  N   UNL A   1      37.533  21.806  25.158  1.00  0.00    -0.351 N 
ATOM      3  C   UNL A   1      36.890  22.819  25.829  1.00  0.00     0.269 C 
ATOM      4  O   UNL A   1      37.616  23.766  26.145  1.00  0.00    -0.268 OA
ATOM      5  H   UNL A   1      38.486  22.006  25.014  1.00  0.00     0.163 HD
BRANCH   3   6
ATOM      6  C   UNL A   1      35.422  22.863  26.186  1.00  0.00     0.128 A 
ATOM      7  C   UNL A   1      32.719  23.214  26.698  1.00  0.00     0.078 A 
ATOM      8  C   UNL A   1      33.330  21.999  26.989  1.00  0.00     0.024 A 
ATOM      9  C   UNL A   1      33.509  24.238  26.179  1.00  0.00     0.082 A 
ATOM     10  C   UNL A   1      34.688  21.822  26.728  1.00  0.00     0.035 A 
ATOM     11  N   UNL A   1      34.831  24.065  25.922  1.00  0.00    -0.242 NA
BRANCH   7  12
ATOM     12  C   UNL A   1      31.321  23.357  26.954  1.00  0.00     0.101 C 
ATOM     13  N   UNL A   1      30.187  23.470  27.181  1.00  0.00    -0.192 NA
ENDBRANCH   7  12
BRANCH   9  14
ATOM     14  C   UNL A   1      32.971  25.592  25.957  1.00  0.00     0.030 C 
ATOM     15  C   UNL A   1      33.646  26.741  26.123  1.00  0.00     0.010 C 
BRANCH  15  16
ATOM     16  C   UNL A   1      32.952  28.032  26.019  1.00  0.00    -0.024 A 
ATOM     17  C   UNL A   1      33.240  29.066  26.917  1.00  0.00     0.012 A 
ATOM     18  C   UNL A   1      31.972  28.234  25.033  1.00  0.00     0.032 A 
ATOM     19  C   UNL A   1      32.589  30.300  26.806  1.00  0.00     0.048 A 
ATOM     20  C   UNL A   1      31.328  29.464  24.922  1.00  0.00     0.083 A 
ATOM     21  C   UNL A   1      31.643  30.495  25.805  1.00  0.00     0.134 A 
ATOM     22  Cl  UNL A   1      30.149  29.695  23.684  1.00  0.00    -0.080 Cl
BRANCH  21  23
ATOM     23  O   UNL A   1      31.045  31.722  25.726  1.00  0.00    -0.506 OA
ATOM     24  H   UNL A   1      31.019  32.180  24.909  1.00  0.00     0.293 HD
ENDBRANCH  21  23
ENDBRANCH  15  16
ENDBRANCH   9  14
ENDBRANCH   3   6
ENDBRANCH   1   2
BRANCH   1  25
ATOM     25  C   UNL A   1      38.170  19.435  24.976  1.00  0.00     0.042 C 
BRANCH  25  26
ATOM     26  C   UNL A   1      39.366  20.000  25.739  1.00  0.00     0.118 C 
BRANCH  26  27
ATOM     27  N   UNL A   1      40.396  18.986  25.962  1.00  0.00    -0.352 N 
ATOM     28  C   UNL A   1      41.754  19.104  26.103  1.00  0.00     0.251 C 
ATOM     29  H   UNL A   1      40.056  18.064  26.020  1.00  0.00     0.163 HD
ATOM     30  O   UNL A   1      42.469  18.116  25.977  1.00  0.00    -0.269 OA
BRANCH  28  31
ATOM     31  C   UNL A   1      42.354  20.417  26.402  1.00  0.00     0.039 A 
ATOM     32  C   UNL A   1      42.911  21.167  25.364  1.00  0.00     0.014 A 
ATOM     33  C   UNL A   1      42.383  20.898  27.713  1.00  0.00     0.014 A 
ATOM     34  C   UNL A   1      43.423  22.437  25.633  1.00  0.00     0.010 A 
ATOM     35  C   UNL A   1      42.792  22.200  27.960  1.00  0.00     0.010 A 
ATOM     36  C   UNL A   1      43.319  22.982  26.923  1.00  0.00    -0.014 A 
BRANCH  36  37
ATOM     37  C   UNL A   1      43.748  24.372  27.210  1.00  0.00     0.031 A 
ATOM     38  C   UNL A   1      42.746  25.391  27.675  1.00  0.00     0.074 A 
ATOM     39  C   UNL A   1      45.026  24.729  26.981  1.00  0.00     0.049 A 
ATOM     40  N   UNL A   1      42.912  26.669  27.903  1.00  0.00    -0.248 NA
ATOM     41  C   UNL A   1      41.368  24.918  27.884  1.00  0.00     0.031 C 
ATOM     42  C   UNL A   1      46.076  23.838  26.484  1.00  0.00     0.029 A 
ATOM     43  N   UNL A   1      45.659  25.938  27.124  1.00  0.00    -0.354 N 
ATOM     44  C   UNL A   1      41.663  27.150  28.272  1.00  0.00     0.074 A 
ATOM     45  C   UNL A   1      40.735  26.046  28.172  1.00  0.00     0.031 C 
ATOM     46  C   UNL A   1      47.228  24.521  26.396  1.00  0.00     0.029 A 
ATOM     47  C   UNL A   1      46.986  25.909  26.773  1.00  0.00     0.049 A 
ATOM     48  H   UNL A   1      45.204  26.749  27.448  1.00  0.00     0.167 HD
ATOM     49  C   UNL A   1      41.327  28.396  28.682  1.00  0.00     0.037 A 
ATOM     50  C   UNL A   1      47.901  26.896  26.743  1.00  0.00     0.037 A 
ATOM     51  C   UNL A   1      42.260  29.488  28.784  1.00  0.00     0.049 A 
ATOM     52  C   UNL A   1      47.489  28.282  27.161  1.00  0.00     0.074 A 
ATOM     53  C   UNL A   1      42.033  30.776  29.235  1.00  0.00     0.029 A 
ATOM     54  N   UNL A   1      43.596  29.423  28.415  1.00  0.00    -0.354 N 
ATOM     55  N   UNL A   1      46.324  28.710  27.580  1.00  0.00    -0.248 NA
ATOM     56  C   UNL A   1      48.525  29.323  27.105  1.00  0.00     0.031 C 
ATOM     57  C   UNL A   1      43.210  31.510  29.069  1.00  0.00     0.029 A 
ATOM     58  C   UNL A   1      44.196  30.661  28.591  1.00  0.00     0.049 A 
ATOM     59  H   UNL A   1      44.051  28.618  28.076  1.00  0.00     0.167 HD
ATOM     60  C   UNL A   1      46.492  30.058  27.869  1.00  0.00     0.074 A 
ATOM     61  C   UNL A   1      47.878  30.371  27.595  1.00  0.00     0.031 C 
ATOM     62  C   UNL A   1      45.580  30.956  28.318  1.00  0.00     0.037 A 
BRANCH  49  63
ATOM     63  C   UNL A   1      39.890  28.649  29.041  1.00  0.00     0.064 A 
ATOM     64  C   UNL A   1      39.404  28.445  30.342  1.00  0.00     0.173 A 
ATOM     65  C   UNL A   1      38.992  29.136  28.078  1.00  0.00     0.173 A 
ATOM     66  F   UNL A   1      40.215  27.971  31.300  1.00  0.00    -0.203 F 
ATOM     67  C   UNL A   1      38.069  28.684  30.656  1.00  0.00     0.198 A 
ATOM     68  C   UNL A   1      37.668  29.413  28.406  1.00  0.00     0.198 A 
ATOM     69  F   UNL A   1      39.401  29.354  26.820  1.00  0.00    -0.203 F 
ATOM     70  F   UNL A   1      37.616  28.424  31.891  1.00  0.00    -0.200 F 
ATOM     71  C   UNL A   1      37.203  29.176  29.691  1.00  0.00     0.200 A 
ATOM     72  F   UNL A   1      36.838  29.905  27.475  1.00  0.00    -0.200 F 
ATOM     73  F   UNL A   1      35.922  29.417  29.997  1.00  0.00    -0.200 F 
ENDBRANCH  49  63
BRANCH  50  74
ATOM     74  C   UNL A   1      49.294  26.611  26.306  1.00  0.00     0.064 A 
ATOM     75  C   UNL A   1      50.253  26.137  27.212  1.00  0.00     0.173 A 
ATOM     76  C   UNL A   1      49.702  26.821  24.979  1.00  0.00     0.173 A 
ATOM     77  F   UNL A   1      49.918  25.934  28.496  1.00  0.00    -0.203 F 
ATOM     78  C   UNL A   1      51.570  25.915  26.818  1.00  0.00     0.198 A 
ATOM     79  C   UNL A   1      51.010  26.562  24.578  1.00  0.00     0.198 A 
ATOM     80  F   UNL A   1      48.824  27.265  24.068  1.00  0.00    -0.203 F 
ATOM     81  F   UNL A   1      52.479  25.519  27.720  1.00  0.00    -0.200 F 
ATOM     82  C   UNL A   1      51.947  26.122  25.500  1.00  0.00     0.200 A 
ATOM     83  F   UNL A   1      51.363  26.742  23.298  1.00  0.00    -0.200 F 
ATOM     84  F   UNL A   1      53.214  25.905  25.120  1.00  0.00    -0.200 F 
ENDBRANCH  50  74
BRANCH  62  85
ATOM     85  C   UNL A   1      46.061  32.356  28.582  1.00  0.00     0.064 A 
ATOM     86  C   UNL A   1      46.604  32.733  29.820  1.00  0.00     0.173 A 
ATOM     87  C   UNL A   1      46.014  33.323  27.566  1.00  0.00     0.173 A 
ATOM     88  F   UNL A   1      46.661  31.851  30.829  1.00  0.00    -0.203 F 
ATOM     89  C   UNL A   1      47.049  34.034  30.040  1.00  0.00     0.198 A 
ATOM     90  C   UNL A   1      46.499  34.611  27.777  1.00  0.00     0.198 A 
ATOM     91  F   UNL A   1      45.514  33.015  26.360  1.00  0.00    -0.203 F 
ATOM     92  F   UNL A   1      47.506  34.387  31.249  1.00  0.00    -0.200 F 
ATOM     93  C   UNL A   1      47.005  34.968  29.016  1.00  0.00     0.200 A 
ATOM     94  F   UNL A   1      46.474  35.505  26.779  1.00  0.00    -0.200 F 
ATOM     95  F   UNL A   1      47.445  36.217  29.227  1.00  0.00    -0.200 F 
ENDBRANCH  62  85
ENDBRANCH  36  37
ENDBRANCH  28  31
ENDBRANCH  26  27
ENDBRANCH  25  26
ENDBRANCH   1  25
TORSDOF 14
ENDMDL
