MODEL 1
REMARK VINA RESULT:     -11.8      0.000      0.000
REMARK SMILES O=C(Cc1ccn(-c2ccccc2F)c1)NCCCNC(=O)c1ccc(-c2c3nc(c(-c4c(F)c(F)c(F)c(F)c4F)c4ccc([nH]4)c(-c4c(F)c(F)c(F)c(F)c4F)c4nc(c(-c5c(F)c(F)c(F)c(F)c5F)c5ccc2[nH]5)C=C4)C=C3)cc1
REMARK SMILES IDX 18 1 17 2 16 3 1 4 2 5 3 7 4 8 5 9 15 10 6 11 7 12 8 13 9 14
REMARK SMILES IDX 13 15 10 16 12 17 14 18 11 19 19 20 20 21 21 22 22 24 23 25
REMARK SMILES IDX 24 26 85 27 25 28 84 29 26 30 27 31 28 32 78 33 29 34 83 35
REMARK SMILES IDX 77 36 79 37 30 38 82 39 76 40 75 41 31 43 63 44 43 45 62 46
REMARK SMILES IDX 44 47 47 48 61 49 80 50 45 51 46 52 60 54 81 55 48 56 32 57
REMARK SMILES IDX 33 58 41 59 34 60 35 61 39 62 42 63 36 64 37 65 40 66 38 67
REMARK SMILES IDX 64 68 65 69 73 70 66 71 67 72 71 73 74 74 68 75 69 76 72 77
REMARK SMILES IDX 70 78 49 79 50 80 58 81 51 82 52 83 56 84 59 85 53 86 54 87
REMARK SMILES IDX 57 88 55 89
REMARK H PARENT 16 6 20 23 79 42 47 53
REMARK Flexibility Score: inf
ROOT
ATOM      1  C   UNL A   1      34.359  34.067  28.126  1.00  0.00     0.042 C 
ENDROOT
BRANCH   1   2
ATOM      2  C   UNL A   1      33.217  34.887  28.728  1.00  0.00     0.117 C 
BRANCH   2   3
ATOM      3  N   UNL A   1      33.163  34.820  30.179  1.00  0.00    -0.356 N 
ATOM      4  O   UNL A   1      32.778  37.056  30.507  1.00  0.00    -0.275 OA
ATOM      5  C   UNL A   1      32.888  35.922  30.966  1.00  0.00     0.224 C 
ATOM      6  H   UNL A   1      33.329  33.955  30.618  1.00  0.00     0.163 HD
BRANCH   5   7
ATOM      7  C   UNL A   1      32.807  35.647  32.466  1.00  0.00     0.137 C 
BRANCH   7   8
ATOM      8  C   UNL A   1      33.974  34.862  32.981  1.00  0.00    -0.021 A 
ATOM      9  C   UNL A   1      33.990  33.478  33.301  1.00  0.00     0.024 A 
ATOM     10  C   UNL A   1      35.248  35.335  33.247  1.00  0.00     0.095 A 
ATOM     11  C   UNL A   1      35.283  33.142  33.637  1.00  0.00     0.091 A 
ATOM     12  N   UNL A   1      36.063  34.279  33.605  1.00  0.00    -0.321 N 
BRANCH  12  13
ATOM     13  C   UNL A   1      37.459  34.335  33.828  1.00  0.00     0.081 A 
ATOM     14  C   UNL A   1      37.959  34.190  35.130  1.00  0.00     0.030 A 
ATOM     15  C   UNL A   1      38.346  34.501  32.764  1.00  0.00     0.147 A 
ATOM     16  C   UNL A   1      39.338  34.188  35.348  1.00  0.00     0.002 A 
ATOM     17  C   UNL A   1      39.720  34.542  32.989  1.00  0.00     0.041 A 
ATOM     18  F   UNL A   1      37.906  34.696  31.512  1.00  0.00    -0.205 F 
ATOM     19  C   UNL A   1      40.219  34.373  34.281  1.00  0.00     0.003 A 
ENDBRANCH  12  13
ENDBRANCH   7   8
ENDBRANCH   5   7
ENDBRANCH   2   3
ENDBRANCH   1   2
BRANCH   1  20
ATOM     20  C   UNL A   1      34.704  32.827  28.941  1.00  0.00     0.118 C 
BRANCH  20  21
ATOM     21  N   UNL A   1      33.983  31.643  28.492  1.00  0.00    -0.352 N 
ATOM     22  C   UNL A   1      34.474  30.430  28.065  1.00  0.00     0.251 C 
ATOM     23  H   UNL A   1      33.002  31.722  28.495  1.00  0.00     0.163 HD
ATOM     24  O   UNL A   1      33.750  29.668  27.441  1.00  0.00    -0.269 OA
BRANCH  22  25
ATOM     25  C   UNL A   1      35.874  30.045  28.340  1.00  0.00     0.039 A 
ATOM     26  C   UNL A   1      36.815  30.161  27.308  1.00  0.00     0.014 A 
ATOM     27  C   UNL A   1      36.245  29.501  29.573  1.00  0.00     0.014 A 
ATOM     28  C   UNL A   1      38.133  29.785  27.536  1.00  0.00     0.010 A 
ATOM     29  C   UNL A   1      37.569  29.188  29.828  1.00  0.00     0.010 A 
ATOM     30  C   UNL A   1      38.506  29.317  28.803  1.00  0.00    -0.014 A 
BRANCH  30  31
ATOM     31  C   UNL A   1      39.922  28.994  29.062  1.00  0.00     0.031 A 
ATOM     32  C   UNL A   1      40.692  30.214  29.593  1.00  0.00     0.074 A 
ATOM     33  C   UNL A   1      40.295  27.715  28.754  1.00  0.00     0.049 A 
ATOM     34  N   UNL A   1      41.907  30.607  29.364  1.00  0.00    -0.248 NA
ATOM     35  C   UNL A   1      39.964  31.194  30.446  1.00  0.00     0.031 C 
ATOM     36  C   UNL A   1      39.364  26.647  28.317  1.00  0.00     0.029 A 
ATOM     37  N   UNL A   1      41.497  27.043  28.732  1.00  0.00    -0.354 N 
ATOM     38  C   UNL A   1      42.141  31.766  30.143  1.00  0.00     0.074 A 
ATOM     39  C   UNL A   1      40.873  32.144  30.689  1.00  0.00     0.031 C 
ATOM     40  C   UNL A   1      40.030  25.518  28.002  1.00  0.00     0.029 A 
ATOM     41  C   UNL A   1      41.451  25.734  28.179  1.00  0.00     0.049 A 
ATOM     42  H   UNL A   1      42.329  27.439  29.076  1.00  0.00     0.167 HD
ATOM     43  C   UNL A   1      43.392  32.264  30.391  1.00  0.00     0.037 A 
ATOM     44  C   UNL A   1      42.488  24.919  27.810  1.00  0.00     0.037 A 
ATOM     45  C   UNL A   1      44.370  31.432  29.776  1.00  0.00     0.049 A 
ATOM     46  C   UNL A   1      43.696  25.668  28.186  1.00  0.00     0.074 A 
ATOM     47  C   UNL A   1      44.774  31.282  28.477  1.00  0.00     0.029 A 
ATOM     48  N   UNL A   1      44.805  30.354  30.507  1.00  0.00    -0.354 N 
ATOM     49  N   UNL A   1      44.117  25.843  29.402  1.00  0.00    -0.248 NA
ATOM     50  C   UNL A   1      44.412  26.399  27.131  1.00  0.00     0.031 C 
ATOM     51  C   UNL A   1      45.013  29.895  28.367  1.00  0.00     0.029 A 
ATOM     52  C   UNL A   1      44.958  29.305  29.636  1.00  0.00     0.049 A 
ATOM     53  H   UNL A   1      44.977  30.337  31.477  1.00  0.00     0.167 HD
ATOM     54  C   UNL A   1      44.934  26.943  29.273  1.00  0.00     0.074 A 
ATOM     55  C   UNL A   1      45.310  27.027  27.882  1.00  0.00     0.031 C 
ATOM     56  C   UNL A   1      44.833  27.964  30.159  1.00  0.00     0.037 A 
BRANCH  43  57
ATOM     57  C   UNL A   1      43.910  33.314  31.339  1.00  0.00     0.064 A 
ATOM     58  C   UNL A   1      44.222  34.623  30.954  1.00  0.00     0.173 A 
ATOM     59  C   UNL A   1      43.765  33.093  32.734  1.00  0.00     0.173 A 
ATOM     60  F   UNL A   1      44.351  34.950  29.662  1.00  0.00    -0.203 F 
ATOM     61  C   UNL A   1      44.306  35.658  31.893  1.00  0.00     0.198 A 
ATOM     62  C   UNL A   1      43.804  34.134  33.660  1.00  0.00     0.198 A 
ATOM     63  F   UNL A   1      43.509  31.866  33.213  1.00  0.00    -0.203 F 
ATOM     64  F   UNL A   1      44.559  36.907  31.479  1.00  0.00    -0.200 F 
ATOM     65  C   UNL A   1      44.060  35.422  33.236  1.00  0.00     0.200 A 
ATOM     66  F   UNL A   1      43.530  33.895  34.951  1.00  0.00    -0.200 F 
ATOM     67  F   UNL A   1      44.035  36.438  34.110  1.00  0.00    -0.200 F 
ENDBRANCH  43  57
BRANCH  44  68
ATOM     68  C   UNL A   1      42.688  23.643  27.017  1.00  0.00     0.064 A 
ATOM     69  C   UNL A   1      42.323  22.390  27.590  1.00  0.00     0.173 A 
ATOM     70  C   UNL A   1      43.281  23.534  25.753  1.00  0.00     0.173 A 
ATOM     71  F   UNL A   1      41.584  22.315  28.705  1.00  0.00    -0.203 F 
ATOM     72  C   UNL A   1      42.692  21.156  27.056  1.00  0.00     0.198 A 
ATOM     73  C   UNL A   1      43.612  22.286  25.187  1.00  0.00     0.198 A 
ATOM     74  F   UNL A   1      43.535  24.617  25.012  1.00  0.00    -0.203 F 
ATOM     75  F   UNL A   1      42.410  20.031  27.728  1.00  0.00    -0.200 F 
ATOM     76  C   UNL A   1      43.361  21.104  25.860  1.00  0.00     0.200 A 
ATOM     77  F   UNL A   1      44.194  22.238  23.980  1.00  0.00    -0.200 F 
ATOM     78  F   UNL A   1      43.740  19.924  25.350  1.00  0.00    -0.200 F 
ENDBRANCH  44  68
BRANCH  56  79
ATOM     79  C   UNL A   1      44.221  27.568  31.490  1.00  0.00     0.064 A 
ATOM     80  C   UNL A   1      42.913  27.898  31.882  1.00  0.00     0.173 A 
ATOM     81  C   UNL A   1      44.925  26.720  32.356  1.00  0.00     0.173 A 
ATOM     82  F   UNL A   1      42.161  28.694  31.130  1.00  0.00    -0.203 F 
ATOM     83  C   UNL A   1      42.335  27.414  33.057  1.00  0.00     0.198 A 
ATOM     84  C   UNL A   1      44.348  26.226  33.531  1.00  0.00     0.198 A 
ATOM     85  F   UNL A   1      46.183  26.362  32.062  1.00  0.00    -0.203 F 
ATOM     86  F   UNL A   1      41.082  27.770  33.386  1.00  0.00    -0.200 F 
ATOM     87  C   UNL A   1      43.053  26.573  33.882  1.00  0.00     0.200 A 
ATOM     88  F   UNL A   1      45.055  25.415  34.330  1.00  0.00    -0.200 F 
ATOM     89  F   UNL A   1      42.507  26.109  35.014  1.00  0.00    -0.200 F 
ENDBRANCH  56  79
ENDBRANCH  30  31
ENDBRANCH  22  25
ENDBRANCH  20  21
ENDBRANCH   1  20
TORSDOF 12
ENDMDL
MODEL 2
REMARK VINA RESULT:     -11.7      3.069      9.512
REMARK SMILES O=C(Cc1ccn(-c2ccccc2F)c1)NCCCNC(=O)c1ccc(-c2c3nc(c(-c4c(F)c(F)c(F)c(F)c4F)c4ccc([nH]4)c(-c4c(F)c(F)c(F)c(F)c4F)c4nc(c(-c5c(F)c(F)c(F)c(F)c5F)c5ccc2[nH]5)C=C4)C=C3)cc1
REMARK SMILES IDX 18 1 17 2 16 3 1 4 2 5 3 7 4 8 5 9 15 10 6 11 7 12 8 13 9 14
REMARK SMILES IDX 13 15 10 16 12 17 14 18 11 19 19 20 20 21 21 22 22 24 23 25
REMARK SMILES IDX 24 26 85 27 25 28 84 29 26 30 27 31 28 32 78 33 29 34 83 35
REMARK SMILES IDX 77 36 79 37 30 38 82 39 76 40 75 41 31 43 63 44 43 45 62 46
REMARK SMILES IDX 44 47 47 48 61 49 80 50 45 51 46 52 60 54 81 55 48 56 32 57
REMARK SMILES IDX 33 58 41 59 34 60 35 61 39 62 42 63 36 64 37 65 40 66 38 67
REMARK SMILES IDX 64 68 65 69 73 70 66 71 67 72 71 73 74 74 68 75 69 76 72 77
REMARK SMILES IDX 70 78 49 79 50 80 58 81 51 82 52 83 56 84 59 85 53 86 54 87
REMARK SMILES IDX 57 88 55 89
REMARK H PARENT 16 6 20 23 79 42 47 53
REMARK Flexibility Score: inf
ROOT
ATOM      1  C   UNL A   1      35.617  31.678  31.735  1.00  0.00     0.042 C 
ENDROOT
BRANCH   1   2
ATOM      2  C   UNL A   1      36.494  31.517  32.978  1.00  0.00     0.117 C 
BRANCH   2   3
ATOM      3  N   UNL A   1      37.886  31.238  32.667  1.00  0.00    -0.356 N 
ATOM      4  O   UNL A   1      38.324  30.048  34.578  1.00  0.00    -0.275 OA
ATOM      5  C   UNL A   1      38.691  30.464  33.481  1.00  0.00     0.224 C 
ATOM      6  H   UNL A   1      38.270  31.615  31.844  1.00  0.00     0.163 HD
BRANCH   5   7
ATOM      7  C   UNL A   1      40.106  30.224  32.960  1.00  0.00     0.137 C 
BRANCH   7   8
ATOM      8  C   UNL A   1      40.892  29.276  33.814  1.00  0.00    -0.021 A 
ATOM      9  C   UNL A   1      41.311  29.491  35.153  1.00  0.00     0.024 A 
ATOM     10  C   UNL A   1      41.360  28.023  33.458  1.00  0.00     0.095 A 
ATOM     11  C   UNL A   1      41.912  28.333  35.594  1.00  0.00     0.091 A 
ATOM     12  N   UNL A   1      41.945  27.424  34.556  1.00  0.00    -0.321 N 
BRANCH  12  13
ATOM     13  C   UNL A   1      42.425  26.096  34.632  1.00  0.00     0.081 A 
ATOM     14  C   UNL A   1      43.632  25.759  34.002  1.00  0.00     0.030 A 
ATOM     15  C   UNL A   1      41.728  25.123  35.351  1.00  0.00     0.147 A 
ATOM     16  C   UNL A   1      44.138  24.462  34.120  1.00  0.00     0.002 A 
ATOM     17  C   UNL A   1      42.214  23.820  35.431  1.00  0.00     0.041 A 
ATOM     18  F   UNL A   1      40.546  25.392  35.922  1.00  0.00    -0.205 F 
ATOM     19  C   UNL A   1      43.427  23.491  34.826  1.00  0.00     0.003 A 
ENDBRANCH  12  13
ENDBRANCH   7   8
ENDBRANCH   5   7
ENDBRANCH   2   3
ENDBRANCH   1   2
BRANCH   1  20
ATOM     20  C   UNL A   1      36.373  31.451  30.432  1.00  0.00     0.118 C 
BRANCH  20  21
ATOM     21  N   UNL A   1      35.637  30.609  29.497  1.00  0.00    -0.352 N 
ATOM     22  C   UNL A   1      36.113  29.715  28.566  1.00  0.00     0.251 C 
ATOM     23  H   UNL A   1      34.657  30.691  29.538  1.00  0.00     0.163 HD
ATOM     24  O   UNL A   1      35.382  29.328  27.666  1.00  0.00    -0.269 OA
BRANCH  22  25
ATOM     25  C   UNL A   1      37.508  29.229  28.633  1.00  0.00     0.039 A 
ATOM     26  C   UNL A   1      37.911  28.504  29.762  1.00  0.00     0.014 A 
ATOM     27  C   UNL A   1      38.433  29.548  27.635  1.00  0.00     0.014 A 
ATOM     28  C   UNL A   1      39.222  28.055  29.858  1.00  0.00     0.010 A 
ATOM     29  C   UNL A   1      39.722  29.047  27.691  1.00  0.00     0.010 A 
ATOM     30  C   UNL A   1      40.116  28.314  28.810  1.00  0.00    -0.014 A 
BRANCH  30  31
ATOM     31  C   UNL A   1      41.484  27.768  28.881  1.00  0.00     0.031 A 
ATOM     32  C   UNL A   1      41.557  26.348  28.297  1.00  0.00     0.074 A 
ATOM     33  C   UNL A   1      42.409  28.583  29.474  1.00  0.00     0.049 A 
ATOM     34  N   UNL A   1      42.247  25.317  28.675  1.00  0.00    -0.248 NA
ATOM     35  C   UNL A   1      40.654  26.002  27.164  1.00  0.00     0.031 C 
ATOM     36  C   UNL A   1      42.149  29.975  29.910  1.00  0.00     0.029 A 
ATOM     37  N   UNL A   1      43.729  28.434  29.837  1.00  0.00    -0.354 N 
ATOM     38  C   UNL A   1      41.989  24.265  27.762  1.00  0.00     0.074 A 
ATOM     39  C   UNL A   1      40.912  24.711  26.932  1.00  0.00     0.031 C 
ATOM     40  C   UNL A   1      43.221  30.498  30.537  1.00  0.00     0.029 A 
ATOM     41  C   UNL A   1      44.275  29.507  30.594  1.00  0.00     0.049 A 
ATOM     42  H   UNL A   1      44.258  27.642  29.590  1.00  0.00     0.167 HD
ATOM     43  C   UNL A   1      42.771  23.145  27.668  1.00  0.00     0.037 A 
ATOM     44  C   UNL A   1      45.455  29.558  31.288  1.00  0.00     0.037 A 
ATOM     45  C   UNL A   1      43.851  23.233  28.592  1.00  0.00     0.049 A 
ATOM     46  C   UNL A   1      46.095  28.262  31.018  1.00  0.00     0.074 A 
ATOM     47  C   UNL A   1      43.925  23.075  29.949  1.00  0.00     0.029 A 
ATOM     48  N   UNL A   1      44.977  23.887  28.156  1.00  0.00    -0.354 N 
ATOM     49  N   UNL A   1      46.642  27.920  29.890  1.00  0.00    -0.248 NA
ATOM     50  C   UNL A   1      45.993  27.214  32.042  1.00  0.00     0.031 C 
ATOM     51  C   UNL A   1      44.852  24.063  30.344  1.00  0.00     0.029 A 
ATOM     52  C   UNL A   1      45.457  24.622  29.212  1.00  0.00     0.049 A 
ATOM     53  H   UNL A   1      45.369  23.838  27.254  1.00  0.00     0.167 HD
ATOM     54  C   UNL A   1      46.650  26.547  29.973  1.00  0.00     0.074 A 
ATOM     55  C   UNL A   1      46.549  26.210  31.373  1.00  0.00     0.031 C 
ATOM     56  C   UNL A   1      46.231  25.805  28.919  1.00  0.00     0.037 A 
BRANCH  43  57
ATOM     57  C   UNL A   1      42.843  22.025  26.664  1.00  0.00     0.064 A 
ATOM     58  C   UNL A   1      43.740  21.999  25.590  1.00  0.00     0.173 A 
ATOM     59  C   UNL A   1      42.225  20.788  26.988  1.00  0.00     0.173 A 
ATOM     60  F   UNL A   1      44.402  23.101  25.218  1.00  0.00    -0.203 F 
ATOM     61  C   UNL A   1      44.058  20.803  24.935  1.00  0.00     0.198 A 
ATOM     62  C   UNL A   1      42.579  19.593  26.364  1.00  0.00     0.198 A 
ATOM     63  F   UNL A   1      41.316  20.710  27.974  1.00  0.00    -0.203 F 
ATOM     64  F   UNL A   1      44.959  20.813  23.943  1.00  0.00    -0.200 F 
ATOM     65  C   UNL A   1      43.509  19.598  25.346  1.00  0.00     0.200 A 
ATOM     66  F   UNL A   1      42.064  18.432  26.796  1.00  0.00    -0.200 F 
ATOM     67  F   UNL A   1      43.904  18.447  24.785  1.00  0.00    -0.200 F 
ENDBRANCH  43  57
BRANCH  44  68
ATOM     68  C   UNL A   1      46.117  30.452  32.316  1.00  0.00     0.064 A 
ATOM     69  C   UNL A   1      45.433  30.763  33.528  1.00  0.00     0.173 A 
ATOM     70  C   UNL A   1      47.354  31.097  32.185  1.00  0.00     0.173 A 
ATOM     71  F   UNL A   1      44.330  30.101  33.903  1.00  0.00    -0.203 F 
ATOM     72  C   UNL A   1      45.838  31.761  34.413  1.00  0.00     0.198 A 
ATOM     73  C   UNL A   1      47.790  32.072  33.104  1.00  0.00     0.198 A 
ATOM     74  F   UNL A   1      48.190  30.792  31.188  1.00  0.00    -0.203 F 
ATOM     75  F   UNL A   1      45.066  32.069  35.465  1.00  0.00    -0.200 F 
ATOM     76  C   UNL A   1      47.011  32.436  34.188  1.00  0.00     0.200 A 
ATOM     77  F   UNL A   1      48.975  32.672  32.923  1.00  0.00    -0.200 F 
ATOM     78  F   UNL A   1      47.398  33.412  35.021  1.00  0.00    -0.200 F 
ENDBRANCH  44  68
BRANCH  56  79
ATOM     79  C   UNL A   1      46.302  26.531  27.588  1.00  0.00     0.064 A 
ATOM     80  C   UNL A   1      47.498  26.808  26.907  1.00  0.00     0.173 A 
ATOM     81  C   UNL A   1      45.119  26.854  26.907  1.00  0.00     0.173 A 
ATOM     82  F   UNL A   1      48.673  26.539  27.465  1.00  0.00    -0.203 F 
ATOM     83  C   UNL A   1      47.524  27.367  25.626  1.00  0.00     0.198 A 
ATOM     84  C   UNL A   1      45.139  27.406  25.622  1.00  0.00     0.198 A 
ATOM     85  F   UNL A   1      43.932  26.630  27.489  1.00  0.00    -0.203 F 
ATOM     86  F   UNL A   1      48.698  27.617  25.026  1.00  0.00    -0.200 F 
ATOM     87  C   UNL A   1      46.340  27.662  24.981  1.00  0.00     0.200 A 
ATOM     88  F   UNL A   1      43.985  27.696  25.004  1.00  0.00    -0.200 F 
ATOM     89  F   UNL A   1      46.357  28.202  23.755  1.00  0.00    -0.200 F 
ENDBRANCH  56  79
ENDBRANCH  30  31
ENDBRANCH  22  25
ENDBRANCH  20  21
ENDBRANCH   1  20
TORSDOF 12
ENDMDL
MODEL 3
REMARK VINA RESULT:     -11.6      4.028      9.388
REMARK SMILES O=C(Cc1ccn(-c2ccccc2F)c1)NCCCNC(=O)c1ccc(-c2c3nc(c(-c4c(F)c(F)c(F)c(F)c4F)c4ccc([nH]4)c(-c4c(F)c(F)c(F)c(F)c4F)c4nc(c(-c5c(F)c(F)c(F)c(F)c5F)c5ccc2[nH]5)C=C4)C=C3)cc1
REMARK SMILES IDX 18 1 17 2 16 3 1 4 2 5 3 7 4 8 5 9 15 10 6 11 7 12 8 13 9 14
REMARK SMILES IDX 13 15 10 16 12 17 14 18 11 19 19 20 20 21 21 22 22 24 23 25
REMARK SMILES IDX 24 26 85 27 25 28 84 29 26 30 27 31 28 32 78 33 29 34 83 35
REMARK SMILES IDX 77 36 79 37 30 38 82 39 76 40 75 41 31 43 63 44 43 45 62 46
REMARK SMILES IDX 44 47 47 48 61 49 80 50 45 51 46 52 60 54 81 55 48 56 32 57
REMARK SMILES IDX 33 58 41 59 34 60 35 61 39 62 42 63 36 64 37 65 40 66 38 67
REMARK SMILES IDX 64 68 65 69 73 70 66 71 67 72 71 73 74 74 68 75 69 76 72 77
REMARK SMILES IDX 70 78 49 79 50 80 58 81 51 82 52 83 56 84 59 85 53 86 54 87
REMARK SMILES IDX 57 88 55 89
REMARK H PARENT 16 6 20 23 79 42 47 53
REMARK Flexibility Score: inf
ROOT
ATOM      1  C   UNL A   1      43.110  24.022  26.355  1.00  0.00     0.042 C 
ENDROOT
BRANCH   1   2
ATOM      2  C   UNL A   1      43.220  25.471  25.878  1.00  0.00     0.117 C 
BRANCH   2   3
ATOM      3  N   UNL A   1      43.811  26.358  26.866  1.00  0.00    -0.356 N 
ATOM      4  O   UNL A   1      44.486  27.963  25.374  1.00  0.00    -0.275 OA
ATOM      5  C   UNL A   1      44.359  27.583  26.536  1.00  0.00     0.224 C 
ATOM      6  H   UNL A   1      43.822  26.074  27.809  1.00  0.00     0.163 HD
BRANCH   5   7
ATOM      7  C   UNL A   1      44.873  28.406  27.714  1.00  0.00     0.137 C 
BRANCH   7   8
ATOM      8  C   UNL A   1      45.082  29.850  27.373  1.00  0.00    -0.021 A 
ATOM      9  C   UNL A   1      46.275  30.441  26.880  1.00  0.00     0.024 A 
ATOM     10  C   UNL A   1      44.158  30.875  27.480  1.00  0.00     0.095 A 
ATOM     11  C   UNL A   1      46.003  31.762  26.602  1.00  0.00     0.091 A 
ATOM     12  N   UNL A   1      44.702  32.037  26.968  1.00  0.00    -0.321 N 
BRANCH  12  13
ATOM     13  C   UNL A   1      44.030  33.268  26.781  1.00  0.00     0.081 A 
ATOM     14  C   UNL A   1      43.681  34.042  27.896  1.00  0.00     0.030 A 
ATOM     15  C   UNL A   1      43.737  33.735  25.499  1.00  0.00     0.147 A 
ATOM     16  C   UNL A   1      43.066  35.284  27.715  1.00  0.00     0.002 A 
ATOM     17  C   UNL A   1      43.086  34.954  25.322  1.00  0.00     0.041 A 
ATOM     18  F   UNL A   1      44.007  33.000  24.410  1.00  0.00    -0.205 F 
ATOM     19  C   UNL A   1      42.761  35.736  26.430  1.00  0.00     0.003 A 
ENDBRANCH  12  13
ENDBRANCH   7   8
ENDBRANCH   5   7
ENDBRANCH   2   3
ENDBRANCH   1   2
BRANCH   1  20
ATOM     20  C   UNL A   1      41.909  23.776  27.261  1.00  0.00     0.118 C 
BRANCH  20  21
ATOM     21  N   UNL A   1      40.646  23.789  26.534  1.00  0.00    -0.352 N 
ATOM     22  C   UNL A   1      39.552  24.606  26.699  1.00  0.00     0.251 C 
ATOM     23  H   UNL A   1      40.565  23.115  25.821  1.00  0.00     0.163 HD
ATOM     24  O   UNL A   1      38.474  24.282  26.218  1.00  0.00    -0.269 OA
BRANCH  22  25
ATOM     25  C   UNL A   1      39.660  25.865  27.466  1.00  0.00     0.039 A 
ATOM     26  C   UNL A   1      39.238  25.873  28.802  1.00  0.00     0.014 A 
ATOM     27  C   UNL A   1      40.095  27.046  26.858  1.00  0.00     0.014 A 
ATOM     28  C   UNL A   1      39.309  27.050  29.537  1.00  0.00     0.010 A 
ATOM     29  C   UNL A   1      40.232  28.205  27.602  1.00  0.00     0.010 A 
ATOM     30  C   UNL A   1      39.824  28.206  28.936  1.00  0.00    -0.014 A 
BRANCH  30  31
ATOM     31  C   UNL A   1      39.971  29.432  29.744  1.00  0.00     0.031 A 
ATOM     32  C   UNL A   1      38.738  30.342  29.620  1.00  0.00     0.074 A 
ATOM     33  C   UNL A   1      41.160  29.554  30.407  1.00  0.00     0.049 A 
ATOM     34  N   UNL A   1      38.648  31.635  29.574  1.00  0.00    -0.248 NA
ATOM     35  C   UNL A   1      37.405  29.705  29.434  1.00  0.00     0.031 C 
ATOM     36  C   UNL A   1      42.209  28.508  30.460  1.00  0.00     0.029 A 
ATOM     37  N   UNL A   1      41.744  30.551  31.158  1.00  0.00    -0.354 N 
ATOM     38  C   UNL A   1      37.274  31.971  29.510  1.00  0.00     0.074 A 
ATOM     39  C   UNL A   1      36.571  30.741  29.304  1.00  0.00     0.031 C 
ATOM     40  C   UNL A   1      43.303  28.946  31.114  1.00  0.00     0.029 A 
ATOM     41  C   UNL A   1      43.095  30.315  31.535  1.00  0.00     0.049 A 
ATOM     42  H   UNL A   1      41.261  31.368  31.418  1.00  0.00     0.167 HD
ATOM     43  C   UNL A   1      36.797  33.229  29.762  1.00  0.00     0.037 A 
ATOM     44  C   UNL A   1      44.004  31.190  32.068  1.00  0.00     0.037 A 
ATOM     45  C   UNL A   1      37.875  34.092  30.106  1.00  0.00     0.049 A 
ATOM     46  C   UNL A   1      43.250  32.440  32.247  1.00  0.00     0.074 A 
ATOM     47  C   UNL A   1      38.853  34.697  29.363  1.00  0.00     0.029 A 
ATOM     48  N   UNL A   1      38.241  34.117  31.430  1.00  0.00    -0.354 N 
ATOM     49  N   UNL A   1      42.349  32.644  33.160  1.00  0.00    -0.248 NA
ATOM     50  C   UNL A   1      43.415  33.496  31.240  1.00  0.00     0.031 C 
ATOM     51  C   UNL A   1      39.988  34.628  30.198  1.00  0.00     0.029 A 
ATOM     52  C   UNL A   1      39.611  34.193  31.474  1.00  0.00     0.049 A 
ATOM     53  H   UNL A   1      37.633  34.086  32.204  1.00  0.00     0.167 HD
ATOM     54  C   UNL A   1      41.638  33.699  32.639  1.00  0.00     0.074 A 
ATOM     55  C   UNL A   1      42.495  34.350  31.676  1.00  0.00     0.031 C 
ATOM     56  C   UNL A   1      40.283  33.664  32.638  1.00  0.00     0.037 A 
BRANCH  43  57
ATOM     57  C   UNL A   1      35.410  33.778  29.973  1.00  0.00     0.064 A 
ATOM     58  C   UNL A   1      34.797  33.882  31.227  1.00  0.00     0.173 A 
ATOM     59  C   UNL A   1      34.817  34.532  28.926  1.00  0.00     0.173 A 
ATOM     60  F   UNL A   1      35.291  33.238  32.292  1.00  0.00    -0.203 F 
ATOM     61  C   UNL A   1      33.713  34.741  31.439  1.00  0.00     0.198 A 
ATOM     62  C   UNL A   1      33.767  35.421  29.152  1.00  0.00     0.198 A 
ATOM     63  F   UNL A   1      35.300  34.471  27.675  1.00  0.00    -0.203 F 
ATOM     64  F   UNL A   1      33.185  34.849  32.666  1.00  0.00    -0.200 F 
ATOM     65  C   UNL A   1      33.225  35.538  30.415  1.00  0.00     0.200 A 
ATOM     66  F   UNL A   1      33.329  36.209  28.159  1.00  0.00    -0.200 F 
ATOM     67  F   UNL A   1      32.260  36.436  30.655  1.00  0.00    -0.200 F 
ENDBRANCH  43  57
BRANCH  44  68
ATOM     68  C   UNL A   1      45.497  31.244  32.322  1.00  0.00     0.064 A 
ATOM     69  C   UNL A   1      46.394  31.413  31.227  1.00  0.00     0.173 A 
ATOM     70  C   UNL A   1      46.139  31.072  33.555  1.00  0.00     0.173 A 
ATOM     71  F   UNL A   1      45.961  31.770  30.010  1.00  0.00    -0.203 F 
ATOM     72  C   UNL A   1      47.773  31.226  31.317  1.00  0.00     0.198 A 
ATOM     73  C   UNL A   1      47.537  30.932  33.658  1.00  0.00     0.198 A 
ATOM     74  F   UNL A   1      45.446  31.061  34.698  1.00  0.00    -0.203 F 
ATOM     75  F   UNL A   1      48.526  31.285  30.210  1.00  0.00    -0.200 F 
ATOM     76  C   UNL A   1      48.346  30.961  32.535  1.00  0.00     0.200 A 
ATOM     77  F   UNL A   1      48.099  30.752  34.861  1.00  0.00    -0.200 F 
ATOM     78  F   UNL A   1      49.667  30.758  32.629  1.00  0.00    -0.200 F 
ENDBRANCH  44  68
BRANCH  56  79
ATOM     79  C   UNL A   1      39.690  32.729  33.675  1.00  0.00     0.064 A 
ATOM     80  C   UNL A   1      39.087  31.498  33.370  1.00  0.00     0.173 A 
ATOM     81  C   UNL A   1      39.841  33.016  35.040  1.00  0.00     0.173 A 
ATOM     82  F   UNL A   1      38.900  31.130  32.107  1.00  0.00    -0.203 F 
ATOM     83  C   UNL A   1      38.663  30.602  34.354  1.00  0.00     0.198 A 
ATOM     84  C   UNL A   1      39.425  32.119  36.029  1.00  0.00     0.198 A 
ATOM     85  F   UNL A   1      40.399  34.174  35.419  1.00  0.00    -0.203 F 
ATOM     86  F   UNL A   1      38.085  29.442  34.004  1.00  0.00    -0.200 F 
ATOM     87  C   UNL A   1      38.836  30.913  35.688  1.00  0.00     0.200 A 
ATOM     88  F   UNL A   1      39.591  32.431  37.322  1.00  0.00    -0.200 F 
ATOM     89  F   UNL A   1      38.427  30.061  36.637  1.00  0.00    -0.200 F 
ENDBRANCH  56  79
ENDBRANCH  30  31
ENDBRANCH  22  25
ENDBRANCH  20  21
ENDBRANCH   1  20
TORSDOF 12
ENDMDL
