MODEL 1
REMARK VINA RESULT:     -12.9      0.000      0.000
REMARK SMILES O=C(NCCCNC(=O)[C@@H]1CCN(C(=O)c2c(F)cc(Br)cc2F)C1)c1ccc(-c2c3nc(c(-c4c(F)c(F)c(F)c(F)c4F)c4ccc([nH]4)c(-c4c(F)c(F)c(F)c(F)c4F)c4nc(c(-c5c(F)c(F)c(F)c(F)c5F)c5ccc2[nH]5)C=C4)C=C3)cc1
REMARK SMILES IDX 5 1 4 2 3 3 1 4 2 5 26 7 27 8 88 9 28 10 87 11 29 12 30 13
REMARK SMILES IDX 31 14 81 15 32 16 86 17 80 18 82 19 33 20 85 21 79 22 78 23
REMARK SMILES IDX 34 25 66 26 46 27 65 28 47 29 50 30 64 31 83 32 48 33 49 34
REMARK SMILES IDX 63 36 84 37 51 38 35 39 36 40 44 41 37 42 38 43 42 44 45 45
REMARK SMILES IDX 39 46 40 47 43 48 41 49 67 50 68 51 76 52 69 53 70 54 74 55
REMARK SMILES IDX 77 56 71 57 72 58 75 59 73 60 52 61 53 62 61 63 54 64 55 65
REMARK SMILES IDX 59 66 62 67 56 68 57 69 60 70 58 71 6 72 7 73 8 74 9 76
REMARK SMILES IDX 10 77 11 78 25 79 12 80 13 81 14 82 15 83 16 84 17 85 23 86
REMARK SMILES IDX 18 87 19 88 22 89 24 90 20 91 21 92
REMARK H PARENT 3 6 82 24 50 35 7 75
REMARK Flexibility Score: inf
ROOT
ATOM      1  C   UNL A   1      31.321  31.845  26.492  1.00  0.00     0.042 C 
ENDROOT
BRANCH   1   2
ATOM      2  C   UNL A   1      32.606  32.497  26.977  1.00  0.00     0.118 C 
BRANCH   2   3
ATOM      3  N   UNL A   1      32.388  33.858  27.458  1.00  0.00    -0.352 N 
ATOM      4  O   UNL A   1      32.531  35.596  28.884  1.00  0.00    -0.269 OA
ATOM      5  C   UNL A   1      33.003  34.537  28.481  1.00  0.00     0.251 C 
ATOM      6  H   UNL A   1      31.696  34.365  26.976  1.00  0.00     0.163 HD
BRANCH   5   7
ATOM      7  C   UNL A   1      34.231  33.994  29.098  1.00  0.00     0.039 A 
ATOM      8  C   UNL A   1      34.150  32.965  30.037  1.00  0.00     0.014 A 
ATOM      9  C   UNL A   1      35.481  34.490  28.712  1.00  0.00     0.014 A 
ATOM     10  C   UNL A   1      35.289  32.551  30.706  1.00  0.00     0.010 A 
ATOM     11  C   UNL A   1      36.644  33.984  29.303  1.00  0.00     0.010 A 
ATOM     12  C   UNL A   1      36.554  33.026  30.323  1.00  0.00    -0.014 A 
BRANCH  12  13
ATOM     13  C   UNL A   1      37.750  32.410  30.950  1.00  0.00     0.031 A 
ATOM     14  C   UNL A   1      38.177  32.759  32.346  1.00  0.00     0.074 A 
ATOM     15  C   UNL A   1      38.403  31.458  30.253  1.00  0.00     0.049 A 
ATOM     16  N   UNL A   1      39.146  32.242  33.059  1.00  0.00    -0.248 NA
ATOM     17  C   UNL A   1      37.432  33.825  33.030  1.00  0.00     0.031 C 
ATOM     18  C   UNL A   1      38.085  31.062  28.877  1.00  0.00     0.029 A 
ATOM     19  N   UNL A   1      39.430  30.623  30.607  1.00  0.00    -0.354 N 
ATOM     20  C   UNL A   1      39.137  32.926  34.267  1.00  0.00     0.074 A 
ATOM     21  C   UNL A   1      38.083  33.914  34.183  1.00  0.00     0.031 C 
ATOM     22  C   UNL A   1      38.845  30.013  28.533  1.00  0.00     0.029 A 
ATOM     23  C   UNL A   1      39.751  29.709  29.634  1.00  0.00     0.049 A 
ATOM     24  H   UNL A   1      39.891  30.673  31.476  1.00  0.00     0.167 HD
ATOM     25  C   UNL A   1      39.932  32.734  35.347  1.00  0.00     0.037 A 
ATOM     26  C   UNL A   1      40.680  28.737  29.622  1.00  0.00     0.037 A 
ATOM     27  C   UNL A   1      40.972  31.737  35.424  1.00  0.00     0.049 A 
ATOM     28  C   UNL A   1      41.536  28.545  30.838  1.00  0.00     0.074 A 
ATOM     29  C   UNL A   1      41.831  31.461  36.474  1.00  0.00     0.029 A 
ATOM     30  N   UNL A   1      41.288  30.846  34.408  1.00  0.00    -0.354 N 
ATOM     31  N   UNL A   1      41.507  29.192  31.977  1.00  0.00    -0.248 NA
ATOM     32  C   UNL A   1      42.556  27.493  30.767  1.00  0.00     0.031 C 
ATOM     33  C   UNL A   1      42.689  30.428  36.081  1.00  0.00     0.029 A 
ATOM     34  C   UNL A   1      42.337  30.029  34.802  1.00  0.00     0.049 A 
ATOM     35  H   UNL A   1      40.835  30.802  33.534  1.00  0.00     0.167 HD
ATOM     36  C   UNL A   1      42.505  28.631  32.758  1.00  0.00     0.074 A 
ATOM     37  C   UNL A   1      43.091  27.560  31.977  1.00  0.00     0.031 C 
ATOM     38  C   UNL A   1      42.912  28.979  34.002  1.00  0.00     0.037 A 
BRANCH  25  39
ATOM     39  C   UNL A   1      39.722  33.623  36.539  1.00  0.00     0.064 A 
ATOM     40  C   UNL A   1      40.332  34.883  36.630  1.00  0.00     0.173 A 
ATOM     41  C   UNL A   1      38.848  33.241  37.568  1.00  0.00     0.173 A 
ATOM     42  F   UNL A   1      41.184  35.291  35.678  1.00  0.00    -0.203 F 
ATOM     43  C   UNL A   1      40.084  35.722  37.715  1.00  0.00     0.198 A 
ATOM     44  C   UNL A   1      38.584  34.092  38.638  1.00  0.00     0.198 A 
ATOM     45  F   UNL A   1      38.233  32.048  37.525  1.00  0.00    -0.203 F 
ATOM     46  F   UNL A   1      40.699  36.909  37.795  1.00  0.00    -0.200 F 
ATOM     47  C   UNL A   1      39.204  35.329  38.712  1.00  0.00     0.200 A 
ATOM     48  F   UNL A   1      37.722  33.716  39.594  1.00  0.00    -0.200 F 
ATOM     49  F   UNL A   1      38.954  36.145  39.747  1.00  0.00    -0.200 F 
ENDBRANCH  25  39
BRANCH  26  50
ATOM     50  C   UNL A   1      40.851  27.890  28.412  1.00  0.00     0.064 A 
ATOM     51  C   UNL A   1      41.675  28.291  27.354  1.00  0.00     0.173 A 
ATOM     52  C   UNL A   1      40.195  26.655  28.297  1.00  0.00     0.173 A 
ATOM     53  F   UNL A   1      42.310  29.472  27.409  1.00  0.00    -0.203 F 
ATOM     54  C   UNL A   1      41.822  27.499  26.218  1.00  0.00     0.198 A 
ATOM     55  C   UNL A   1      40.371  25.848  27.177  1.00  0.00     0.198 A 
ATOM     56  F   UNL A   1      39.400  26.220  29.287  1.00  0.00    -0.203 F 
ATOM     57  F   UNL A   1      42.580  27.927  25.198  1.00  0.00    -0.200 F 
ATOM     58  C   UNL A   1      41.176  26.275  26.133  1.00  0.00     0.200 A 
ATOM     59  F   UNL A   1      39.761  24.657  27.110  1.00  0.00    -0.200 F 
ATOM     60  F   UNL A   1      41.326  25.510  25.043  1.00  0.00    -0.200 F 
ENDBRANCH  26  50
BRANCH  38  61
ATOM     61  C   UNL A   1      44.045  28.186  34.583  1.00  0.00     0.064 A 
ATOM     62  C   UNL A   1      45.377  28.595  34.424  1.00  0.00     0.173 A 
ATOM     63  C   UNL A   1      43.796  27.007  35.300  1.00  0.00     0.173 A 
ATOM     64  F   UNL A   1      45.664  29.706  33.730  1.00  0.00    -0.203 F 
ATOM     65  C   UNL A   1      46.423  27.830  34.932  1.00  0.00     0.198 A 
ATOM     66  C   UNL A   1      44.843  26.261  35.831  1.00  0.00     0.198 A 
ATOM     67  F   UNL A   1      42.538  26.577  35.481  1.00  0.00    -0.203 F 
ATOM     68  F   UNL A   1      47.691  28.208  34.718  1.00  0.00    -0.200 F 
ATOM     69  C   UNL A   1      46.156  26.667  35.638  1.00  0.00     0.200 A 
ATOM     70  F   UNL A   1      44.584  25.140  36.520  1.00  0.00    -0.200 F 
ATOM     71  F   UNL A   1      47.164  25.929  36.121  1.00  0.00    -0.200 F 
ENDBRANCH  38  61
ENDBRANCH  12  13
ENDBRANCH   5   7
ENDBRANCH   2   3
ENDBRANCH   1   2
BRANCH   1  72
ATOM     72  C   UNL A   1      31.563  30.480  25.868  1.00  0.00     0.117 C 
BRANCH  72  73
ATOM     73  N   UNL A   1      32.935  30.046  26.056  1.00  0.00    -0.356 N 
ATOM     74  C   UNL A   1      33.490  28.886  26.476  1.00  0.00     0.224 C 
ATOM     75  H   UNL A   1      33.598  30.738  25.832  1.00  0.00     0.163 HD
ATOM     76  O   UNL A   1      34.707  28.925  26.697  1.00  0.00    -0.275 OA
BRANCH  74  77
ATOM     77  C   UNL A   1      32.771  27.549  26.563  1.00  0.00     0.099 C 
ATOM     78  C   UNL A   1      33.636  26.411  26.023  1.00  0.00     0.037 C 
ATOM     79  C   UNL A   1      31.434  27.375  25.871  1.00  0.00     0.133 C 
ATOM     80  C   UNL A   1      33.092  26.142  24.632  1.00  0.00     0.120 C 
ATOM     81  N   UNL A   1      31.698  26.563  24.689  1.00  0.00    -0.338 N 
BRANCH  81  82
ATOM     82  C   UNL A   1      30.714  26.401  23.729  1.00  0.00     0.259 C 
ATOM     83  O   UNL A   1      30.328  25.297  23.353  1.00  0.00    -0.269 OA
BRANCH  82  84
ATOM     84  C   UNL A   1      30.062  27.588  23.164  1.00  0.00     0.111 A 
ATOM     85  C   UNL A   1      28.695  27.799  23.305  1.00  0.00     0.140 A 
ATOM     86  C   UNL A   1      30.838  28.561  22.536  1.00  0.00     0.140 A 
ATOM     87  F   UNL A   1      27.926  26.908  23.948  1.00  0.00    -0.206 F 
ATOM     88  C   UNL A   1      28.090  28.938  22.780  1.00  0.00     0.056 A 
ATOM     89  C   UNL A   1      30.252  29.716  22.022  1.00  0.00     0.056 A 
ATOM     90  F   UNL A   1      32.160  28.396  22.386  1.00  0.00    -0.206 F 
ATOM     91  C   UNL A   1      28.875  29.894  22.139  1.00  0.00     0.023 A 
ATOM     92  Br  UNL A   1      28.064  31.444  21.425  1.00  0.00    -0.051 Br
ENDBRANCH  82  84
ENDBRANCH  81  82
ENDBRANCH  74  77
ENDBRANCH  72  73
ENDBRANCH   1  72
TORSDOF 12
ENDMDL
MODEL 2
REMARK VINA RESULT:     -12.8      2.294      3.497
REMARK SMILES O=C(NCCCNC(=O)[C@@H]1CCN(C(=O)c2c(F)cc(Br)cc2F)C1)c1ccc(-c2c3nc(c(-c4c(F)c(F)c(F)c(F)c4F)c4ccc([nH]4)c(-c4c(F)c(F)c(F)c(F)c4F)c4nc(c(-c5c(F)c(F)c(F)c(F)c5F)c5ccc2[nH]5)C=C4)C=C3)cc1
REMARK SMILES IDX 5 1 4 2 3 3 1 4 2 5 26 7 27 8 88 9 28 10 87 11 29 12 30 13
REMARK SMILES IDX 31 14 81 15 32 16 86 17 80 18 82 19 33 20 85 21 79 22 78 23
REMARK SMILES IDX 34 25 66 26 46 27 65 28 47 29 50 30 64 31 83 32 48 33 49 34
REMARK SMILES IDX 63 36 84 37 51 38 35 39 36 40 44 41 37 42 38 43 42 44 45 45
REMARK SMILES IDX 39 46 40 47 43 48 41 49 67 50 68 51 76 52 69 53 70 54 74 55
REMARK SMILES IDX 77 56 71 57 72 58 75 59 73 60 52 61 53 62 61 63 54 64 55 65
REMARK SMILES IDX 59 66 62 67 56 68 57 69 60 70 58 71 6 72 7 73 8 74 9 76
REMARK SMILES IDX 10 77 11 78 25 79 12 80 13 81 14 82 15 83 16 84 17 85 23 86
REMARK SMILES IDX 18 87 19 88 22 89 24 90 20 91 21 92
REMARK H PARENT 3 6 82 24 50 35 7 75
REMARK Flexibility Score: inf
ROOT
ATOM      1  C   UNL A   1      31.449  31.982  26.475  1.00  0.00     0.042 C 
ENDROOT
BRANCH   1   2
ATOM      2  C   UNL A   1      32.710  32.609  27.050  1.00  0.00     0.118 C 
BRANCH   2   3
ATOM      3  N   UNL A   1      32.475  33.954  27.563  1.00  0.00    -0.352 N 
ATOM      4  O   UNL A   1      32.585  35.655  29.036  1.00  0.00    -0.269 OA
ATOM      5  C   UNL A   1      33.071  34.611  28.612  1.00  0.00     0.251 C 
ATOM      6  H   UNL A   1      31.784  34.468  27.086  1.00  0.00     0.163 HD
BRANCH   5   7
ATOM      7  C   UNL A   1      34.295  34.062  29.229  1.00  0.00     0.039 A 
ATOM      8  C   UNL A   1      34.205  33.081  30.217  1.00  0.00     0.014 A 
ATOM      9  C   UNL A   1      35.551  34.503  28.797  1.00  0.00     0.014 A 
ATOM     10  C   UNL A   1      35.345  32.665  30.884  1.00  0.00     0.010 A 
ATOM     11  C   UNL A   1      36.710  33.991  29.389  1.00  0.00     0.010 A 
ATOM     12  C   UNL A   1      36.615  33.085  30.454  1.00  0.00    -0.014 A 
BRANCH  12  13
ATOM     13  C   UNL A   1      37.805  32.464  31.087  1.00  0.00     0.031 A 
ATOM     14  C   UNL A   1      38.226  32.809  32.486  1.00  0.00     0.074 A 
ATOM     15  C   UNL A   1      38.459  31.511  30.392  1.00  0.00     0.049 A 
ATOM     16  N   UNL A   1      39.190  32.289  33.204  1.00  0.00    -0.248 NA
ATOM     17  C   UNL A   1      37.481  33.878  33.168  1.00  0.00     0.031 C 
ATOM     18  C   UNL A   1      38.148  31.118  29.014  1.00  0.00     0.029 A 
ATOM     19  N   UNL A   1      39.481  30.673  30.751  1.00  0.00    -0.354 N 
ATOM     20  C   UNL A   1      39.177  32.971  34.412  1.00  0.00     0.074 A 
ATOM     21  C   UNL A   1      38.126  33.962  34.324  1.00  0.00     0.031 C 
ATOM     22  C   UNL A   1      38.905  30.067  28.673  1.00  0.00     0.029 A 
ATOM     23  C   UNL A   1      39.805  29.759  29.778  1.00  0.00     0.049 A 
ATOM     24  H   UNL A   1      39.938  30.720  31.621  1.00  0.00     0.167 HD
ATOM     25  C   UNL A   1      39.965  32.775  35.496  1.00  0.00     0.037 A 
ATOM     26  C   UNL A   1      40.731  28.784  29.769  1.00  0.00     0.037 A 
ATOM     27  C   UNL A   1      41.002  31.775  35.577  1.00  0.00     0.049 A 
ATOM     28  C   UNL A   1      41.580  28.588  30.990  1.00  0.00     0.074 A 
ATOM     29  C   UNL A   1      41.854  31.495  36.631  1.00  0.00     0.029 A 
ATOM     30  N   UNL A   1      41.320  30.885  34.561  1.00  0.00    -0.354 N 
ATOM     31  N   UNL A   1      41.547  29.233  32.129  1.00  0.00    -0.248 NA
ATOM     32  C   UNL A   1      42.597  27.533  30.922  1.00  0.00     0.031 C 
ATOM     33  C   UNL A   1      42.711  30.459  36.241  1.00  0.00     0.029 A 
ATOM     34  C   UNL A   1      42.364  30.064  34.960  1.00  0.00     0.049 A 
ATOM     35  H   UNL A   1      40.872  30.843  33.685  1.00  0.00     0.167 HD
ATOM     36  C   UNL A   1      42.539  28.668  32.914  1.00  0.00     0.074 A 
ATOM     37  C   UNL A   1      43.126  27.596  32.136  1.00  0.00     0.031 C 
ATOM     38  C   UNL A   1      42.940  29.012  34.162  1.00  0.00     0.037 A 
BRANCH  25  39
ATOM     39  C   UNL A   1      39.751  33.663  36.688  1.00  0.00     0.064 A 
ATOM     40  C   UNL A   1      40.358  34.925  36.781  1.00  0.00     0.173 A 
ATOM     41  C   UNL A   1      38.877  33.278  37.716  1.00  0.00     0.173 A 
ATOM     42  F   UNL A   1      41.210  35.335  35.829  1.00  0.00    -0.203 F 
ATOM     43  C   UNL A   1      40.107  35.762  37.865  1.00  0.00     0.198 A 
ATOM     44  C   UNL A   1      38.610  34.128  38.786  1.00  0.00     0.198 A 
ATOM     45  F   UNL A   1      38.266  32.084  37.672  1.00  0.00    -0.203 F 
ATOM     46  F   UNL A   1      40.718  36.952  37.946  1.00  0.00    -0.200 F 
ATOM     47  C   UNL A   1      39.227  35.367  38.861  1.00  0.00     0.200 A 
ATOM     48  F   UNL A   1      37.748  33.750  39.741  1.00  0.00    -0.200 F 
ATOM     49  F   UNL A   1      38.974  36.181  39.896  1.00  0.00    -0.200 F 
ENDBRANCH  25  39
BRANCH  26  50
ATOM     50  C   UNL A   1      40.905  27.938  28.559  1.00  0.00     0.064 A 
ATOM     51  C   UNL A   1      40.221  26.725  28.415  1.00  0.00     0.173 A 
ATOM     52  C   UNL A   1      41.758  28.335  27.517  1.00  0.00     0.173 A 
ATOM     53  F   UNL A   1      39.407  26.294  29.391  1.00  0.00    -0.203 F 
ATOM     54  C   UNL A   1      40.397  25.931  27.284  1.00  0.00     0.198 A 
ATOM     55  C   UNL A   1      41.905  27.557  26.372  1.00  0.00     0.198 A 
ATOM     56  F   UNL A   1      42.430  29.493  27.603  1.00  0.00    -0.203 F 
ATOM     57  F   UNL A   1      39.766  24.752  27.192  1.00  0.00    -0.200 F 
ATOM     58  C   UNL A   1      41.233  26.351  26.261  1.00  0.00     0.200 A 
ATOM     59  F   UNL A   1      42.698  27.979  25.378  1.00  0.00    -0.200 F 
ATOM     60  F   UNL A   1      41.395  25.590  25.169  1.00  0.00    -0.200 F 
ENDBRANCH  26  50
BRANCH  38  61
ATOM     61  C   UNL A   1      44.067  28.215  34.747  1.00  0.00     0.064 A 
ATOM     62  C   UNL A   1      43.828  27.037  35.470  1.00  0.00     0.173 A 
ATOM     63  C   UNL A   1      45.395  28.636  34.589  1.00  0.00     0.173 A 
ATOM     64  F   UNL A   1      42.573  26.606  35.663  1.00  0.00    -0.203 F 
ATOM     65  C   UNL A   1      44.879  26.326  36.044  1.00  0.00     0.198 A 
ATOM     66  C   UNL A   1      46.445  27.907  35.141  1.00  0.00     0.198 A 
ATOM     67  F   UNL A   1      45.675  29.754  33.904  1.00  0.00    -0.203 F 
ATOM     68  F   UNL A   1      44.623  25.236  36.780  1.00  0.00    -0.200 F 
ATOM     69  C   UNL A   1      46.185  26.759  35.876  1.00  0.00     0.200 A 
ATOM     70  F   UNL A   1      47.708  28.321  34.971  1.00  0.00    -0.200 F 
ATOM     71  F   UNL A   1      47.194  26.077  36.434  1.00  0.00    -0.200 F 
ENDBRANCH  38  61
ENDBRANCH  12  13
ENDBRANCH   5   7
ENDBRANCH   2   3
ENDBRANCH   1   2
BRANCH   1  72
ATOM     72  C   UNL A   1      31.668  30.548  26.023  1.00  0.00     0.117 C 
BRANCH  72  73
ATOM     73  N   UNL A   1      31.661  29.630  27.146  1.00  0.00    -0.356 N 
ATOM     74  C   UNL A   1      31.605  28.281  27.241  1.00  0.00     0.224 C 
ATOM     75  H   UNL A   1      31.704  30.081  28.020  1.00  0.00     0.163 HD
ATOM     76  O   UNL A   1      31.427  27.832  28.380  1.00  0.00    -0.275 OA
BRANCH  74  77
ATOM     77  C   UNL A   1      31.871  27.310  26.102  1.00  0.00     0.099 C 
ATOM     78  C   UNL A   1      30.614  27.066  25.268  1.00  0.00     0.037 C 
ATOM     79  C   UNL A   1      32.398  25.922  26.413  1.00  0.00     0.133 C 
ATOM     80  C   UNL A   1      30.092  25.722  25.740  1.00  0.00     0.120 C 
ATOM     81  N   UNL A   1      31.271  25.016  26.228  1.00  0.00    -0.338 N 
BRANCH  81  82
ATOM     82  C   UNL A   1      31.372  23.697  26.638  1.00  0.00     0.259 C 
ATOM     83  O   UNL A   1      30.490  23.132  27.279  1.00  0.00    -0.269 OA
BRANCH  82  84
ATOM     84  C   UNL A   1      32.554  22.917  26.254  1.00  0.00     0.111 A 
ATOM     85  C   UNL A   1      33.424  22.407  27.211  1.00  0.00     0.140 A 
ATOM     86  C   UNL A   1      32.772  22.619  24.911  1.00  0.00     0.140 A 
ATOM     87  F   UNL A   1      33.218  22.630  28.517  1.00  0.00    -0.206 F 
ATOM     88  C   UNL A   1      34.534  21.653  26.837  1.00  0.00     0.056 A 
ATOM     89  C   UNL A   1      33.866  21.850  24.520  1.00  0.00     0.056 A 
ATOM     90  F   UNL A   1      31.951  23.089  23.960  1.00  0.00    -0.206 F 
ATOM     91  C   UNL A   1      34.750  21.378  25.488  1.00  0.00     0.023 A 
ATOM     92  Br  UNL A   1      36.251  20.354  24.971  1.00  0.00    -0.051 Br
ENDBRANCH  82  84
ENDBRANCH  81  82
ENDBRANCH  74  77
ENDBRANCH  72  73
ENDBRANCH   1  72
TORSDOF 12
ENDMDL
MODEL 3
REMARK VINA RESULT:     -12.6      2.219      3.139
REMARK SMILES O=C(NCCCNC(=O)[C@@H]1CCN(C(=O)c2c(F)cc(Br)cc2F)C1)c1ccc(-c2c3nc(c(-c4c(F)c(F)c(F)c(F)c4F)c4ccc([nH]4)c(-c4c(F)c(F)c(F)c(F)c4F)c4nc(c(-c5c(F)c(F)c(F)c(F)c5F)c5ccc2[nH]5)C=C4)C=C3)cc1
REMARK SMILES IDX 5 1 4 2 3 3 1 4 2 5 26 7 27 8 88 9 28 10 87 11 29 12 30 13
REMARK SMILES IDX 31 14 81 15 32 16 86 17 80 18 82 19 33 20 85 21 79 22 78 23
REMARK SMILES IDX 34 25 66 26 46 27 65 28 47 29 50 30 64 31 83 32 48 33 49 34
REMARK SMILES IDX 63 36 84 37 51 38 35 39 36 40 44 41 37 42 38 43 42 44 45 45
REMARK SMILES IDX 39 46 40 47 43 48 41 49 67 50 68 51 76 52 69 53 70 54 74 55
REMARK SMILES IDX 77 56 71 57 72 58 75 59 73 60 52 61 53 62 61 63 54 64 55 65
REMARK SMILES IDX 59 66 62 67 56 68 57 69 60 70 58 71 6 72 7 73 8 74 9 76
REMARK SMILES IDX 10 77 11 78 25 79 12 80 13 81 14 82 15 83 16 84 17 85 23 86
REMARK SMILES IDX 18 87 19 88 22 89 24 90 20 91 21 92
REMARK H PARENT 3 6 82 24 50 35 7 75
REMARK Flexibility Score: inf
ROOT
ATOM      1  C   UNL A   1      31.401  31.847  26.538  1.00  0.00     0.042 C 
ENDROOT
BRANCH   1   2
ATOM      2  C   UNL A   1      32.688  32.560  26.923  1.00  0.00     0.118 C 
BRANCH   2   3
ATOM      3  N   UNL A   1      32.442  33.894  27.461  1.00  0.00    -0.352 N 
ATOM      4  O   UNL A   1      32.530  35.565  28.969  1.00  0.00    -0.269 OA
ATOM      5  C   UNL A   1      33.025  34.532  28.528  1.00  0.00     0.251 C 
ATOM      6  H   UNL A   1      31.753  34.415  26.988  1.00  0.00     0.163 HD
BRANCH   5   7
ATOM      7  C   UNL A   1      34.246  33.976  29.146  1.00  0.00     0.039 A 
ATOM      8  C   UNL A   1      34.160  32.898  30.028  1.00  0.00     0.014 A 
ATOM      9  C   UNL A   1      35.497  34.510  28.818  1.00  0.00     0.014 A 
ATOM     10  C   UNL A   1      35.289  32.466  30.703  1.00  0.00     0.010 A 
ATOM     11  C   UNL A   1      36.653  33.992  29.411  1.00  0.00     0.010 A 
ATOM     12  C   UNL A   1      36.555  32.980  30.376  1.00  0.00    -0.014 A 
BRANCH  12  13
ATOM     13  C   UNL A   1      37.745  32.350  31.000  1.00  0.00     0.031 A 
ATOM     14  C   UNL A   1      38.166  32.675  32.403  1.00  0.00     0.074 A 
ATOM     15  C   UNL A   1      38.399  31.407  30.292  1.00  0.00     0.049 A 
ATOM     16  N   UNL A   1      39.130  32.144  33.114  1.00  0.00    -0.248 NA
ATOM     17  C   UNL A   1      37.421  33.734  33.101  1.00  0.00     0.031 C 
ATOM     18  C   UNL A   1      38.087  31.033  28.908  1.00  0.00     0.029 A 
ATOM     19  N   UNL A   1      39.420  30.563  30.638  1.00  0.00    -0.354 N 
ATOM     20  C   UNL A   1      39.116  32.809  34.333  1.00  0.00     0.074 A 
ATOM     21  C   UNL A   1      38.066  33.802  34.258  1.00  0.00     0.031 C 
ATOM     22  C   UNL A   1      38.844  29.988  28.552  1.00  0.00     0.029 A 
ATOM     23  C   UNL A   1      39.744  29.663  29.652  1.00  0.00     0.049 A 
ATOM     24  H   UNL A   1      39.877  30.598  31.510  1.00  0.00     0.167 HD
ATOM     25  C   UNL A   1      39.905  32.597  35.413  1.00  0.00     0.037 A 
ATOM     26  C   UNL A   1      40.670  28.688  29.630  1.00  0.00     0.037 A 
ATOM     27  C   UNL A   1      40.941  31.595  35.480  1.00  0.00     0.049 A 
ATOM     28  C   UNL A   1      41.519  28.474  30.847  1.00  0.00     0.074 A 
ATOM     29  C   UNL A   1      41.793  31.300  36.530  1.00  0.00     0.029 A 
ATOM     30  N   UNL A   1      41.259  30.720  34.451  1.00  0.00    -0.354 N 
ATOM     31  N   UNL A   1      41.486  29.103  31.996  1.00  0.00    -0.248 NA
ATOM     32  C   UNL A   1      42.535  27.420  30.765  1.00  0.00     0.031 C 
ATOM     33  C   UNL A   1      42.649  30.270  36.125  1.00  0.00     0.029 A 
ATOM     34  C   UNL A   1      42.303  29.893  34.838  1.00  0.00     0.049 A 
ATOM     35  H   UNL A   1      40.811  30.691  33.575  1.00  0.00     0.167 HD
ATOM     36  C   UNL A   1      42.477  28.526  32.773  1.00  0.00     0.074 A 
ATOM     37  C   UNL A   1      43.064  27.465  31.979  1.00  0.00     0.031 C 
ATOM     38  C   UNL A   1      42.879  28.853  34.025  1.00  0.00     0.037 A 
BRANCH  25  39
ATOM     39  C   UNL A   1      39.691  33.468  36.618  1.00  0.00     0.064 A 
ATOM     40  C   UNL A   1      40.325  34.713  36.744  1.00  0.00     0.173 A 
ATOM     41  C   UNL A   1      38.791  33.085  37.624  1.00  0.00     0.173 A 
ATOM     42  F   UNL A   1      41.203  35.121  35.815  1.00  0.00    -0.203 F 
ATOM     43  C   UNL A   1      40.075  35.537  37.839  1.00  0.00     0.198 A 
ATOM     44  C   UNL A   1      38.525  33.921  38.705  1.00  0.00     0.198 A 
ATOM     45  F   UNL A   1      38.153  31.907  37.547  1.00  0.00    -0.203 F 
ATOM     46  F   UNL A   1      40.712  36.710  37.953  1.00  0.00    -0.200 F 
ATOM     47  C   UNL A   1      39.169  35.144  38.813  1.00  0.00     0.200 A 
ATOM     48  F   UNL A   1      37.639  33.546  39.638  1.00  0.00    -0.200 F 
ATOM     49  F   UNL A   1      38.917  35.945  39.859  1.00  0.00    -0.200 F 
ENDBRANCH  25  39
BRANCH  26  50
ATOM     50  C   UNL A   1      40.844  27.860  28.408  1.00  0.00     0.064 A 
ATOM     51  C   UNL A   1      41.681  28.271  27.364  1.00  0.00     0.173 A 
ATOM     52  C   UNL A   1      40.178  26.632  28.267  1.00  0.00     0.173 A 
ATOM     53  F   UNL A   1      42.326  29.445  27.444  1.00  0.00    -0.203 F 
ATOM     54  C   UNL A   1      41.832  27.496  26.216  1.00  0.00     0.198 A 
ATOM     55  C   UNL A   1      40.358  25.842  27.135  1.00  0.00     0.198 A 
ATOM     56  F   UNL A   1      39.371  26.189  29.242  1.00  0.00    -0.203 F 
ATOM     57  F   UNL A   1      42.602  27.935  25.211  1.00  0.00    -0.200 F 
ATOM     58  C   UNL A   1      41.176  26.279  26.106  1.00  0.00     0.200 A 
ATOM     59  F   UNL A   1      39.737  24.658  27.043  1.00  0.00    -0.200 F 
ATOM     60  F   UNL A   1      41.328  25.531  25.004  1.00  0.00    -0.200 F 
ENDBRANCH  26  50
BRANCH  38  61
ATOM     61  C   UNL A   1      44.006  28.047  34.600  1.00  0.00     0.064 A 
ATOM     62  C   UNL A   1      43.768  26.842  35.278  1.00  0.00     0.173 A 
ATOM     63  C   UNL A   1      45.331  28.485  34.475  1.00  0.00     0.173 A 
ATOM     64  F   UNL A   1      42.515  26.393  35.438  1.00  0.00    -0.203 F 
ATOM     65  C   UNL A   1      44.818  26.123  35.842  1.00  0.00     0.198 A 
ATOM     66  C   UNL A   1      46.380  27.748  35.016  1.00  0.00     0.198 A 
ATOM     67  F   UNL A   1      45.609  29.630  33.833  1.00  0.00    -0.203 F 
ATOM     68  F   UNL A   1      44.563  25.005  36.537  1.00  0.00    -0.200 F 
ATOM     69  C   UNL A   1      46.122  26.574  35.708  1.00  0.00     0.200 A 
ATOM     70  F   UNL A   1      47.642  28.181  34.879  1.00  0.00    -0.200 F 
ATOM     71  F   UNL A   1      47.130  25.883  36.257  1.00  0.00    -0.200 F 
ENDBRANCH  38  61
ENDBRANCH  12  13
ENDBRANCH   5   7
ENDBRANCH   2   3
ENDBRANCH   1   2
BRANCH   1  72
ATOM     72  C   UNL A   1      31.599  30.352  26.355  1.00  0.00     0.117 C 
BRANCH  72  73
ATOM     73  N   UNL A   1      32.091  30.040  25.026  1.00  0.00    -0.356 N 
ATOM     74  C   UNL A   1      32.433  28.883  24.412  1.00  0.00     0.224 C 
ATOM     75  H   UNL A   1      32.201  30.833  24.453  1.00  0.00     0.163 HD
ATOM     76  O   UNL A   1      32.999  29.005  23.319  1.00  0.00    -0.275 OA
BRANCH  74  77
ATOM     77  C   UNL A   1      32.061  27.490  24.894  1.00  0.00     0.099 C 
ATOM     78  C   UNL A   1      33.005  27.008  25.995  1.00  0.00     0.037 C 
ATOM     79  C   UNL A   1      32.013  26.345  23.902  1.00  0.00     0.133 C 
ATOM     80  C   UNL A   1      33.959  26.058  25.294  1.00  0.00     0.120 C 
ATOM     81  N   UNL A   1      33.207  25.546  24.155  1.00  0.00    -0.338 N 
BRANCH  81  82
ATOM     82  C   UNL A   1      33.565  24.542  23.273  1.00  0.00     0.259 C 
ATOM     83  O   UNL A   1      34.027  24.770  22.159  1.00  0.00    -0.269 OA
BRANCH  82  84
ATOM     84  C   UNL A   1      33.437  23.141  23.693  1.00  0.00     0.111 A 
ATOM     85  C   UNL A   1      32.262  22.428  23.482  1.00  0.00     0.140 A 
ATOM     86  C   UNL A   1      34.536  22.490  24.248  1.00  0.00     0.140 A 
ATOM     87  F   UNL A   1      31.200  23.008  22.904  1.00  0.00    -0.206 F 
ATOM     88  C   UNL A   1      32.157  21.094  23.870  1.00  0.00     0.056 A 
ATOM     89  C   UNL A   1      34.455  21.150  24.624  1.00  0.00     0.056 A 
ATOM     90  F   UNL A   1      35.688  23.143  24.462  1.00  0.00    -0.206 F 
ATOM     91  C   UNL A   1      33.259  20.460  24.440  1.00  0.00     0.023 A 
ATOM     92  Br  UNL A   1      33.128  18.651  24.966  1.00  0.00    -0.051 Br
ENDBRANCH  82  84
ENDBRANCH  81  82
ENDBRANCH  74  77
ENDBRANCH  72  73
ENDBRANCH   1  72
TORSDOF 12
ENDMDL
