MODEL 1
REMARK VINA RESULT:     -13.2      0.000      0.000
REMARK SMILES O=C(NCCCNC(=O)c1nccnc1C(=O)Nc1n[nH]c2ncccc12)c1ccc(-c2c3nc(c(-c4c(F)c(F)c(F)c(F)c4F)c4ccc([nH]4)c(-c4c(F)c(F)c(F)c(F)c4F)c4nc(c(-c5c(F)c(F)c(F)c(F)c5F)c5ccc2[nH]5)C=C4)C=C3)cc1
REMARK SMILES IDX 5 1 4 2 3 3 1 4 2 5 28 7 29 8 90 9 30 10 89 11 31 12 32 13
REMARK SMILES IDX 33 14 83 15 34 16 88 17 82 18 84 19 35 20 87 21 81 22 80 23
REMARK SMILES IDX 36 25 68 26 48 27 67 28 49 29 52 30 66 31 85 32 50 33 51 34
REMARK SMILES IDX 65 36 86 37 53 38 37 39 38 40 46 41 39 42 40 43 44 44 47 45
REMARK SMILES IDX 41 46 42 47 45 48 43 49 69 50 70 51 78 52 71 53 72 54 76 55
REMARK SMILES IDX 79 56 73 57 74 58 77 59 75 60 54 61 55 62 63 63 56 64 57 65
REMARK SMILES IDX 61 66 64 67 58 68 59 69 62 70 60 71 6 72 7 73 8 74 9 76
REMARK SMILES IDX 10 77 11 78 15 79 12 80 14 81 13 82 16 83 17 84 18 85 19 87
REMARK SMILES IDX 20 88 27 89 21 90 22 91 26 92 23 94 25 95 24 96
REMARK H PARENT 3 6 84 24 52 35 7 75 18 86 21 93
REMARK Flexibility Score: inf
ROOT
ATOM      1  C   UNL A   1      31.415  32.027  26.819  1.00  0.00     0.042 C 
ENDROOT
BRANCH   1   2
ATOM      2  C   UNL A   1      32.551  32.953  27.256  1.00  0.00     0.118 C 
BRANCH   2   3
ATOM      3  N   UNL A   1      32.217  34.290  27.698  1.00  0.00    -0.352 N 
ATOM      4  O   UNL A   1      32.606  36.224  28.817  1.00  0.00    -0.269 OA
ATOM      5  C   UNL A   1      32.948  35.084  28.569  1.00  0.00     0.251 C 
ATOM      6  H   UNL A   1      31.384  34.677  27.345  1.00  0.00     0.163 HD
BRANCH   5   7
ATOM      7  C   UNL A   1      34.143  34.513  29.244  1.00  0.00     0.039 A 
ATOM      8  C   UNL A   1      35.421  34.629  28.687  1.00  0.00     0.014 A 
ATOM      9  C   UNL A   1      33.971  33.858  30.465  1.00  0.00     0.014 A 
ATOM     10  C   UNL A   1      36.511  34.006  29.308  1.00  0.00     0.010 A 
ATOM     11  C   UNL A   1      35.067  33.266  31.102  1.00  0.00     0.010 A 
ATOM     12  C   UNL A   1      36.345  33.308  30.517  1.00  0.00    -0.014 A 
BRANCH  12  13
ATOM     13  C   UNL A   1      37.500  32.639  31.182  1.00  0.00     0.031 A 
ATOM     14  C   UNL A   1      38.234  31.511  30.505  1.00  0.00     0.074 A 
ATOM     15  C   UNL A   1      37.879  33.025  32.414  1.00  0.00     0.049 A 
ATOM     16  N   UNL A   1      39.234  30.784  30.946  1.00  0.00    -0.248 NA
ATOM     17  C   UNL A   1      37.778  31.145  29.157  1.00  0.00     0.031 C 
ATOM     18  C   UNL A   1      37.254  34.094  33.190  1.00  0.00     0.029 A 
ATOM     19  N   UNL A   1      38.878  32.558  33.235  1.00  0.00    -0.354 N 
ATOM     20  C   UNL A   1      39.513  29.866  29.941  1.00  0.00     0.074 A 
ATOM     21  C   UNL A   1      38.558  30.109  28.878  1.00  0.00     0.031 C 
ATOM     22  C   UNL A   1      37.893  34.216  34.364  1.00  0.00     0.029 A 
ATOM     23  C   UNL A   1      38.944  33.205  34.444  1.00  0.00     0.049 A 
ATOM     24  H   UNL A   1      39.488  31.829  32.979  1.00  0.00     0.167 HD
ATOM     25  C   UNL A   1      40.477  28.912  29.903  1.00  0.00     0.037 A 
ATOM     26  C   UNL A   1      39.746  32.999  35.507  1.00  0.00     0.037 A 
ATOM     27  C   UNL A   1      41.432  28.672  30.958  1.00  0.00     0.049 A 
ATOM     28  C   UNL A   1      40.784  31.912  35.457  1.00  0.00     0.074 A 
ATOM     29  C   UNL A   1      42.473  27.758  30.990  1.00  0.00     0.029 A 
ATOM     30  N   UNL A   1      41.454  29.338  32.174  1.00  0.00    -0.354 N 
ATOM     31  N   UNL A   1      41.069  31.082  34.482  1.00  0.00    -0.248 NA
ATOM     32  C   UNL A   1      41.613  31.734  36.657  1.00  0.00     0.031 C 
ATOM     33  C   UNL A   1      43.090  27.834  32.244  1.00  0.00     0.029 A 
ATOM     34  C   UNL A   1      42.472  28.838  32.974  1.00  0.00     0.049 A 
ATOM     35  H   UNL A   1      40.837  30.061  32.433  1.00  0.00     0.167 HD
ATOM     36  C   UNL A   1      42.128  30.308  34.937  1.00  0.00     0.074 A 
ATOM     37  C   UNL A   1      42.441  30.772  36.273  1.00  0.00     0.031 C 
ATOM     38  C   UNL A   1      42.784  29.306  34.300  1.00  0.00     0.037 A 
BRANCH  25  39
ATOM     39  C   UNL A   1      40.534  28.030  28.686  1.00  0.00     0.064 A 
ATOM     40  C   UNL A   1      41.296  28.372  27.558  1.00  0.00     0.173 A 
ATOM     41  C   UNL A   1      39.838  26.811  28.659  1.00  0.00     0.173 A 
ATOM     42  F   UNL A   1      41.976  29.527  27.528  1.00  0.00    -0.203 F 
ATOM     43  C   UNL A   1      41.327  27.547  26.435  1.00  0.00     0.198 A 
ATOM     44  C   UNL A   1      39.896  25.974  27.547  1.00  0.00     0.198 A 
ATOM     45  F   UNL A   1      39.103  26.427  29.713  1.00  0.00    -0.203 F 
ATOM     46  F   UNL A   1      42.015  27.924  25.348  1.00  0.00    -0.200 F 
ATOM     47  C   UNL A   1      40.632  26.347  26.432  1.00  0.00     0.200 A 
ATOM     48  F   UNL A   1      39.236  24.808  27.552  1.00  0.00    -0.200 F 
ATOM     49  F   UNL A   1      40.662  25.557  25.351  1.00  0.00    -0.200 F 
ENDBRANCH  25  39
BRANCH  26  50
ATOM     50  C   UNL A   1      39.610  33.865  36.707  1.00  0.00     0.064 A 
ATOM     51  C   UNL A   1      40.257  35.107  36.771  1.00  0.00     0.173 A 
ATOM     52  C   UNL A   1      38.821  33.482  37.800  1.00  0.00     0.173 A 
ATOM     53  F   UNL A   1      41.044  35.504  35.760  1.00  0.00    -0.203 F 
ATOM     54  C   UNL A   1      40.126  35.929  37.888  1.00  0.00     0.198 A 
ATOM     55  C   UNL A   1      38.668  34.317  38.904  1.00  0.00     0.198 A 
ATOM     56  F   UNL A   1      38.182  32.303  37.786  1.00  0.00    -0.203 F 
ATOM     57  F   UNL A   1      40.784  37.095  37.939  1.00  0.00    -0.200 F 
ATOM     58  C   UNL A   1      39.324  35.538  38.949  1.00  0.00     0.200 A 
ATOM     59  F   UNL A   1      37.881  33.942  39.922  1.00  0.00    -0.200 F 
ATOM     60  F   UNL A   1      39.188  36.334  40.018  1.00  0.00    -0.200 F 
ENDBRANCH  26  50
BRANCH  38  61
ATOM     61  C   UNL A   1      43.941  28.671  35.020  1.00  0.00     0.064 A 
ATOM     62  C   UNL A   1      43.777  27.539  35.833  1.00  0.00     0.173 A 
ATOM     63  C   UNL A   1      45.236  29.190  34.873  1.00  0.00     0.173 A 
ATOM     64  F   UNL A   1      42.557  27.013  36.021  1.00  0.00    -0.203 F 
ATOM     65  C   UNL A   1      44.863  26.968  36.494  1.00  0.00     0.198 A 
ATOM     66  C   UNL A   1      46.324  28.599  35.510  1.00  0.00     0.198 A 
ATOM     67  F   UNL A   1      45.450  30.268  34.104  1.00  0.00    -0.203 F 
ATOM     68  F   UNL A   1      44.675  25.920  37.307  1.00  0.00    -0.200 F 
ATOM     69  C   UNL A   1      46.135  27.494  36.327  1.00  0.00     0.200 A 
ATOM     70  F   UNL A   1      47.555  29.101  35.338  1.00  0.00    -0.200 F 
ATOM     71  F   UNL A   1      47.179  26.941  36.961  1.00  0.00    -0.200 F 
ENDBRANCH  38  61
ENDBRANCH  12  13
ENDBRANCH   5   7
ENDBRANCH   2   3
ENDBRANCH   1   2
BRANCH   1  72
ATOM     72  C   UNL A   1      31.737  30.709  26.115  1.00  0.00     0.118 C 
BRANCH  72  73
ATOM     73  N   UNL A   1      32.762  29.866  26.714  1.00  0.00    -0.351 N 
ATOM     74  C   UNL A   1      33.632  28.958  26.120  1.00  0.00     0.272 C 
ATOM     75  H   UNL A   1      32.855  29.953  27.690  1.00  0.00     0.163 HD
ATOM     76  O   UNL A   1      34.757  28.841  26.600  1.00  0.00    -0.267 OA
BRANCH  74  77
ATOM     77  C   UNL A   1      33.300  28.178  24.900  1.00  0.00     0.159 A 
ATOM     78  N   UNL A   1      33.886  28.681  23.766  1.00  0.00    -0.247 NA
ATOM     79  C   UNL A   1      32.575  26.976  24.880  1.00  0.00     0.159 A 
ATOM     80  C   UNL A   1      33.726  27.965  22.633  1.00  0.00     0.132 A 
ATOM     81  N   UNL A   1      32.416  26.285  23.702  1.00  0.00    -0.247 NA
ATOM     82  C   UNL A   1      33.005  26.792  22.601  1.00  0.00     0.132 A 
BRANCH  79  83
ATOM     83  C   UNL A   1      31.747  26.346  25.975  1.00  0.00     0.277 C 
ATOM     84  O   UNL A   1      31.251  27.066  26.843  1.00  0.00    -0.267 OA
ATOM     85  N   UNL A   1      31.426  25.017  25.903  1.00  0.00    -0.303 N 
ATOM     86  H   UNL A   1      30.686  24.736  25.317  1.00  0.00     0.172 HD
BRANCH  85  87
ATOM     87  C   UNL A   1      32.104  24.062  26.624  1.00  0.00     0.164 A 
ATOM     88  N   UNL A   1      31.461  23.320  27.532  1.00  0.00    -0.155 NA
ATOM     89  C   UNL A   1      33.446  23.639  26.440  1.00  0.00     0.063 A 
ATOM     90  N   UNL A   1      32.292  22.264  27.695  1.00  0.00    -0.259 N 
ATOM     91  C   UNL A   1      33.479  22.387  27.033  1.00  0.00     0.157 A 
ATOM     92  C   UNL A   1      34.588  24.073  25.752  1.00  0.00     0.017 A 
ATOM     93  H   UNL A   1      32.061  21.478  28.242  1.00  0.00     0.192 HD
ATOM     94  N   UNL A   1      34.458  21.468  26.941  1.00  0.00    -0.237 NA
ATOM     95  C   UNL A   1      35.647  23.178  25.662  1.00  0.00     0.021 A 
ATOM     96  C   UNL A   1      35.513  21.909  26.216  1.00  0.00     0.113 A 
ENDBRANCH  85  87
ENDBRANCH  79  83
ENDBRANCH  74  77
ENDBRANCH  72  73
ENDBRANCH   1  72
TORSDOF 12
ENDMDL
MODEL 2
REMARK VINA RESULT:     -13.2      0.079      1.585
REMARK SMILES O=C(NCCCNC(=O)c1nccnc1C(=O)Nc1n[nH]c2ncccc12)c1ccc(-c2c3nc(c(-c4c(F)c(F)c(F)c(F)c4F)c4ccc([nH]4)c(-c4c(F)c(F)c(F)c(F)c4F)c4nc(c(-c5c(F)c(F)c(F)c(F)c5F)c5ccc2[nH]5)C=C4)C=C3)cc1
REMARK SMILES IDX 5 1 4 2 3 3 1 4 2 5 28 7 29 8 90 9 30 10 89 11 31 12 32 13
REMARK SMILES IDX 33 14 83 15 34 16 88 17 82 18 84 19 35 20 87 21 81 22 80 23
REMARK SMILES IDX 36 25 68 26 48 27 67 28 49 29 52 30 66 31 85 32 50 33 51 34
REMARK SMILES IDX 65 36 86 37 53 38 37 39 38 40 46 41 39 42 40 43 44 44 47 45
REMARK SMILES IDX 41 46 42 47 45 48 43 49 69 50 70 51 78 52 71 53 72 54 76 55
REMARK SMILES IDX 79 56 73 57 74 58 77 59 75 60 54 61 55 62 63 63 56 64 57 65
REMARK SMILES IDX 61 66 64 67 58 68 59 69 62 70 60 71 6 72 7 73 8 74 9 76
REMARK SMILES IDX 10 77 11 78 15 79 12 80 14 81 13 82 16 83 17 84 18 85 19 87
REMARK SMILES IDX 20 88 27 89 21 90 22 91 26 92 23 94 25 95 24 96
REMARK H PARENT 3 6 84 24 52 35 7 75 18 86 21 93
REMARK Flexibility Score: inf
ROOT
ATOM      1  C   UNL A   1      31.405  31.972  26.840  1.00  0.00     0.042 C 
ENDROOT
BRANCH   1   2
ATOM      2  C   UNL A   1      32.536  32.921  27.240  1.00  0.00     0.118 C 
BRANCH   2   3
ATOM      3  N   UNL A   1      32.191  34.256  27.680  1.00  0.00    -0.352 N 
ATOM      4  O   UNL A   1      32.558  36.191  28.803  1.00  0.00    -0.269 OA
ATOM      5  C   UNL A   1      32.909  35.054  28.558  1.00  0.00     0.251 C 
ATOM      6  H   UNL A   1      31.359  34.638  27.319  1.00  0.00     0.163 HD
BRANCH   5   7
ATOM      7  C   UNL A   1      34.102  34.489  29.243  1.00  0.00     0.039 A 
ATOM      8  C   UNL A   1      35.389  34.660  28.726  1.00  0.00     0.014 A 
ATOM      9  C   UNL A   1      33.915  33.784  30.434  1.00  0.00     0.014 A 
ATOM     10  C   UNL A   1      36.479  34.042  29.353  1.00  0.00     0.010 A 
ATOM     11  C   UNL A   1      35.010  33.197  31.078  1.00  0.00     0.010 A 
ATOM     12  C   UNL A   1      36.301  33.294  30.530  1.00  0.00    -0.014 A 
BRANCH  12  13
ATOM     13  C   UNL A   1      37.456  32.631  31.201  1.00  0.00     0.031 A 
ATOM     14  C   UNL A   1      38.196  31.503  30.530  1.00  0.00     0.074 A 
ATOM     15  C   UNL A   1      37.830  33.023  32.433  1.00  0.00     0.049 A 
ATOM     16  N   UNL A   1      39.196  30.781  30.976  1.00  0.00    -0.248 NA
ATOM     17  C   UNL A   1      37.745  31.131  29.182  1.00  0.00     0.031 C 
ATOM     18  C   UNL A   1      37.200  34.093  33.202  1.00  0.00     0.029 A 
ATOM     19  N   UNL A   1      38.828  32.561  33.258  1.00  0.00    -0.354 N 
ATOM     20  C   UNL A   1      39.481  29.860  29.975  1.00  0.00     0.074 A 
ATOM     21  C   UNL A   1      38.528  30.096  28.909  1.00  0.00     0.031 C 
ATOM     22  C   UNL A   1      37.834  34.220  34.379  1.00  0.00     0.029 A 
ATOM     23  C   UNL A   1      38.888  33.212  34.465  1.00  0.00     0.049 A 
ATOM     24  H   UNL A   1      39.441  31.833  33.007  1.00  0.00     0.167 HD
ATOM     25  C   UNL A   1      40.448  28.908  29.944  1.00  0.00     0.037 A 
ATOM     26  C   UNL A   1      39.687  33.013  35.531  1.00  0.00     0.037 A 
ATOM     27  C   UNL A   1      41.400  28.675  31.002  1.00  0.00     0.049 A 
ATOM     28  C   UNL A   1      40.729  31.928  35.488  1.00  0.00     0.074 A 
ATOM     29  C   UNL A   1      42.444  27.764  31.041  1.00  0.00     0.029 A 
ATOM     30  N   UNL A   1      41.417  29.346  32.216  1.00  0.00    -0.354 N 
ATOM     31  N   UNL A   1      41.020  31.096  34.517  1.00  0.00    -0.248 NA
ATOM     32  C   UNL A   1      41.555  31.757  36.691  1.00  0.00     0.031 C 
ATOM     33  C   UNL A   1      43.056  27.847  32.297  1.00  0.00     0.029 A 
ATOM     34  C   UNL A   1      42.434  28.851  33.021  1.00  0.00     0.049 A 
ATOM     35  H   UNL A   1      40.796  30.068  32.471  1.00  0.00     0.167 HD
ATOM     36  C   UNL A   1      42.080  30.327  34.978  1.00  0.00     0.074 A 
ATOM     37  C   UNL A   1      42.387  30.797  36.313  1.00  0.00     0.031 C 
ATOM     38  C   UNL A   1      42.740  29.325  34.347  1.00  0.00     0.037 A 
BRANCH  25  39
ATOM     39  C   UNL A   1      40.511  28.022  28.730  1.00  0.00     0.064 A 
ATOM     40  C   UNL A   1      41.285  28.357  27.608  1.00  0.00     0.173 A 
ATOM     41  C   UNL A   1      39.809  26.807  28.700  1.00  0.00     0.173 A 
ATOM     42  F   UNL A   1      41.971  29.509  27.580  1.00  0.00    -0.203 F 
ATOM     43  C   UNL A   1      41.322  27.528  26.488  1.00  0.00     0.198 A 
ATOM     44  C   UNL A   1      39.873  25.966  27.591  1.00  0.00     0.198 A 
ATOM     45  F   UNL A   1      39.064  26.430  29.749  1.00  0.00    -0.203 F 
ATOM     46  F   UNL A   1      42.020  27.899  25.405  1.00  0.00    -0.200 F 
ATOM     47  C   UNL A   1      40.620  26.332  26.483  1.00  0.00     0.200 A 
ATOM     48  F   UNL A   1      39.207  24.804  27.594  1.00  0.00    -0.200 F 
ATOM     49  F   UNL A   1      40.656  25.538  25.403  1.00  0.00    -0.200 F 
ENDBRANCH  25  39
BRANCH  26  50
ATOM     50  C   UNL A   1      39.546  33.882  36.728  1.00  0.00     0.064 A 
ATOM     51  C   UNL A   1      38.769  33.475  37.821  1.00  0.00     0.173 A 
ATOM     52  C   UNL A   1      40.194  35.122  36.813  1.00  0.00     0.173 A 
ATOM     53  F   UNL A   1      38.109  32.309  37.775  1.00  0.00    -0.203 F 
ATOM     54  C   UNL A   1      38.640  34.280  38.951  1.00  0.00     0.198 A 
ATOM     55  C   UNL A   1      40.087  35.912  37.954  1.00  0.00     0.198 A 
ATOM     56  F   UNL A   1      40.949  35.556  35.792  1.00  0.00    -0.203 F 
ATOM     57  F   UNL A   1      37.863  33.882  39.968  1.00  0.00    -0.200 F 
ATOM     58  C   UNL A   1      39.308  35.493  39.021  1.00  0.00     0.200 A 
ATOM     59  F   UNL A   1      40.745  37.079  38.024  1.00  0.00    -0.200 F 
ATOM     60  F   UNL A   1      39.193  36.261  40.113  1.00  0.00    -0.200 F 
ENDBRANCH  26  50
BRANCH  38  61
ATOM     61  C   UNL A   1      43.897  28.696  35.072  1.00  0.00     0.064 A 
ATOM     62  C   UNL A   1      45.203  29.195  34.960  1.00  0.00     0.173 A 
ATOM     63  C   UNL A   1      43.687  27.591  35.912  1.00  0.00     0.173 A 
ATOM     64  F   UNL A   1      45.460  30.239  34.158  1.00  0.00    -0.203 F 
ATOM     65  C   UNL A   1      46.261  28.593  35.639  1.00  0.00     0.198 A 
ATOM     66  C   UNL A   1      44.741  27.011  36.614  1.00  0.00     0.198 A 
ATOM     67  F   UNL A   1      42.457  27.076  36.059  1.00  0.00    -0.203 F 
ATOM     68  F   UNL A   1      47.508  29.055  35.477  1.00  0.00    -0.200 F 
ATOM     69  C   UNL A   1      46.028  27.507  36.470  1.00  0.00     0.200 A 
ATOM     70  F   UNL A   1      44.513  25.969  37.425  1.00  0.00    -0.200 F 
ATOM     71  F   UNL A   1      47.047  26.932  37.125  1.00  0.00    -0.200 F 
ENDBRANCH  38  61
ENDBRANCH  12  13
ENDBRANCH   5   7
ENDBRANCH   2   3
ENDBRANCH   1   2
BRANCH   1  72
ATOM     72  C   UNL A   1      31.729  30.670  26.110  1.00  0.00     0.118 C 
BRANCH  72  73
ATOM     73  N   UNL A   1      32.759  29.818  26.689  1.00  0.00    -0.351 N 
ATOM     74  C   UNL A   1      33.622  28.917  26.076  1.00  0.00     0.272 C 
ATOM     75  H   UNL A   1      32.860  29.892  27.665  1.00  0.00     0.163 HD
ATOM     76  O   UNL A   1      34.751  28.792  26.545  1.00  0.00    -0.267 OA
BRANCH  74  77
ATOM     77  C   UNL A   1      33.280  28.153  24.849  1.00  0.00     0.159 A 
ATOM     78  N   UNL A   1      33.864  28.664  23.717  1.00  0.00    -0.247 NA
ATOM     79  C   UNL A   1      32.545  26.957  24.819  1.00  0.00     0.159 A 
ATOM     80  C   UNL A   1      33.694  27.963  22.578  1.00  0.00     0.132 A 
ATOM     81  N   UNL A   1      32.377  26.280  23.634  1.00  0.00    -0.247 NA
ATOM     82  C   UNL A   1      32.963  26.795  22.536  1.00  0.00     0.132 A 
BRANCH  79  83
ATOM     83  C   UNL A   1      31.718  26.320  25.910  1.00  0.00     0.277 C 
ATOM     84  O   UNL A   1      31.191  27.039  26.760  1.00  0.00    -0.267 OA
ATOM     85  N   UNL A   1      31.433  24.982  25.852  1.00  0.00    -0.303 N 
ATOM     86  H   UNL A   1      30.709  24.674  25.260  1.00  0.00     0.172 HD
BRANCH  85  87
ATOM     87  C   UNL A   1      32.125  24.055  26.596  1.00  0.00     0.164 A 
ATOM     88  N   UNL A   1      31.494  23.334  27.530  1.00  0.00    -0.155 NA
ATOM     89  C   UNL A   1      33.470  23.640  26.416  1.00  0.00     0.063 A 
ATOM     90  N   UNL A   1      32.337  22.291  27.718  1.00  0.00    -0.259 N 
ATOM     91  C   UNL A   1      33.518  22.406  27.045  1.00  0.00     0.157 A 
ATOM     92  C   UNL A   1      34.603  24.065  25.708  1.00  0.00     0.017 A 
ATOM     93  H   UNL A   1      32.117  21.520  28.290  1.00  0.00     0.192 HD
ATOM     94  N   UNL A   1      34.506  21.494  26.973  1.00  0.00    -0.237 NA
ATOM     95  C   UNL A   1      35.670  23.177  25.637  1.00  0.00     0.021 A 
ATOM     96  C   UNL A   1      35.552  21.924  26.229  1.00  0.00     0.113 A 
ENDBRANCH  85  87
ENDBRANCH  79  83
ENDBRANCH  74  77
ENDBRANCH  72  73
ENDBRANCH   1  72
TORSDOF 12
ENDMDL
MODEL 3
REMARK VINA RESULT:     -13.2      0.082      1.941
REMARK SMILES O=C(NCCCNC(=O)c1nccnc1C(=O)Nc1n[nH]c2ncccc12)c1ccc(-c2c3nc(c(-c4c(F)c(F)c(F)c(F)c4F)c4ccc([nH]4)c(-c4c(F)c(F)c(F)c(F)c4F)c4nc(c(-c5c(F)c(F)c(F)c(F)c5F)c5ccc2[nH]5)C=C4)C=C3)cc1
REMARK SMILES IDX 5 1 4 2 3 3 1 4 2 5 28 7 29 8 90 9 30 10 89 11 31 12 32 13
REMARK SMILES IDX 33 14 83 15 34 16 88 17 82 18 84 19 35 20 87 21 81 22 80 23
REMARK SMILES IDX 36 25 68 26 48 27 67 28 49 29 52 30 66 31 85 32 50 33 51 34
REMARK SMILES IDX 65 36 86 37 53 38 37 39 38 40 46 41 39 42 40 43 44 44 47 45
REMARK SMILES IDX 41 46 42 47 45 48 43 49 69 50 70 51 78 52 71 53 72 54 76 55
REMARK SMILES IDX 79 56 73 57 74 58 77 59 75 60 54 61 55 62 63 63 56 64 57 65
REMARK SMILES IDX 61 66 64 67 58 68 59 69 62 70 60 71 6 72 7 73 8 74 9 76
REMARK SMILES IDX 10 77 11 78 15 79 12 80 14 81 13 82 16 83 17 84 18 85 19 87
REMARK SMILES IDX 20 88 27 89 21 90 22 91 26 92 23 94 25 95 24 96
REMARK H PARENT 3 6 84 24 52 35 7 75 18 86 21 93
REMARK Flexibility Score: inf
ROOT
ATOM      1  C   UNL A   1      31.419  31.978  26.876  1.00  0.00     0.042 C 
ENDROOT
BRANCH   1   2
ATOM      2  C   UNL A   1      32.549  32.946  27.234  1.00  0.00     0.118 C 
BRANCH   2   3
ATOM      3  N   UNL A   1      32.198  34.275  27.686  1.00  0.00    -0.352 N 
ATOM      4  O   UNL A   1      32.557  36.202  28.826  1.00  0.00    -0.269 OA
ATOM      5  C   UNL A   1      32.913  35.068  28.571  1.00  0.00     0.251 C 
ATOM      6  H   UNL A   1      31.365  34.658  27.327  1.00  0.00     0.163 HD
BRANCH   5   7
ATOM      7  C   UNL A   1      34.107  34.502  29.252  1.00  0.00     0.039 A 
ATOM      8  C   UNL A   1      35.385  34.615  28.698  1.00  0.00     0.014 A 
ATOM      9  C   UNL A   1      33.932  33.854  30.477  1.00  0.00     0.014 A 
ATOM     10  C   UNL A   1      36.474  33.996  29.325  1.00  0.00     0.010 A 
ATOM     11  C   UNL A   1      35.027  33.266  31.120  1.00  0.00     0.010 A 
ATOM     12  C   UNL A   1      36.306  33.305  30.538  1.00  0.00    -0.014 A 
BRANCH  12  13
ATOM     13  C   UNL A   1      37.460  32.641  31.209  1.00  0.00     0.031 A 
ATOM     14  C   UNL A   1      38.199  31.512  30.539  1.00  0.00     0.074 A 
ATOM     15  C   UNL A   1      37.834  33.033  32.441  1.00  0.00     0.049 A 
ATOM     16  N   UNL A   1      39.198  30.789  30.987  1.00  0.00    -0.248 NA
ATOM     17  C   UNL A   1      37.748  31.139  29.192  1.00  0.00     0.031 C 
ATOM     18  C   UNL A   1      37.205  34.105  33.210  1.00  0.00     0.029 A 
ATOM     19  N   UNL A   1      38.832  32.571  33.267  1.00  0.00    -0.354 N 
ATOM     20  C   UNL A   1      39.482  29.867  29.987  1.00  0.00     0.074 A 
ATOM     21  C   UNL A   1      38.530  30.103  28.920  1.00  0.00     0.031 C 
ATOM     22  C   UNL A   1      37.839  34.232  34.386  1.00  0.00     0.029 A 
ATOM     23  C   UNL A   1      38.891  33.223  34.474  1.00  0.00     0.049 A 
ATOM     24  H   UNL A   1      39.444  31.842  33.017  1.00  0.00     0.167 HD
ATOM     25  C   UNL A   1      40.448  28.914  29.956  1.00  0.00     0.037 A 
ATOM     26  C   UNL A   1      39.690  33.023  35.540  1.00  0.00     0.037 A 
ATOM     27  C   UNL A   1      41.399  28.680  31.015  1.00  0.00     0.049 A 
ATOM     28  C   UNL A   1      40.731  31.937  35.498  1.00  0.00     0.074 A 
ATOM     29  C   UNL A   1      42.442  27.768  31.055  1.00  0.00     0.029 A 
ATOM     30  N   UNL A   1      41.416  29.351  32.229  1.00  0.00    -0.354 N 
ATOM     31  N   UNL A   1      41.021  31.104  34.528  1.00  0.00    -0.248 NA
ATOM     32  C   UNL A   1      41.556  31.766  36.702  1.00  0.00     0.031 C 
ATOM     33  C   UNL A   1      43.054  27.850  32.311  1.00  0.00     0.029 A 
ATOM     34  C   UNL A   1      42.432  28.856  33.034  1.00  0.00     0.049 A 
ATOM     35  H   UNL A   1      40.797  30.074  32.483  1.00  0.00     0.167 HD
ATOM     36  C   UNL A   1      42.079  30.334  34.990  1.00  0.00     0.074 A 
ATOM     37  C   UNL A   1      42.387  30.804  36.325  1.00  0.00     0.031 C 
ATOM     38  C   UNL A   1      42.739  29.331  34.360  1.00  0.00     0.037 A 
BRANCH  25  39
ATOM     39  C   UNL A   1      40.511  28.027  28.743  1.00  0.00     0.064 A 
ATOM     40  C   UNL A   1      39.811  26.812  28.675  1.00  0.00     0.173 A 
ATOM     41  C   UNL A   1      41.262  28.411  27.621  1.00  0.00     0.173 A 
ATOM     42  F   UNL A   1      39.082  26.394  29.721  1.00  0.00    -0.203 F 
ATOM     43  C   UNL A   1      39.891  25.999  27.547  1.00  0.00     0.198 A 
ATOM     44  C   UNL A   1      41.315  27.610  26.483  1.00  0.00     0.198 A 
ATOM     45  F   UNL A   1      41.942  29.567  27.624  1.00  0.00    -0.203 F 
ATOM     46  F   UNL A   1      39.261  24.816  27.530  1.00  0.00    -0.200 F 
ATOM     47  C   UNL A   1      40.639  26.400  26.450  1.00  0.00     0.200 A 
ATOM     48  F   UNL A   1      42.026  28.007  25.418  1.00  0.00    -0.200 F 
ATOM     49  F   UNL A   1      40.716  25.615  25.367  1.00  0.00    -0.200 F 
ENDBRANCH  25  39
BRANCH  26  50
ATOM     50  C   UNL A   1      39.549  33.894  36.736  1.00  0.00     0.064 A 
ATOM     51  C   UNL A   1      38.777  33.485  37.833  1.00  0.00     0.173 A 
ATOM     52  C   UNL A   1      40.194  35.135  36.818  1.00  0.00     0.173 A 
ATOM     53  F   UNL A   1      38.121  32.316  37.790  1.00  0.00    -0.203 F 
ATOM     54  C   UNL A   1      38.649  34.291  38.962  1.00  0.00     0.198 A 
ATOM     55  C   UNL A   1      40.088  35.927  37.959  1.00  0.00     0.198 A 
ATOM     56  F   UNL A   1      40.944  35.571  35.795  1.00  0.00    -0.203 F 
ATOM     57  F   UNL A   1      37.877  33.892  39.982  1.00  0.00    -0.200 F 
ATOM     58  C   UNL A   1      39.313  35.506  39.028  1.00  0.00     0.200 A 
ATOM     59  F   UNL A   1      40.741  37.095  38.025  1.00  0.00    -0.200 F 
ATOM     60  F   UNL A   1      39.199  36.275  40.120  1.00  0.00    -0.200 F 
ENDBRANCH  26  50
BRANCH  38  61
ATOM     61  C   UNL A   1      43.894  28.700  35.086  1.00  0.00     0.064 A 
ATOM     62  C   UNL A   1      45.204  29.188  34.962  1.00  0.00     0.173 A 
ATOM     63  C   UNL A   1      43.681  27.606  35.939  1.00  0.00     0.173 A 
ATOM     64  F   UNL A   1      45.465  30.221  34.146  1.00  0.00    -0.203 F 
ATOM     65  C   UNL A   1      46.261  28.586  35.642  1.00  0.00     0.198 A 
ATOM     66  C   UNL A   1      44.734  27.027  36.642  1.00  0.00     0.198 A 
ATOM     67  F   UNL A   1      42.447  27.103  36.099  1.00  0.00    -0.203 F 
ATOM     68  F   UNL A   1      47.511  29.035  35.467  1.00  0.00    -0.200 F 
ATOM     69  C   UNL A   1      46.024  27.511  36.485  1.00  0.00     0.200 A 
ATOM     70  F   UNL A   1      44.502  25.996  37.466  1.00  0.00    -0.200 F 
ATOM     71  F   UNL A   1      47.041  26.935  37.142  1.00  0.00    -0.200 F 
ENDBRANCH  38  61
ENDBRANCH  12  13
ENDBRANCH   5   7
ENDBRANCH   2   3
ENDBRANCH   1   2
BRANCH   1  72
ATOM     72  C   UNL A   1      31.739  30.674  26.146  1.00  0.00     0.118 C 
BRANCH  72  73
ATOM     73  N   UNL A   1      32.770  29.822  26.723  1.00  0.00    -0.351 N 
ATOM     74  C   UNL A   1      33.630  28.919  26.108  1.00  0.00     0.272 C 
ATOM     75  H   UNL A   1      32.874  29.897  27.699  1.00  0.00     0.163 HD
ATOM     76  O   UNL A   1      34.760  28.793  26.574  1.00  0.00    -0.267 OA
BRANCH  74  77
ATOM     77  C   UNL A   1      33.282  28.154  24.884  1.00  0.00     0.159 A 
ATOM     78  N   UNL A   1      33.866  28.661  23.750  1.00  0.00    -0.247 NA
ATOM     79  C   UNL A   1      32.544  26.960  24.857  1.00  0.00     0.159 A 
ATOM     80  C   UNL A   1      33.691  27.958  22.612  1.00  0.00     0.132 A 
ATOM     81  N   UNL A   1      32.371  26.282  23.674  1.00  0.00    -0.247 NA
ATOM     82  C   UNL A   1      32.957  26.793  22.574  1.00  0.00     0.132 A 
BRANCH  79  83
ATOM     83  C   UNL A   1      31.717  26.327  25.951  1.00  0.00     0.277 C 
ATOM     84  O   UNL A   1      31.204  27.048  26.809  1.00  0.00    -0.267 OA
ATOM     85  N   UNL A   1      31.415  24.993  25.889  1.00  0.00    -0.303 N 
ATOM     86  H   UNL A   1      30.684  24.696  25.300  1.00  0.00     0.172 HD
BRANCH  85  87
ATOM     87  C   UNL A   1      32.102  24.054  26.624  1.00  0.00     0.164 A 
ATOM     88  N   UNL A   1      31.463  23.314  27.536  1.00  0.00    -0.155 NA
ATOM     89  C   UNL A   1      33.450  23.646  26.452  1.00  0.00     0.063 A 
ATOM     90  N   UNL A   1      32.306  22.271  27.715  1.00  0.00    -0.259 N 
ATOM     91  C   UNL A   1      33.495  22.402  27.058  1.00  0.00     0.157 A 
ATOM     92  C   UNL A   1      34.590  24.088  25.764  1.00  0.00     0.017 A 
ATOM     93  H   UNL A   1      32.082  21.488  28.270  1.00  0.00     0.192 HD
ATOM     94  N   UNL A   1      34.486  21.494  26.981  1.00  0.00    -0.237 NA
ATOM     95  C   UNL A   1      35.660  23.205  25.690  1.00  0.00     0.021 A 
ATOM     96  C   UNL A   1      35.539  21.940  26.257  1.00  0.00     0.113 A 
ENDBRANCH  85  87
ENDBRANCH  79  83
ENDBRANCH  74  77
ENDBRANCH  72  73
ENDBRANCH   1  72
TORSDOF 12
ENDMDL
