MODEL 1
REMARK VINA RESULT:     -12.6      0.000      0.000
REMARK SMILES CC(C)C[C@@H](NC(=O)Cn1nc(O)ccc1=O)C(=O)NCCCNC(=O)c1ccc(-c2c3nc(c(-c4c(F)c(F)c(F)c(F)c4F)c4ccc([nH]4)c(-c4c(F)c(F)c(F)c(F)c4F)c4nc(c(-c5c(F)c(F)c(F)c(F)c5F)c5ccc2[nH]5)C=C4)C=C3)cc1
REMARK SMILES IDX 21 1 20 2 18 3 19 4 5 6 4 7 2 8 1 9 3 10 6 11 7 12 8 14 9 15
REMARK SMILES IDX 10 16 11 17 16 18 12 19 15 20 17 21 14 22 13 23 22 25 23 26
REMARK SMILES IDX 24 27 25 28 26 30 27 31 28 32 89 33 29 34 88 35 30 36 31 37
REMARK SMILES IDX 32 38 82 39 33 40 87 41 81 42 83 43 34 44 86 45 80 46 79 47
REMARK SMILES IDX 35 49 67 50 47 51 66 52 48 53 51 54 65 55 84 56 49 57 50 58
REMARK SMILES IDX 64 60 85 61 52 62 36 63 37 64 45 65 38 66 39 67 43 68 46 69
REMARK SMILES IDX 40 70 41 71 44 72 42 73 68 74 69 75 77 76 70 77 71 78 75 79
REMARK SMILES IDX 78 80 72 81 73 82 76 83 74 84 53 85 54 86 62 87 55 88 56 89
REMARK SMILES IDX 60 90 63 91 57 92 58 93 61 94 59 95
REMARK H PARENT 20 5 6 13 13 24 24 29 83 48 51 59
REMARK Flexibility Score: inf
ROOT
ATOM      1  C   UNL A   1      46.849  26.056  30.910  1.00  0.00     0.117 C 
ENDROOT
BRANCH   1   2
ATOM      2  N   UNL A   1      47.334  25.172  29.075  1.00  0.00    -0.354 N 
ATOM      3  C   UNL A   1      47.015  24.550  27.842  1.00  0.00     0.242 C 
ATOM      4  O   UNL A   1      48.028  24.467  27.118  1.00  0.00    -0.273 OA
ATOM      5  H   UNL A   1      48.318  25.206  29.061  1.00  0.00     0.163 HD
BRANCH   3   6
ATOM      6  C   UNL A   1      45.640  24.029  27.210  1.00  0.00     0.171 C 
BRANCH   6   7
ATOM      7  C   UNL A   1      44.313  24.373  27.891  1.00  0.00     0.038 C 
BRANCH   7   8
ATOM      8  C   UNL A   1      43.651  23.541  29.002  1.00  0.00    -0.015 C 
ATOM      9  C   UNL A   1      44.148  23.795  30.410  1.00  0.00     0.007 C 
ATOM     10  C   UNL A   1      42.131  23.799  28.912  1.00  0.00     0.007 C 
ENDBRANCH   7   8
ENDBRANCH   6   7
BRANCH   6  11
ATOM     11  N   UNL A   1      45.518  24.174  25.767  1.00  0.00    -0.343 N 
ATOM     12  C   UNL A   1      44.815  23.383  24.913  1.00  0.00     0.242 C 
ATOM     13  H   UNL A   1      45.999  24.932  25.363  1.00  0.00     0.164 HD
ATOM     14  O   UNL A   1      45.260  23.261  23.767  1.00  0.00    -0.273 OA
BRANCH  12  15
ATOM     15  C   UNL A   1      43.438  22.828  25.261  1.00  0.00     0.248 C 
BRANCH  15  16
ATOM     16  N   UNL A   1      43.304  21.426  25.591  1.00  0.00    -0.217 N 
ATOM     17  N   UNL A   1      42.124  21.057  26.968  1.00  0.00    -0.131 NA
ATOM     18  C   UNL A   1      44.239  20.055  24.831  1.00  0.00     0.267 A 
ATOM     19  C   UNL A   1      41.975  19.692  27.453  1.00  0.00     0.229 A 
ATOM     20  C   UNL A   1      43.980  18.314  25.733  1.00  0.00     0.079 A 
ATOM     21  O   UNL A   1      44.764  20.098  23.720  1.00  0.00    -0.268 OA
ATOM     22  C   UNL A   1      42.969  18.150  26.859  1.00  0.00     0.075 A 
BRANCH  19  23
ATOM     23  O   UNL A   1      40.983  19.262  28.247  1.00  0.00    -0.492 OA
ATOM     24  H   UNL A   1      41.101  19.246  29.176  1.00  0.00     0.295 HD
ENDBRANCH  19  23
ENDBRANCH  15  16
ENDBRANCH  12  15
ENDBRANCH   6  11
ENDBRANCH   3   6
ENDBRANCH   1   2
BRANCH   1  25
ATOM     25  C   UNL A   1      47.560  25.829  32.475  1.00  0.00     0.042 C 
BRANCH  25  26
ATOM     26  C   UNL A   1      46.688  24.948  33.344  1.00  0.00     0.118 C 
BRANCH  26  27
ATOM     27  N   UNL A   1      47.217  24.792  34.686  1.00  0.00    -0.352 N 
ATOM     28  C   UNL A   1      46.693  25.317  35.844  1.00  0.00     0.251 C 
ATOM     29  H   UNL A   1      48.036  24.255  34.777  1.00  0.00     0.163 HD
ATOM     30  O   UNL A   1      47.202  25.119  36.936  1.00  0.00    -0.269 OA
BRANCH  28  31
ATOM     31  C   UNL A   1      45.555  26.235  35.680  1.00  0.00     0.039 A 
ATOM     32  C   UNL A   1      44.259  25.725  35.632  1.00  0.00     0.014 A 
ATOM     33  C   UNL A   1      45.845  27.532  35.257  1.00  0.00     0.014 A 
ATOM     34  C   UNL A   1      43.292  26.442  34.943  1.00  0.00     0.010 A 
ATOM     35  C   UNL A   1      44.838  28.295  34.675  1.00  0.00     0.010 A 
ATOM     36  C   UNL A   1      43.574  27.729  34.448  1.00  0.00    -0.014 A 
BRANCH  36  37
ATOM     37  C   UNL A   1      42.548  28.482  33.688  1.00  0.00     0.031 A 
ATOM     38  C   UNL A   1      41.637  29.465  34.378  1.00  0.00     0.074 A 
ATOM     39  C   UNL A   1      42.444  28.272  32.363  1.00  0.00     0.049 A 
ATOM     40  N   UNL A   1      40.596  30.101  33.900  1.00  0.00    -0.248 NA
ATOM     41  C   UNL A   1      41.923  29.769  35.790  1.00  0.00     0.031 C 
ATOM     42  C   UNL A   1      43.292  27.364  31.588  1.00  0.00     0.029 A 
ATOM     43  N   UNL A   1      41.593  28.806  31.433  1.00  0.00    -0.354 N 
ATOM     44  C   UNL A   1      40.080  30.841  34.957  1.00  0.00     0.074 A 
ATOM     45  C   UNL A   1      40.916  30.573  36.108  1.00  0.00     0.031 C 
ATOM     46  C   UNL A   1      42.954  27.442  30.295  1.00  0.00     0.029 A 
ATOM     47  C   UNL A   1      41.802  28.324  30.165  1.00  0.00     0.049 A 
ATOM     48  H   UNL A   1      40.900  29.471  31.652  1.00  0.00     0.167 HD
ATOM     49  C   UNL A   1      39.008  31.669  34.957  1.00  0.00     0.037 A 
ATOM     50  C   UNL A   1      41.115  28.531  29.029  1.00  0.00     0.037 A 
ATOM     51  C   UNL A   1      38.210  31.951  33.791  1.00  0.00     0.049 A 
ATOM     52  C   UNL A   1      39.905  29.414  29.069  1.00  0.00     0.074 A 
ATOM     53  C   UNL A   1      37.115  32.791  33.676  1.00  0.00     0.029 A 
ATOM     54  N   UNL A   1      38.430  31.406  32.533  1.00  0.00    -0.354 N 
ATOM     55  N   UNL A   1      39.406  30.082  30.080  1.00  0.00    -0.248 NA
ATOM     56  C   UNL A   1      39.151  29.556  27.818  1.00  0.00     0.031 C 
ATOM     57  C   UNL A   1      36.648  32.722  32.360  1.00  0.00     0.029 A 
ATOM     58  C   UNL A   1      37.479  31.878  31.641  1.00  0.00     0.049 A 
ATOM     59  H   UNL A   1      39.153  30.778  32.308  1.00  0.00     0.167 HD
ATOM     60  C   UNL A   1      38.282  30.729  29.590  1.00  0.00     0.074 A 
ATOM     61  C   UNL A   1      38.187  30.391  28.183  1.00  0.00     0.031 C 
ATOM     62  C   UNL A   1      37.405  31.525  30.246  1.00  0.00     0.037 A 
BRANCH  49  63
ATOM     63  C   UNL A   1      38.614  32.327  36.250  1.00  0.00     0.064 A 
ATOM     64  C   UNL A   1      37.936  31.628  37.259  1.00  0.00     0.173 A 
ATOM     65  C   UNL A   1      38.998  33.651  36.518  1.00  0.00     0.173 A 
ATOM     66  F   UNL A   1      37.538  30.364  37.053  1.00  0.00    -0.203 F 
ATOM     67  C   UNL A   1      37.648  32.232  38.481  1.00  0.00     0.198 A 
ATOM     68  C   UNL A   1      38.731  34.243  37.751  1.00  0.00     0.198 A 
ATOM     69  F   UNL A   1      39.656  34.365  35.592  1.00  0.00    -0.203 F 
ATOM     70  F   UNL A   1      36.975  31.551  39.421  1.00  0.00    -0.200 F 
ATOM     71  C   UNL A   1      38.053  33.535  38.730  1.00  0.00     0.200 A 
ATOM     72  F   UNL A   1      39.139  35.497  37.993  1.00  0.00    -0.200 F 
ATOM     73  F   UNL A   1      37.792  34.107  39.914  1.00  0.00    -0.200 F 
ENDBRANCH  49  63
BRANCH  50  74
ATOM     74  C   UNL A   1      41.563  27.868  27.780  1.00  0.00     0.064 A 
ATOM     75  C   UNL A   1      42.701  28.318  27.102  1.00  0.00     0.173 A 
ATOM     76  C   UNL A   1      40.910  26.729  27.282  1.00  0.00     0.173 A 
ATOM     77  F   UNL A   1      43.349  29.410  27.535  1.00  0.00    -0.203 F 
ATOM     78  C   UNL A   1      43.173  27.654  25.972  1.00  0.00     0.198 A 
ATOM     79  C   UNL A   1      41.400  26.047  26.172  1.00  0.00     0.198 A 
ATOM     80  F   UNL A   1      39.823  26.251  27.906  1.00  0.00    -0.203 F 
ATOM     81  F   UNL A   1      44.254  28.116  25.330  1.00  0.00    -0.200 F 
ATOM     82  C   UNL A   1      42.530  26.512  25.516  1.00  0.00     0.200 A 
ATOM     83  F   UNL A   1      40.792  24.930  25.751  1.00  0.00    -0.200 F 
ATOM     84  F   UNL A   1      43.001  25.858  24.445  1.00  0.00    -0.200 F 
ENDBRANCH  50  74
BRANCH  62  85
ATOM     85  C   UNL A   1      36.272  32.094  29.449  1.00  0.00     0.064 A 
ATOM     86  C   UNL A   1      35.212  31.290  29.010  1.00  0.00     0.173 A 
ATOM     87  C   UNL A   1      36.219  33.468  29.170  1.00  0.00     0.173 A 
ATOM     88  F   UNL A   1      35.228  29.968  29.238  1.00  0.00    -0.203 F 
ATOM     89  C   UNL A   1      34.143  31.838  28.307  1.00  0.00     0.198 A 
ATOM     90  C   UNL A   1      35.135  34.017  28.492  1.00  0.00     0.198 A 
ATOM     91  F   UNL A   1      37.208  34.280  29.574  1.00  0.00    -0.203 F 
ATOM     92  F   UNL A   1      33.157  31.046  27.865  1.00  0.00    -0.200 F 
ATOM     93  C   UNL A   1      34.101  33.202  28.057  1.00  0.00     0.200 A 
ATOM     94  F   UNL A   1      35.090  35.337  28.262  1.00  0.00    -0.200 F 
ATOM     95  F   UNL A   1      33.065  33.731  27.392  1.00  0.00    -0.200 F 
ENDBRANCH  62  85
ENDBRANCH  36  37
ENDBRANCH  28  31
ENDBRANCH  26  27
ENDBRANCH  25  26
ENDBRANCH   1  25
TORSDOF 16
ENDMDL
MODEL 2
REMARK VINA RESULT:     -12.6      5.726     12.859
REMARK SMILES CC(C)C[C@@H](NC(=O)Cn1nc(O)ccc1=O)C(=O)NCCCNC(=O)c1ccc(-c2c3nc(c(-c4c(F)c(F)c(F)c(F)c4F)c4ccc([nH]4)c(-c4c(F)c(F)c(F)c(F)c4F)c4nc(c(-c5c(F)c(F)c(F)c(F)c5F)c5ccc2[nH]5)C=C4)C=C3)cc1
REMARK SMILES IDX 21 1 20 2 18 3 19 4 5 6 4 7 2 8 1 9 3 10 6 11 7 12 8 14 9 15
REMARK SMILES IDX 10 16 11 17 16 18 12 19 15 20 17 21 14 22 13 23 22 25 23 26
REMARK SMILES IDX 24 27 25 28 26 30 27 31 28 32 89 33 29 34 88 35 30 36 31 37
REMARK SMILES IDX 32 38 82 39 33 40 87 41 81 42 83 43 34 44 86 45 80 46 79 47
REMARK SMILES IDX 35 49 67 50 47 51 66 52 48 53 51 54 65 55 84 56 49 57 50 58
REMARK SMILES IDX 64 60 85 61 52 62 36 63 37 64 45 65 38 66 39 67 43 68 46 69
REMARK SMILES IDX 40 70 41 71 44 72 42 73 68 74 69 75 77 76 70 77 71 78 75 79
REMARK SMILES IDX 78 80 72 81 73 82 76 83 74 84 53 85 54 86 62 87 55 88 56 89
REMARK SMILES IDX 60 90 63 91 57 92 58 93 61 94 59 95
REMARK H PARENT 20 5 6 13 13 24 24 29 83 48 51 59
REMARK Flexibility Score: inf
ROOT
ATOM      1  C   UNL A   1      32.507  27.934  27.228  1.00  0.00     0.117 C 
ENDROOT
BRANCH   1   2
ATOM      2  N   UNL A   1      33.561  26.488  26.140  1.00  0.00    -0.354 N 
ATOM      3  C   UNL A   1      33.717  25.210  25.547  1.00  0.00     0.242 C 
ATOM      4  O   UNL A   1      34.727  25.188  24.814  1.00  0.00    -0.273 OA
ATOM      5  H   UNL A   1      34.407  26.942  25.922  1.00  0.00     0.163 HD
BRANCH   3   6
ATOM      6  C   UNL A   1      32.832  23.877  25.586  1.00  0.00     0.171 C 
BRANCH   6   7
ATOM      7  C   UNL A   1      33.455  22.567  26.077  1.00  0.00     0.038 C 
BRANCH   7   8
ATOM      8  C   UNL A   1      33.445  21.241  25.297  1.00  0.00    -0.015 C 
ATOM      9  C   UNL A   1      32.677  21.241  23.992  1.00  0.00     0.007 C 
ATOM     10  C   UNL A   1      34.920  20.851  25.056  1.00  0.00     0.007 C 
ENDBRANCH   7   8
ENDBRANCH   6   7
BRANCH   6  11
ATOM     11  N   UNL A   1      31.490  24.030  26.126  1.00  0.00    -0.343 N 
ATOM     12  C   UNL A   1      30.516  24.874  25.693  1.00  0.00     0.242 C 
ATOM     13  H   UNL A   1      31.261  23.457  26.893  1.00  0.00     0.164 HD
ATOM     14  O   UNL A   1      29.728  25.305  26.543  1.00  0.00    -0.273 OA
BRANCH  12  15
ATOM     15  C   UNL A   1      30.257  25.130  24.212  1.00  0.00     0.248 C 
BRANCH  15  16
ATOM     16  N   UNL A   1      29.946  26.473  23.772  1.00  0.00    -0.217 N 
ATOM     17  N   UNL A   1      28.140  26.858  23.654  1.00  0.00    -0.131 NA
ATOM     18  C   UNL A   1      31.160  27.740  23.267  1.00  0.00     0.267 A 
ATOM     19  C   UNL A   1      27.703  28.145  23.132  1.00  0.00     0.229 A 
ATOM     20  C   UNL A   1      30.344  29.355  22.469  1.00  0.00     0.079 A 
ATOM     21  O   UNL A   1      32.339  27.756  23.614  1.00  0.00    -0.268 OA
ATOM     22  C   UNL A   1      28.833  29.544  22.437  1.00  0.00     0.075 A 
BRANCH  19  23
ATOM     23  O   UNL A   1      26.459  28.636  23.240  1.00  0.00    -0.492 OA
ATOM     24  H   UNL A   1      26.069  29.085  22.517  1.00  0.00     0.295 HD
ENDBRANCH  19  23
ENDBRANCH  15  16
ENDBRANCH  12  15
ENDBRANCH   6  11
ENDBRANCH   3   6
ENDBRANCH   1   2
BRANCH   1  25
ATOM     25  C   UNL A   1      31.731  29.386  26.684  1.00  0.00     0.042 C 
BRANCH  25  26
ATOM     26  C   UNL A   1      32.754  30.432  26.290  1.00  0.00     0.118 C 
BRANCH  26  27
ATOM     27  N   UNL A   1      32.514  31.713  26.929  1.00  0.00    -0.352 N 
ATOM     28  C   UNL A   1      33.437  32.489  27.590  1.00  0.00     0.251 C 
ATOM     29  H   UNL A   1      31.595  32.062  26.884  1.00  0.00     0.163 HD
ATOM     30  O   UNL A   1      33.144  33.565  28.085  1.00  0.00    -0.269 OA
BRANCH  28  31
ATOM     31  C   UNL A   1      34.768  31.891  27.776  1.00  0.00     0.039 A 
ATOM     32  C   UNL A   1      34.879  30.533  28.072  1.00  0.00     0.014 A 
ATOM     33  C   UNL A   1      35.835  32.769  27.966  1.00  0.00     0.014 A 
ATOM     34  C   UNL A   1      35.992  30.100  28.778  1.00  0.00     0.010 A 
ATOM     35  C   UNL A   1      36.999  32.299  28.566  1.00  0.00     0.010 A 
ATOM     36  C   UNL A   1      37.057  30.980  29.041  1.00  0.00    -0.014 A 
BRANCH  36  37
ATOM     37  C   UNL A   1      38.234  30.522  29.820  1.00  0.00     0.031 A 
ATOM     38  C   UNL A   1      39.254  29.597  29.210  1.00  0.00     0.074 A 
ATOM     39  C   UNL A   1      38.374  30.951  31.087  1.00  0.00     0.049 A 
ATOM     40  N   UNL A   1      40.261  28.986  29.785  1.00  0.00    -0.248 NA
ATOM     41  C   UNL A   1      39.128  29.309  27.772  1.00  0.00     0.031 C 
ATOM     42  C   UNL A   1      37.460  31.871  31.769  1.00  0.00     0.029 A 
ATOM     43  N   UNL A   1      39.334  30.681  32.025  1.00  0.00    -0.354 N 
ATOM     44  C   UNL A   1      40.857  28.213  28.795  1.00  0.00     0.074 A 
ATOM     45  C   UNL A   1      40.097  28.423  27.581  1.00  0.00     0.031 C 
ATOM     46  C   UNL A   1      37.929  32.128  32.995  1.00  0.00     0.029 A 
ATOM     47  C   UNL A   1      39.117  31.316  33.223  1.00  0.00     0.049 A 
ATOM     48  H   UNL A   1      40.105  30.091  31.858  1.00  0.00     0.167 HD
ATOM     49  C   UNL A   1      41.940  27.407  28.898  1.00  0.00     0.037 A 
ATOM     50  C   UNL A   1      39.773  31.221  34.391  1.00  0.00     0.037 A 
ATOM     51  C   UNL A   1      42.705  27.239  30.108  1.00  0.00     0.049 A 
ATOM     52  C   UNL A   1      40.939  30.286  34.490  1.00  0.00     0.074 A 
ATOM     53  C   UNL A   1      43.833  26.464  30.316  1.00  0.00     0.029 A 
ATOM     54  N   UNL A   1      42.425  27.868  31.313  1.00  0.00    -0.354 N 
ATOM     55  N   UNL A   1      41.474  29.535  33.559  1.00  0.00    -0.248 NA
ATOM     56  C   UNL A   1      41.581  30.168  35.805  1.00  0.00     0.031 C 
ATOM     57  C   UNL A   1      44.210  26.591  31.656  1.00  0.00     0.029 A 
ATOM     58  C   UNL A   1      43.347  27.483  32.273  1.00  0.00     0.049 A 
ATOM     59  H   UNL A   1      41.681  28.495  31.464  1.00  0.00     0.167 HD
ATOM     60  C   UNL A   1      42.517  28.857  34.169  1.00  0.00     0.074 A 
ATOM     61  C   UNL A   1      42.555  29.306  35.547  1.00  0.00     0.031 C 
ATOM     62  C   UNL A   1      43.363  27.942  33.639  1.00  0.00     0.037 A 
BRANCH  49  63
ATOM     63  C   UNL A   1      42.370  26.629  27.686  1.00  0.00     0.064 A 
ATOM     64  C   UNL A   1      43.355  27.108  26.810  1.00  0.00     0.173 A 
ATOM     65  C   UNL A   1      41.851  25.345  27.446  1.00  0.00     0.173 A 
ATOM     66  F   UNL A   1      43.878  28.330  26.988  1.00  0.00    -0.203 F 
ATOM     67  C   UNL A   1      43.796  26.338  25.736  1.00  0.00     0.198 A 
ATOM     68  C   UNL A   1      42.313  24.568  26.385  1.00  0.00     0.198 A 
ATOM     69  F   UNL A   1      40.912  24.834  28.255  1.00  0.00    -0.203 F 
ATOM     70  F   UNL A   1      44.720  26.829  24.897  1.00  0.00    -0.200 F 
ATOM     71  C   UNL A   1      43.283  25.066  25.529  1.00  0.00     0.200 A 
ATOM     72  F   UNL A   1      41.825  23.334  26.199  1.00  0.00    -0.200 F 
ATOM     73  F   UNL A   1      43.723  24.320  24.507  1.00  0.00    -0.200 F 
ENDBRANCH  49  63
BRANCH  50  74
ATOM     74  C   UNL A   1      39.313  32.028  35.548  1.00  0.00     0.064 A 
ATOM     75  C   UNL A   1      38.412  31.494  36.477  1.00  0.00     0.173 A 
ATOM     76  C   UNL A   1      39.820  33.314  35.791  1.00  0.00     0.173 A 
ATOM     77  F   UNL A   1      37.891  30.274  36.279  1.00  0.00    -0.203 F 
ATOM     78  C   UNL A   1      38.035  32.216  37.608  1.00  0.00     0.198 A 
ATOM     79  C   UNL A   1      39.468  34.021  36.937  1.00  0.00     0.198 A 
ATOM     80  F   UNL A   1      40.697  33.862  34.937  1.00  0.00    -0.203 F 
ATOM     81  F   UNL A   1      37.156  31.691  38.471  1.00  0.00    -0.200 F 
ATOM     82  C   UNL A   1      38.573  33.473  37.843  1.00  0.00     0.200 A 
ATOM     83  F   UNL A   1      40.010  35.223  37.174  1.00  0.00    -0.200 F 
ATOM     84  F   UNL A   1      38.231  34.154  38.945  1.00  0.00    -0.200 F 
ENDBRANCH  50  74
BRANCH  62  85
ATOM     85  C   UNL A   1      44.409  27.372  34.548  1.00  0.00     0.064 A 
ATOM     86  C   UNL A   1      45.633  28.024  34.750  1.00  0.00     0.173 A 
ATOM     87  C   UNL A   1      44.160  26.193  35.266  1.00  0.00     0.173 A 
ATOM     88  F   UNL A   1      45.921  29.145  34.071  1.00  0.00    -0.203 F 
ATOM     89  C   UNL A   1      46.580  27.508  35.630  1.00  0.00     0.198 A 
ATOM     90  C   UNL A   1      45.097  25.695  36.166  1.00  0.00     0.198 A 
ATOM     91  F   UNL A   1      43.001  25.536  35.109  1.00  0.00    -0.203 F 
ATOM     92  F   UNL A   1      47.758  28.126  35.781  1.00  0.00    -0.200 F 
ATOM     93  C   UNL A   1      46.307  26.349  36.344  1.00  0.00     0.200 A 
ATOM     94  F   UNL A   1      44.828  24.583  36.864  1.00  0.00    -0.200 F 
ATOM     95  F   UNL A   1      47.214  25.861  37.201  1.00  0.00    -0.200 F 
ENDBRANCH  62  85
ENDBRANCH  36  37
ENDBRANCH  28  31
ENDBRANCH  26  27
ENDBRANCH  25  26
ENDBRANCH   1  25
TORSDOF 16
ENDMDL
MODEL 3
REMARK VINA RESULT:     -12.6      5.540     10.006
REMARK SMILES CC(C)C[C@@H](NC(=O)Cn1nc(O)ccc1=O)C(=O)NCCCNC(=O)c1ccc(-c2c3nc(c(-c4c(F)c(F)c(F)c(F)c4F)c4ccc([nH]4)c(-c4c(F)c(F)c(F)c(F)c4F)c4nc(c(-c5c(F)c(F)c(F)c(F)c5F)c5ccc2[nH]5)C=C4)C=C3)cc1
REMARK SMILES IDX 21 1 20 2 18 3 19 4 5 6 4 7 2 8 1 9 3 10 6 11 7 12 8 14 9 15
REMARK SMILES IDX 10 16 11 17 16 18 12 19 15 20 17 21 14 22 13 23 22 25 23 26
REMARK SMILES IDX 24 27 25 28 26 30 27 31 28 32 89 33 29 34 88 35 30 36 31 37
REMARK SMILES IDX 32 38 82 39 33 40 87 41 81 42 83 43 34 44 86 45 80 46 79 47
REMARK SMILES IDX 35 49 67 50 47 51 66 52 48 53 51 54 65 55 84 56 49 57 50 58
REMARK SMILES IDX 64 60 85 61 52 62 36 63 37 64 45 65 38 66 39 67 43 68 46 69
REMARK SMILES IDX 40 70 41 71 44 72 42 73 68 74 69 75 77 76 70 77 71 78 75 79
REMARK SMILES IDX 78 80 72 81 73 82 76 83 74 84 53 85 54 86 62 87 55 88 56 89
REMARK SMILES IDX 60 90 63 91 57 92 58 93 61 94 59 95
REMARK H PARENT 20 5 6 13 13 24 24 29 83 48 51 59
REMARK Flexibility Score: inf
ROOT
ATOM      1  C   UNL A   1      37.714  23.180  26.035  1.00  0.00     0.117 C 
ENDROOT
BRANCH   1   2
ATOM      2  N   UNL A   1      35.701  23.290  26.597  1.00  0.00    -0.354 N 
ATOM      3  C   UNL A   1      34.368  23.750  26.458  1.00  0.00     0.242 C 
ATOM      4  O   UNL A   1      33.603  23.116  27.214  1.00  0.00    -0.273 OA
ATOM      5  H   UNL A   1      35.655  22.704  27.388  1.00  0.00     0.163 HD
BRANCH   3   6
ATOM      6  C   UNL A   1      33.685  24.833  25.497  1.00  0.00     0.171 C 
BRANCH   6   7
ATOM      7  C   UNL A   1      33.917  26.326  25.749  1.00  0.00     0.038 C 
BRANCH   7   8
ATOM      8  C   UNL A   1      32.944  27.254  26.495  1.00  0.00    -0.015 C 
ATOM      9  C   UNL A   1      33.547  28.504  27.099  1.00  0.00     0.007 C 
ATOM     10  C   UNL A   1      31.822  27.623  25.498  1.00  0.00     0.007 C 
ENDBRANCH   7   8
ENDBRANCH   6   7
BRANCH   6  11
ATOM     11  N   UNL A   1      33.763  24.545  24.073  1.00  0.00    -0.343 N 
ATOM     12  C   UNL A   1      33.694  23.327  23.471  1.00  0.00     0.242 C 
ATOM     13  H   UNL A   1      33.878  25.320  23.477  1.00  0.00     0.164 HD
ATOM     14  O   UNL A   1      34.335  23.183  22.424  1.00  0.00    -0.273 OA
BRANCH  12  15
ATOM     15  C   UNL A   1      32.722  22.245  23.927  1.00  0.00     0.248 C 
BRANCH  15  16
ATOM     16  N   UNL A   1      33.108  20.855  23.813  1.00  0.00    -0.217 N 
ATOM     17  N   UNL A   1      32.040  19.836  22.698  1.00  0.00    -0.131 NA
ATOM     18  C   UNL A   1      34.473  20.049  24.717  1.00  0.00     0.267 A 
ATOM     19  C   UNL A   1      32.272  18.404  22.577  1.00  0.00     0.229 A 
ATOM     20  C   UNL A   1      34.519  18.083  24.507  1.00  0.00     0.079 A 
ATOM     21  O   UNL A   1      35.443  20.638  25.191  1.00  0.00    -0.268 OA
ATOM     22  C   UNL A   1      33.576  17.368  23.549  1.00  0.00     0.075 A 
BRANCH  19  23
ATOM     23  O   UNL A   1      31.749  17.618  21.624  1.00  0.00    -0.492 OA
ATOM     24  H   UNL A   1      31.555  17.973  20.779  1.00  0.00     0.295 HD
ENDBRANCH  19  23
ENDBRANCH  15  16
ENDBRANCH  12  15
ENDBRANCH   6  11
ENDBRANCH   3   6
ENDBRANCH   1   2
BRANCH   1  25
ATOM     25  C   UNL A   1      38.619  21.844  25.399  1.00  0.00     0.042 C 
BRANCH  25  26
ATOM     26  C   UNL A   1      39.608  21.324  26.420  1.00  0.00     0.118 C 
BRANCH  26  27
ATOM     27  N   UNL A   1      40.195  20.055  26.031  1.00  0.00    -0.352 N 
ATOM     28  C   UNL A   1      41.520  19.699  26.122  1.00  0.00     0.251 C 
ATOM     29  H   UNL A   1      39.581  19.380  25.664  1.00  0.00     0.163 HD
ATOM     30  O   UNL A   1      41.921  18.597  25.781  1.00  0.00    -0.269 OA
BRANCH  28  31
ATOM     31  C   UNL A   1      42.449  20.764  26.534  1.00  0.00     0.039 A 
ATOM     32  C   UNL A   1      42.610  21.050  27.889  1.00  0.00     0.014 A 
ATOM     33  C   UNL A   1      42.877  21.648  25.545  1.00  0.00     0.014 A 
ATOM     34  C   UNL A   1      42.996  22.332  28.252  1.00  0.00     0.010 A 
ATOM     35  C   UNL A   1      43.378  22.891  25.920  1.00  0.00     0.010 A 
ATOM     36  C   UNL A   1      43.372  23.269  27.271  1.00  0.00    -0.014 A 
BRANCH  36  37
ATOM     37  C   UNL A   1      43.757  24.648  27.660  1.00  0.00     0.031 A 
ATOM     38  C   UNL A   1      42.714  25.661  28.055  1.00  0.00     0.074 A 
ATOM     39  C   UNL A   1      45.061  24.979  27.653  1.00  0.00     0.049 A 
ATOM     40  N   UNL A   1      42.855  26.943  28.284  1.00  0.00    -0.248 NA
ATOM     41  C   UNL A   1      41.331  25.179  28.206  1.00  0.00     0.031 C 
ATOM     42  C   UNL A   1      46.157  24.068  27.313  1.00  0.00     0.029 A 
ATOM     43  N   UNL A   1      45.689  26.160  27.944  1.00  0.00    -0.354 N 
ATOM     44  C   UNL A   1      41.582  27.426  28.561  1.00  0.00     0.074 A 
ATOM     45  C   UNL A   1      40.675  26.303  28.465  1.00  0.00     0.031 C 
ATOM     46  C   UNL A   1      47.323  24.708  27.464  1.00  0.00     0.029 A 
ATOM     47  C   UNL A   1      47.053  26.098  27.810  1.00  0.00     0.049 A 
ATOM     48  H   UNL A   1      45.209  26.974  28.222  1.00  0.00     0.167 HD
ATOM     49  C   UNL A   1      41.213  28.693  28.869  1.00  0.00     0.037 A 
ATOM     50  C   UNL A   1      47.984  27.061  27.910  1.00  0.00     0.037 A 
ATOM     51  C   UNL A   1      42.138  29.791  28.995  1.00  0.00     0.049 A 
ATOM     52  C   UNL A   1      47.543  28.462  28.204  1.00  0.00     0.074 A 
ATOM     53  C   UNL A   1      41.873  31.109  29.324  1.00  0.00     0.029 A 
ATOM     54  N   UNL A   1      43.510  29.693  28.808  1.00  0.00    -0.354 N 
ATOM     55  N   UNL A   1      46.335  28.915  28.431  1.00  0.00    -0.248 NA
ATOM     56  C   UNL A   1      48.590  29.490  28.237  1.00  0.00     0.031 C 
ATOM     57  C   UNL A   1      43.078  31.817  29.295  1.00  0.00     0.029 A 
ATOM     58  C   UNL A   1      44.102  30.932  28.996  1.00  0.00     0.049 A 
ATOM     59  H   UNL A   1      43.992  28.867  28.576  1.00  0.00     0.167 HD
ATOM     60  C   UNL A   1      46.472  30.278  28.638  1.00  0.00     0.074 A 
ATOM     61  C   UNL A   1      47.887  30.575  28.534  1.00  0.00     0.031 C 
ATOM     62  C   UNL A   1      45.513  31.202  28.885  1.00  0.00     0.037 A 
BRANCH  49  63
ATOM     63  C   UNL A   1      39.753  28.980  29.081  1.00  0.00     0.064 A 
ATOM     64  C   UNL A   1      38.906  29.327  28.018  1.00  0.00     0.173 A 
ATOM     65  C   UNL A   1      39.176  28.820  30.352  1.00  0.00     0.173 A 
ATOM     66  F   UNL A   1      39.406  29.501  26.787  1.00  0.00    -0.203 F 
ATOM     67  C   UNL A   1      37.540  29.514  28.222  1.00  0.00     0.198 A 
ATOM     68  C   UNL A   1      37.805  28.982  30.545  1.00  0.00     0.198 A 
ATOM     69  F   UNL A   1      39.937  28.481  31.402  1.00  0.00    -0.203 F 
ATOM     70  F   UNL A   1      36.755  29.871  27.195  1.00  0.00    -0.200 F 
ATOM     71  C   UNL A   1      36.989  29.332  29.481  1.00  0.00     0.200 A 
ATOM     72  F   UNL A   1      37.275  28.790  31.761  1.00  0.00    -0.200 F 
ATOM     73  F   UNL A   1      35.672  29.493  29.670  1.00  0.00    -0.200 F 
ENDBRANCH  49  63
BRANCH  50  74
ATOM     74  C   UNL A   1      49.412  26.713  27.707  1.00  0.00     0.064 A 
ATOM     75  C   UNL A   1      50.256  26.498  28.803  1.00  0.00     0.173 A 
ATOM     76  C   UNL A   1      49.942  26.514  26.422  1.00  0.00     0.173 A 
ATOM     77  F   UNL A   1      49.797  26.689  30.048  1.00  0.00    -0.203 F 
ATOM     78  C   UNL A   1      51.578  26.095  28.623  1.00  0.00     0.198 A 
ATOM     79  C   UNL A   1      51.252  26.081  26.244  1.00  0.00     0.198 A 
ATOM     80  F   UNL A   1      49.168  26.694  25.342  1.00  0.00    -0.203 F 
ATOM     81  F   UNL A   1      52.371  25.916  29.687  1.00  0.00    -0.200 F 
ATOM     82  C   UNL A   1      52.071  25.875  27.345  1.00  0.00     0.200 A 
ATOM     83  F   UNL A   1      51.716  25.844  25.010  1.00  0.00    -0.200 F 
ATOM     84  F   UNL A   1      53.333  25.461  27.174  1.00  0.00    -0.200 F 
ENDBRANCH  50  74
BRANCH  62  85
ATOM     85  C   UNL A   1      45.963  32.619  29.071  1.00  0.00     0.064 A 
ATOM     86  C   UNL A   1      46.354  33.101  30.328  1.00  0.00     0.173 A 
ATOM     87  C   UNL A   1      46.056  33.485  27.972  1.00  0.00     0.173 A 
ATOM     88  F   UNL A   1      46.266  32.313  31.410  1.00  0.00    -0.203 F 
ATOM     89  C   UNL A   1      46.812  34.406  30.481  1.00  0.00     0.198 A 
ATOM     90  C   UNL A   1      46.540  34.781  28.124  1.00  0.00     0.198 A 
ATOM     91  F   UNL A   1      45.697  33.068  26.749  1.00  0.00    -0.203 F 
ATOM     92  F   UNL A   1      47.147  34.859  31.697  1.00  0.00    -0.200 F 
ATOM     93  C   UNL A   1      46.912  35.242  29.377  1.00  0.00     0.200 A 
ATOM     94  F   UNL A   1      46.648  35.583  27.056  1.00  0.00    -0.200 F 
ATOM     95  F   UNL A   1      47.365  36.495  29.525  1.00  0.00    -0.200 F 
ENDBRANCH  62  85
ENDBRANCH  36  37
ENDBRANCH  28  31
ENDBRANCH  26  27
ENDBRANCH  25  26
ENDBRANCH   1  25
TORSDOF 16
ENDMDL
