MODEL 1
REMARK VINA RESULT:     -13.3      0.000      0.000
REMARK SMILES O=C(NCCCNC(=O)[C@H]1C[C@@H](C(=O)N2CCCC2)C[N@@H+](Cc2cccnc2)C1)c1ccc(-c2c3nc(c(-c4c(F)c(F)c(F)c(F)c4F)c4ccc([nH]4)c(-c4c(F)c(F)c(F)c(F)c4F)c4nc(c(-c5c(F)c(F)c(F)c(F)c5F)c5ccc2[nH]5)C=C4)C=C3)cc1
REMARK SMILES IDX 5 1 4 2 3 3 1 4 2 5 30 7 31 8 92 9 32 10 91 11 33 12 34 13
REMARK SMILES IDX 35 14 85 15 36 16 90 17 84 18 86 19 37 20 89 21 83 22 82 23
REMARK SMILES IDX 38 25 70 26 50 27 69 28 51 29 54 30 68 31 87 32 52 33 53 34
REMARK SMILES IDX 67 36 88 37 55 38 39 39 40 40 48 41 41 42 42 43 46 44 49 45
REMARK SMILES IDX 43 46 44 47 47 48 45 49 71 50 72 51 80 52 73 53 74 54 78 55
REMARK SMILES IDX 81 56 75 57 76 58 79 59 77 60 56 61 57 62 65 63 58 64 59 65
REMARK SMILES IDX 63 66 66 67 60 68 61 69 64 70 62 71 6 72 7 73 8 74 9 76
REMARK SMILES IDX 10 77 11 78 29 79 12 80 21 81 20 82 13 84 14 85 15 86 16 87
REMARK SMILES IDX 19 88 17 89 18 90 22 91 23 92 24 93 28 94 25 95 27 96 26 97
REMARK H PARENT 3 6 86 24 54 35 7 75 21 83
REMARK Flexibility Score: inf
ROOT
ATOM      1  C   UNL A   1      33.668  31.829  27.250  1.00  0.00     0.042 C 
ENDROOT
BRANCH   1   2
ATOM      2  C   UNL A   1      32.279  32.460  27.239  1.00  0.00     0.118 C 
BRANCH   2   3
ATOM      3  N   UNL A   1      32.296  33.875  27.591  1.00  0.00    -0.352 N 
ATOM      4  O   UNL A   1      32.726  35.739  28.768  1.00  0.00    -0.269 OA
ATOM      5  C   UNL A   1      33.049  34.582  28.494  1.00  0.00     0.251 C 
ATOM      6  H   UNL A   1      31.648  34.423  27.091  1.00  0.00     0.163 HD
BRANCH   5   7
ATOM      7  C   UNL A   1      34.230  33.984  29.150  1.00  0.00     0.039 A 
ATOM      8  C   UNL A   1      35.523  34.316  28.749  1.00  0.00     0.014 A 
ATOM      9  C   UNL A   1      34.045  33.117  30.234  1.00  0.00     0.014 A 
ATOM     10  C   UNL A   1      36.614  33.654  29.302  1.00  0.00     0.010 A 
ATOM     11  C   UNL A   1      35.151  32.532  30.863  1.00  0.00     0.010 A 
ATOM     12  C   UNL A   1      36.445  32.763  30.374  1.00  0.00    -0.014 A 
BRANCH  12  13
ATOM     13  C   UNL A   1      37.643  32.126  30.981  1.00  0.00     0.031 A 
ATOM     14  C   UNL A   1      38.079  32.460  32.381  1.00  0.00     0.074 A 
ATOM     15  C   UNL A   1      38.315  31.197  30.272  1.00  0.00     0.049 A 
ATOM     16  N   UNL A   1      39.057  31.948  33.087  1.00  0.00    -0.248 NA
ATOM     17  C   UNL A   1      37.327  33.511  33.082  1.00  0.00     0.031 C 
ATOM     18  C   UNL A   1      37.998  30.798  28.898  1.00  0.00     0.029 A 
ATOM     19  N   UNL A   1      39.379  30.401  30.609  1.00  0.00    -0.354 N 
ATOM     20  C   UNL A   1      39.052  32.625  34.299  1.00  0.00     0.074 A 
ATOM     21  C   UNL A   1      37.993  33.608  34.224  1.00  0.00     0.031 C 
ATOM     22  C   UNL A   1      38.804  29.791  28.534  1.00  0.00     0.029 A 
ATOM     23  C   UNL A   1      39.739  29.519  29.619  1.00  0.00     0.049 A 
ATOM     24  H   UNL A   1      39.840  30.456  31.477  1.00  0.00     0.167 HD
ATOM     25  C   UNL A   1      39.850  32.437  35.378  1.00  0.00     0.037 A 
ATOM     26  C   UNL A   1      40.721  28.598  29.584  1.00  0.00     0.037 A 
ATOM     27  C   UNL A   1      40.894  31.444  35.452  1.00  0.00     0.049 A 
ATOM     28  C   UNL A   1      41.609  28.433  30.784  1.00  0.00     0.074 A 
ATOM     29  C   UNL A   1      41.724  31.142  36.518  1.00  0.00     0.029 A 
ATOM     30  N   UNL A   1      41.258  30.599  34.412  1.00  0.00    -0.354 N 
ATOM     31  N   UNL A   1      41.556  29.042  31.944  1.00  0.00    -0.248 NA
ATOM     32  C   UNL A   1      42.694  27.450  30.669  1.00  0.00     0.031 C 
ATOM     33  C   UNL A   1      42.633  30.162  36.102  1.00  0.00     0.029 A 
ATOM     34  C   UNL A   1      42.323  29.800  34.801  1.00  0.00     0.049 A 
ATOM     35  H   UNL A   1      40.825  30.572  33.529  1.00  0.00     0.167 HD
ATOM     36  C   UNL A   1      42.581  28.497  32.706  1.00  0.00     0.074 A 
ATOM     37  C   UNL A   1      43.224  27.495  31.883  1.00  0.00     0.031 C 
ATOM     38  C   UNL A   1      42.954  28.801  33.974  1.00  0.00     0.037 A 
BRANCH  25  39
ATOM     39  C   UNL A   1      39.651  33.342  36.563  1.00  0.00     0.064 A 
ATOM     40  C   UNL A   1      40.311  34.576  36.676  1.00  0.00     0.173 A 
ATOM     41  C   UNL A   1      38.755  32.986  37.583  1.00  0.00     0.173 A 
ATOM     42  F   UNL A   1      41.185  34.964  35.736  1.00  0.00    -0.203 F 
ATOM     43  C   UNL A   1      40.106  35.401  37.781  1.00  0.00     0.198 A 
ATOM     44  C   UNL A   1      38.527  33.828  38.669  1.00  0.00     0.198 A 
ATOM     45  F   UNL A   1      38.089  31.822  37.522  1.00  0.00    -0.203 F 
ATOM     46  F   UNL A   1      40.788  36.549  37.893  1.00  0.00    -0.200 F 
ATOM     47  C   UNL A   1      39.209  35.029  38.771  1.00  0.00     0.200 A 
ATOM     48  F   UNL A   1      37.647  33.474  39.615  1.00  0.00    -0.200 F 
ATOM     49  F   UNL A   1      39.008  35.828  39.829  1.00  0.00    -0.200 F 
ENDBRANCH  25  39
BRANCH  26  50
ATOM     50  C   UNL A   1      40.906  27.758  28.372  1.00  0.00     0.064 A 
ATOM     51  C   UNL A   1      40.261  26.519  28.249  1.00  0.00     0.173 A 
ATOM     52  C   UNL A   1      41.729  28.172  27.314  1.00  0.00     0.173 A 
ATOM     53  F   UNL A   1      39.479  26.069  29.241  1.00  0.00    -0.203 F 
ATOM     54  C   UNL A   1      40.451  25.718  27.124  1.00  0.00     0.198 A 
ATOM     55  C   UNL A   1      41.889  27.388  26.175  1.00  0.00     0.198 A 
ATOM     56  F   UNL A   1      42.363  29.353  27.379  1.00  0.00    -0.203 F 
ATOM     57  F   UNL A   1      39.863  24.517  27.054  1.00  0.00    -0.200 F 
ATOM     58  C   UNL A   1      41.258  26.156  26.086  1.00  0.00     0.200 A 
ATOM     59  F   UNL A   1      42.654  27.824  25.166  1.00  0.00    -0.200 F 
ATOM     60  F   UNL A   1      41.434  25.389  25.001  1.00  0.00    -0.200 F 
ENDBRANCH  26  50
BRANCH  38  61
ATOM     61  C   UNL A   1      44.081  28.003  34.565  1.00  0.00     0.064 A 
ATOM     62  C   UNL A   1      45.415  28.435  34.489  1.00  0.00     0.173 A 
ATOM     63  C   UNL A   1      43.821  26.795  35.229  1.00  0.00     0.173 A 
ATOM     64  F   UNL A   1      45.720  29.575  33.852  1.00  0.00    -0.203 F 
ATOM     65  C   UNL A   1      46.447  27.666  35.022  1.00  0.00     0.198 A 
ATOM     66  C   UNL A   1      44.851  26.048  35.792  1.00  0.00     0.198 A 
ATOM     67  F   UNL A   1      42.564  26.338  35.336  1.00  0.00    -0.203 F 
ATOM     68  F   UNL A   1      47.718  28.066  34.879  1.00  0.00    -0.200 F 
ATOM     69  C   UNL A   1      46.164  26.477  35.678  1.00  0.00     0.200 A 
ATOM     70  F   UNL A   1      44.574  24.908  36.440  1.00  0.00    -0.200 F 
ATOM     71  F   UNL A   1      47.159  25.741  36.192  1.00  0.00    -0.200 F 
ENDBRANCH  38  61
ENDBRANCH  12  13
ENDBRANCH   5   7
ENDBRANCH   2   3
ENDBRANCH   1   2
BRANCH   1  72
ATOM     72  C   UNL A   1      33.672  30.332  26.962  1.00  0.00     0.117 C 
BRANCH  72  73
ATOM     73  N   UNL A   1      32.558  29.612  27.555  1.00  0.00    -0.356 N 
ATOM     74  C   UNL A   1      32.107  28.357  27.259  1.00  0.00     0.228 C 
ATOM     75  H   UNL A   1      32.065  30.090  28.260  1.00  0.00     0.163 HD
ATOM     76  O   UNL A   1      31.293  27.830  28.017  1.00  0.00    -0.275 OA
BRANCH  74  77
ATOM     77  C   UNL A   1      32.527  27.715  25.948  1.00  0.00     0.134 C 
ATOM     78  C   UNL A   1      33.237  26.384  26.154  1.00  0.00     0.038 C 
ATOM     79  C   UNL A   1      31.248  27.449  25.162  1.00  0.00     0.276 C 
ATOM     80  C   UNL A   1      33.559  25.772  24.780  1.00  0.00     0.134 C 
ATOM     81  N   UNL A   1      31.518  26.907  23.826  1.00  0.00    -0.330 N 
ATOM     82  C   UNL A   1      32.342  25.677  23.846  1.00  0.00     0.276 C 
ATOM     83  H   UNL A   1      32.096  27.595  23.343  1.00  0.00     0.348 HD
BRANCH  80  84
ATOM     84  C   UNL A   1      34.364  24.490  24.989  1.00  0.00     0.231 C 
ATOM     85  O   UNL A   1      35.503  24.419  24.517  1.00  0.00    -0.274 OA
ATOM     86  N   UNL A   1      33.901  23.524  25.851  1.00  0.00    -0.342 N 
ATOM     87  C   UNL A   1      32.541  23.128  26.170  1.00  0.00     0.119 C 
ATOM     88  C   UNL A   1      34.852  22.726  26.604  1.00  0.00     0.119 C 
ATOM     89  C   UNL A   1      32.643  22.581  27.579  1.00  0.00     0.023 C 
ATOM     90  C   UNL A   1      34.028  21.948  27.625  1.00  0.00     0.023 C 
ENDBRANCH  80  84
BRANCH  81  91
ATOM     91  C   UNL A   1      30.275  26.768  23.032  1.00  0.00     0.300 C 
BRANCH  91  92
ATOM     92  C   UNL A   1      29.518  28.047  22.751  1.00  0.00     0.025 A 
ATOM     93  C   UNL A   1      28.191  28.244  23.156  1.00  0.00     0.013 A 
ATOM     94  C   UNL A   1      30.107  29.070  22.016  1.00  0.00     0.120 A 
ATOM     95  C   UNL A   1      27.496  29.375  22.745  1.00  0.00     0.021 A 
ATOM     96  N   UNL A   1      29.464  30.194  21.623  1.00  0.00    -0.264 NA
ATOM     97  C   UNL A   1      28.169  30.312  21.982  1.00  0.00     0.111 A 
ENDBRANCH  91  92
ENDBRANCH  81  91
ENDBRANCH  74  77
ENDBRANCH  72  73
ENDBRANCH   1  72
TORSDOF 13
ENDMDL
MODEL 2
REMARK VINA RESULT:     -13.3      1.144      1.486
REMARK SMILES O=C(NCCCNC(=O)[C@H]1C[C@@H](C(=O)N2CCCC2)C[N@@H+](Cc2cccnc2)C1)c1ccc(-c2c3nc(c(-c4c(F)c(F)c(F)c(F)c4F)c4ccc([nH]4)c(-c4c(F)c(F)c(F)c(F)c4F)c4nc(c(-c5c(F)c(F)c(F)c(F)c5F)c5ccc2[nH]5)C=C4)C=C3)cc1
REMARK SMILES IDX 5 1 4 2 3 3 1 4 2 5 30 7 31 8 92 9 32 10 91 11 33 12 34 13
REMARK SMILES IDX 35 14 85 15 36 16 90 17 84 18 86 19 37 20 89 21 83 22 82 23
REMARK SMILES IDX 38 25 70 26 50 27 69 28 51 29 54 30 68 31 87 32 52 33 53 34
REMARK SMILES IDX 67 36 88 37 55 38 39 39 40 40 48 41 41 42 42 43 46 44 49 45
REMARK SMILES IDX 43 46 44 47 47 48 45 49 71 50 72 51 80 52 73 53 74 54 78 55
REMARK SMILES IDX 81 56 75 57 76 58 79 59 77 60 56 61 57 62 65 63 58 64 59 65
REMARK SMILES IDX 63 66 66 67 60 68 61 69 64 70 62 71 6 72 7 73 8 74 9 76
REMARK SMILES IDX 10 77 11 78 29 79 12 80 21 81 20 82 13 84 14 85 15 86 16 87
REMARK SMILES IDX 19 88 17 89 18 90 22 91 23 92 24 93 28 94 25 95 27 96 26 97
REMARK H PARENT 3 6 86 24 54 35 7 75 21 83
REMARK Flexibility Score: inf
ROOT
ATOM      1  C   UNL A   1      31.951  31.376  27.246  1.00  0.00     0.042 C 
ENDROOT
BRANCH   1   2
ATOM      2  C   UNL A   1      32.644  32.567  26.591  1.00  0.00     0.118 C 
BRANCH   2   3
ATOM      3  N   UNL A   1      32.440  33.813  27.321  1.00  0.00    -0.352 N 
ATOM      4  O   UNL A   1      32.534  35.301  29.001  1.00  0.00    -0.269 OA
ATOM      5  C   UNL A   1      33.034  34.319  28.450  1.00  0.00     0.251 C 
ATOM      6  H   UNL A   1      31.750  34.399  26.933  1.00  0.00     0.163 HD
BRANCH   5   7
ATOM      7  C   UNL A   1      34.249  33.705  29.024  1.00  0.00     0.039 A 
ATOM      8  C   UNL A   1      34.171  32.571  29.830  1.00  0.00     0.014 A 
ATOM      9  C   UNL A   1      35.504  34.236  28.700  1.00  0.00     0.014 A 
ATOM     10  C   UNL A   1      35.315  32.081  30.452  1.00  0.00     0.010 A 
ATOM     11  C   UNL A   1      36.666  33.675  29.241  1.00  0.00     0.010 A 
ATOM     12  C   UNL A   1      36.578  32.617  30.157  1.00  0.00    -0.014 A 
BRANCH  12  13
ATOM     13  C   UNL A   1      37.783  32.021  30.793  1.00  0.00     0.031 A 
ATOM     14  C   UNL A   1      38.184  32.383  32.196  1.00  0.00     0.074 A 
ATOM     15  C   UNL A   1      38.493  31.104  30.106  1.00  0.00     0.049 A 
ATOM     16  N   UNL A   1      39.163  31.906  32.926  1.00  0.00    -0.248 NA
ATOM     17  C   UNL A   1      37.390  33.420  32.872  1.00  0.00     0.031 C 
ATOM     18  C   UNL A   1      38.212  30.681  28.731  1.00  0.00     0.029 A 
ATOM     19  N   UNL A   1      39.574  30.341  30.472  1.00  0.00    -0.354 N 
ATOM     20  C   UNL A   1      39.117  32.596  34.130  1.00  0.00     0.074 A 
ATOM     21  C   UNL A   1      38.032  33.548  34.024  1.00  0.00     0.031 C 
ATOM     22  C   UNL A   1      39.053  29.693  28.394  1.00  0.00     0.029 A 
ATOM     23  C   UNL A   1      39.977  29.460  29.499  1.00  0.00     0.049 A 
ATOM     24  H   UNL A   1      40.017  30.420  31.347  1.00  0.00     0.167 HD
ATOM     25  C   UNL A   1      39.901  32.443  35.225  1.00  0.00     0.037 A 
ATOM     26  C   UNL A   1      40.984  28.567  29.492  1.00  0.00     0.037 A 
ATOM     27  C   UNL A   1      40.971  31.481  35.328  1.00  0.00     0.049 A 
ATOM     28  C   UNL A   1      41.854  28.440  30.709  1.00  0.00     0.074 A 
ATOM     29  C   UNL A   1      41.789  31.215  36.412  1.00  0.00     0.029 A 
ATOM     30  N   UNL A   1      41.377  30.636  34.305  1.00  0.00    -0.354 N 
ATOM     31  N   UNL A   1      41.764  29.061  31.860  1.00  0.00    -0.248 NA
ATOM     32  C   UNL A   1      42.969  27.488  30.625  1.00  0.00     0.031 C 
ATOM     33  C   UNL A   1      42.733  30.256  36.024  1.00  0.00     0.029 A 
ATOM     34  C   UNL A   1      42.458  29.872  34.722  1.00  0.00     0.049 A 
ATOM     35  H   UNL A   1      40.961  30.586  33.414  1.00  0.00     0.167 HD
ATOM     36  C   UNL A   1      42.789  28.554  32.647  1.00  0.00     0.074 A 
ATOM     37  C   UNL A   1      43.476  27.561  31.847  1.00  0.00     0.031 C 
ATOM     38  C   UNL A   1      43.131  28.882  33.917  1.00  0.00     0.037 A 
BRANCH  25  39
ATOM     39  C   UNL A   1      39.655  33.355  36.395  1.00  0.00     0.064 A 
ATOM     40  C   UNL A   1      40.257  34.619  36.493  1.00  0.00     0.173 A 
ATOM     41  C   UNL A   1      38.769  32.973  37.416  1.00  0.00     0.173 A 
ATOM     42  F   UNL A   1      41.118  35.033  35.551  1.00  0.00    -0.203 F 
ATOM     43  C   UNL A   1      40.009  35.450  37.585  1.00  0.00     0.198 A 
ATOM     44  C   UNL A   1      38.498  33.820  38.488  1.00  0.00     0.198 A 
ATOM     45  F   UNL A   1      38.158  31.780  37.369  1.00  0.00    -0.203 F 
ATOM     46  F   UNL A   1      40.638  36.629  37.683  1.00  0.00    -0.200 F 
ATOM     47  C   UNL A   1      39.125  35.052  38.576  1.00  0.00     0.200 A 
ATOM     48  F   UNL A   1      37.631  33.441  39.435  1.00  0.00    -0.200 F 
ATOM     49  F   UNL A   1      38.882  35.856  39.621  1.00  0.00    -0.200 F 
ENDBRANCH  25  39
BRANCH  26  50
ATOM     50  C   UNL A   1      41.215  27.719  28.293  1.00  0.00     0.064 A 
ATOM     51  C   UNL A   1      40.598  26.466  28.167  1.00  0.00     0.173 A 
ATOM     52  C   UNL A   1      42.055  28.139  27.251  1.00  0.00     0.173 A 
ATOM     53  F   UNL A   1      39.800  26.011  29.144  1.00  0.00    -0.203 F 
ATOM     54  C   UNL A   1      40.830  25.659  27.055  1.00  0.00     0.198 A 
ATOM     55  C   UNL A   1      42.258  27.347  26.124  1.00  0.00     0.198 A 
ATOM     56  F   UNL A   1      42.665  29.332  27.320  1.00  0.00    -0.203 F 
ATOM     57  F   UNL A   1      40.267  24.445  26.983  1.00  0.00    -0.200 F 
ATOM     58  C   UNL A   1      41.654  26.102  26.032  1.00  0.00     0.200 A 
ATOM     59  F   UNL A   1      43.039  27.789  25.129  1.00  0.00    -0.200 F 
ATOM     60  F   UNL A   1      41.870  25.329  24.960  1.00  0.00    -0.200 F 
ENDBRANCH  26  50
BRANCH  38  61
ATOM     61  C   UNL A   1      44.270  28.124  34.537  1.00  0.00     0.064 A 
ATOM     62  C   UNL A   1      45.592  28.591  34.478  1.00  0.00     0.173 A 
ATOM     63  C   UNL A   1      44.031  26.917  35.213  1.00  0.00     0.173 A 
ATOM     64  F   UNL A   1      45.877  29.730  33.830  1.00  0.00    -0.203 F 
ATOM     65  C   UNL A   1      46.635  27.857  35.038  1.00  0.00     0.198 A 
ATOM     66  C   UNL A   1      45.072  26.206  35.803  1.00  0.00     0.198 A 
ATOM     67  F   UNL A   1      42.786  26.427  35.306  1.00  0.00    -0.203 F 
ATOM     68  F   UNL A   1      47.898  28.291  34.911  1.00  0.00    -0.200 F 
ATOM     69  C   UNL A   1      46.374  26.670  35.705  1.00  0.00     0.200 A 
ATOM     70  F   UNL A   1      44.815  25.067  36.462  1.00  0.00    -0.200 F 
ATOM     71  F   UNL A   1      47.380  25.968  36.245  1.00  0.00    -0.200 F 
ENDBRANCH  38  61
ENDBRANCH  12  13
ENDBRANCH   5   7
ENDBRANCH   2   3
ENDBRANCH   1   2
BRANCH   1  72
ATOM     72  C   UNL A   1      32.746  30.076  27.170  1.00  0.00     0.117 C 
BRANCH  72  73
ATOM     73  N   UNL A   1      31.983  28.895  27.535  1.00  0.00    -0.356 N 
ATOM     74  C   UNL A   1      31.653  27.825  26.752  1.00  0.00     0.228 C 
ATOM     75  H   UNL A   1      31.663  28.861  28.464  1.00  0.00     0.163 HD
ATOM     76  O   UNL A   1      31.196  26.818  27.292  1.00  0.00    -0.275 OA
BRANCH  74  77
ATOM     77  C   UNL A   1      31.744  27.963  25.242  1.00  0.00     0.134 C 
ATOM     78  C   UNL A   1      32.295  26.709  24.576  1.00  0.00     0.038 C 
ATOM     79  C   UNL A   1      30.323  28.178  24.736  1.00  0.00     0.276 C 
ATOM     80  C   UNL A   1      32.284  26.907  23.051  1.00  0.00     0.134 C 
ATOM     81  N   UNL A   1      30.276  28.416  23.290  1.00  0.00    -0.330 N 
ATOM     82  C   UNL A   1      30.919  27.344  22.496  1.00  0.00     0.276 C 
ATOM     83  H   UNL A   1      30.845  29.243  23.112  1.00  0.00     0.348 HD
BRANCH  80  84
ATOM     84  C   UNL A   1      32.934  25.693  22.392  1.00  0.00     0.231 C 
ATOM     85  O   UNL A   1      33.896  25.868  21.637  1.00  0.00    -0.274 OA
ATOM     86  N   UNL A   1      32.578  24.426  22.790  1.00  0.00    -0.342 N 
ATOM     87  C   UNL A   1      31.303  23.915  23.261  1.00  0.00     0.119 C 
ATOM     88  C   UNL A   1      33.572  23.367  22.770  1.00  0.00     0.119 C 
ATOM     89  C   UNL A   1      31.683  22.750  24.150  1.00  0.00     0.023 C 
ATOM     90  C   UNL A   1      32.937  22.184  23.493  1.00  0.00     0.023 C 
ENDBRANCH  80  84
BRANCH  81  91
ATOM     91  C   UNL A   1      28.904  28.743  22.834  1.00  0.00     0.300 C 
BRANCH  91  92
ATOM     92  C   UNL A   1      28.682  30.158  22.351  1.00  0.00     0.025 A 
ATOM     93  C   UNL A   1      28.987  31.280  23.133  1.00  0.00     0.013 A 
ATOM     94  C   UNL A   1      28.102  30.399  21.110  1.00  0.00     0.120 A 
ATOM     95  C   UNL A   1      28.627  32.552  22.701  1.00  0.00     0.021 A 
ATOM     96  N   UNL A   1      27.763  31.625  20.651  1.00  0.00    -0.264 NA
ATOM     97  C   UNL A   1      28.018  32.671  21.464  1.00  0.00     0.111 A 
ENDBRANCH  91  92
ENDBRANCH  81  91
ENDBRANCH  74  77
ENDBRANCH  72  73
ENDBRANCH   1  72
TORSDOF 13
ENDMDL
MODEL 3
REMARK VINA RESULT:     -13.2      1.146      2.175
REMARK SMILES O=C(NCCCNC(=O)[C@H]1C[C@@H](C(=O)N2CCCC2)C[N@@H+](Cc2cccnc2)C1)c1ccc(-c2c3nc(c(-c4c(F)c(F)c(F)c(F)c4F)c4ccc([nH]4)c(-c4c(F)c(F)c(F)c(F)c4F)c4nc(c(-c5c(F)c(F)c(F)c(F)c5F)c5ccc2[nH]5)C=C4)C=C3)cc1
REMARK SMILES IDX 5 1 4 2 3 3 1 4 2 5 30 7 31 8 92 9 32 10 91 11 33 12 34 13
REMARK SMILES IDX 35 14 85 15 36 16 90 17 84 18 86 19 37 20 89 21 83 22 82 23
REMARK SMILES IDX 38 25 70 26 50 27 69 28 51 29 54 30 68 31 87 32 52 33 53 34
REMARK SMILES IDX 67 36 88 37 55 38 39 39 40 40 48 41 41 42 42 43 46 44 49 45
REMARK SMILES IDX 43 46 44 47 47 48 45 49 71 50 72 51 80 52 73 53 74 54 78 55
REMARK SMILES IDX 81 56 75 57 76 58 79 59 77 60 56 61 57 62 65 63 58 64 59 65
REMARK SMILES IDX 63 66 66 67 60 68 61 69 64 70 62 71 6 72 7 73 8 74 9 76
REMARK SMILES IDX 10 77 11 78 29 79 12 80 21 81 20 82 13 84 14 85 15 86 16 87
REMARK SMILES IDX 19 88 17 89 18 90 22 91 23 92 24 93 28 94 25 95 27 96 26 97
REMARK H PARENT 3 6 86 24 54 35 7 75 21 83
REMARK Flexibility Score: inf
ROOT
ATOM      1  C   UNL A   1      32.041  31.754  27.272  1.00  0.00     0.042 C 
ENDROOT
BRANCH   1   2
ATOM      2  C   UNL A   1      32.782  32.997  26.790  1.00  0.00     0.118 C 
BRANCH   2   3
ATOM      3  N   UNL A   1      32.545  34.162  27.634  1.00  0.00    -0.352 N 
ATOM      4  O   UNL A   1      32.582  35.476  29.455  1.00  0.00    -0.269 OA
ATOM      5  C   UNL A   1      33.108  34.560  28.821  1.00  0.00     0.251 C 
ATOM      6  H   UNL A   1      31.855  34.774  27.291  1.00  0.00     0.163 HD
BRANCH   5   7
ATOM      7  C   UNL A   1      34.319  33.907  29.358  1.00  0.00     0.039 A 
ATOM      8  C   UNL A   1      34.236  32.719  30.082  1.00  0.00     0.014 A 
ATOM      9  C   UNL A   1      35.576  34.460  29.081  1.00  0.00     0.014 A 
ATOM     10  C   UNL A   1      35.376  32.186  30.676  1.00  0.00     0.010 A 
ATOM     11  C   UNL A   1      36.735  33.862  29.589  1.00  0.00     0.010 A 
ATOM     12  C   UNL A   1      36.641  32.741  30.428  1.00  0.00    -0.014 A 
BRANCH  12  13
ATOM     13  C   UNL A   1      37.842  32.102  31.028  1.00  0.00     0.031 A 
ATOM     14  C   UNL A   1      38.277  32.424  32.431  1.00  0.00     0.074 A 
ATOM     15  C   UNL A   1      38.515  31.182  30.309  1.00  0.00     0.049 A 
ATOM     16  N   UNL A   1      39.258  31.908  33.131  1.00  0.00    -0.248 NA
ATOM     17  C   UNL A   1      37.523  33.466  33.142  1.00  0.00     0.031 C 
ATOM     18  C   UNL A   1      38.198  30.795  28.932  1.00  0.00     0.029 A 
ATOM     19  N   UNL A   1      39.582  30.385  30.639  1.00  0.00    -0.354 N 
ATOM     20  C   UNL A   1      39.251  32.573  34.350  1.00  0.00     0.074 A 
ATOM     21  C   UNL A   1      38.189  33.554  34.285  1.00  0.00     0.031 C 
ATOM     22  C   UNL A   1      39.007  29.794  28.558  1.00  0.00     0.029 A 
ATOM     23  C   UNL A   1      39.944  29.514  29.640  1.00  0.00     0.049 A 
ATOM     24  H   UNL A   1      40.044  30.434  31.507  1.00  0.00     0.167 HD
ATOM     25  C   UNL A   1      40.051  32.377  35.426  1.00  0.00     0.037 A 
ATOM     26  C   UNL A   1      40.928  28.597  29.596  1.00  0.00     0.037 A 
ATOM     27  C   UNL A   1      41.098  31.387  35.490  1.00  0.00     0.049 A 
ATOM     28  C   UNL A   1      41.817  28.422  30.794  1.00  0.00     0.074 A 
ATOM     29  C   UNL A   1      41.929  31.077  36.552  1.00  0.00     0.029 A 
ATOM     30  N   UNL A   1      41.463  30.553  34.442  1.00  0.00    -0.354 N 
ATOM     31  N   UNL A   1      41.764  29.021  31.959  1.00  0.00    -0.248 NA
ATOM     32  C   UNL A   1      42.905  27.444  30.668  1.00  0.00     0.031 C 
ATOM     33  C   UNL A   1      42.840  30.104  36.127  1.00  0.00     0.029 A 
ATOM     34  C   UNL A   1      42.531  29.753  34.823  1.00  0.00     0.049 A 
ATOM     35  H   UNL A   1      41.029  30.533  33.559  1.00  0.00     0.167 HD
ATOM     36  C   UNL A   1      42.791  28.471  32.715  1.00  0.00     0.074 A 
ATOM     37  C   UNL A   1      43.436  27.479  31.882  1.00  0.00     0.031 C 
ATOM     38  C   UNL A   1      43.164  28.764  33.985  1.00  0.00     0.037 A 
BRANCH  25  39
ATOM     39  C   UNL A   1      39.850  33.271  36.620  1.00  0.00     0.064 A 
ATOM     40  C   UNL A   1      40.560  34.471  36.779  1.00  0.00     0.173 A 
ATOM     41  C   UNL A   1      38.901  32.939  37.600  1.00  0.00     0.173 A 
ATOM     42  F   UNL A   1      41.485  34.834  35.878  1.00  0.00    -0.203 F 
ATOM     43  C   UNL A   1      40.353  35.286  37.891  1.00  0.00     0.198 A 
ATOM     44  C   UNL A   1      38.673  33.772  38.693  1.00  0.00     0.198 A 
ATOM     45  F   UNL A   1      38.186  31.808  37.494  1.00  0.00    -0.203 F 
ATOM     46  F   UNL A   1      41.082  36.399  38.049  1.00  0.00    -0.200 F 
ATOM     47  C   UNL A   1      39.404  34.939  38.842  1.00  0.00     0.200 A 
ATOM     48  F   UNL A   1      37.744  33.444  39.600  1.00  0.00    -0.200 F 
ATOM     49  F   UNL A   1      39.202  35.728  39.906  1.00  0.00    -0.200 F 
ENDBRANCH  25  39
BRANCH  26  50
ATOM     50  C   UNL A   1      41.115  27.768  28.375  1.00  0.00     0.064 A 
ATOM     51  C   UNL A   1      41.949  28.199  27.333  1.00  0.00     0.173 A 
ATOM     52  C   UNL A   1      40.466  26.534  28.223  1.00  0.00     0.173 A 
ATOM     53  F   UNL A   1      42.577  29.380  27.422  1.00  0.00    -0.203 F 
ATOM     54  C   UNL A   1      42.108  27.436  26.178  1.00  0.00     0.198 A 
ATOM     55  C   UNL A   1      40.654  25.756  27.084  1.00  0.00     0.198 A 
ATOM     56  F   UNL A   1      39.663  26.073  29.194  1.00  0.00    -0.203 F 
ATOM     57  F   UNL A   1      42.871  27.893  25.176  1.00  0.00    -0.200 F 
ATOM     58  C   UNL A   1      41.466  26.213  26.057  1.00  0.00     0.200 A 
ATOM     59  F   UNL A   1      40.048  24.565  26.981  1.00  0.00    -0.200 F 
ATOM     60  F   UNL A   1      41.626  25.476  24.950  1.00  0.00    -0.200 F 
ENDBRANCH  26  50
BRANCH  38  61
ATOM     61  C   UNL A   1      44.294  27.964  34.568  1.00  0.00     0.064 A 
ATOM     62  C   UNL A   1      44.078  26.742  35.223  1.00  0.00     0.173 A 
ATOM     63  C   UNL A   1      45.616  28.423  34.457  1.00  0.00     0.173 A 
ATOM     64  F   UNL A   1      42.832  26.266  35.370  1.00  0.00    -0.203 F 
ATOM     65  C   UNL A   1      45.138  26.030  35.778  1.00  0.00     0.198 A 
ATOM     66  C   UNL A   1      46.677  27.690  34.981  1.00  0.00     0.198 A 
ATOM     67  F   UNL A   1      45.881  29.582  33.837  1.00  0.00    -0.203 F 
ATOM     68  F   UNL A   1      44.900  24.898  36.455  1.00  0.00    -0.200 F 
ATOM     69  C   UNL A   1      46.437  26.501  35.651  1.00  0.00     0.200 A 
ATOM     70  F   UNL A   1      47.932  28.139  34.843  1.00  0.00    -0.200 F 
ATOM     71  F   UNL A   1      47.455  25.812  36.184  1.00  0.00    -0.200 F 
ENDBRANCH  38  61
ENDBRANCH  12  13
ENDBRANCH   5   7
ENDBRANCH   2   3
ENDBRANCH   1   2
BRANCH   1  72
ATOM     72  C   UNL A   1      32.738  30.442  26.929  1.00  0.00     0.117 C 
BRANCH  72  73
ATOM     73  N   UNL A   1      32.034  29.259  27.391  1.00  0.00    -0.356 N 
ATOM     74  C   UNL A   1      31.707  28.136  26.683  1.00  0.00     0.228 C 
ATOM     75  H   UNL A   1      31.757  29.266  28.335  1.00  0.00     0.163 HD
ATOM     76  O   UNL A   1      31.309  27.147  27.298  1.00  0.00    -0.275 OA
BRANCH  74  77
ATOM     77  C   UNL A   1      31.727  28.193  25.166  1.00  0.00     0.134 C 
ATOM     78  C   UNL A   1      32.293  26.924  24.544  1.00  0.00     0.038 C 
ATOM     79  C   UNL A   1      30.278  28.331  24.714  1.00  0.00     0.276 C 
ATOM     80  C   UNL A   1      32.208  27.036  23.013  1.00  0.00     0.134 C 
ATOM     81  N   UNL A   1      30.159  28.487  23.261  1.00  0.00    -0.330 N 
ATOM     82  C   UNL A   1      30.805  27.394  22.497  1.00  0.00     0.276 C 
ATOM     83  H   UNL A   1      30.690  29.322  23.012  1.00  0.00     0.348 HD
BRANCH  80  84
ATOM     84  C   UNL A   1      32.872  25.809  22.391  1.00  0.00     0.231 C 
ATOM     85  O   UNL A   1      33.853  25.971  21.657  1.00  0.00    -0.274 OA
ATOM     86  N   UNL A   1      32.505  24.550  22.803  1.00  0.00    -0.342 N 
ATOM     87  C   UNL A   1      31.218  24.049  23.250  1.00  0.00     0.119 C 
ATOM     88  C   UNL A   1      33.498  23.489  22.826  1.00  0.00     0.119 C 
ATOM     89  C   UNL A   1      31.574  22.899  24.169  1.00  0.00     0.023 C 
ATOM     90  C   UNL A   1      32.843  22.320  23.554  1.00  0.00     0.023 C 
ENDBRANCH  80  84
BRANCH  81  91
ATOM     91  C   UNL A   1      28.758  28.740  22.851  1.00  0.00     0.300 C 
BRANCH  91  92
ATOM     92  C   UNL A   1      28.435  30.154  22.423  1.00  0.00     0.025 A 
ATOM     93  C   UNL A   1      28.221  30.508  21.084  1.00  0.00     0.013 A 
ATOM     94  C   UNL A   1      28.393  31.184  23.357  1.00  0.00     0.120 A 
ATOM     95  C   UNL A   1      28.073  31.845  20.730  1.00  0.00     0.021 A 
ATOM     96  N   UNL A   1      28.227  32.490  23.046  1.00  0.00    -0.264 NA
ATOM     97  C   UNL A   1      28.087  32.791  21.738  1.00  0.00     0.111 A 
ENDBRANCH  91  92
ENDBRANCH  81  91
ENDBRANCH  74  77
ENDBRANCH  72  73
ENDBRANCH   1  72
TORSDOF 13
ENDMDL
