MODEL 1
REMARK VINA RESULT:     -13.9      0.000      0.000
REMARK SMILES C[C@@H](NC(=O)/C(=C/c1ccc(Cl)cc1)NC(=O)c1ccc(C(C)(C)C)cc1)C(=O)NCCCNC(=O)c1ccc(-c2c3nc(c(-c4c(F)c(F)c(F)c(F)c4F)c4ccc([nH]4)c(-c4c(F)c(F)c(F)c(F)c4F)c4nc(c(-c5c(F)c(F)c(F)c(F)c5F)c5ccc2[nH]5)C=C4)C=C3)cc1
REMARK SMILES IDX 28 1 29 2 30 3 2 5 1 6 3 7 4 8 5 10 6 11 7 12 15 13 16 14
REMARK SMILES IDX 17 16 18 17 19 18 27 19 20 20 26 21 21 22 22 23 23 24 24 25
REMARK SMILES IDX 25 26 8 27 9 28 14 29 10 30 13 31 11 32 12 33 31 34 32 35
REMARK SMILES IDX 33 36 34 37 35 38 36 40 37 41 38 42 99 43 39 44 98 45 40 46
REMARK SMILES IDX 41 47 42 48 92 49 43 50 97 51 91 52 93 53 44 54 96 55 90 56
REMARK SMILES IDX 89 57 45 59 77 60 57 61 76 62 58 63 61 64 75 65 94 66 59 67
REMARK SMILES IDX 60 68 74 70 95 71 62 72 46 73 47 74 55 75 48 76 49 77 53 78
REMARK SMILES IDX 56 79 50 80 51 81 54 82 52 83 78 84 79 85 87 86 80 87 81 88
REMARK SMILES IDX 85 89 88 90 82 91 83 92 86 93 84 94 63 95 64 96 72 97 65 98
REMARK SMILES IDX 66 99 70 100 73 101 67 102 68 103 71 104 69 105
REMARK H PARENT 30 4 3 9 15 15 34 39 93 58 61 69
REMARK Flexibility Score: inf
ROOT
ATOM      1  C   UNL A   1      32.728  29.128  24.415  1.00  0.00     0.242 C 
ATOM      2  O   UNL A   1      33.738  28.957  23.725  1.00  0.00    -0.273 OA
ATOM      3  N   UNL A   1      32.832  29.955  25.487  1.00  0.00    -0.354 N 
ATOM      4  H   UNL A   1      33.708  30.388  25.604  1.00  0.00     0.163 HD
ENDROOT
BRANCH   1   5
ATOM      5  C   UNL A   1      31.453  28.312  24.145  1.00  0.00     0.168 C 
ATOM      6  C   UNL A   1      30.376  29.312  23.709  1.00  0.00     0.041 C 
BRANCH   5   7
ATOM      7  N   UNL A   1      31.510  27.175  23.208  1.00  0.00    -0.339 N 
ATOM      8  C   UNL A   1      31.362  25.846  23.543  1.00  0.00     0.268 C 
ATOM      9  H   UNL A   1      31.667  27.383  22.258  1.00  0.00     0.164 HD
ATOM     10  O   UNL A   1      30.463  25.188  23.030  1.00  0.00    -0.268 OA
BRANCH   8  11
ATOM     11  C   UNL A   1      32.431  25.191  24.373  1.00  0.00     0.107 C 
ATOM     12  C   UNL A   1      33.637  25.041  23.791  1.00  0.00     0.040 C 
BRANCH  11  13
ATOM     13  N   UNL A   1      32.219  24.847  25.694  1.00  0.00    -0.317 N 
ATOM     14  C   UNL A   1      32.151  23.666  26.394  1.00  0.00     0.255 C 
ATOM     15  H   UNL A   1      32.083  25.634  26.270  1.00  0.00     0.170 HD
ATOM     16  O   UNL A   1      31.830  23.695  27.582  1.00  0.00    -0.269 OA
BRANCH  14  17
ATOM     17  C   UNL A   1      32.447  22.363  25.791  1.00  0.00     0.040 A 
ATOM     18  C   UNL A   1      33.385  21.547  26.418  1.00  0.00     0.014 A 
ATOM     19  C   UNL A   1      31.866  21.969  24.588  1.00  0.00     0.014 A 
ATOM     20  C   UNL A   1      33.656  20.282  25.896  1.00  0.00     0.005 A 
ATOM     21  C   UNL A   1      32.135  20.696  24.075  1.00  0.00     0.005 A 
ATOM     22  C   UNL A   1      33.001  19.809  24.741  1.00  0.00    -0.043 A 
BRANCH  22  23
ATOM     23  C   UNL A   1      33.236  18.364  24.269  1.00  0.00    -0.013 C 
ATOM     24  C   UNL A   1      34.747  18.066  24.251  1.00  0.00     0.016 C 
ATOM     25  C   UNL A   1      32.535  17.378  25.234  1.00  0.00     0.016 C 
ATOM     26  C   UNL A   1      32.677  18.077  22.859  1.00  0.00     0.016 C 
ENDBRANCH  22  23
ENDBRANCH  14  17
ENDBRANCH  11  13
BRANCH  12  27
ATOM     27  C   UNL A   1      34.819  24.275  24.245  1.00  0.00    -0.023 A 
ATOM     28  C   UNL A   1      35.479  24.520  25.461  1.00  0.00     0.010 A 
ATOM     29  C   UNL A   1      35.199  23.147  23.504  1.00  0.00     0.010 A 
ATOM     30  C   UNL A   1      36.531  23.704  25.889  1.00  0.00     0.021 A 
ATOM     31  C   UNL A   1      36.236  22.315  23.941  1.00  0.00     0.021 A 
ATOM     32  C   UNL A   1      36.903  22.602  25.127  1.00  0.00     0.041 A 
ATOM     33  Cl  UNL A   1      38.171  21.575  25.671  1.00  0.00    -0.084 Cl
ENDBRANCH  12  27
ENDBRANCH   8  11
ENDBRANCH   5   7
ENDBRANCH   1   5
BRANCH   3  34
ATOM     34  C   UNL A   1      31.834  30.292  26.480  1.00  0.00     0.117 C 
BRANCH  34  35
ATOM     35  C   UNL A   1      31.626  31.793  26.566  1.00  0.00     0.042 C 
BRANCH  35  36
ATOM     36  C   UNL A   1      32.778  32.513  27.251  1.00  0.00     0.118 C 
BRANCH  36  37
ATOM     37  N   UNL A   1      32.472  33.900  27.569  1.00  0.00    -0.352 N 
ATOM     38  C   UNL A   1      33.062  34.711  28.514  1.00  0.00     0.251 C 
ATOM     39  H   UNL A   1      31.750  34.313  27.042  1.00  0.00     0.163 HD
ATOM     40  O   UNL A   1      32.614  35.821  28.751  1.00  0.00    -0.269 OA
BRANCH  38  41
ATOM     41  C   UNL A   1      34.221  34.194  29.272  1.00  0.00     0.039 A 
ATOM     42  C   UNL A   1      33.989  33.389  30.388  1.00  0.00     0.014 A 
ATOM     43  C   UNL A   1      35.525  34.448  28.836  1.00  0.00     0.014 A 
ATOM     44  C   UNL A   1      35.067  32.768  31.021  1.00  0.00     0.010 A 
ATOM     45  C   UNL A   1      36.585  33.760  29.413  1.00  0.00     0.010 A 
ATOM     46  C   UNL A   1      36.368  32.913  30.510  1.00  0.00    -0.014 A 
BRANCH  46  47
ATOM     47  C   UNL A   1      37.511  32.180  31.108  1.00  0.00     0.031 A 
ATOM     48  C   UNL A   1      37.995  32.536  32.485  1.00  0.00     0.074 A 
ATOM     49  C   UNL A   1      38.152  31.240  30.387  1.00  0.00     0.049 A 
ATOM     50  N   UNL A   1      39.006  32.049  33.159  1.00  0.00    -0.248 NA
ATOM     51  C   UNL A   1      37.266  33.605  33.186  1.00  0.00     0.031 C 
ATOM     52  C   UNL A   1      37.818  30.850  29.016  1.00  0.00     0.029 A 
ATOM     53  N   UNL A   1      39.226  30.446  30.704  1.00  0.00    -0.354 N 
ATOM     54  C   UNL A   1      39.043  32.762  34.350  1.00  0.00     0.074 A 
ATOM     55  C   UNL A   1      37.992  33.754  34.285  1.00  0.00     0.031 C 
ATOM     56  C   UNL A   1      38.649  29.872  28.621  1.00  0.00     0.029 A 
ATOM     57  C   UNL A   1      39.593  29.588  29.696  1.00  0.00     0.049 A 
ATOM     58  H   UNL A   1      39.689  30.487  31.572  1.00  0.00     0.167 HD
ATOM     59  C   UNL A   1      39.861  32.586  35.415  1.00  0.00     0.037 A 
ATOM     60  C   UNL A   1      40.581  28.673  29.648  1.00  0.00     0.037 A 
ATOM     61  C   UNL A   1      40.883  31.575  35.491  1.00  0.00     0.049 A 
ATOM     62  C   UNL A   1      41.462  28.483  30.853  1.00  0.00     0.074 A 
ATOM     63  C   UNL A   1      41.719  31.270  36.549  1.00  0.00     0.029 A 
ATOM     64  N   UNL A   1      41.205  30.704  34.461  1.00  0.00    -0.354 N 
ATOM     65  N   UNL A   1      41.437  29.110  32.003  1.00  0.00    -0.248 NA
ATOM     66  C   UNL A   1      42.502  27.449  30.754  1.00  0.00     0.031 C 
ATOM     67  C   UNL A   1      42.574  30.240  36.148  1.00  0.00     0.029 A 
ATOM     68  C   UNL A   1      42.241  29.871  34.854  1.00  0.00     0.049 A 
ATOM     69  H   UNL A   1      40.764  30.679  33.582  1.00  0.00     0.167 HD
ATOM     70  C   UNL A   1      42.436  28.533  32.774  1.00  0.00     0.074 A 
ATOM     71  C   UNL A   1      43.038  27.493  31.966  1.00  0.00     0.031 C 
ATOM     72  C   UNL A   1      42.822  28.837  34.038  1.00  0.00     0.037 A 
BRANCH  59  73
ATOM     73  C   UNL A   1      39.672  33.501  36.589  1.00  0.00     0.064 A 
ATOM     74  C   UNL A   1      40.320  34.744  36.663  1.00  0.00     0.173 A 
ATOM     75  C   UNL A   1      38.813  33.146  37.639  1.00  0.00     0.173 A 
ATOM     76  F   UNL A   1      41.164  35.124  35.692  1.00  0.00    -0.203 F 
ATOM     77  C   UNL A   1      40.138  35.583  37.759  1.00  0.00     0.198 A 
ATOM     78  C   UNL A   1      38.609  34.001  38.719  1.00  0.00     0.198 A 
ATOM     79  F   UNL A   1      38.165  31.971  37.615  1.00  0.00    -0.203 F 
ATOM     80  F   UNL A   1      40.807  36.741  37.832  1.00  0.00    -0.200 F 
ATOM     81  C   UNL A   1      39.278  35.214  38.782  1.00  0.00     0.200 A 
ATOM     82  F   UNL A   1      37.768  33.649  39.701  1.00  0.00    -0.200 F 
ATOM     83  F   UNL A   1      39.099  36.026  39.834  1.00  0.00    -0.200 F 
ENDBRANCH  59  73
BRANCH  60  84
ATOM     84  C   UNL A   1      40.765  27.842  28.431  1.00  0.00     0.064 A 
ATOM     85  C   UNL A   1      41.595  28.272  27.385  1.00  0.00     0.173 A 
ATOM     86  C   UNL A   1      40.118  26.607  28.282  1.00  0.00     0.173 A 
ATOM     87  F   UNL A   1      42.220  29.456  27.472  1.00  0.00    -0.203 F 
ATOM     88  C   UNL A   1      41.754  27.509  26.230  1.00  0.00     0.198 A 
ATOM     89  C   UNL A   1      40.299  25.832  27.139  1.00  0.00     0.198 A 
ATOM     90  F   UNL A   1      39.318  26.146  29.257  1.00  0.00    -0.203 F 
ATOM     91  F   UNL A   1      42.519  27.966  25.229  1.00  0.00    -0.200 F 
ATOM     92  C   UNL A   1      41.110  26.288  26.110  1.00  0.00     0.200 A 
ATOM     93  F   UNL A   1      39.687  24.644  27.033  1.00  0.00    -0.200 F 
ATOM     94  F   UNL A   1      41.267  25.552  25.001  1.00  0.00    -0.200 F 
ENDBRANCH  60  84
BRANCH  72  95
ATOM     95  C   UNL A   1      43.926  28.014  34.634  1.00  0.00     0.064 A 
ATOM     96  C   UNL A   1      45.267  28.418  34.558  1.00  0.00     0.173 A 
ATOM     97  C   UNL A   1      43.633  26.825  35.320  1.00  0.00     0.173 A 
ATOM     98  F   UNL A   1      45.598  29.538  33.900  1.00  0.00    -0.203 F 
ATOM     99  C   UNL A   1      46.277  27.647  35.125  1.00  0.00     0.198 A 
ATOM    100  C   UNL A   1      44.643  26.072  35.910  1.00  0.00     0.198 A 
ATOM    101  F   UNL A   1      42.364  26.400  35.425  1.00  0.00    -0.203 F 
ATOM    102  F   UNL A   1      47.556  28.026  34.999  1.00  0.00    -0.200 F 
ATOM    103  C   UNL A   1      45.965  26.479  35.806  1.00  0.00     0.200 A 
ATOM    104  F   UNL A   1      44.337  24.951  36.577  1.00  0.00    -0.200 F 
ATOM    105  F   UNL A   1      46.939  25.741  36.355  1.00  0.00    -0.200 F 
ENDBRANCH  72  95
ENDBRANCH  46  47
ENDBRANCH  38  41
ENDBRANCH  36  37
ENDBRANCH  35  36
ENDBRANCH  34  35
ENDBRANCH   3  34
TORSDOF 16
ENDMDL
MODEL 2
REMARK VINA RESULT:     -13.9      0.526      7.122
REMARK SMILES C[C@@H](NC(=O)/C(=C/c1ccc(Cl)cc1)NC(=O)c1ccc(C(C)(C)C)cc1)C(=O)NCCCNC(=O)c1ccc(-c2c3nc(c(-c4c(F)c(F)c(F)c(F)c4F)c4ccc([nH]4)c(-c4c(F)c(F)c(F)c(F)c4F)c4nc(c(-c5c(F)c(F)c(F)c(F)c5F)c5ccc2[nH]5)C=C4)C=C3)cc1
REMARK SMILES IDX 28 1 29 2 30 3 2 5 1 6 3 7 4 8 5 10 6 11 7 12 15 13 16 14
REMARK SMILES IDX 17 16 18 17 19 18 27 19 20 20 26 21 21 22 22 23 23 24 24 25
REMARK SMILES IDX 25 26 8 27 9 28 14 29 10 30 13 31 11 32 12 33 31 34 32 35
REMARK SMILES IDX 33 36 34 37 35 38 36 40 37 41 38 42 99 43 39 44 98 45 40 46
REMARK SMILES IDX 41 47 42 48 92 49 43 50 97 51 91 52 93 53 44 54 96 55 90 56
REMARK SMILES IDX 89 57 45 59 77 60 57 61 76 62 58 63 61 64 75 65 94 66 59 67
REMARK SMILES IDX 60 68 74 70 95 71 62 72 46 73 47 74 55 75 48 76 49 77 53 78
REMARK SMILES IDX 56 79 50 80 51 81 54 82 52 83 78 84 79 85 87 86 80 87 81 88
REMARK SMILES IDX 85 89 88 90 82 91 83 92 86 93 84 94 63 95 64 96 72 97 65 98
REMARK SMILES IDX 66 99 70 100 73 101 67 102 68 103 71 104 69 105
REMARK H PARENT 30 4 3 9 15 15 34 39 93 58 61 69
REMARK Flexibility Score: inf
ROOT
ATOM      1  C   UNL A   1      32.730  29.117  24.208  1.00  0.00     0.242 C 
ATOM      2  O   UNL A   1      33.641  29.004  23.382  1.00  0.00    -0.273 OA
ATOM      3  N   UNL A   1      32.977  29.861  25.317  1.00  0.00    -0.354 N 
ATOM      4  H   UNL A   1      33.864  30.287  25.353  1.00  0.00     0.163 HD
ENDROOT
BRANCH   1   5
ATOM      5  C   UNL A   1      31.426  28.319  24.045  1.00  0.00     0.168 C 
ATOM      6  C   UNL A   1      30.350  29.320  23.609  1.00  0.00     0.041 C 
BRANCH   5   7
ATOM      7  N   UNL A   1      31.412  27.134  23.168  1.00  0.00    -0.339 N 
ATOM      8  C   UNL A   1      31.245  25.829  23.580  1.00  0.00     0.268 C 
ATOM      9  H   UNL A   1      31.533  27.288  22.203  1.00  0.00     0.164 HD
ATOM     10  O   UNL A   1      30.306  25.171  23.140  1.00  0.00    -0.268 OA
BRANCH   8  11
ATOM     11  C   UNL A   1      32.331  25.188  24.397  1.00  0.00     0.107 C 
ATOM     12  C   UNL A   1      33.529  25.043  23.798  1.00  0.00     0.040 C 
BRANCH  11  13
ATOM     13  N   UNL A   1      32.141  24.852  25.724  1.00  0.00    -0.317 N 
ATOM     14  C   UNL A   1      32.095  23.676  26.433  1.00  0.00     0.255 C 
ATOM     15  H   UNL A   1      32.006  25.642  26.296  1.00  0.00     0.170 HD
ATOM     16  O   UNL A   1      31.792  23.710  27.625  1.00  0.00    -0.269 OA
BRANCH  14  17
ATOM     17  C   UNL A   1      32.396  22.371  25.836  1.00  0.00     0.040 A 
ATOM     18  C   UNL A   1      33.368  21.579  26.442  1.00  0.00     0.014 A 
ATOM     19  C   UNL A   1      31.784  21.953  24.656  1.00  0.00     0.014 A 
ATOM     20  C   UNL A   1      33.646  20.313  25.926  1.00  0.00     0.005 A 
ATOM     21  C   UNL A   1      32.060  20.678  24.149  1.00  0.00     0.005 A 
ATOM     22  C   UNL A   1      32.962  19.815  24.797  1.00  0.00    -0.043 A 
BRANCH  22  23
ATOM     23  C   UNL A   1      33.209  18.369  24.334  1.00  0.00    -0.013 C 
ATOM     24  C   UNL A   1      32.529  17.390  25.311  1.00  0.00     0.016 C 
ATOM     25  C   UNL A   1      32.620  18.165  22.918  1.00  0.00     0.016 C 
ATOM     26  C   UNL A   1      34.705  17.994  24.250  1.00  0.00     0.016 C 
ENDBRANCH  22  23
ENDBRANCH  14  17
ENDBRANCH  11  13
BRANCH  12  27
ATOM     27  C   UNL A   1      34.723  24.288  24.239  1.00  0.00    -0.023 A 
ATOM     28  C   UNL A   1      35.399  24.546  25.443  1.00  0.00     0.010 A 
ATOM     29  C   UNL A   1      35.102  23.159  23.499  1.00  0.00     0.010 A 
ATOM     30  C   UNL A   1      36.464  23.741  25.861  1.00  0.00     0.021 A 
ATOM     31  C   UNL A   1      36.151  22.337  23.926  1.00  0.00     0.021 A 
ATOM     32  C   UNL A   1      36.833  22.637  25.100  1.00  0.00     0.041 A 
ATOM     33  Cl  UNL A   1      38.117  21.624  25.632  1.00  0.00    -0.084 Cl
ENDBRANCH  12  27
ENDBRANCH   8  11
ENDBRANCH   5   7
ENDBRANCH   1   5
BRANCH   3  34
ATOM     34  C   UNL A   1      32.119  30.117  26.455  1.00  0.00     0.117 C 
BRANCH  34  35
ATOM     35  C   UNL A   1      31.785  31.593  26.573  1.00  0.00     0.042 C 
BRANCH  35  36
ATOM     36  C   UNL A   1      32.883  32.396  27.253  1.00  0.00     0.118 C 
BRANCH  36  37
ATOM     37  N   UNL A   1      32.508  33.783  27.491  1.00  0.00    -0.352 N 
ATOM     38  C   UNL A   1      33.030  34.664  28.412  1.00  0.00     0.251 C 
ATOM     39  H   UNL A   1      31.788  34.137  26.921  1.00  0.00     0.163 HD
ATOM     40  O   UNL A   1      32.528  35.763  28.579  1.00  0.00    -0.269 OA
BRANCH  38  41
ATOM     41  C   UNL A   1      34.183  34.236  29.233  1.00  0.00     0.039 A 
ATOM     42  C   UNL A   1      33.941  33.568  30.434  1.00  0.00     0.014 A 
ATOM     43  C   UNL A   1      35.490  34.433  28.778  1.00  0.00     0.014 A 
ATOM     44  C   UNL A   1      35.014  33.022  31.141  1.00  0.00     0.010 A 
ATOM     45  C   UNL A   1      36.545  33.815  29.438  1.00  0.00     0.010 A 
ATOM     46  C   UNL A   1      36.318  33.102  30.625  1.00  0.00    -0.014 A 
BRANCH  46  47
ATOM     47  C   UNL A   1      37.455  32.441  31.312  1.00  0.00     0.031 A 
ATOM     48  C   UNL A   1      38.163  31.289  30.656  1.00  0.00     0.074 A 
ATOM     49  C   UNL A   1      37.807  32.836  32.551  1.00  0.00     0.049 A 
ATOM     50  N   UNL A   1      39.142  30.551  31.114  1.00  0.00    -0.248 NA
ATOM     51  C   UNL A   1      37.687  30.893  29.322  1.00  0.00     0.031 C 
ATOM     52  C   UNL A   1      37.155  33.899  33.318  1.00  0.00     0.029 A 
ATOM     53  N   UNL A   1      38.796  32.384  33.388  1.00  0.00    -0.354 N 
ATOM     54  C   UNL A   1      39.384  29.597  30.134  1.00  0.00     0.074 A 
ATOM     55  C   UNL A   1      38.414  29.812  29.083  1.00  0.00     0.031 C 
ATOM     56  C   UNL A   1      37.779  34.036  34.499  1.00  0.00     0.029 A 
ATOM     57  C   UNL A   1      38.853  33.052  34.586  1.00  0.00     0.049 A 
ATOM     58  H   UNL A   1      39.408  31.649  33.151  1.00  0.00     0.167 HD
ATOM     59  C   UNL A   1      40.349  28.647  30.100  1.00  0.00     0.037 A 
ATOM     60  C   UNL A   1      39.682  32.890  35.635  1.00  0.00     0.037 A 
ATOM     61  C   UNL A   1      41.334  28.459  31.132  1.00  0.00     0.049 A 
ATOM     62  C   UNL A   1      40.758  31.841  35.563  1.00  0.00     0.074 A 
ATOM     63  C   UNL A   1      42.393  27.570  31.162  1.00  0.00     0.029 A 
ATOM     64  N   UNL A   1      41.379  29.176  32.318  1.00  0.00    -0.354 N 
ATOM     65  N   UNL A   1      41.026  30.997  34.598  1.00  0.00    -0.248 NA
ATOM     66  C   UNL A   1      41.652  31.730  36.724  1.00  0.00     0.031 C 
ATOM     67  C   UNL A   1      43.057  27.722  32.383  1.00  0.00     0.029 A 
ATOM     68  C   UNL A   1      42.439  28.738  33.095  1.00  0.00     0.049 A 
ATOM     69  H   UNL A   1      40.752  29.892  32.570  1.00  0.00     0.167 HD
ATOM     70  C   UNL A   1      42.132  30.273  35.020  1.00  0.00     0.074 A 
ATOM     71  C   UNL A   1      42.496  30.790  36.323  1.00  0.00     0.031 C 
ATOM     72  C   UNL A   1      42.789  29.269  34.387  1.00  0.00     0.037 A 
BRANCH  59  73
ATOM     73  C   UNL A   1      40.389  27.747  28.900  1.00  0.00     0.064 A 
ATOM     74  C   UNL A   1      39.645  26.557  28.850  1.00  0.00     0.173 A 
ATOM     75  C   UNL A   1      41.155  28.090  27.777  1.00  0.00     0.173 A 
ATOM     76  F   UNL A   1      38.908  26.177  29.904  1.00  0.00    -0.203 F 
ATOM     77  C   UNL A   1      39.693  25.729  27.731  1.00  0.00     0.198 A 
ATOM     78  C   UNL A   1      41.175  27.275  26.648  1.00  0.00     0.198 A 
ATOM     79  F   UNL A   1      41.880  29.219  27.771  1.00  0.00    -0.203 F 
ATOM     80  F   UNL A   1      39.016  24.573  27.727  1.00  0.00    -0.200 F 
ATOM     81  C   UNL A   1      40.452  26.092  26.629  1.00  0.00     0.200 A 
ATOM     82  F   UNL A   1      41.899  27.633  25.579  1.00  0.00    -0.200 F 
ATOM     83  F   UNL A   1      40.491  25.297  25.550  1.00  0.00    -0.200 F 
ENDBRANCH  59  73
BRANCH  60  84
ATOM     84  C   UNL A   1      39.551  33.766  36.828  1.00  0.00     0.064 A 
ATOM     85  C   UNL A   1      38.765  33.377  37.923  1.00  0.00     0.173 A 
ATOM     86  C   UNL A   1      40.201  35.006  36.901  1.00  0.00     0.173 A 
ATOM     87  F   UNL A   1      38.108  32.208  37.892  1.00  0.00    -0.203 F 
ATOM     88  C   UNL A   1      38.619  34.204  39.035  1.00  0.00     0.198 A 
ATOM     89  C   UNL A   1      40.076  35.819  38.025  1.00  0.00     0.198 A 
ATOM     90  F   UNL A   1      40.970  35.422  35.883  1.00  0.00    -0.203 F 
ATOM     91  F   UNL A   1      37.827  33.825  40.048  1.00  0.00    -0.200 F 
ATOM     92  C   UNL A   1      39.278  35.422  39.087  1.00  0.00     0.200 A 
ATOM     93  F   UNL A   1      40.727  36.990  38.078  1.00  0.00    -0.200 F 
ATOM     94  F   UNL A   1      39.140  36.215  40.158  1.00  0.00    -0.200 F 
ENDBRANCH  60  84
BRANCH  72  95
ATOM     95  C   UNL A   1      43.984  28.687  35.081  1.00  0.00     0.064 A 
ATOM     96  C   UNL A   1      43.865  27.614  35.976  1.00  0.00     0.173 A 
ATOM     97  C   UNL A   1      45.270  29.187  34.820  1.00  0.00     0.173 A 
ATOM     98  F   UNL A   1      42.656  27.112  36.270  1.00  0.00    -0.203 F 
ATOM     99  C   UNL A   1      44.985  27.080  36.605  1.00  0.00     0.198 A 
ATOM    100  C   UNL A   1      46.391  28.631  35.428  1.00  0.00     0.198 A 
ATOM    101  F   UNL A   1      45.437  30.209  33.966  1.00  0.00    -0.203 F 
ATOM    102  F   UNL A   1      44.843  26.088  37.494  1.00  0.00    -0.200 F 
ATOM    103  C   UNL A   1      46.248  27.584  36.326  1.00  0.00     0.200 A 
ATOM    104  F   UNL A   1      47.610  29.112  35.147  1.00  0.00    -0.200 F 
ATOM    105  F   UNL A   1      47.326  27.065  36.928  1.00  0.00    -0.200 F 
ENDBRANCH  72  95
ENDBRANCH  46  47
ENDBRANCH  38  41
ENDBRANCH  36  37
ENDBRANCH  35  36
ENDBRANCH  34  35
ENDBRANCH   3  34
TORSDOF 16
ENDMDL
MODEL 3
REMARK VINA RESULT:     -13.4      5.331     10.032
REMARK SMILES C[C@@H](NC(=O)/C(=C/c1ccc(Cl)cc1)NC(=O)c1ccc(C(C)(C)C)cc1)C(=O)NCCCNC(=O)c1ccc(-c2c3nc(c(-c4c(F)c(F)c(F)c(F)c4F)c4ccc([nH]4)c(-c4c(F)c(F)c(F)c(F)c4F)c4nc(c(-c5c(F)c(F)c(F)c(F)c5F)c5ccc2[nH]5)C=C4)C=C3)cc1
REMARK SMILES IDX 28 1 29 2 30 3 2 5 1 6 3 7 4 8 5 10 6 11 7 12 15 13 16 14
REMARK SMILES IDX 17 16 18 17 19 18 27 19 20 20 26 21 21 22 22 23 23 24 24 25
REMARK SMILES IDX 25 26 8 27 9 28 14 29 10 30 13 31 11 32 12 33 31 34 32 35
REMARK SMILES IDX 33 36 34 37 35 38 36 40 37 41 38 42 99 43 39 44 98 45 40 46
REMARK SMILES IDX 41 47 42 48 92 49 43 50 97 51 91 52 93 53 44 54 96 55 90 56
REMARK SMILES IDX 89 57 45 59 77 60 57 61 76 62 58 63 61 64 75 65 94 66 59 67
REMARK SMILES IDX 60 68 74 70 95 71 62 72 46 73 47 74 55 75 48 76 49 77 53 78
REMARK SMILES IDX 56 79 50 80 51 81 54 82 52 83 78 84 79 85 87 86 80 87 81 88
REMARK SMILES IDX 85 89 88 90 82 91 83 92 86 93 84 94 63 95 64 96 72 97 65 98
REMARK SMILES IDX 66 99 70 100 73 101 67 102 68 103 71 104 69 105
REMARK H PARENT 30 4 3 9 15 15 34 39 93 58 61 69
REMARK Flexibility Score: inf
ROOT
ATOM      1  C   UNL A   1      35.380  22.376  24.306  1.00  0.00     0.242 C 
ATOM      2  O   UNL A   1      35.099  22.992  23.274  1.00  0.00    -0.273 OA
ATOM      3  N   UNL A   1      36.481  21.580  24.283  1.00  0.00    -0.354 N 
ATOM      4  H   UNL A   1      36.993  21.591  23.442  1.00  0.00     0.163 HD
ENDROOT
BRANCH   1   5
ATOM      5  C   UNL A   1      34.428  22.401  25.514  1.00  0.00     0.168 C 
ATOM      6  C   UNL A   1      35.088  23.291  26.574  1.00  0.00     0.041 C 
BRANCH   5   7
ATOM      7  N   UNL A   1      33.022  22.796  25.314  1.00  0.00    -0.339 N 
ATOM      8  C   UNL A   1      32.559  23.672  24.355  1.00  0.00     0.268 C 
ATOM      9  H   UNL A   1      32.354  22.398  25.919  1.00  0.00     0.164 HD
ATOM     10  O   UNL A   1      31.730  23.289  23.535  1.00  0.00    -0.268 OA
BRANCH   8  11
ATOM     11  C   UNL A   1      32.930  25.123  24.469  1.00  0.00     0.107 C 
ATOM     12  C   UNL A   1      32.711  25.709  25.662  1.00  0.00     0.040 C 
BRANCH  11  13
ATOM     13  N   UNL A   1      33.552  25.799  23.436  1.00  0.00    -0.317 N 
ATOM     14  C   UNL A   1      33.190  26.808  22.576  1.00  0.00     0.255 C 
ATOM     15  H   UNL A   1      34.471  25.481  23.279  1.00  0.00     0.170 HD
ATOM     16  O   UNL A   1      33.960  27.121  21.668  1.00  0.00    -0.269 OA
BRANCH  14  17
ATOM     17  C   UNL A   1      31.924  27.538  22.689  1.00  0.00     0.040 A 
ATOM     18  C   UNL A   1      31.970  28.928  22.755  1.00  0.00     0.014 A 
ATOM     19  C   UNL A   1      30.706  26.869  22.798  1.00  0.00     0.014 A 
ATOM     20  C   UNL A   1      30.781  29.655  22.817  1.00  0.00     0.005 A 
ATOM     21  C   UNL A   1      29.517  27.604  22.850  1.00  0.00     0.005 A 
ATOM     22  C   UNL A   1      29.527  29.011  22.816  1.00  0.00    -0.043 A 
BRANCH  22  23
ATOM     23  C   UNL A   1      28.239  29.851  22.760  1.00  0.00    -0.013 C 
ATOM     24  C   UNL A   1      28.002  30.338  21.318  1.00  0.00     0.016 C 
ATOM     25  C   UNL A   1      27.034  28.991  23.212  1.00  0.00     0.016 C 
ATOM     26  C   UNL A   1      28.270  31.089  23.682  1.00  0.00     0.016 C 
ENDBRANCH  22  23
ENDBRANCH  14  17
ENDBRANCH  11  13
BRANCH  12  27
ATOM     27  C   UNL A   1      32.775  27.138  26.042  1.00  0.00    -0.023 A 
ATOM     28  C   UNL A   1      31.641  27.904  26.362  1.00  0.00     0.010 A 
ATOM     29  C   UNL A   1      34.037  27.711  26.248  1.00  0.00     0.010 A 
ATOM     30  C   UNL A   1      31.764  29.224  26.809  1.00  0.00     0.021 A 
ATOM     31  C   UNL A   1      34.165  29.023  26.717  1.00  0.00     0.021 A 
ATOM     32  C   UNL A   1      33.028  29.777  26.987  1.00  0.00     0.041 A 
ATOM     33  Cl  UNL A   1      33.181  31.386  27.574  1.00  0.00    -0.084 Cl
ENDBRANCH  12  27
ENDBRANCH   8  11
ENDBRANCH   5   7
ENDBRANCH   1   5
BRANCH   3  34
ATOM     34  C   UNL A   1      37.007  20.718  25.320  1.00  0.00     0.117 C 
BRANCH  34  35
ATOM     35  C   UNL A   1      38.271  20.012  24.862  1.00  0.00     0.042 C 
BRANCH  35  36
ATOM     36  C   UNL A   1      39.449  20.243  25.795  1.00  0.00     0.118 C 
BRANCH  36  37
ATOM     37  N   UNL A   1      40.355  19.105  25.858  1.00  0.00    -0.352 N 
ATOM     38  C   UNL A   1      41.715  19.106  26.078  1.00  0.00     0.251 C 
ATOM     39  H   UNL A   1      39.944  18.221  25.725  1.00  0.00     0.163 HD
ATOM     40  O   UNL A   1      42.364  18.077  25.981  1.00  0.00    -0.269 OA
BRANCH  38  41
ATOM     41  C   UNL A   1      42.386  20.387  26.388  1.00  0.00     0.039 A 
ATOM     42  C   UNL A   1      43.032  21.072  25.358  1.00  0.00     0.014 A 
ATOM     43  C   UNL A   1      42.310  20.935  27.671  1.00  0.00     0.014 A 
ATOM     44  C   UNL A   1      43.535  22.352  25.598  1.00  0.00     0.010 A 
ATOM     45  C   UNL A   1      42.733  22.242  27.883  1.00  0.00     0.010 A 
ATOM     46  C   UNL A   1      43.348  22.964  26.849  1.00  0.00    -0.014 A 
BRANCH  46  47
ATOM     47  C   UNL A   1      43.786  24.361  27.091  1.00  0.00     0.031 A 
ATOM     48  C   UNL A   1      42.801  25.383  27.586  1.00  0.00     0.074 A 
ATOM     49  C   UNL A   1      45.051  24.723  26.804  1.00  0.00     0.049 A 
ATOM     50  N   UNL A   1      42.977  26.661  27.809  1.00  0.00    -0.248 NA
ATOM     51  C   UNL A   1      41.429  24.913  27.832  1.00  0.00     0.031 C 
ATOM     52  C   UNL A   1      46.082  23.838  26.258  1.00  0.00     0.029 A 
ATOM     53  N   UNL A   1      45.685  25.934  26.924  1.00  0.00    -0.354 N 
ATOM     54  C   UNL A   1      41.737  27.147  28.203  1.00  0.00     0.074 A 
ATOM     55  C   UNL A   1      40.805  26.043  28.133  1.00  0.00     0.031 C 
ATOM     56  C   UNL A   1      47.226  24.527  26.118  1.00  0.00     0.029 A 
ATOM     57  C   UNL A   1      47.002  25.908  26.533  1.00  0.00     0.049 A 
ATOM     58  H   UNL A   1      45.238  26.746  27.258  1.00  0.00     0.167 HD
ATOM     59  C   UNL A   1      41.412  28.396  28.615  1.00  0.00     0.037 A 
ATOM     60  C   UNL A   1      47.924  26.890  26.516  1.00  0.00     0.037 A 
ATOM     61  C   UNL A   1      42.349  29.483  28.716  1.00  0.00     0.049 A 
ATOM     62  C   UNL A   1      47.542  28.263  26.998  1.00  0.00     0.074 A 
ATOM     63  C   UNL A   1      42.135  30.767  29.185  1.00  0.00     0.029 A 
ATOM     64  N   UNL A   1      43.682  29.411  28.340  1.00  0.00    -0.354 N 
ATOM     65  N   UNL A   1      46.387  28.691  27.442  1.00  0.00    -0.248 NA
ATOM     66  C   UNL A   1      48.598  29.286  26.986  1.00  0.00     0.031 C 
ATOM     67  C   UNL A   1      43.329  31.483  29.058  1.00  0.00     0.029 A 
ATOM     68  C   UNL A   1      44.300  30.633  28.552  1.00  0.00     0.049 A 
ATOM     69  H   UNL A   1      44.125  28.609  27.978  1.00  0.00     0.167 HD
ATOM     70  C   UNL A   1      46.579  30.022  27.786  1.00  0.00     0.074 A 
ATOM     71  C   UNL A   1      47.969  30.325  27.515  1.00  0.00     0.031 C 
ATOM     72  C   UNL A   1      45.686  30.913  28.281  1.00  0.00     0.037 A 
BRANCH  59  73
ATOM     73  C   UNL A   1      39.983  28.646  28.998  1.00  0.00     0.064 A 
ATOM     74  C   UNL A   1      39.513  28.381  30.293  1.00  0.00     0.173 A 
ATOM     75  C   UNL A   1      39.080  29.184  28.070  1.00  0.00     0.173 A 
ATOM     76  F   UNL A   1      40.333  27.852  31.214  1.00  0.00    -0.203 F 
ATOM     77  C   UNL A   1      38.184  28.615  30.636  1.00  0.00     0.198 A 
ATOM     78  C   UNL A   1      37.759  29.447  28.424  1.00  0.00     0.198 A 
ATOM     79  F   UNL A   1      39.479  29.461  26.819  1.00  0.00    -0.203 F 
ATOM     80  F   UNL A   1      37.745  28.305  31.863  1.00  0.00    -0.200 F 
ATOM     81  C   UNL A   1      37.310  29.154  29.703  1.00  0.00     0.200 A 
ATOM     82  F   UNL A   1      36.919  29.979  27.526  1.00  0.00    -0.200 F 
ATOM     83  F   UNL A   1      36.032  29.386  30.036  1.00  0.00    -0.200 F 
ENDBRANCH  59  73
BRANCH  60  84
ATOM     84  C   UNL A   1      49.308  26.600  26.060  1.00  0.00     0.064 A 
ATOM     85  C   UNL A   1      49.708  26.890  24.747  1.00  0.00     0.173 A 
ATOM     86  C   UNL A   1      50.258  26.029  26.918  1.00  0.00     0.173 A 
ATOM     87  F   UNL A   1      48.829  27.419  23.882  1.00  0.00    -0.203 F 
ATOM     88  C   UNL A   1      50.997  26.600  24.305  1.00  0.00     0.198 A 
ATOM     89  C   UNL A   1      51.555  25.764  26.483  1.00  0.00     0.198 A 
ATOM     90  F   UNL A   1      49.928  25.739  28.186  1.00  0.00    -0.203 F 
ATOM     91  F   UNL A   1      51.338  26.847  23.033  1.00  0.00    -0.200 F 
ATOM     92  C   UNL A   1      51.920  26.042  25.175  1.00  0.00     0.200 A 
ATOM     93  F   UNL A   1      52.450  25.238  27.332  1.00  0.00    -0.200 F 
ATOM     94  F   UNL A   1      53.162  25.766  24.751  1.00  0.00    -0.200 F 
ENDBRANCH  60  84
BRANCH  72  95
ATOM     95  C   UNL A   1      46.193  32.291  28.590  1.00  0.00     0.064 A 
ATOM     96  C   UNL A   1      46.135  33.325  27.645  1.00  0.00     0.173 A 
ATOM     97  C   UNL A   1      46.710  32.588  29.861  1.00  0.00     0.173 A 
ATOM     98  F   UNL A   1      45.663  33.087  26.412  1.00  0.00    -0.203 F 
ATOM     99  C   UNL A   1      46.601  34.600  27.951  1.00  0.00     0.198 A 
ATOM    100  C   UNL A   1      47.148  33.871  30.173  1.00  0.00     0.198 A 
ATOM    101  F   UNL A   1      46.780  31.635  30.802  1.00  0.00    -0.203 F 
ATOM    102  F   UNL A   1      46.581  35.561  27.018  1.00  0.00    -0.200 F 
ATOM    103  C   UNL A   1      47.101  34.875  29.217  1.00  0.00     0.200 A 
ATOM    104  F   UNL A   1      47.619  34.137  31.400  1.00  0.00    -0.200 F 
ATOM    105  F   UNL A   1      47.544  36.104  29.511  1.00  0.00    -0.200 F 
ENDBRANCH  72  95
ENDBRANCH  46  47
ENDBRANCH  38  41
ENDBRANCH  36  37
ENDBRANCH  35  36
ENDBRANCH  34  35
ENDBRANCH   3  34
TORSDOF 16
ENDMDL
