MODEL 1
REMARK VINA RESULT:     -13.4      0.000      0.000
REMARK SMILES O=C(NCCCNC(=O)[C@H]1[C@@H](C(=O)Nc2ccccc2-c2ccccc2)[C@@H]2C=C[C@H]1O2)c1ccc(-c2c3nc(c(-c4c(F)c(F)c(F)c(F)c4F)c4ccc([nH]4)c(-c4c(F)c(F)c(F)c(F)c4F)c4nc(c(-c5c(F)c(F)c(F)c(F)c5F)c5ccc2[nH]5)C=C4)C=C3)cc1
REMARK SMILES IDX 5 1 4 2 3 3 1 4 2 5 32 7 33 8 94 9 34 10 93 11 35 12 36 13
REMARK SMILES IDX 37 14 87 15 38 16 92 17 86 18 88 19 39 20 91 21 85 22 84 23
REMARK SMILES IDX 40 25 72 26 52 27 71 28 53 29 56 30 70 31 89 32 54 33 55 34
REMARK SMILES IDX 69 36 90 37 57 38 41 39 42 40 50 41 43 42 44 43 48 44 51 45
REMARK SMILES IDX 45 46 46 47 49 48 47 49 73 50 74 51 82 52 75 53 76 54 80 55
REMARK SMILES IDX 83 56 77 57 78 58 81 59 79 60 58 61 59 62 67 63 60 64 61 65
REMARK SMILES IDX 65 66 68 67 62 68 63 69 66 70 64 71 6 72 7 73 8 74 9 76
REMARK SMILES IDX 10 77 11 78 30 79 27 80 29 81 31 82 28 83 12 84 13 85 14 86
REMARK SMILES IDX 15 88 16 89 20 90 17 91 19 92 18 93 21 94 22 95 26 96 23 97
REMARK SMILES IDX 25 98 24 99
REMARK H PARENT 3 6 88 24 56 35 7 75 14 87
REMARK Flexibility Score: inf
ROOT
ATOM      1  C   UNL A   1      31.319  31.884  26.499  1.00  0.00     0.042 C 
ENDROOT
BRANCH   1   2
ATOM      2  C   UNL A   1      32.591  32.493  27.081  1.00  0.00     0.118 C 
BRANCH   2   3
ATOM      3  N   UNL A   1      32.413  33.874  27.504  1.00  0.00    -0.352 N 
ATOM      4  O   UNL A   1      32.699  35.696  28.800  1.00  0.00    -0.269 OA
ATOM      5  C   UNL A   1      33.088  34.577  28.467  1.00  0.00     0.251 C 
ATOM      6  H   UNL A   1      31.709  34.374  27.030  1.00  0.00     0.163 HD
BRANCH   5   7
ATOM      7  C   UNL A   1      34.266  33.980  29.129  1.00  0.00     0.039 A 
ATOM      8  C   UNL A   1      35.559  34.380  28.784  1.00  0.00     0.014 A 
ATOM      9  C   UNL A   1      34.069  33.012  30.117  1.00  0.00     0.014 A 
ATOM     10  C   UNL A   1      36.655  33.722  29.330  1.00  0.00     0.010 A 
ATOM     11  C   UNL A   1      35.172  32.406  30.723  1.00  0.00     0.010 A 
ATOM     12  C   UNL A   1      36.474  32.736  30.315  1.00  0.00    -0.014 A 
BRANCH  12  13
ATOM     13  C   UNL A   1      37.661  32.104  30.942  1.00  0.00     0.031 A 
ATOM     14  C   UNL A   1      38.113  32.496  32.319  1.00  0.00     0.074 A 
ATOM     15  C   UNL A   1      38.325  31.154  30.256  1.00  0.00     0.049 A 
ATOM     16  N   UNL A   1      39.126  32.043  33.016  1.00  0.00    -0.248 NA
ATOM     17  C   UNL A   1      37.335  33.539  33.004  1.00  0.00     0.031 C 
ATOM     18  C   UNL A   1      37.985  30.700  28.906  1.00  0.00     0.029 A 
ATOM     19  N   UNL A   1      39.412  30.393  30.600  1.00  0.00    -0.354 N 
ATOM     20  C   UNL A   1      39.115  32.751  34.210  1.00  0.00     0.074 A 
ATOM     21  C   UNL A   1      38.012  33.687  34.134  1.00  0.00     0.031 C 
ATOM     22  C   UNL A   1      38.823  29.715  28.550  1.00  0.00     0.029 A 
ATOM     23  C   UNL A   1      39.791  29.508  29.621  1.00  0.00     0.049 A 
ATOM     24  H   UNL A   1      39.876  30.472  31.465  1.00  0.00     0.167 HD
ATOM     25  C   UNL A   1      39.944  32.621  35.275  1.00  0.00     0.037 A 
ATOM     26  C   UNL A   1      40.816  28.637  29.580  1.00  0.00     0.037 A 
ATOM     27  C   UNL A   1      41.030  31.677  35.348  1.00  0.00     0.049 A 
ATOM     28  C   UNL A   1      41.736  28.537  30.763  1.00  0.00     0.074 A 
ATOM     29  C   UNL A   1      41.901  31.442  36.399  1.00  0.00     0.029 A 
ATOM     30  N   UNL A   1      41.400  30.815  34.326  1.00  0.00    -0.354 N 
ATOM     31  N   UNL A   1      41.690  29.183  31.902  1.00  0.00    -0.248 NA
ATOM     32  C   UNL A   1      42.851  27.588  30.654  1.00  0.00     0.031 C 
ATOM     33  C   UNL A   1      42.827  30.475  35.995  1.00  0.00     0.029 A 
ATOM     34  C   UNL A   1      42.502  30.067  34.712  1.00  0.00     0.049 A 
ATOM     35  H   UNL A   1      40.947  30.744  33.454  1.00  0.00     0.167 HD
ATOM     36  C   UNL A   1      42.755  28.706  32.654  1.00  0.00     0.074 A 
ATOM     37  C   UNL A   1      43.417  27.701  31.846  1.00  0.00     0.031 C 
ATOM     38  C   UNL A   1      43.150  29.071  33.898  1.00  0.00     0.037 A 
BRANCH  25  39
ATOM     39  C   UNL A   1      39.722  33.532  36.449  1.00  0.00     0.064 A 
ATOM     40  C   UNL A   1      40.325  34.796  36.526  1.00  0.00     0.173 A 
ATOM     41  C   UNL A   1      38.853  33.156  37.485  1.00  0.00     0.173 A 
ATOM     42  F   UNL A   1      41.172  35.200  35.568  1.00  0.00    -0.203 F 
ATOM     43  C   UNL A   1      40.084  35.640  37.607  1.00  0.00     0.198 A 
ATOM     44  C   UNL A   1      38.593  34.014  38.550  1.00  0.00     0.198 A 
ATOM     45  F   UNL A   1      38.245  31.961  37.457  1.00  0.00    -0.203 F 
ATOM     46  F   UNL A   1      40.702  36.827  37.680  1.00  0.00    -0.200 F 
ATOM     47  C   UNL A   1      39.212  35.252  38.614  1.00  0.00     0.200 A 
ATOM     48  F   UNL A   1      37.739  33.642  39.515  1.00  0.00    -0.200 F 
ATOM     49  F   UNL A   1      38.974  36.070  39.648  1.00  0.00    -0.200 F 
ENDBRANCH  25  39
BRANCH  26  50
ATOM     50  C   UNL A   1      41.022  27.799  28.373  1.00  0.00     0.064 A 
ATOM     51  C   UNL A   1      40.387  26.557  28.240  1.00  0.00     0.173 A 
ATOM     52  C   UNL A   1      41.846  28.226  27.322  1.00  0.00     0.173 A 
ATOM     53  F   UNL A   1      39.604  26.095  29.227  1.00  0.00    -0.203 F 
ATOM     54  C   UNL A   1      40.581  25.768  27.109  1.00  0.00     0.198 A 
ATOM     55  C   UNL A   1      42.015  27.451  26.178  1.00  0.00     0.198 A 
ATOM     56  F   UNL A   1      42.473  29.410  27.399  1.00  0.00    -0.203 F 
ATOM     57  F   UNL A   1      39.996  24.564  27.025  1.00  0.00    -0.200 F 
ATOM     58  C   UNL A   1      41.389  26.219  26.075  1.00  0.00     0.200 A 
ATOM     59  F   UNL A   1      42.784  27.898  25.175  1.00  0.00    -0.200 F 
ATOM     60  F   UNL A   1      41.570  25.462  24.984  1.00  0.00    -0.200 F 
ENDBRANCH  26  50
BRANCH  38  61
ATOM     61  C   UNL A   1      44.339  28.357  34.472  1.00  0.00     0.064 A 
ATOM     62  C   UNL A   1      45.639  28.867  34.336  1.00  0.00     0.173 A 
ATOM     63  C   UNL A   1      44.173  27.163  35.190  1.00  0.00     0.173 A 
ATOM     64  F   UNL A   1      45.852  29.996  33.643  1.00  0.00    -0.203 F 
ATOM     65  C   UNL A   1      46.731  28.192  34.873  1.00  0.00     0.198 A 
ATOM     66  C   UNL A   1      45.264  26.507  35.751  1.00  0.00     0.198 A 
ATOM     67  F   UNL A   1      42.950  26.637  35.353  1.00  0.00    -0.203 F 
ATOM     68  F   UNL A   1      47.970  28.669  34.686  1.00  0.00    -0.200 F 
ATOM     69  C   UNL A   1      46.543  27.017  35.586  1.00  0.00     0.200 A 
ATOM     70  F   UNL A   1      45.078  25.378  36.450  1.00  0.00    -0.200 F 
ATOM     71  F   UNL A   1      47.595  26.371  36.106  1.00  0.00    -0.200 F 
ENDBRANCH  38  61
ENDBRANCH  12  13
ENDBRANCH   5   7
ENDBRANCH   2   3
ENDBRANCH   1   2
BRANCH   1  72
ATOM     72  C   UNL A   1      31.443  30.398  26.167  1.00  0.00     0.117 C 
BRANCH  72  73
ATOM     73  N   UNL A   1      32.728  30.122  25.550  1.00  0.00    -0.356 N 
ATOM     74  C   UNL A   1      33.473  28.990  25.755  1.00  0.00     0.227 C 
ATOM     75  H   UNL A   1      33.091  30.801  24.937  1.00  0.00     0.163 HD
ATOM     76  O   UNL A   1      34.666  29.118  26.011  1.00  0.00    -0.275 OA
BRANCH  74  77
ATOM     77  C   UNL A   1      32.733  27.674  25.702  1.00  0.00     0.127 C 
ATOM     78  C   UNL A   1      32.075  27.274  24.356  1.00  0.00     0.127 C 
ATOM     79  C   UNL A   1      33.726  26.526  25.909  1.00  0.00     0.155 C 
ATOM     80  C   UNL A   1      32.886  26.027  23.968  1.00  0.00     0.155 C 
ATOM     81  C   UNL A   1      32.982  25.231  26.100  1.00  0.00     0.004 C 
ATOM     82  O   UNL A   1      34.181  26.323  24.547  1.00  0.00    -0.365 OA
ATOM     83  C   UNL A   1      32.482  24.910  24.896  1.00  0.00     0.004 C 
BRANCH  78  84
ATOM     84  C   UNL A   1      31.911  28.283  23.233  1.00  0.00     0.231 C 
ATOM     85  O   UNL A   1      32.810  29.033  22.852  1.00  0.00    -0.274 OA
ATOM     86  N   UNL A   1      30.697  28.420  22.614  1.00  0.00    -0.325 N 
ATOM     87  H   UNL A   1      30.755  28.767  21.695  1.00  0.00     0.169 HD
BRANCH  86  88
ATOM     88  C   UNL A   1      29.377  28.159  23.042  1.00  0.00     0.049 A 
ATOM     89  C   UNL A   1      29.162  26.839  23.474  1.00  0.00     0.027 A 
ATOM     90  C   UNL A   1      28.286  29.068  22.993  1.00  0.00     0.005 A 
ATOM     91  C   UNL A   1      27.920  26.428  23.953  1.00  0.00     0.002 A 
ATOM     92  C   UNL A   1      27.041  28.621  23.490  1.00  0.00     0.011 A 
ATOM     93  C   UNL A   1      26.862  27.325  23.975  1.00  0.00     0.001 A 
BRANCH  90  94
ATOM     94  C   UNL A   1      28.335  30.412  22.369  1.00  0.00    -0.016 A 
ATOM     95  C   UNL A   1      28.053  30.579  20.997  1.00  0.00     0.009 A 
ATOM     96  C   UNL A   1      28.576  31.568  23.131  1.00  0.00     0.009 A 
ATOM     97  C   UNL A   1      27.924  31.853  20.436  1.00  0.00     0.001 A 
ATOM     98  C   UNL A   1      28.448  32.842  22.570  1.00  0.00     0.001 A 
ATOM     99  C   UNL A   1      28.106  32.983  21.227  1.00  0.00     0.000 A 
ENDBRANCH  90  94
ENDBRANCH  86  88
ENDBRANCH  78  84
ENDBRANCH  74  77
ENDBRANCH  72  73
ENDBRANCH   1  72
TORSDOF 13
ENDMDL
MODEL 2
REMARK VINA RESULT:     -13.3      2.745      5.232
REMARK SMILES O=C(NCCCNC(=O)[C@H]1[C@@H](C(=O)Nc2ccccc2-c2ccccc2)[C@@H]2C=C[C@H]1O2)c1ccc(-c2c3nc(c(-c4c(F)c(F)c(F)c(F)c4F)c4ccc([nH]4)c(-c4c(F)c(F)c(F)c(F)c4F)c4nc(c(-c5c(F)c(F)c(F)c(F)c5F)c5ccc2[nH]5)C=C4)C=C3)cc1
REMARK SMILES IDX 5 1 4 2 3 3 1 4 2 5 32 7 33 8 94 9 34 10 93 11 35 12 36 13
REMARK SMILES IDX 37 14 87 15 38 16 92 17 86 18 88 19 39 20 91 21 85 22 84 23
REMARK SMILES IDX 40 25 72 26 52 27 71 28 53 29 56 30 70 31 89 32 54 33 55 34
REMARK SMILES IDX 69 36 90 37 57 38 41 39 42 40 50 41 43 42 44 43 48 44 51 45
REMARK SMILES IDX 45 46 46 47 49 48 47 49 73 50 74 51 82 52 75 53 76 54 80 55
REMARK SMILES IDX 83 56 77 57 78 58 81 59 79 60 58 61 59 62 67 63 60 64 61 65
REMARK SMILES IDX 65 66 68 67 62 68 63 69 66 70 64 71 6 72 7 73 8 74 9 76
REMARK SMILES IDX 10 77 11 78 30 79 27 80 29 81 31 82 28 83 12 84 13 85 14 86
REMARK SMILES IDX 15 88 16 89 20 90 17 91 19 92 18 93 21 94 22 95 26 96 23 97
REMARK SMILES IDX 25 98 24 99
REMARK H PARENT 3 6 88 24 56 35 7 75 14 87
REMARK Flexibility Score: inf
ROOT
ATOM      1  C   UNL A   1      31.833  28.678  26.210  1.00  0.00     0.042 C 
ENDROOT
BRANCH   1   2
ATOM      2  C   UNL A   1      32.979  29.631  25.884  1.00  0.00     0.118 C 
BRANCH   2   3
ATOM      3  N   UNL A   1      32.678  31.012  26.228  1.00  0.00    -0.352 N 
ATOM      4  O   UNL A   1      32.792  32.922  27.421  1.00  0.00    -0.269 OA
ATOM      5  C   UNL A   1      33.280  31.824  27.155  1.00  0.00     0.251 C 
ATOM      6  H   UNL A   1      31.939  31.423  25.723  1.00  0.00     0.163 HD
BRANCH   5   7
ATOM      7  C   UNL A   1      34.497  31.368  27.856  1.00  0.00     0.039 A 
ATOM      8  C   UNL A   1      34.584  30.071  28.369  1.00  0.00     0.014 A 
ATOM      9  C   UNL A   1      35.571  32.252  27.994  1.00  0.00     0.014 A 
ATOM     10  C   UNL A   1      35.687  29.701  29.130  1.00  0.00     0.010 A 
ATOM     11  C   UNL A   1      36.713  31.852  28.691  1.00  0.00     0.010 A 
ATOM     12  C   UNL A   1      36.769  30.583  29.289  1.00  0.00    -0.014 A 
BRANCH  12  13
ATOM     13  C   UNL A   1      37.970  30.137  30.037  1.00  0.00     0.031 A 
ATOM     14  C   UNL A   1      38.230  30.607  31.439  1.00  0.00     0.074 A 
ATOM     15  C   UNL A   1      38.825  29.285  29.438  1.00  0.00     0.049 A 
ATOM     16  N   UNL A   1      39.228  30.313  32.237  1.00  0.00    -0.248 NA
ATOM     17  C   UNL A   1      37.251  31.534  32.025  1.00  0.00     0.031 C 
ATOM     18  C   UNL A   1      38.681  28.772  28.075  1.00  0.00     0.029 A 
ATOM     19  N   UNL A   1      39.972  28.694  29.898  1.00  0.00    -0.354 N 
ATOM     20  C   UNL A   1      39.005  31.025  33.407  1.00  0.00     0.074 A 
ATOM     21  C   UNL A   1      37.791  31.791  33.208  1.00  0.00     0.031 C 
ATOM     22  C   UNL A   1      39.680  27.915  27.821  1.00  0.00     0.029 A 
ATOM     23  C   UNL A   1      40.564  27.862  28.980  1.00  0.00     0.049 A 
ATOM     24  H   UNL A   1      40.337  28.849  30.799  1.00  0.00     0.167 HD
ATOM     25  C   UNL A   1      39.740  31.029  34.545  1.00  0.00     0.037 A 
ATOM     26  C   UNL A   1      41.703  27.148  29.054  1.00  0.00     0.037 A 
ATOM     27  C   UNL A   1      40.939  30.253  34.741  1.00  0.00     0.049 A 
ATOM     28  C   UNL A   1      42.513  27.196  30.318  1.00  0.00     0.074 A 
ATOM     29  C   UNL A   1      41.732  30.159  35.872  1.00  0.00     0.029 A 
ATOM     30  N   UNL A   1      41.522  29.442  33.778  1.00  0.00    -0.354 N 
ATOM     31  N   UNL A   1      42.268  27.842  31.432  1.00  0.00    -0.248 NA
ATOM     32  C   UNL A   1      43.757  26.417  30.334  1.00  0.00     0.031 C 
ATOM     33  C   UNL A   1      42.821  29.332  35.578  1.00  0.00     0.029 A 
ATOM     34  C   UNL A   1      42.679  28.866  34.280  1.00  0.00     0.049 A 
ATOM     35  H   UNL A   1      41.168  29.296  32.871  1.00  0.00     0.167 HD
ATOM     36  C   UNL A   1      43.315  27.532  32.288  1.00  0.00     0.074 A 
ATOM     37  C   UNL A   1      44.187  26.625  31.570  1.00  0.00     0.031 C 
ATOM     38  C   UNL A   1      43.536  27.965  33.554  1.00  0.00     0.037 A 
BRANCH  25  39
ATOM     39  C   UNL A   1      39.282  31.911  35.671  1.00  0.00     0.064 A 
ATOM     40  C   UNL A   1      38.374  31.459  36.641  1.00  0.00     0.173 A 
ATOM     41  C   UNL A   1      39.798  33.209  35.811  1.00  0.00     0.173 A 
ATOM     42  F   UNL A   1      37.843  30.231  36.548  1.00  0.00    -0.203 F 
ATOM     43  C   UNL A   1      37.984  32.280  37.696  1.00  0.00     0.198 A 
ATOM     44  C   UNL A   1      39.426  34.017  36.883  1.00  0.00     0.198 A 
ATOM     45  F   UNL A   1      40.673  33.689  34.917  1.00  0.00    -0.203 F 
ATOM     46  F   UNL A   1      37.085  31.842  38.588  1.00  0.00    -0.200 F 
ATOM     47  C   UNL A   1      38.516  33.555  37.820  1.00  0.00     0.200 A 
ATOM     48  F   UNL A   1      39.952  35.245  37.008  1.00  0.00    -0.200 F 
ATOM     49  F   UNL A   1      38.146  34.341  38.842  1.00  0.00    -0.200 F 
ENDBRANCH  25  39
BRANCH  26  50
ATOM     50  C   UNL A   1      42.138  26.334  27.892  1.00  0.00     0.064 A 
ATOM     51  C   UNL A   1      41.608  25.057  27.666  1.00  0.00     0.173 A 
ATOM     52  C   UNL A   1      43.082  26.821  26.976  1.00  0.00     0.173 A 
ATOM     53  F   UNL A   1      40.716  24.540  28.524  1.00  0.00    -0.203 F 
ATOM     54  C   UNL A   1      42.018  24.292  26.577  1.00  0.00     0.198 A 
ATOM     55  C   UNL A   1      43.468  26.067  25.871  1.00  0.00     0.198 A 
ATOM     56  F   UNL A   1      43.616  28.040  27.146  1.00  0.00    -0.203 F 
ATOM     57  F   UNL A   1      41.528  23.055  26.407  1.00  0.00    -0.200 F 
ATOM     58  C   UNL A   1      42.942  24.800  25.676  1.00  0.00     0.200 A 
ATOM     59  F   UNL A   1      44.350  26.570  24.994  1.00  0.00    -0.200 F 
ATOM     60  F   UNL A   1      43.330  24.065  24.625  1.00  0.00    -0.200 F 
ENDBRANCH  26  50
BRANCH  38  61
ATOM     61  C   UNL A   1      44.756  27.437  34.251  1.00  0.00     0.064 A 
ATOM     62  C   UNL A   1      45.974  28.134  34.230  1.00  0.00     0.173 A 
ATOM     63  C   UNL A   1      44.699  26.235  34.972  1.00  0.00     0.173 A 
ATOM     64  F   UNL A   1      46.084  29.279  33.541  1.00  0.00    -0.203 F 
ATOM     65  C   UNL A   1      47.096  27.630  34.881  1.00  0.00     0.198 A 
ATOM     66  C   UNL A   1      45.815  25.750  35.646  1.00  0.00     0.198 A 
ATOM     67  F   UNL A   1      43.556  25.534  35.027  1.00  0.00    -0.203 F 
ATOM     68  F   UNL A   1      48.264  28.285  34.804  1.00  0.00    -0.200 F 
ATOM     69  C   UNL A   1      47.015  26.443  35.594  1.00  0.00     0.200 A 
ATOM     70  F   UNL A   1      45.731  24.609  36.344  1.00  0.00    -0.200 F 
ATOM     71  F   UNL A   1      48.096  25.962  36.223  1.00  0.00    -0.200 F 
ENDBRANCH  38  61
ENDBRANCH  12  13
ENDBRANCH   5   7
ENDBRANCH   2   3
ENDBRANCH   1   2
BRANCH   1  72
ATOM     72  C   UNL A   1      32.284  27.378  26.875  1.00  0.00     0.117 C 
BRANCH  72  73
ATOM     73  N   UNL A   1      31.249  26.366  26.763  1.00  0.00    -0.356 N 
ATOM     74  C   UNL A   1      30.778  25.850  25.583  1.00  0.00     0.227 C 
ATOM     75  H   UNL A   1      30.855  26.025  27.598  1.00  0.00     0.163 HD
ATOM     76  O   UNL A   1      29.563  25.786  25.420  1.00  0.00    -0.275 OA
BRANCH  74  77
ATOM     77  C   UNL A   1      31.813  25.454  24.557  1.00  0.00     0.127 C 
ATOM     78  C   UNL A   1      32.404  24.023  24.648  1.00  0.00     0.127 C 
ATOM     79  C   UNL A   1      31.166  25.428  23.168  1.00  0.00     0.155 C 
ATOM     80  C   UNL A   1      31.893  23.389  23.344  1.00  0.00     0.155 C 
ATOM     81  C   UNL A   1      32.226  25.273  22.110  1.00  0.00     0.004 C 
ATOM     82  O   UNL A   1      30.634  24.079  23.151  1.00  0.00    -0.365 OA
ATOM     83  C   UNL A   1      32.659  24.006  22.203  1.00  0.00     0.004 C 
BRANCH  78  84
ATOM     84  C   UNL A   1      32.190  23.164  25.882  1.00  0.00     0.231 C 
ATOM     85  O   UNL A   1      31.260  23.323  26.673  1.00  0.00    -0.274 OA
ATOM     86  N   UNL A   1      33.085  22.171  26.184  1.00  0.00    -0.325 N 
ATOM     87  H   UNL A   1      32.705  21.441  26.721  1.00  0.00     0.169 HD
BRANCH  86  88
ATOM     88  C   UNL A   1      34.451  21.997  25.870  1.00  0.00     0.049 A 
ATOM     89  C   UNL A   1      35.263  23.097  26.199  1.00  0.00     0.027 A 
ATOM     90  C   UNL A   1      35.020  20.877  25.206  1.00  0.00     0.005 A 
ATOM     91  C   UNL A   1      36.638  23.072  25.977  1.00  0.00     0.002 A 
ATOM     92  C   UNL A   1      36.418  20.883  25.000  1.00  0.00     0.011 A 
ATOM     93  C   UNL A   1      37.219  21.957  25.391  1.00  0.00     0.001 A 
BRANCH  90  94
ATOM     94  C   UNL A   1      34.244  19.756  24.626  1.00  0.00    -0.016 A 
ATOM     95  C   UNL A   1      33.016  19.992  23.975  1.00  0.00     0.009 A 
ATOM     96  C   UNL A   1      34.740  18.440  24.627  1.00  0.00     0.009 A 
ATOM     97  C   UNL A   1      32.362  18.973  23.274  1.00  0.00     0.001 A 
ATOM     98  C   UNL A   1      34.086  17.422  23.928  1.00  0.00     0.001 A 
ATOM     99  C   UNL A   1      32.907  17.693  23.238  1.00  0.00     0.000 A 
ENDBRANCH  90  94
ENDBRANCH  86  88
ENDBRANCH  78  84
ENDBRANCH  74  77
ENDBRANCH  72  73
ENDBRANCH   1  72
TORSDOF 13
ENDMDL
MODEL 3
REMARK VINA RESULT:     -13.2      2.750      5.242
REMARK SMILES O=C(NCCCNC(=O)[C@H]1[C@@H](C(=O)Nc2ccccc2-c2ccccc2)[C@@H]2C=C[C@H]1O2)c1ccc(-c2c3nc(c(-c4c(F)c(F)c(F)c(F)c4F)c4ccc([nH]4)c(-c4c(F)c(F)c(F)c(F)c4F)c4nc(c(-c5c(F)c(F)c(F)c(F)c5F)c5ccc2[nH]5)C=C4)C=C3)cc1
REMARK SMILES IDX 5 1 4 2 3 3 1 4 2 5 32 7 33 8 94 9 34 10 93 11 35 12 36 13
REMARK SMILES IDX 37 14 87 15 38 16 92 17 86 18 88 19 39 20 91 21 85 22 84 23
REMARK SMILES IDX 40 25 72 26 52 27 71 28 53 29 56 30 70 31 89 32 54 33 55 34
REMARK SMILES IDX 69 36 90 37 57 38 41 39 42 40 50 41 43 42 44 43 48 44 51 45
REMARK SMILES IDX 45 46 46 47 49 48 47 49 73 50 74 51 82 52 75 53 76 54 80 55
REMARK SMILES IDX 83 56 77 57 78 58 81 59 79 60 58 61 59 62 67 63 60 64 61 65
REMARK SMILES IDX 65 66 68 67 62 68 63 69 66 70 64 71 6 72 7 73 8 74 9 76
REMARK SMILES IDX 10 77 11 78 30 79 27 80 29 81 31 82 28 83 12 84 13 85 14 86
REMARK SMILES IDX 15 88 16 89 20 90 17 91 19 92 18 93 21 94 22 95 26 96 23 97
REMARK SMILES IDX 25 98 24 99
REMARK H PARENT 3 6 88 24 56 35 7 75 14 87
REMARK Flexibility Score: inf
ROOT
ATOM      1  C   UNL A   1      31.895  28.702  26.271  1.00  0.00     0.042 C 
ENDROOT
BRANCH   1   2
ATOM      2  C   UNL A   1      33.012  29.678  25.915  1.00  0.00     0.118 C 
BRANCH   2   3
ATOM      3  N   UNL A   1      32.703  31.050  26.288  1.00  0.00    -0.352 N 
ATOM      4  O   UNL A   1      32.811  32.937  27.518  1.00  0.00    -0.269 OA
ATOM      5  C   UNL A   1      33.305  31.848  27.226  1.00  0.00     0.251 C 
ATOM      6  H   UNL A   1      31.957  31.464  25.797  1.00  0.00     0.163 HD
BRANCH   5   7
ATOM      7  C   UNL A   1      34.532  31.389  27.908  1.00  0.00     0.039 A 
ATOM      8  C   UNL A   1      34.631  30.085  28.401  1.00  0.00     0.014 A 
ATOM      9  C   UNL A   1      35.602  32.277  28.049  1.00  0.00     0.014 A 
ATOM     10  C   UNL A   1      35.744  29.711  29.145  1.00  0.00     0.010 A 
ATOM     11  C   UNL A   1      36.753  31.873  28.728  1.00  0.00     0.010 A 
ATOM     12  C   UNL A   1      36.823  30.596  29.307  1.00  0.00    -0.014 A 
BRANCH  12  13
ATOM     13  C   UNL A   1      38.033  30.146  30.036  1.00  0.00     0.031 A 
ATOM     14  C   UNL A   1      38.324  30.626  31.429  1.00  0.00     0.074 A 
ATOM     15  C   UNL A   1      38.869  29.281  29.430  1.00  0.00     0.049 A 
ATOM     16  N   UNL A   1      39.334  30.330  32.211  1.00  0.00    -0.248 NA
ATOM     17  C   UNL A   1      37.364  31.567  32.025  1.00  0.00     0.031 C 
ATOM     18  C   UNL A   1      38.695  28.756  28.074  1.00  0.00     0.029 A 
ATOM     19  N   UNL A   1      40.019  28.683  29.874  1.00  0.00    -0.354 N 
ATOM     20  C   UNL A   1      39.139  31.056  33.378  1.00  0.00     0.074 A 
ATOM     21  C   UNL A   1      37.929  31.831  33.195  1.00  0.00     0.031 C 
ATOM     22  C   UNL A   1      39.681  27.887  27.810  1.00  0.00     0.029 A 
ATOM     23  C   UNL A   1      40.586  27.837  28.953  1.00  0.00     0.049 A 
ATOM     24  H   UNL A   1      40.402  28.844  30.767  1.00  0.00     0.167 HD
ATOM     25  C   UNL A   1      39.896  31.063  34.503  1.00  0.00     0.037 A 
ATOM     26  C   UNL A   1      41.719  27.114  29.013  1.00  0.00     0.037 A 
ATOM     27  C   UNL A   1      41.091  30.278  34.683  1.00  0.00     0.049 A 
ATOM     28  C   UNL A   1      42.553  27.166  30.261  1.00  0.00     0.074 A 
ATOM     29  C   UNL A   1      41.904  30.187  35.800  1.00  0.00     0.029 A 
ATOM     30  N   UNL A   1      41.648  29.453  33.717  1.00  0.00    -0.354 N 
ATOM     31  N   UNL A   1      42.336  27.824  31.373  1.00  0.00    -0.248 NA
ATOM     32  C   UNL A   1      43.791  26.376  30.261  1.00  0.00     0.031 C 
ATOM     33  C   UNL A   1      42.980  29.347  35.493  1.00  0.00     0.029 A 
ATOM     34  C   UNL A   1      42.810  28.871  34.203  1.00  0.00     0.049 A 
ATOM     35  H   UNL A   1      41.276  29.302  32.818  1.00  0.00     0.167 HD
ATOM     36  C   UNL A   1      43.396  27.513  32.212  1.00  0.00     0.074 A 
ATOM     37  C   UNL A   1      44.246  26.591  31.486  1.00  0.00     0.031 C 
ATOM     38  C   UNL A   1      43.645  27.955  33.469  1.00  0.00     0.037 A 
BRANCH  25  39
ATOM     39  C   UNL A   1      39.467  31.960  35.628  1.00  0.00     0.064 A 
ATOM     40  C   UNL A   1      39.918  33.285  35.730  1.00  0.00     0.173 A 
ATOM     41  C   UNL A   1      38.550  31.505  36.589  1.00  0.00     0.173 A 
ATOM     42  F   UNL A   1      40.801  33.767  34.843  1.00  0.00    -0.203 F 
ATOM     43  C   UNL A   1      39.485  34.113  36.763  1.00  0.00     0.198 A 
ATOM     44  C   UNL A   1      38.099  32.344  37.605  1.00  0.00     0.198 A 
ATOM     45  F   UNL A   1      38.082  30.250  36.536  1.00  0.00    -0.203 F 
ATOM     46  F   UNL A   1      39.960  35.362  36.864  1.00  0.00    -0.200 F 
ATOM     47  C   UNL A   1      38.570  33.644  37.694  1.00  0.00     0.200 A 
ATOM     48  F   UNL A   1      37.205  31.893  38.496  1.00  0.00    -0.200 F 
ATOM     49  F   UNL A   1      38.148  34.445  38.683  1.00  0.00    -0.200 F 
ENDBRANCH  25  39
BRANCH  26  50
ATOM     50  C   UNL A   1      42.125  26.285  27.850  1.00  0.00     0.064 A 
ATOM     51  C   UNL A   1      43.081  26.745  26.934  1.00  0.00     0.173 A 
ATOM     52  C   UNL A   1      41.575  25.013  27.637  1.00  0.00     0.173 A 
ATOM     53  F   UNL A   1      43.621  27.963  27.085  1.00  0.00    -0.203 F 
ATOM     54  C   UNL A   1      43.460  25.969  25.841  1.00  0.00     0.198 A 
ATOM     55  C   UNL A   1      41.977  24.226  26.561  1.00  0.00     0.198 A 
ATOM     56  F   UNL A   1      40.660  24.526  28.487  1.00  0.00    -0.203 F 
ATOM     57  F   UNL A   1      44.345  26.449  24.956  1.00  0.00    -0.200 F 
ATOM     58  C   UNL A   1      42.914  24.707  25.659  1.00  0.00     0.200 A 
ATOM     59  F   UNL A   1      41.459  23.000  26.399  1.00  0.00    -0.200 F 
ATOM     60  F   UNL A   1      43.284  23.959  24.611  1.00  0.00    -0.200 F 
ENDBRANCH  26  50
BRANCH  38  61
ATOM     61  C   UNL A   1      44.873  27.423  34.149  1.00  0.00     0.064 A 
ATOM     62  C   UNL A   1      46.108  28.081  34.055  1.00  0.00     0.173 A 
ATOM     63  C   UNL A   1      44.806  26.256  34.924  1.00  0.00     0.173 A 
ATOM     64  F   UNL A   1      46.227  29.191  33.311  1.00  0.00    -0.203 F 
ATOM     65  C   UNL A   1      47.238  27.573  34.690  1.00  0.00     0.198 A 
ATOM     66  C   UNL A   1      45.931  25.768  35.582  1.00  0.00     0.198 A 
ATOM     67  F   UNL A   1      43.647  25.593  35.050  1.00  0.00    -0.203 F 
ATOM     68  F   UNL A   1      48.420  28.189  34.545  1.00  0.00    -0.200 F 
ATOM     69  C   UNL A   1      47.148  26.422  35.459  1.00  0.00     0.200 A 
ATOM     70  F   UNL A   1      45.839  24.662  36.334  1.00  0.00    -0.200 F 
ATOM     71  F   UNL A   1      48.235  25.937  36.073  1.00  0.00    -0.200 F 
ENDBRANCH  38  61
ENDBRANCH  12  13
ENDBRANCH   5   7
ENDBRANCH   2   3
ENDBRANCH   1   2
BRANCH   1  72
ATOM     72  C   UNL A   1      32.392  27.391  26.879  1.00  0.00     0.117 C 
BRANCH  72  73
ATOM     73  N   UNL A   1      31.357  26.375  26.808  1.00  0.00    -0.356 N 
ATOM     74  C   UNL A   1      30.861  25.838  25.648  1.00  0.00     0.227 C 
ATOM     75  H   UNL A   1      30.983  26.048  27.657  1.00  0.00     0.163 HD
ATOM     76  O   UNL A   1      29.643  25.768  25.514  1.00  0.00    -0.275 OA
BRANCH  74  77
ATOM     77  C   UNL A   1      31.873  25.426  24.605  1.00  0.00     0.127 C 
ATOM     78  C   UNL A   1      32.447  23.988  24.690  1.00  0.00     0.127 C 
ATOM     79  C   UNL A   1      31.203  25.407  23.228  1.00  0.00     0.155 C 
ATOM     80  C   UNL A   1      31.906  23.358  23.395  1.00  0.00     0.155 C 
ATOM     81  C   UNL A   1      32.243  25.236  22.152  1.00  0.00     0.004 C 
ATOM     82  O   UNL A   1      30.653  24.066  23.222  1.00  0.00    -0.365 OA
ATOM     83  C   UNL A   1      32.660  23.964  22.240  1.00  0.00     0.004 C 
BRANCH  78  84
ATOM     84  C   UNL A   1      32.242  23.134  25.929  1.00  0.00     0.231 C 
ATOM     85  O   UNL A   1      31.321  23.300  26.728  1.00  0.00    -0.274 OA
ATOM     86  N   UNL A   1      33.137  22.139  26.224  1.00  0.00    -0.325 N 
ATOM     87  H   UNL A   1      32.759  21.411  26.768  1.00  0.00     0.169 HD
BRANCH  86  88
ATOM     88  C   UNL A   1      34.499  21.958  25.897  1.00  0.00     0.049 A 
ATOM     89  C   UNL A   1      35.321  23.047  26.234  1.00  0.00     0.027 A 
ATOM     90  C   UNL A   1      35.054  20.843  25.213  1.00  0.00     0.005 A 
ATOM     91  C   UNL A   1      36.695  23.015  26.001  1.00  0.00     0.002 A 
ATOM     92  C   UNL A   1      36.450  20.841  24.996  1.00  0.00     0.011 A 
ATOM     93  C   UNL A   1      37.262  21.903  25.395  1.00  0.00     0.001 A 
BRANCH  90  94
ATOM     94  C   UNL A   1      34.265  19.736  24.625  1.00  0.00    -0.016 A 
ATOM     95  C   UNL A   1      33.041  19.992  23.971  1.00  0.00     0.009 A 
ATOM     96  C   UNL A   1      34.742  18.413  24.621  1.00  0.00     0.009 A 
ATOM     97  C   UNL A   1      32.376  18.986  23.263  1.00  0.00     0.001 A 
ATOM     98  C   UNL A   1      34.077  17.408  23.914  1.00  0.00     0.001 A 
ATOM     99  C   UNL A   1      32.904  17.699  23.222  1.00  0.00     0.000 A 
ENDBRANCH  90  94
ENDBRANCH  86  88
ENDBRANCH  78  84
ENDBRANCH  74  77
ENDBRANCH  72  73
ENDBRANCH   1  72
TORSDOF 13
ENDMDL
