MODEL 1
REMARK VINA RESULT:     -12.7      0.000      0.000
REMARK SMILES Cc1coc2c(C)c3oc(=O)c(CCC(=O)N[C@H](CC(C)C)C(=O)NCCCNC(=O)c4ccc(-c5c6nc(c(-c7c(F)c(F)c(F)c(F)c7F)c7ccc([nH]7)c(-c7c(F)c(F)c(F)c(F)c7F)c7nc(c(-c8c(F)c(F)c(F)c(F)c8F)c8ccc5[nH]8)C=C7)C=C6)cc4)c(C)c3cc12
REMARK SMILES IDX 26 1 25 2 23 3 24 4 18 6 17 7 15 8 16 9 14 11 13 12 12 13
REMARK SMILES IDX 1 14 2 15 3 16 99 17 4 18 5 19 98 20 6 21 97 22 7 23 8 24
REMARK SMILES IDX 95 25 9 26 96 27 10 28 11 29 19 30 20 31 21 32 22 33 27 34
REMARK SMILES IDX 28 35 29 36 30 37 31 39 32 40 33 41 94 42 34 43 93 44 35 45
REMARK SMILES IDX 36 46 37 47 87 48 38 49 92 50 86 51 88 52 39 53 91 54 85 55
REMARK SMILES IDX 84 56 40 58 72 59 52 60 71 61 53 62 56 63 70 64 89 65 54 66
REMARK SMILES IDX 55 67 69 69 90 70 57 71 41 72 42 73 50 74 43 75 44 76 48 77
REMARK SMILES IDX 51 78 45 79 46 80 49 81 47 82 73 83 74 84 82 85 75 86 76 87
REMARK SMILES IDX 80 88 83 89 77 90 78 91 81 92 79 93 58 94 59 95 67 96 60 97
REMARK SMILES IDX 61 98 65 99 68 100 62 101 63 102 66 103 64 104
REMARK H PARENT 25 5 17 10 29 38 88 57 56 68
REMARK Flexibility Score: inf
ROOT
ATOM      1  C   UNL A   1      45.804  31.290  28.055  1.00  0.00     0.117 C 
ENDROOT
BRANCH   1   2
ATOM      2  N   UNL A   1      45.368  30.329  29.323  1.00  0.00    -0.354 N 
ATOM      3  C   UNL A   1      45.376  28.573  30.122  1.00  0.00     0.242 C 
ATOM      4  O   UNL A   1      44.875  28.285  31.266  1.00  0.00    -0.273 OA
ATOM      5  H   UNL A   1      44.890  30.913  29.954  1.00  0.00     0.163 HD
BRANCH   3   6
ATOM      6  C   UNL A   1      46.041  27.008  29.617  1.00  0.00     0.171 C 
BRANCH   6   7
ATOM      7  N   UNL A   1      46.954  26.675  28.503  1.00  0.00    -0.344 N 
ATOM      8  C   UNL A   1      46.952  27.046  27.191  1.00  0.00     0.220 C 
ATOM      9  O   UNL A   1      47.918  26.715  26.501  1.00  0.00    -0.275 OA
ATOM     10  H   UNL A   1      47.696  26.078  28.754  1.00  0.00     0.164 HD
BRANCH   8  11
ATOM     11  C   UNL A   1      45.757  27.746  26.574  1.00  0.00     0.105 C 
BRANCH  11  12
ATOM     12  C   UNL A   1      45.487  27.300  25.135  1.00  0.00     0.053 C 
BRANCH  12  13
ATOM     13  C   UNL A   1      44.462  26.215  25.167  1.00  0.00     0.042 A 
ATOM     14  C   UNL A   1      43.172  18.832  25.880  1.00  0.00     0.048 C 
ATOM     15  C   UNL A   1      42.140  19.879  26.083  1.00  0.00    -0.005 A 
ATOM     16  C   UNL A   1      40.827  19.672  26.436  1.00  0.00     0.199 A 
ATOM     17  C   UNL A   1      42.320  21.305  26.002  1.00  0.00     0.024 A 
ATOM     18  O   UNL A   1      40.164  20.841  26.545  1.00  0.00    -0.464 OA
ATOM     19  C   UNL A   1      41.036  21.861  26.275  1.00  0.00     0.140 A 
ATOM     20  C   UNL A   1      43.512  22.066  25.732  1.00  0.00     0.024 A 
ATOM     21  C   UNL A   1      40.596  23.206  26.284  1.00  0.00     0.036 A 
ATOM     22  C   UNL A   1      43.368  23.421  25.780  1.00  0.00     0.022 A 
ATOM     23  C   UNL A   1      39.249  23.701  26.650  1.00  0.00     0.052 C 
ATOM     24  C   UNL A   1      41.705  23.955  26.013  1.00  0.00     0.145 A 
ATOM     25  C   UNL A   1      44.772  24.655  25.356  1.00  0.00    -0.030 A 
ATOM     26  O   UNL A   1      41.390  25.733  25.620  1.00  0.00    -0.422 OA
ATOM     27  C   UNL A   1      46.129  24.026  25.094  1.00  0.00     0.046 C 
ATOM     28  C   UNL A   1      42.663  26.970  25.226  1.00  0.00     0.339 A 
ATOM     29  O   UNL A   1      42.351  28.118  24.908  1.00  0.00    -0.246 OA
ENDBRANCH  12  13
ENDBRANCH  11  12
ENDBRANCH   8  11
ENDBRANCH   6   7
BRANCH   6  30
ATOM     30  C   UNL A   1      45.071  25.820  30.013  1.00  0.00     0.038 C 
BRANCH  30  31
ATOM     31  C   UNL A   1      44.059  25.321  28.946  1.00  0.00    -0.015 C 
ATOM     32  C   UNL A   1      43.610  23.891  29.262  1.00  0.00     0.007 C 
ATOM     33  C   UNL A   1      42.797  26.191  28.831  1.00  0.00     0.007 C 
ENDBRANCH  30  31
ENDBRANCH   6  30
ENDBRANCH   3   6
ENDBRANCH   1   2
BRANCH   1  34
ATOM     34  C   UNL A   1      44.822  31.196  26.876  1.00  0.00     0.042 C 
BRANCH  34  35
ATOM     35  C   UNL A   1      44.165  32.530  26.639  1.00  0.00     0.118 C 
BRANCH  35  36
ATOM     36  N   UNL A   1      45.147  33.578  26.360  1.00  0.00    -0.352 N 
ATOM     37  C   UNL A   1      45.187  34.838  26.916  1.00  0.00     0.251 C 
ATOM     38  H   UNL A   1      45.851  33.361  25.707  1.00  0.00     0.163 HD
ATOM     39  O   UNL A   1      45.856  35.741  26.434  1.00  0.00    -0.269 OA
BRANCH  37  40
ATOM     40  C   UNL A   1      44.343  35.055  28.097  1.00  0.00     0.039 A 
ATOM     41  C   UNL A   1      43.069  35.583  27.930  1.00  0.00     0.014 A 
ATOM     42  C   UNL A   1      44.752  34.475  29.300  1.00  0.00     0.014 A 
ATOM     43  C   UNL A   1      42.160  35.412  28.961  1.00  0.00     0.010 A 
ATOM     44  C   UNL A   1      43.801  34.170  30.251  1.00  0.00     0.010 A 
ATOM     45  C   UNL A   1      42.504  34.639  30.095  1.00  0.00    -0.014 A 
BRANCH  45  46
ATOM     46  C   UNL A   1      41.435  34.227  31.008  1.00  0.00     0.031 A 
ATOM     47  C   UNL A   1      41.908  33.971  32.393  1.00  0.00     0.074 A 
ATOM     48  C   UNL A   1      40.121  34.112  30.708  1.00  0.00     0.049 A 
ATOM     49  N   UNL A   1      42.221  32.812  32.868  1.00  0.00    -0.248 NA
ATOM     50  C   UNL A   1      42.252  35.088  33.287  1.00  0.00     0.031 C 
ATOM     51  C   UNL A   1      39.408  34.610  29.530  1.00  0.00     0.029 A 
ATOM     52  N   UNL A   1      39.119  33.538  31.446  1.00  0.00    -0.354 N 
ATOM     53  C   UNL A   1      42.533  33.020  34.203  1.00  0.00     0.074 A 
ATOM     54  C   UNL A   1      42.738  34.436  34.351  1.00  0.00     0.031 C 
ATOM     55  C   UNL A   1      38.074  34.523  29.731  1.00  0.00     0.029 A 
ATOM     56  C   UNL A   1      37.842  33.774  30.951  1.00  0.00     0.049 A 
ATOM     57  H   UNL A   1      39.289  33.005  32.256  1.00  0.00     0.167 HD
ATOM     58  C   UNL A   1      42.237  32.040  35.100  1.00  0.00     0.037 A 
ATOM     59  C   UNL A   1      36.667  33.338  31.464  1.00  0.00     0.037 A 
ATOM     60  C   UNL A   1      41.942  30.801  34.421  1.00  0.00     0.049 A 
ATOM     61  C   UNL A   1      36.948  32.106  32.230  1.00  0.00     0.074 A 
ATOM     62  C   UNL A   1      42.636  29.779  33.814  1.00  0.00     0.029 A 
ATOM     63  N   UNL A   1      40.659  30.745  33.953  1.00  0.00    -0.354 N 
ATOM     64  N   UNL A   1      37.325  30.986  31.678  1.00  0.00    -0.248 NA
ATOM     65  C   UNL A   1      37.112  32.186  33.678  1.00  0.00     0.031 C 
ATOM     66  C   UNL A   1      41.725  29.141  32.916  1.00  0.00     0.029 A 
ATOM     67  C   UNL A   1      40.485  29.759  33.024  1.00  0.00     0.049 A 
ATOM     68  H   UNL A   1      39.940  31.348  34.253  1.00  0.00     0.167 HD
ATOM     69  C   UNL A   1      38.151  30.417  32.621  1.00  0.00     0.074 A 
ATOM     70  C   UNL A   1      37.839  31.086  33.877  1.00  0.00     0.031 C 
ATOM     71  C   UNL A   1      39.269  29.735  32.247  1.00  0.00     0.037 A 
BRANCH  58  72
ATOM     72  C   UNL A   1      41.664  32.292  36.479  1.00  0.00     0.064 A 
ATOM     73  C   UNL A   1      40.489  33.064  36.597  1.00  0.00     0.173 A 
ATOM     74  C   UNL A   1      42.386  32.102  37.677  1.00  0.00     0.173 A 
ATOM     75  F   UNL A   1      39.748  33.347  35.515  1.00  0.00    -0.203 F 
ATOM     76  C   UNL A   1      40.099  33.638  37.812  1.00  0.00     0.198 A 
ATOM     77  C   UNL A   1      41.967  32.634  38.896  1.00  0.00     0.198 A 
ATOM     78  F   UNL A   1      43.583  31.507  37.701  1.00  0.00    -0.203 F 
ATOM     79  F   UNL A   1      39.039  34.456  37.854  1.00  0.00    -0.200 F 
ATOM     80  C   UNL A   1      40.838  33.421  38.961  1.00  0.00     0.200 A 
ATOM     81  F   UNL A   1      42.718  32.442  39.990  1.00  0.00    -0.200 F 
ATOM     82  F   UNL A   1      40.495  34.007  40.115  1.00  0.00    -0.200 F 
ENDBRANCH  58  72
BRANCH  59  83
ATOM     83  C   UNL A   1      35.365  34.037  31.567  1.00  0.00     0.064 A 
ATOM     84  C   UNL A   1      35.146  34.979  32.588  1.00  0.00     0.173 A 
ATOM     85  C   UNL A   1      34.464  34.059  30.487  1.00  0.00     0.173 A 
ATOM     86  F   UNL A   1      35.968  35.032  33.647  1.00  0.00    -0.203 F 
ATOM     87  C   UNL A   1      34.144  35.946  32.491  1.00  0.00     0.198 A 
ATOM     88  C   UNL A   1      33.458  35.023  30.395  1.00  0.00     0.198 A 
ATOM     89  F   UNL A   1      34.613  33.222  29.451  1.00  0.00    -0.203 F 
ATOM     90  F   UNL A   1      34.035  36.892  33.434  1.00  0.00    -0.200 F 
ATOM     91  C   UNL A   1      33.316  35.983  31.381  1.00  0.00     0.200 A 
ATOM     92  F   UNL A   1      32.679  35.069  29.304  1.00  0.00    -0.200 F 
ATOM     93  F   UNL A   1      32.418  36.967  31.242  1.00  0.00    -0.200 F 
ENDBRANCH  59  83
BRANCH  71  94
ATOM     94  C   UNL A   1      39.263  29.049  30.923  1.00  0.00     0.064 A 
ATOM     95  C   UNL A   1      39.657  29.632  29.710  1.00  0.00     0.173 A 
ATOM     96  C   UNL A   1      38.892  27.697  30.910  1.00  0.00     0.173 A 
ATOM     97  F   UNL A   1      40.073  30.905  29.656  1.00  0.00    -0.203 F 
ATOM     98  C   UNL A   1      39.662  28.884  28.530  1.00  0.00     0.198 A 
ATOM     99  C   UNL A   1      38.928  26.949  29.741  1.00  0.00     0.198 A 
ATOM    100  F   UNL A   1      38.523  27.092  32.051  1.00  0.00    -0.203 F 
ATOM    101  F   UNL A   1      40.031  29.454  27.374  1.00  0.00    -0.200 F 
ATOM    102  C   UNL A   1      39.308  27.542  28.550  1.00  0.00     0.200 A 
ATOM    103  F   UNL A   1      38.614  25.646  29.776  1.00  0.00    -0.200 F 
ATOM    104  F   UNL A   1      39.349  26.816  27.425  1.00  0.00    -0.200 F 
ENDBRANCH  71  94
ENDBRANCH  45  46
ENDBRANCH  37  40
ENDBRANCH  35  36
ENDBRANCH  34  35
ENDBRANCH   1  34
TORSDOF 16
ENDMDL
MODEL 2
REMARK VINA RESULT:     -12.7      1.176      2.364
REMARK SMILES Cc1coc2c(C)c3oc(=O)c(CCC(=O)N[C@H](CC(C)C)C(=O)NCCCNC(=O)c4ccc(-c5c6nc(c(-c7c(F)c(F)c(F)c(F)c7F)c7ccc([nH]7)c(-c7c(F)c(F)c(F)c(F)c7F)c7nc(c(-c8c(F)c(F)c(F)c(F)c8F)c8ccc5[nH]8)C=C7)C=C6)cc4)c(C)c3cc12
REMARK SMILES IDX 26 1 25 2 23 3 24 4 18 6 17 7 15 8 16 9 14 11 13 12 12 13
REMARK SMILES IDX 1 14 2 15 3 16 99 17 4 18 5 19 98 20 6 21 97 22 7 23 8 24
REMARK SMILES IDX 95 25 9 26 96 27 10 28 11 29 19 30 20 31 21 32 22 33 27 34
REMARK SMILES IDX 28 35 29 36 30 37 31 39 32 40 33 41 94 42 34 43 93 44 35 45
REMARK SMILES IDX 36 46 37 47 87 48 38 49 92 50 86 51 88 52 39 53 91 54 85 55
REMARK SMILES IDX 84 56 40 58 72 59 52 60 71 61 53 62 56 63 70 64 89 65 54 66
REMARK SMILES IDX 55 67 69 69 90 70 57 71 41 72 42 73 50 74 43 75 44 76 48 77
REMARK SMILES IDX 51 78 45 79 46 80 49 81 47 82 73 83 74 84 82 85 75 86 76 87
REMARK SMILES IDX 80 88 83 89 77 90 78 91 81 92 79 93 58 94 59 95 67 96 60 97
REMARK SMILES IDX 61 98 65 99 68 100 62 101 63 102 66 103 64 104
REMARK H PARENT 25 5 17 10 29 38 88 57 56 68
REMARK Flexibility Score: inf
ROOT
ATOM      1  C   UNL A   1      48.277  34.459  26.864  1.00  0.00     0.117 C 
ENDROOT
BRANCH   1   2
ATOM      2  N   UNL A   1      47.333  33.258  26.244  1.00  0.00    -0.354 N 
ATOM      3  C   UNL A   1      46.460  31.559  26.517  1.00  0.00     0.242 C 
ATOM      4  O   UNL A   1      45.730  30.961  25.649  1.00  0.00    -0.273 OA
ATOM      5  H   UNL A   1      47.120  33.528  25.322  1.00  0.00     0.163 HD
BRANCH   3   6
ATOM      6  C   UNL A   1      46.358  30.449  27.897  1.00  0.00     0.171 C 
BRANCH   6   7
ATOM      7  N   UNL A   1      45.339  29.431  28.228  1.00  0.00    -0.344 N 
ATOM      8  C   UNL A   1      45.215  28.124  27.860  1.00  0.00     0.220 C 
ATOM      9  O   UNL A   1      44.320  27.463  28.390  1.00  0.00    -0.275 OA
ATOM     10  H   UNL A   1      44.623  29.755  28.820  1.00  0.00     0.164 HD
BRANCH   8  11
ATOM     11  C   UNL A   1      46.074  27.533  26.760  1.00  0.00     0.105 C 
BRANCH  11  12
ATOM     12  C   UNL A   1      45.364  27.506  25.404  1.00  0.00     0.053 C 
BRANCH  12  13
ATOM     13  C   UNL A   1      44.430  26.342  25.389  1.00  0.00     0.042 A 
ATOM     14  C   UNL A   1      43.754  18.845  25.542  1.00  0.00     0.048 C 
ATOM     15  C   UNL A   1      42.655  19.784  25.876  1.00  0.00    -0.005 A 
ATOM     16  C   UNL A   1      41.381  19.444  26.266  1.00  0.00     0.199 A 
ATOM     17  C   UNL A   1      42.719  21.222  25.906  1.00  0.00     0.024 A 
ATOM     18  O   UNL A   1      40.635  20.543  26.500  1.00  0.00    -0.464 OA
ATOM     19  C   UNL A   1      41.411  21.649  26.278  1.00  0.00     0.140 A 
ATOM     20  C   UNL A   1      43.834  22.097  25.649  1.00  0.00     0.024 A 
ATOM     21  C   UNL A   1      40.868  22.948  26.418  1.00  0.00     0.036 A 
ATOM     22  C   UNL A   1      43.587  23.427  25.815  1.00  0.00     0.022 A 
ATOM     23  C   UNL A   1      39.507  23.301  26.880  1.00  0.00     0.052 C 
ATOM     24  C   UNL A   1      41.902  23.804  26.162  1.00  0.00     0.145 A 
ATOM     25  C   UNL A   1      44.869  24.801  25.435  1.00  0.00    -0.030 A 
ATOM     26  O   UNL A   1      41.430  25.576  25.932  1.00  0.00    -0.422 OA
ATOM     27  C   UNL A   1      46.255  24.308  25.065  1.00  0.00     0.046 C 
ATOM     28  C   UNL A   1      42.582  26.941  25.588  1.00  0.00     0.339 A 
ATOM     29  O   UNL A   1      42.166  28.081  25.380  1.00  0.00    -0.246 OA
ENDBRANCH  12  13
ENDBRANCH  11  12
ENDBRANCH   8  11
ENDBRANCH   6   7
BRANCH   6  30
ATOM     30  C   UNL A   1      47.082  31.054  29.170  1.00  0.00     0.038 C 
BRANCH  30  31
ATOM     31  C   UNL A   1      46.194  31.660  30.292  1.00  0.00    -0.015 C 
ATOM     32  C   UNL A   1      46.212  30.761  31.531  1.00  0.00     0.007 C 
ATOM     33  C   UNL A   1      46.624  33.069  30.731  1.00  0.00     0.007 C 
ENDBRANCH  30  31
ENDBRANCH   6  30
ENDBRANCH   3   6
ENDBRANCH   1   2
BRANCH   1  34
ATOM     34  C   UNL A   1      47.968  35.833  26.249  1.00  0.00     0.042 C 
BRANCH  34  35
ATOM     35  C   UNL A   1      46.581  36.275  26.632  1.00  0.00     0.118 C 
BRANCH  35  36
ATOM     36  N   UNL A   1      45.589  35.884  25.630  1.00  0.00    -0.352 N 
ATOM     37  C   UNL A   1      44.398  35.233  25.861  1.00  0.00     0.251 C 
ATOM     38  H   UNL A   1      45.795  36.108  24.694  1.00  0.00     0.163 HD
ATOM     39  O   UNL A   1      43.764  34.697  24.963  1.00  0.00    -0.269 OA
BRANCH  37  40
ATOM     40  C   UNL A   1      43.948  35.176  27.257  1.00  0.00     0.039 A 
ATOM     41  C   UNL A   1      43.101  36.168  27.736  1.00  0.00     0.014 A 
ATOM     42  C   UNL A   1      44.171  33.991  27.961  1.00  0.00     0.014 A 
ATOM     43  C   UNL A   1      42.380  35.899  28.888  1.00  0.00     0.010 A 
ATOM     44  C   UNL A   1      43.337  33.670  29.011  1.00  0.00     0.010 A 
ATOM     45  C   UNL A   1      42.442  34.619  29.487  1.00  0.00    -0.014 A 
BRANCH  45  46
ATOM     46  C   UNL A   1      41.448  34.278  30.507  1.00  0.00     0.031 A 
ATOM     47  C   UNL A   1      42.025  34.137  31.869  1.00  0.00     0.074 A 
ATOM     48  C   UNL A   1      40.118  34.134  30.317  1.00  0.00     0.049 A 
ATOM     49  N   UNL A   1      42.385  33.022  32.411  1.00  0.00    -0.248 NA
ATOM     50  C   UNL A   1      42.423  35.324  32.642  1.00  0.00     0.031 C 
ATOM     51  C   UNL A   1      39.314  34.531  29.158  1.00  0.00     0.029 A 
ATOM     52  N   UNL A   1      39.179  33.617  31.170  1.00  0.00    -0.354 N 
ATOM     53  C   UNL A   1      42.792  33.339  33.698  1.00  0.00     0.074 A 
ATOM     54  C   UNL A   1      42.993  34.764  33.715  1.00  0.00     0.031 C 
ATOM     55  C   UNL A   1      38.000  34.455  29.464  1.00  0.00     0.029 A 
ATOM     56  C   UNL A   1      37.866  33.806  30.755  1.00  0.00     0.049 A 
ATOM     57  H   UNL A   1      39.414  33.152  32.006  1.00  0.00     0.167 HD
ATOM     58  C   UNL A   1      42.574  32.434  34.691  1.00  0.00     0.037 A 
ATOM     59  C   UNL A   1      36.737  33.409  31.387  1.00  0.00     0.037 A 
ATOM     60  C   UNL A   1      42.242  31.143  34.137  1.00  0.00     0.049 A 
ATOM     61  C   UNL A   1      37.087  32.244  32.227  1.00  0.00     0.074 A 
ATOM     62  C   UNL A   1      42.900  30.078  33.566  1.00  0.00     0.029 A 
ATOM     63  N   UNL A   1      40.929  31.043  33.773  1.00  0.00    -0.354 N 
ATOM     64  N   UNL A   1      37.433  31.084  31.741  1.00  0.00    -0.248 NA
ATOM     65  C   UNL A   1      37.356  32.442  33.648  1.00  0.00     0.031 C 
ATOM     66  C   UNL A   1      41.931  29.365  32.792  1.00  0.00     0.029 A 
ATOM     67  C   UNL A   1      40.696  29.984  32.942  1.00  0.00     0.049 A 
ATOM     68  H   UNL A   1      40.228  31.665  34.076  1.00  0.00     0.167 HD
ATOM     69  C   UNL A   1      38.333  30.598  32.663  1.00  0.00     0.074 A 
ATOM     70  C   UNL A   1      38.108  31.365  33.880  1.00  0.00     0.031 C 
ATOM     71  C   UNL A   1      39.427  29.892  32.263  1.00  0.00     0.037 A 
BRANCH  58  72
ATOM     72  C   UNL A   1      42.102  32.795  36.084  1.00  0.00     0.064 A 
ATOM     73  C   UNL A   1      42.816  32.296  37.195  1.00  0.00     0.173 A 
ATOM     74  C   UNL A   1      40.821  33.312  36.371  1.00  0.00     0.173 A 
ATOM     75  F   UNL A   1      44.026  31.740  37.034  1.00  0.00    -0.203 F 
ATOM     76  C   UNL A   1      42.264  32.276  38.480  1.00  0.00     0.198 A 
ATOM     77  C   UNL A   1      40.295  33.336  37.662  1.00  0.00     0.198 A 
ATOM     78  F   UNL A   1      39.976  33.699  35.409  1.00  0.00    -0.203 F 
ATOM     79  F   UNL A   1      42.932  31.690  39.483  1.00  0.00    -0.200 F 
ATOM     80  C   UNL A   1      41.005  32.797  38.713  1.00  0.00     0.200 A 
ATOM     81  F   UNL A   1      39.057  33.812  37.859  1.00  0.00    -0.200 F 
ATOM     82  F   UNL A   1      40.454  32.736  39.932  1.00  0.00    -0.200 F 
ENDBRANCH  58  72
BRANCH  59  83
ATOM     83  C   UNL A   1      35.439  34.108  31.531  1.00  0.00     0.064 A 
ATOM     84  C   UNL A   1      35.265  35.079  32.532  1.00  0.00     0.173 A 
ATOM     85  C   UNL A   1      34.488  34.096  30.494  1.00  0.00     0.173 A 
ATOM     86  F   UNL A   1      36.135  35.166  33.549  1.00  0.00    -0.203 F 
ATOM     87  C   UNL A   1      34.256  36.042  32.453  1.00  0.00     0.198 A 
ATOM     88  C   UNL A   1      33.476  35.055  30.421  1.00  0.00     0.198 A 
ATOM     89  F   UNL A   1      34.591  33.227  29.478  1.00  0.00    -0.203 F 
ATOM     90  F   UNL A   1      34.189  37.015  33.372  1.00  0.00    -0.200 F 
ATOM     91  C   UNL A   1      33.378  36.043  31.384  1.00  0.00     0.200 A 
ATOM     92  F   UNL A   1      32.646  35.066  29.367  1.00  0.00    -0.200 F 
ATOM     93  F   UNL A   1      32.470  37.021  31.257  1.00  0.00    -0.200 F 
ENDBRANCH  59  83
BRANCH  71  94
ATOM     94  C   UNL A   1      39.330  29.101  31.002  1.00  0.00     0.064 A 
ATOM     95  C   UNL A   1      39.696  29.561  29.729  1.00  0.00     0.173 A 
ATOM     96  C   UNL A   1      38.897  27.773  31.118  1.00  0.00     0.173 A 
ATOM     97  F   UNL A   1      40.167  30.804  29.551  1.00  0.00    -0.203 F 
ATOM     98  C   UNL A   1      39.614  28.720  28.617  1.00  0.00     0.198 A 
ATOM     99  C   UNL A   1      38.846  26.930  30.016  1.00  0.00     0.198 A 
ATOM    100  F   UNL A   1      38.551  27.283  32.320  1.00  0.00    -0.203 F 
ATOM    101  F   UNL A   1      39.957  29.174  27.403  1.00  0.00    -0.200 F 
ATOM    102  C   UNL A   1      39.199  27.404  28.765  1.00  0.00     0.200 A 
ATOM    103  F   UNL A   1      38.473  25.652  30.174  1.00  0.00    -0.200 F 
ATOM    104  F   UNL A   1      39.156  26.586  27.704  1.00  0.00    -0.200 F 
ENDBRANCH  71  94
ENDBRANCH  45  46
ENDBRANCH  37  40
ENDBRANCH  35  36
ENDBRANCH  34  35
ENDBRANCH   1  34
TORSDOF 16
ENDMDL
MODEL 3
REMARK VINA RESULT:     -12.7      1.967      3.804
REMARK SMILES Cc1coc2c(C)c3oc(=O)c(CCC(=O)N[C@H](CC(C)C)C(=O)NCCCNC(=O)c4ccc(-c5c6nc(c(-c7c(F)c(F)c(F)c(F)c7F)c7ccc([nH]7)c(-c7c(F)c(F)c(F)c(F)c7F)c7nc(c(-c8c(F)c(F)c(F)c(F)c8F)c8ccc5[nH]8)C=C7)C=C6)cc4)c(C)c3cc12
REMARK SMILES IDX 26 1 25 2 23 3 24 4 18 6 17 7 15 8 16 9 14 11 13 12 12 13
REMARK SMILES IDX 1 14 2 15 3 16 99 17 4 18 5 19 98 20 6 21 97 22 7 23 8 24
REMARK SMILES IDX 95 25 9 26 96 27 10 28 11 29 19 30 20 31 21 32 22 33 27 34
REMARK SMILES IDX 28 35 29 36 30 37 31 39 32 40 33 41 94 42 34 43 93 44 35 45
REMARK SMILES IDX 36 46 37 47 87 48 38 49 92 50 86 51 88 52 39 53 91 54 85 55
REMARK SMILES IDX 84 56 40 58 72 59 52 60 71 61 53 62 56 63 70 64 89 65 54 66
REMARK SMILES IDX 55 67 69 69 90 70 57 71 41 72 42 73 50 74 43 75 44 76 48 77
REMARK SMILES IDX 51 78 45 79 46 80 49 81 47 82 73 83 74 84 82 85 75 86 76 87
REMARK SMILES IDX 80 88 83 89 77 90 78 91 81 92 79 93 58 94 59 95 67 96 60 97
REMARK SMILES IDX 61 98 65 99 68 100 62 101 63 102 66 103 64 104
REMARK H PARENT 25 5 17 10 29 38 88 57 56 68
REMARK Flexibility Score: inf
ROOT
ATOM      1  C   UNL A   1      44.294  29.824  27.457  1.00  0.00     0.117 C 
ENDROOT
BRANCH   1   2
ATOM      2  N   UNL A   1      43.598  28.820  26.350  1.00  0.00    -0.354 N 
ATOM      3  C   UNL A   1      43.515  27.061  25.563  1.00  0.00     0.242 C 
ATOM      4  O   UNL A   1      42.700  26.708  24.638  1.00  0.00    -0.273 OA
ATOM      5  H   UNL A   1      42.923  29.360  25.880  1.00  0.00     0.163 HD
BRANCH   3   6
ATOM      6  C   UNL A   1      44.391  25.548  25.866  1.00  0.00     0.171 C 
BRANCH   6   7
ATOM      7  N   UNL A   1      44.524  24.338  25.027  1.00  0.00    -0.344 N 
ATOM      8  C   UNL A   1      43.625  23.373  24.684  1.00  0.00     0.220 C 
ATOM      9  O   UNL A   1      43.977  22.530  23.857  1.00  0.00    -0.275 OA
ATOM     10  H   UNL A   1      45.423  24.207  24.647  1.00  0.00     0.164 HD
BRANCH   8  11
ATOM     11  C   UNL A   1      42.278  23.273  25.374  1.00  0.00     0.105 C 
BRANCH  11  12
ATOM     12  C   UNL A   1      42.111  21.971  26.160  1.00  0.00     0.053 C 
BRANCH  12  13
ATOM     13  C   UNL A   1      40.665  21.598  26.144  1.00  0.00     0.042 A 
ATOM     14  C   UNL A   1      33.555  24.074  26.233  1.00  0.00     0.048 C 
ATOM     15  C   UNL A   1      33.958  22.722  25.773  1.00  0.00    -0.005 A 
ATOM     16  C   UNL A   1      33.122  21.741  25.293  1.00  0.00     0.199 A 
ATOM     17  C   UNL A   1      35.294  22.193  25.692  1.00  0.00     0.024 A 
ATOM     18  O   UNL A   1      33.815  20.635  24.956  1.00  0.00    -0.464 OA
ATOM     19  C   UNL A   1      35.143  20.865  25.197  1.00  0.00     0.140 A 
ATOM     20  C   UNL A   1      36.551  22.823  26.004  1.00  0.00     0.024 A 
ATOM     21  C   UNL A   1      36.103  19.852  24.962  1.00  0.00     0.036 A 
ATOM     22  C   UNL A   1      37.662  22.068  25.766  1.00  0.00     0.022 A 
ATOM     23  C   UNL A   1      35.863  18.514  24.376  1.00  0.00     0.052 C 
ATOM     24  C   UNL A   1      37.310  20.416  25.268  1.00  0.00     0.145 A 
ATOM     25  C   UNL A   1      39.442  22.633  26.196  1.00  0.00    -0.030 A 
ATOM     26  O   UNL A   1      38.731  19.240  25.388  1.00  0.00    -0.422 OA
ATOM     27  C   UNL A   1      39.565  24.060  26.698  1.00  0.00     0.046 C 
ATOM     28  C   UNL A   1      40.449  19.695  25.772  1.00  0.00     0.339 A 
ATOM     29  O   UNL A   1      41.317  18.831  25.899  1.00  0.00    -0.246 OA
ENDBRANCH  12  13
ENDBRANCH  11  12
ENDBRANCH   8  11
ENDBRANCH   6   7
BRANCH   6  30
ATOM     30  C   UNL A   1      44.501  25.253  27.419  1.00  0.00     0.038 C 
BRANCH  30  31
ATOM     31  C   UNL A   1      43.196  24.900  28.186  1.00  0.00    -0.015 C 
ATOM     32  C   UNL A   1      43.424  23.694  29.100  1.00  0.00     0.007 C 
ATOM     33  C   UNL A   1      42.656  26.049  29.053  1.00  0.00     0.007 C 
ENDBRANCH  30  31
ENDBRANCH   6  30
ENDBRANCH   3   6
ENDBRANCH   1   2
BRANCH   1  34
ATOM     34  C   UNL A   1      45.102  30.957  26.805  1.00  0.00     0.042 C 
BRANCH  34  35
ATOM     35  C   UNL A   1      44.401  32.276  27.000  1.00  0.00     0.118 C 
BRANCH  35  36
ATOM     36  N   UNL A   1      45.204  33.397  26.513  1.00  0.00    -0.352 N 
ATOM     37  C   UNL A   1      45.099  34.715  26.899  1.00  0.00     0.251 C 
ATOM     38  H   UNL A   1      45.891  33.187  25.839  1.00  0.00     0.163 HD
ATOM     39  O   UNL A   1      45.601  35.624  26.254  1.00  0.00    -0.269 OA
BRANCH  37  40
ATOM     40  C   UNL A   1      44.307  34.977  28.106  1.00  0.00     0.039 A 
ATOM     41  C   UNL A   1      43.088  35.635  27.986  1.00  0.00     0.014 A 
ATOM     42  C   UNL A   1      44.680  34.322  29.281  1.00  0.00     0.014 A 
ATOM     43  C   UNL A   1      42.189  35.524  29.033  1.00  0.00     0.010 A 
ATOM     44  C   UNL A   1      43.724  34.084  30.245  1.00  0.00     0.010 A 
ATOM     45  C   UNL A   1      42.477  34.684  30.135  1.00  0.00    -0.014 A 
BRANCH  45  46
ATOM     46  C   UNL A   1      41.392  34.353  31.061  1.00  0.00     0.031 A 
ATOM     47  C   UNL A   1      41.829  34.280  32.480  1.00  0.00     0.074 A 
ATOM     48  C   UNL A   1      40.092  34.163  30.742  1.00  0.00     0.049 A 
ATOM     49  N   UNL A   1      42.159  33.196  33.100  1.00  0.00    -0.248 NA
ATOM     50  C   UNL A   1      42.115  35.506  33.241  1.00  0.00     0.031 C 
ATOM     51  C   UNL A   1      39.403  34.493  29.493  1.00  0.00     0.029 A 
ATOM     52  N   UNL A   1      39.084  33.651  31.515  1.00  0.00    -0.354 N 
ATOM     53  C   UNL A   1      42.423  33.573  34.408  1.00  0.00     0.074 A 
ATOM     54  C   UNL A   1      42.585  35.002  34.389  1.00  0.00     0.031 C 
ATOM     55  C   UNL A   1      38.066  34.390  29.666  1.00  0.00     0.029 A 
ATOM     56  C   UNL A   1      37.817  33.787  30.960  1.00  0.00     0.049 A 
ATOM     57  H   UNL A   1      39.243  33.224  32.388  1.00  0.00     0.167 HD
ATOM     58  C   UNL A   1      42.126  32.699  35.409  1.00  0.00     0.037 A 
ATOM     59  C   UNL A   1      36.639  33.380  31.490  1.00  0.00     0.037 A 
ATOM     60  C   UNL A   1      41.886  31.379  34.876  1.00  0.00     0.049 A 
ATOM     61  C   UNL A   1      36.929  32.258  32.407  1.00  0.00     0.074 A 
ATOM     62  C   UNL A   1      42.626  30.313  34.418  1.00  0.00     0.029 A 
ATOM     63  N   UNL A   1      40.620  31.228  34.384  1.00  0.00    -0.354 N 
ATOM     64  N   UNL A   1      37.353  31.091  32.006  1.00  0.00    -0.248 NA
ATOM     65  C   UNL A   1      37.045  32.517  33.838  1.00  0.00     0.031 C 
ATOM     66  C   UNL A   1      41.760  29.544  33.578  1.00  0.00     0.029 A 
ATOM     67  C   UNL A   1      40.501  30.132  33.577  1.00  0.00     0.049 A 
ATOM     68  H   UNL A   1      39.876  31.840  34.589  1.00  0.00     0.167 HD
ATOM     69  C   UNL A   1      38.164  30.666  33.033  1.00  0.00     0.074 A 
ATOM     70  C   UNL A   1      37.796  31.471  34.190  1.00  0.00     0.031 C 
ATOM     71  C   UNL A   1      39.311  29.978  32.775  1.00  0.00     0.037 A 
BRANCH  58  72
ATOM     72  C   UNL A   1      41.504  33.098  36.731  1.00  0.00     0.064 A 
ATOM     73  C   UNL A   1      42.074  32.610  37.926  1.00  0.00     0.173 A 
ATOM     74  C   UNL A   1      40.209  33.645  36.858  1.00  0.00     0.173 A 
ATOM     75  F   UNL A   1      43.283  32.028  37.917  1.00  0.00    -0.203 F 
ATOM     76  C   UNL A   1      41.378  32.627  39.139  1.00  0.00     0.198 A 
ATOM     77  C   UNL A   1      39.538  33.705  38.078  1.00  0.00     0.198 A 
ATOM     78  F   UNL A   1      39.490  34.026  35.797  1.00  0.00    -0.203 F 
ATOM     79  F   UNL A   1      41.913  32.049  40.223  1.00  0.00    -0.200 F 
ATOM     80  C   UNL A   1      40.111  33.175  39.214  1.00  0.00     0.200 A 
ATOM     81  F   UNL A   1      38.296  34.208  38.121  1.00  0.00    -0.200 F 
ATOM     82  F   UNL A   1      39.422  33.150  40.362  1.00  0.00    -0.200 F 
ENDBRANCH  58  72
BRANCH  59  83
ATOM     83  C   UNL A   1      35.316  34.046  31.472  1.00  0.00     0.064 A 
ATOM     84  C   UNL A   1      35.032  35.081  32.380  1.00  0.00     0.173 A 
ATOM     85  C   UNL A   1      34.457  33.929  30.363  1.00  0.00     0.173 A 
ATOM     86  F   UNL A   1      35.809  35.269  33.457  1.00  0.00    -0.203 F 
ATOM     87  C   UNL A   1      34.009  36.003  32.145  1.00  0.00     0.198 A 
ATOM     88  C   UNL A   1      33.431  34.847  30.134  1.00  0.00     0.198 A 
ATOM     89  F   UNL A   1      34.669  32.993  29.427  1.00  0.00    -0.203 F 
ATOM     90  F   UNL A   1      33.838  37.037  32.980  1.00  0.00    -0.200 F 
ATOM     91  C   UNL A   1      33.225  35.899  31.009  1.00  0.00     0.200 A 
ATOM     92  F   UNL A   1      32.695  34.755  29.017  1.00  0.00    -0.200 F 
ATOM     93  F   UNL A   1      32.307  36.835  30.734  1.00  0.00    -0.200 F 
ENDBRANCH  59  83
BRANCH  71  94
ATOM     94  C   UNL A   1      39.365  29.138  31.544  1.00  0.00     0.064 A 
ATOM     95  C   UNL A   1      38.896  27.820  31.445  1.00  0.00     0.173 A 
ATOM     96  C   UNL A   1      39.868  29.743  30.384  1.00  0.00     0.173 A 
ATOM     97  F   UNL A   1      38.356  27.195  32.502  1.00  0.00    -0.203 F 
ATOM     98  C   UNL A   1      38.947  27.136  30.229  1.00  0.00     0.198 A 
ATOM     99  C   UNL A   1      39.888  29.071  29.169  1.00  0.00     0.198 A 
ATOM    100  F   UNL A   1      40.313  31.009  30.427  1.00  0.00    -0.203 F 
ATOM    101  F   UNL A   1      38.506  25.872  30.148  1.00  0.00    -0.200 F 
ATOM    102  C   UNL A   1      39.433  27.766  29.092  1.00  0.00     0.200 A 
ATOM    103  F   UNL A   1      40.331  29.698  28.071  1.00  0.00    -0.200 F 
ATOM    104  F   UNL A   1      39.448  27.122  27.916  1.00  0.00    -0.200 F 
ENDBRANCH  71  94
ENDBRANCH  45  46
ENDBRANCH  37  40
ENDBRANCH  35  36
ENDBRANCH  34  35
ENDBRANCH   1  34
TORSDOF 16
ENDMDL
