MODEL 1
REMARK VINA RESULT:     -13.3      0.000      0.000
REMARK SMILES O=C(Cn1c2c(sc1=O)C[C@H](c1ccccc1)CC2)NCCCNC(=O)c1ccc(-c2c3nc(c(-c4c(F)c(F)c(F)c(F)c4F)c4ccc([nH]4)c(-c4c(F)c(F)c(F)c(F)c4F)c4nc(c(-c5c(F)c(F)c(F)c(F)c5F)c5ccc2[nH]5)C=C4)C=C3)cc1
REMARK SMILES IDX 22 1 21 2 20 3 1 4 2 5 3 7 4 8 5 9 8 10 6 11 19 12 7 13 9 14
REMARK SMILES IDX 10 15 18 16 11 17 12 18 13 19 17 20 14 21 16 22 15 23 23 24
REMARK SMILES IDX 24 25 25 26 26 28 27 29 28 30 89 31 29 32 88 33 30 34 31 35
REMARK SMILES IDX 32 36 82 37 33 38 87 39 81 40 83 41 34 42 86 43 80 44 79 45
REMARK SMILES IDX 35 47 67 48 47 49 66 50 48 51 51 52 65 53 84 54 49 55 50 56
REMARK SMILES IDX 64 58 85 59 52 60 36 61 37 62 45 63 38 64 39 65 43 66 46 67
REMARK SMILES IDX 40 68 41 69 44 70 42 71 68 72 69 73 77 74 70 75 71 76 75 77
REMARK SMILES IDX 78 78 72 79 73 80 76 81 74 82 53 83 54 84 62 85 55 86 56 87
REMARK SMILES IDX 60 88 63 89 57 90 58 91 61 92 59 93
REMARK H PARENT 20 6 24 27 83 46 51 57
REMARK Flexibility Score: inf
ROOT
ATOM      1  C   UNL A   1      33.639  29.141  26.394  1.00  0.00     0.042 C 
ENDROOT
BRANCH   1   2
ATOM      2  C   UNL A   1      33.691  28.396  25.057  1.00  0.00     0.117 C 
BRANCH   2   3
ATOM      3  N   UNL A   1      32.440  27.784  24.638  1.00  0.00    -0.354 N 
ATOM      4  O   UNL A   1      33.500  26.194  23.366  1.00  0.00    -0.273 OA
ATOM      5  C   UNL A   1      32.467  26.623  23.872  1.00  0.00     0.240 C 
ATOM      6  H   UNL A   1      31.580  28.188  24.894  1.00  0.00     0.163 HD
BRANCH   5   7
ATOM      7  C   UNL A   1      31.147  25.850  23.839  1.00  0.00     0.226 C 
BRANCH   7   8
ATOM      8  N   UNL A   1      31.197  24.697  24.729  1.00  0.00    -0.293 N 
ATOM      9  C   UNL A   1      31.430  23.391  24.327  1.00  0.00     0.036 A 
ATOM     10  C   UNL A   1      31.052  24.870  26.107  1.00  0.00     0.308 A 
ATOM     11  C   UNL A   1      31.529  22.522  25.344  1.00  0.00     0.030 A 
ATOM     12  C   UNL A   1      31.636  22.984  22.903  1.00  0.00     0.056 C 
ATOM     13  S   UNL A   1      31.259  23.281  26.876  1.00  0.00    -0.079 S 
ATOM     14  O   UNL A   1      30.871  25.895  26.719  1.00  0.00    -0.257 OA
ATOM     15  C   UNL A   1      31.971  21.102  25.181  1.00  0.00     0.057 C 
ATOM     16  C   UNL A   1      32.153  21.540  22.732  1.00  0.00     0.015 C 
ATOM     17  C   UNL A   1      32.905  20.969  23.947  1.00  0.00     0.025 C 
BRANCH  17  18
ATOM     18  C   UNL A   1      34.276  21.572  24.261  1.00  0.00    -0.045 A 
ATOM     19  C   UNL A   1      34.768  22.583  23.419  1.00  0.00     0.004 A 
ATOM     20  C   UNL A   1      35.128  21.093  25.263  1.00  0.00     0.004 A 
ATOM     21  C   UNL A   1      36.094  23.009  23.501  1.00  0.00     0.000 A 
ATOM     22  C   UNL A   1      36.470  21.471  25.307  1.00  0.00     0.000 A 
ATOM     23  C   UNL A   1      36.956  22.421  24.417  1.00  0.00     0.000 A 
ENDBRANCH  17  18
ENDBRANCH   7   8
ENDBRANCH   5   7
ENDBRANCH   2   3
ENDBRANCH   1   2
BRANCH   1  24
ATOM     24  C   UNL A   1      34.874  28.969  27.272  1.00  0.00     0.118 C 
BRANCH  24  25
ATOM     25  N   UNL A   1      35.085  30.022  28.265  1.00  0.00    -0.352 N 
ATOM     26  C   UNL A   1      36.165  30.183  29.123  1.00  0.00     0.251 C 
ATOM     27  H   UNL A   1      34.375  30.700  28.336  1.00  0.00     0.163 HD
ATOM     28  O   UNL A   1      36.066  30.883  30.124  1.00  0.00    -0.269 OA
BRANCH  26  29
ATOM     29  C   UNL A   1      37.449  29.507  28.824  1.00  0.00     0.039 A 
ATOM     30  C   UNL A   1      38.175  29.761  27.657  1.00  0.00     0.014 A 
ATOM     31  C   UNL A   1      37.926  28.568  29.729  1.00  0.00     0.014 A 
ATOM     32  C   UNL A   1      39.418  29.141  27.472  1.00  0.00     0.010 A 
ATOM     33  C   UNL A   1      39.175  28.018  29.600  1.00  0.00     0.010 A 
ATOM     34  C   UNL A   1      39.924  28.285  28.462  1.00  0.00    -0.014 A 
BRANCH  34  35
ATOM     35  C   UNL A   1      41.290  27.769  28.438  1.00  0.00     0.031 A 
ATOM     36  C   UNL A   1      41.492  26.514  27.691  1.00  0.00     0.074 A 
ATOM     37  C   UNL A   1      42.359  28.484  28.853  1.00  0.00     0.049 A 
ATOM     38  N   UNL A   1      41.904  25.404  28.204  1.00  0.00    -0.248 NA
ATOM     39  C   UNL A   1      41.162  26.432  26.264  1.00  0.00     0.031 C 
ATOM     40  C   UNL A   1      42.323  29.796  29.503  1.00  0.00     0.029 A 
ATOM     41  N   UNL A   1      43.704  28.246  28.710  1.00  0.00    -0.354 N 
ATOM     42  C   UNL A   1      42.126  24.552  27.135  1.00  0.00     0.074 A 
ATOM     43  C   UNL A   1      41.493  25.164  25.993  1.00  0.00     0.031 C 
ATOM     44  C   UNL A   1      43.563  30.323  29.518  1.00  0.00     0.029 A 
ATOM     45  C   UNL A   1      44.492  29.352  28.994  1.00  0.00     0.049 A 
ATOM     46  H   UNL A   1      44.073  27.376  28.433  1.00  0.00     0.167 HD
ATOM     47  C   UNL A   1      43.067  23.577  27.244  1.00  0.00     0.037 A 
ATOM     48  C   UNL A   1      45.835  29.491  28.947  1.00  0.00     0.037 A 
ATOM     49  C   UNL A   1      43.506  23.425  28.611  1.00  0.00     0.049 A 
ATOM     50  C   UNL A   1      46.408  28.185  29.309  1.00  0.00     0.074 A 
ATOM     51  C   UNL A   1      43.041  22.824  29.760  1.00  0.00     0.029 A 
ATOM     52  N   UNL A   1      44.488  24.302  28.985  1.00  0.00    -0.354 N 
ATOM     53  N   UNL A   1      46.256  27.658  30.493  1.00  0.00    -0.248 NA
ATOM     54  C   UNL A   1      46.881  27.281  28.269  1.00  0.00     0.031 C 
ATOM     55  C   UNL A   1      43.709  23.456  30.854  1.00  0.00     0.029 A 
ATOM     56  C   UNL A   1      44.577  24.416  30.347  1.00  0.00     0.049 A 
ATOM     57  H   UNL A   1      45.062  24.790  28.351  1.00  0.00     0.167 HD
ATOM     58  C   UNL A   1      46.145  26.311  30.227  1.00  0.00     0.074 A 
ATOM     59  C   UNL A   1      46.734  26.120  28.910  1.00  0.00     0.031 C 
ATOM     60  C   UNL A   1      45.267  25.540  30.927  1.00  0.00     0.037 A 
BRANCH  47  61
ATOM     61  C   UNL A   1      43.938  23.078  26.118  1.00  0.00     0.064 A 
ATOM     62  C   UNL A   1      43.932  21.700  25.814  1.00  0.00     0.173 A 
ATOM     63  C   UNL A   1      44.996  23.822  25.557  1.00  0.00     0.173 A 
ATOM     64  F   UNL A   1      42.983  20.895  26.318  1.00  0.00    -0.203 F 
ATOM     65  C   UNL A   1      44.946  21.105  25.060  1.00  0.00     0.198 A 
ATOM     66  C   UNL A   1      45.977  23.233  24.759  1.00  0.00     0.198 A 
ATOM     67  F   UNL A   1      45.192  25.112  25.855  1.00  0.00    -0.203 F 
ATOM     68  F   UNL A   1      44.963  19.776  24.898  1.00  0.00    -0.200 F 
ATOM     69  C   UNL A   1      45.969  21.873  24.535  1.00  0.00     0.200 A 
ATOM     70  F   UNL A   1      46.976  23.988  24.280  1.00  0.00    -0.200 F 
ATOM     71  F   UNL A   1      46.972  21.298  23.857  1.00  0.00    -0.200 F 
ENDBRANCH  47  61
BRANCH  48  72
ATOM     72  C   UNL A   1      46.643  30.674  28.600  1.00  0.00     0.064 A 
ATOM     73  C   UNL A   1      46.520  31.318  27.360  1.00  0.00     0.173 A 
ATOM     74  C   UNL A   1      47.344  31.367  29.607  1.00  0.00     0.173 A 
ATOM     75  F   UNL A   1      45.850  30.730  26.359  1.00  0.00    -0.203 F 
ATOM     76  C   UNL A   1      47.025  32.605  27.153  1.00  0.00     0.198 A 
ATOM     77  C   UNL A   1      47.844  32.654  29.400  1.00  0.00     0.198 A 
ATOM     78  F   UNL A   1      47.468  30.841  30.836  1.00  0.00    -0.203 F 
ATOM     79  F   UNL A   1      46.832  33.216  25.976  1.00  0.00    -0.200 F 
ATOM     80  C   UNL A   1      47.668  33.279  28.178  1.00  0.00     0.200 A 
ATOM     81  F   UNL A   1      48.433  33.310  30.410  1.00  0.00    -0.200 F 
ATOM     82  F   UNL A   1      48.079  34.544  28.004  1.00  0.00    -0.200 F 
ENDBRANCH  48  72
BRANCH  60  83
ATOM     83  C   UNL A   1      44.897  26.013  32.295  1.00  0.00     0.064 A 
ATOM     84  C   UNL A   1      43.777  26.806  32.584  1.00  0.00     0.173 A 
ATOM     85  C   UNL A   1      45.714  25.629  33.364  1.00  0.00     0.173 A 
ATOM     86  F   UNL A   1      42.918  27.157  31.623  1.00  0.00    -0.203 F 
ATOM     87  C   UNL A   1      43.513  27.232  33.885  1.00  0.00     0.198 A 
ATOM     88  C   UNL A   1      45.434  26.032  34.666  1.00  0.00     0.198 A 
ATOM     89  F   UNL A   1      46.780  24.844  33.144  1.00  0.00    -0.203 F 
ATOM     90  F   UNL A   1      42.449  28.010  34.136  1.00  0.00    -0.200 F 
ATOM     91  C   UNL A   1      44.340  26.843  34.925  1.00  0.00     0.200 A 
ATOM     92  F   UNL A   1      46.221  25.626  35.671  1.00  0.00    -0.200 F 
ATOM     93  F   UNL A   1      44.077  27.235  36.179  1.00  0.00    -0.200 F 
ENDBRANCH  60  83
ENDBRANCH  34  35
ENDBRANCH  26  29
ENDBRANCH  24  25
ENDBRANCH   1  24
TORSDOF 12
ENDMDL
MODEL 2
REMARK VINA RESULT:     -13.2      3.834      8.030
REMARK SMILES O=C(Cn1c2c(sc1=O)C[C@H](c1ccccc1)CC2)NCCCNC(=O)c1ccc(-c2c3nc(c(-c4c(F)c(F)c(F)c(F)c4F)c4ccc([nH]4)c(-c4c(F)c(F)c(F)c(F)c4F)c4nc(c(-c5c(F)c(F)c(F)c(F)c5F)c5ccc2[nH]5)C=C4)C=C3)cc1
REMARK SMILES IDX 22 1 21 2 20 3 1 4 2 5 3 7 4 8 5 9 8 10 6 11 19 12 7 13 9 14
REMARK SMILES IDX 10 15 18 16 11 17 12 18 13 19 17 20 14 21 16 22 15 23 23 24
REMARK SMILES IDX 24 25 25 26 26 28 27 29 28 30 89 31 29 32 88 33 30 34 31 35
REMARK SMILES IDX 32 36 82 37 33 38 87 39 81 40 83 41 34 42 86 43 80 44 79 45
REMARK SMILES IDX 35 47 67 48 47 49 66 50 48 51 51 52 65 53 84 54 49 55 50 56
REMARK SMILES IDX 64 58 85 59 52 60 36 61 37 62 45 63 38 64 39 65 43 66 46 67
REMARK SMILES IDX 40 68 41 69 44 70 42 71 68 72 69 73 77 74 70 75 71 76 75 77
REMARK SMILES IDX 78 78 72 79 73 80 76 81 74 82 53 83 54 84 62 85 55 86 56 87
REMARK SMILES IDX 60 88 63 89 57 90 58 91 61 92 59 93
REMARK H PARENT 20 6 24 27 83 46 51 57
REMARK Flexibility Score: inf
ROOT
ATOM      1  C   UNL A   1      36.774  21.955  25.179  1.00  0.00     0.042 C 
ENDROOT
BRANCH   1   2
ATOM      2  C   UNL A   1      35.478  22.520  25.765  1.00  0.00     0.117 C 
BRANCH   2   3
ATOM      3  N   UNL A   1      34.274  22.229  25.004  1.00  0.00    -0.354 N 
ATOM      4  O   UNL A   1      33.049  23.837  26.090  1.00  0.00    -0.273 OA
ATOM      5  C   UNL A   1      33.143  23.021  25.178  1.00  0.00     0.240 C 
ATOM      6  H   UNL A   1      34.258  21.478  24.369  1.00  0.00     0.163 HD
BRANCH   5   7
ATOM      7  C   UNL A   1      32.101  22.901  24.064  1.00  0.00     0.226 C 
BRANCH   7   8
ATOM      8  N   UNL A   1      32.122  24.076  23.204  1.00  0.00    -0.293 N 
ATOM      9  C   UNL A   1      31.213  25.121  23.260  1.00  0.00     0.036 A 
ATOM     10  C   UNL A   1      33.142  24.237  22.263  1.00  0.00     0.308 A 
ATOM     11  C   UNL A   1      31.502  26.136  22.432  1.00  0.00     0.030 A 
ATOM     12  C   UNL A   1      30.057  25.165  24.207  1.00  0.00     0.056 C 
ATOM     13  S   UNL A   1      32.903  25.809  21.470  1.00  0.00    -0.079 S 
ATOM     14  O   UNL A   1      34.069  23.500  22.029  1.00  0.00    -0.257 OA
ATOM     15  C   UNL A   1      30.790  27.452  22.453  1.00  0.00     0.057 C 
ATOM     16  C   UNL A   1      29.357  26.538  24.280  1.00  0.00     0.015 C 
ATOM     17  C   UNL A   1      30.232  27.738  23.875  1.00  0.00     0.025 C 
BRANCH  17  18
ATOM     18  C   UNL A   1      31.376  28.114  24.819  1.00  0.00    -0.045 A 
ATOM     19  C   UNL A   1      32.481  28.798  24.286  1.00  0.00     0.004 A 
ATOM     20  C   UNL A   1      31.450  27.707  26.156  1.00  0.00     0.004 A 
ATOM     21  C   UNL A   1      33.654  28.962  25.025  1.00  0.00     0.000 A 
ATOM     22  C   UNL A   1      32.640  27.813  26.875  1.00  0.00     0.000 A 
ATOM     23  C   UNL A   1      33.747  28.431  26.305  1.00  0.00     0.000 A 
ENDBRANCH  17  18
ENDBRANCH   7   8
ENDBRANCH   5   7
ENDBRANCH   2   3
ENDBRANCH   1   2
BRANCH   1  24
ATOM     24  C   UNL A   1      38.043  22.689  25.600  1.00  0.00     0.118 C 
BRANCH  24  25
ATOM     25  N   UNL A   1      38.902  21.965  26.536  1.00  0.00    -0.352 N 
ATOM     26  C   UNL A   1      40.005  22.446  27.230  1.00  0.00     0.251 C 
ATOM     27  H   UNL A   1      38.673  21.021  26.694  1.00  0.00     0.163 HD
ATOM     28  O   UNL A   1      40.831  21.672  27.701  1.00  0.00    -0.269 OA
BRANCH  26  29
ATOM     29  C   UNL A   1      40.184  23.906  27.408  1.00  0.00     0.039 A 
ATOM     30  C   UNL A   1      39.191  24.828  27.067  1.00  0.00     0.014 A 
ATOM     31  C   UNL A   1      41.396  24.365  27.906  1.00  0.00     0.014 A 
ATOM     32  C   UNL A   1      39.398  26.189  27.328  1.00  0.00     0.010 A 
ATOM     33  C   UNL A   1      41.580  25.682  28.241  1.00  0.00     0.010 A 
ATOM     34  C   UNL A   1      40.590  26.608  27.939  1.00  0.00    -0.014 A 
BRANCH  34  35
ATOM     35  C   UNL A   1      40.793  27.968  28.429  1.00  0.00     0.031 A 
ATOM     36  C   UNL A   1      41.910  28.713  27.821  1.00  0.00     0.074 A 
ATOM     37  C   UNL A   1      39.897  28.616  29.207  1.00  0.00     0.049 A 
ATOM     38  N   UNL A   1      42.940  29.157  28.457  1.00  0.00    -0.248 NA
ATOM     39  C   UNL A   1      41.948  28.954  26.374  1.00  0.00     0.031 C 
ATOM     40  C   UNL A   1      38.680  28.043  29.787  1.00  0.00     0.029 A 
ATOM     41  N   UNL A   1      39.824  29.937  29.576  1.00  0.00    -0.354 N 
ATOM     42  C   UNL A   1      43.636  29.943  27.554  1.00  0.00     0.074 A 
ATOM     43  C   UNL A   1      43.087  29.645  26.254  1.00  0.00     0.031 C 
ATOM     44  C   UNL A   1      37.899  29.034  30.259  1.00  0.00     0.029 A 
ATOM     45  C   UNL A   1      38.599  30.288  30.125  1.00  0.00     0.049 A 
ATOM     46  H   UNL A   1      40.567  30.572  29.462  1.00  0.00     0.167 HD
ATOM     47  C   UNL A   1      44.387  30.979  28.013  1.00  0.00     0.037 A 
ATOM     48  C   UNL A   1      38.168  31.484  30.580  1.00  0.00     0.037 A 
ATOM     49  C   UNL A   1      44.548  30.914  29.446  1.00  0.00     0.049 A 
ATOM     50  C   UNL A   1      39.342  32.173  31.139  1.00  0.00     0.074 A 
ATOM     51  C   UNL A   1      45.326  30.216  30.343  1.00  0.00     0.029 A 
ATOM     52  N   UNL A   1      43.511  31.460  30.152  1.00  0.00    -0.354 N 
ATOM     53  N   UNL A   1      39.981  31.728  32.185  1.00  0.00    -0.248 NA
ATOM     54  C   UNL A   1      40.035  33.188  30.356  1.00  0.00     0.031 C 
ATOM     55  C   UNL A   1      44.653  30.274  31.603  1.00  0.00     0.029 A 
ATOM     56  C   UNL A   1      43.490  31.018  31.449  1.00  0.00     0.049 A 
ATOM     57  H   UNL A   1      42.860  32.095  29.773  1.00  0.00     0.167 HD
ATOM     58  C   UNL A   1      41.295  32.037  31.907  1.00  0.00     0.074 A 
ATOM     59  C   UNL A   1      41.248  33.091  30.905  1.00  0.00     0.031 C 
ATOM     60  C   UNL A   1      42.292  31.170  32.235  1.00  0.00     0.037 A 
BRANCH  47  61
ATOM     61  C   UNL A   1      44.593  32.290  27.295  1.00  0.00     0.064 A 
ATOM     62  C   UNL A   1      45.818  32.516  26.634  1.00  0.00     0.173 A 
ATOM     63  C   UNL A   1      43.791  33.431  27.501  1.00  0.00     0.173 A 
ATOM     64  F   UNL A   1      46.670  31.504  26.409  1.00  0.00    -0.203 F 
ATOM     65  C   UNL A   1      46.234  33.798  26.267  1.00  0.00     0.198 A 
ATOM     66  C   UNL A   1      44.185  34.702  27.084  1.00  0.00     0.198 A 
ATOM     67  F   UNL A   1      42.660  33.382  28.216  1.00  0.00    -0.203 F 
ATOM     68  F   UNL A   1      47.456  33.981  25.751  1.00  0.00    -0.200 F 
ATOM     69  C   UNL A   1      45.417  34.890  26.495  1.00  0.00     0.200 A 
ATOM     70  F   UNL A   1      43.392  35.752  27.338  1.00  0.00    -0.200 F 
ATOM     71  F   UNL A   1      45.835  36.128  26.195  1.00  0.00    -0.200 F 
ENDBRANCH  47  61
BRANCH  48  72
ATOM     72  C   UNL A   1      36.812  32.065  30.550  1.00  0.00     0.064 A 
ATOM     73  C   UNL A   1      35.951  31.995  31.654  1.00  0.00     0.173 A 
ATOM     74  C   UNL A   1      36.454  32.961  29.523  1.00  0.00     0.173 A 
ATOM     75  F   UNL A   1      36.236  31.180  32.681  1.00  0.00    -0.203 F 
ATOM     76  C   UNL A   1      34.821  32.811  31.752  1.00  0.00     0.198 A 
ATOM     77  C   UNL A   1      35.327  33.779  29.624  1.00  0.00     0.198 A 
ATOM     78  F   UNL A   1      37.247  33.121  28.452  1.00  0.00    -0.203 F 
ATOM     79  F   UNL A   1      34.057  32.765  32.852  1.00  0.00    -0.200 F 
ATOM     80  C   UNL A   1      34.521  33.717  30.747  1.00  0.00     0.200 A 
ATOM     81  F   UNL A   1      35.067  34.675  28.661  1.00  0.00    -0.200 F 
ATOM     82  F   UNL A   1      33.484  34.556  30.879  1.00  0.00    -0.200 F 
ENDBRANCH  48  72
BRANCH  60  83
ATOM     83  C   UNL A   1      42.022  30.229  33.364  1.00  0.00     0.064 A 
ATOM     84  C   UNL A   1      41.564  28.913  33.208  1.00  0.00     0.173 A 
ATOM     85  C   UNL A   1      42.252  30.685  34.666  1.00  0.00     0.173 A 
ATOM     86  F   UNL A   1      41.383  28.389  31.991  1.00  0.00    -0.203 F 
ATOM     87  C   UNL A   1      41.308  28.102  34.313  1.00  0.00     0.198 A 
ATOM     88  C   UNL A   1      42.022  29.866  35.767  1.00  0.00     0.198 A 
ATOM     89  F   UNL A   1      42.721  31.926  34.869  1.00  0.00    -0.203 F 
ATOM     90  F   UNL A   1      40.848  26.854  34.140  1.00  0.00    -0.200 F 
ATOM     91  C   UNL A   1      41.539  28.580  35.592  1.00  0.00     0.200 A 
ATOM     92  F   UNL A   1      42.278  30.324  37.001  1.00  0.00    -0.200 F 
ATOM     93  F   UNL A   1      41.312  27.797  36.655  1.00  0.00    -0.200 F 
ENDBRANCH  60  83
ENDBRANCH  34  35
ENDBRANCH  26  29
ENDBRANCH  24  25
ENDBRANCH   1  24
TORSDOF 12
ENDMDL
MODEL 3
REMARK VINA RESULT:     -13.0      1.777      6.771
REMARK SMILES O=C(Cn1c2c(sc1=O)C[C@H](c1ccccc1)CC2)NCCCNC(=O)c1ccc(-c2c3nc(c(-c4c(F)c(F)c(F)c(F)c4F)c4ccc([nH]4)c(-c4c(F)c(F)c(F)c(F)c4F)c4nc(c(-c5c(F)c(F)c(F)c(F)c5F)c5ccc2[nH]5)C=C4)C=C3)cc1
REMARK SMILES IDX 22 1 21 2 20 3 1 4 2 5 3 7 4 8 5 9 8 10 6 11 19 12 7 13 9 14
REMARK SMILES IDX 10 15 18 16 11 17 12 18 13 19 17 20 14 21 16 22 15 23 23 24
REMARK SMILES IDX 24 25 25 26 26 28 27 29 28 30 89 31 29 32 88 33 30 34 31 35
REMARK SMILES IDX 32 36 82 37 33 38 87 39 81 40 83 41 34 42 86 43 80 44 79 45
REMARK SMILES IDX 35 47 67 48 47 49 66 50 48 51 51 52 65 53 84 54 49 55 50 56
REMARK SMILES IDX 64 58 85 59 52 60 36 61 37 62 45 63 38 64 39 65 43 66 46 67
REMARK SMILES IDX 40 68 41 69 44 70 42 71 68 72 69 73 77 74 70 75 71 76 75 77
REMARK SMILES IDX 78 78 72 79 73 80 76 81 74 82 53 83 54 84 62 85 55 86 56 87
REMARK SMILES IDX 60 88 63 89 57 90 58 91 61 92 59 93
REMARK H PARENT 20 6 24 27 83 46 51 57
REMARK Flexibility Score: inf
ROOT
ATOM      1  C   UNL A   1      32.482  29.379  26.803  1.00  0.00     0.042 C 
ENDROOT
BRANCH   1   2
ATOM      2  C   UNL A   1      32.676  29.177  25.298  1.00  0.00     0.117 C 
BRANCH   2   3
ATOM      3  N   UNL A   1      31.694  28.319  24.654  1.00  0.00    -0.354 N 
ATOM      4  O   UNL A   1      33.284  26.824  23.942  1.00  0.00    -0.273 OA
ATOM      5  C   UNL A   1      32.100  27.112  24.093  1.00  0.00     0.240 C 
ATOM      6  H   UNL A   1      30.749  28.589  24.616  1.00  0.00     0.163 HD
BRANCH   5   7
ATOM      7  C   UNL A   1      30.966  26.121  23.822  1.00  0.00     0.226 C 
BRANCH   7   8
ATOM      8  N   UNL A   1      31.065  24.965  24.704  1.00  0.00    -0.293 N 
ATOM      9  C   UNL A   1      31.396  23.681  24.299  1.00  0.00     0.036 A 
ATOM     10  C   UNL A   1      30.867  25.113  26.078  1.00  0.00     0.308 A 
ATOM     11  C   UNL A   1      31.521  22.809  25.310  1.00  0.00     0.030 A 
ATOM     12  C   UNL A   1      31.672  23.303  22.878  1.00  0.00     0.056 C 
ATOM     13  S   UNL A   1      31.155  23.533  26.839  1.00  0.00    -0.079 S 
ATOM     14  O   UNL A   1      30.600  26.117  26.693  1.00  0.00    -0.257 OA
ATOM     15  C   UNL A   1      32.062  21.424  25.149  1.00  0.00     0.057 C 
ATOM     16  C   UNL A   1      32.289  21.899  22.710  1.00  0.00     0.015 C 
ATOM     17  C   UNL A   1      33.040  21.366  23.943  1.00  0.00     0.025 C 
BRANCH  17  18
ATOM     18  C   UNL A   1      34.357  22.055  24.306  1.00  0.00    -0.045 A 
ATOM     19  C   UNL A   1      35.020  22.791  23.309  1.00  0.00     0.004 A 
ATOM     20  C   UNL A   1      35.010  21.894  25.534  1.00  0.00     0.004 A 
ATOM     21  C   UNL A   1      36.327  23.243  23.495  1.00  0.00     0.000 A 
ATOM     22  C   UNL A   1      36.337  22.289  25.699  1.00  0.00     0.000 A 
ATOM     23  C   UNL A   1      37.000  22.954  24.675  1.00  0.00     0.000 A 
ENDBRANCH  17  18
ENDBRANCH   7   8
ENDBRANCH   5   7
ENDBRANCH   2   3
ENDBRANCH   1   2
BRANCH   1  24
ATOM     24  C   UNL A   1      33.723  29.851  27.553  1.00  0.00     0.118 C 
BRANCH  24  25
ATOM     25  N   UNL A   1      34.160  31.212  27.243  1.00  0.00    -0.352 N 
ATOM     26  C   UNL A   1      35.316  31.855  27.666  1.00  0.00     0.251 C 
ATOM     27  H   UNL A   1      33.563  31.738  26.664  1.00  0.00     0.163 HD
ATOM     28  O   UNL A   1      35.397  33.078  27.630  1.00  0.00    -0.269 OA
BRANCH  26  29
ATOM     29  C   UNL A   1      36.462  31.058  28.162  1.00  0.00     0.039 A 
ATOM     30  C   UNL A   1      36.589  29.690  27.907  1.00  0.00     0.014 A 
ATOM     31  C   UNL A   1      37.426  31.698  28.931  1.00  0.00     0.014 A 
ATOM     32  C   UNL A   1      37.735  29.013  28.345  1.00  0.00     0.010 A 
ATOM     33  C   UNL A   1      38.588  31.067  29.294  1.00  0.00     0.010 A 
ATOM     34  C   UNL A   1      38.744  29.715  29.020  1.00  0.00    -0.014 A 
BRANCH  34  35
ATOM     35  C   UNL A   1      40.049  29.131  29.321  1.00  0.00     0.031 A 
ATOM     36  C   UNL A   1      40.351  28.931  30.751  1.00  0.00     0.074 A 
ATOM     37  C   UNL A   1      40.848  28.580  28.382  1.00  0.00     0.049 A 
ATOM     38  N   UNL A   1      41.317  29.496  31.391  1.00  0.00    -0.248 NA
ATOM     39  C   UNL A   1      39.491  28.083  31.584  1.00  0.00     0.031 C 
ATOM     40  C   UNL A   1      40.621  28.595  26.935  1.00  0.00     0.029 A 
ATOM     41  N   UNL A   1      41.982  27.815  28.509  1.00  0.00    -0.354 N 
ATOM     42  C   UNL A   1      41.348  28.896  32.638  1.00  0.00     0.074 A 
ATOM     43  C   UNL A   1      40.109  28.169  32.768  1.00  0.00     0.031 C 
ATOM     44  C   UNL A   1      41.457  27.721  26.340  1.00  0.00     0.029 A 
ATOM     45  C   UNL A   1      42.350  27.177  27.333  1.00  0.00     0.049 A 
ATOM     46  H   UNL A   1      42.483  27.728  29.352  1.00  0.00     0.167 HD
ATOM     47  C   UNL A   1      42.528  28.816  33.310  1.00  0.00     0.037 A 
ATOM     48  C   UNL A   1      43.386  26.345  27.091  1.00  0.00     0.037 A 
ATOM     49  C   UNL A   1      43.537  29.645  32.695  1.00  0.00     0.049 A 
ATOM     50  C   UNL A   1      44.492  26.782  27.957  1.00  0.00     0.074 A 
ATOM     51  C   UNL A   1      43.870  30.982  32.674  1.00  0.00     0.029 A 
ATOM     52  N   UNL A   1      44.187  29.052  31.648  1.00  0.00    -0.354 N 
ATOM     53  N   UNL A   1      45.072  27.942  27.820  1.00  0.00    -0.248 NA
ATOM     54  C   UNL A   1      44.762  26.082  29.206  1.00  0.00     0.031 C 
ATOM     55  C   UNL A   1      44.663  31.189  31.503  1.00  0.00     0.029 A 
ATOM     56  C   UNL A   1      44.809  29.974  30.846  1.00  0.00     0.049 A 
ATOM     57  H   UNL A   1      44.208  28.080  31.490  1.00  0.00     0.167 HD
ATOM     58  C   UNL A   1      45.357  28.308  29.117  1.00  0.00     0.074 A 
ATOM     59  C   UNL A   1      45.342  27.073  29.887  1.00  0.00     0.031 C 
ATOM     60  C   UNL A   1      45.218  29.603  29.516  1.00  0.00     0.037 A 
BRANCH  47  61
ATOM     61  C   UNL A   1      42.940  27.681  34.214  1.00  0.00     0.064 A 
ATOM     62  C   UNL A   1      43.315  26.452  33.633  1.00  0.00     0.173 A 
ATOM     63  C   UNL A   1      42.673  27.645  35.598  1.00  0.00     0.173 A 
ATOM     64  F   UNL A   1      43.567  26.369  32.317  1.00  0.00    -0.203 F 
ATOM     65  C   UNL A   1      43.356  25.267  34.371  1.00  0.00     0.198 A 
ATOM     66  C   UNL A   1      42.767  26.470  36.343  1.00  0.00     0.198 A 
ATOM     67  F   UNL A   1      42.195  28.709  36.256  1.00  0.00    -0.203 F 
ATOM     68  F   UNL A   1      43.600  24.104  33.753  1.00  0.00    -0.200 F 
ATOM     69  C   UNL A   1      43.079  25.277  35.726  1.00  0.00     0.200 A 
ATOM     70  F   UNL A   1      42.470  26.494  37.650  1.00  0.00    -0.200 F 
ATOM     71  F   UNL A   1      43.063  24.135  36.426  1.00  0.00    -0.200 F 
ENDBRANCH  47  61
BRANCH  48  72
ATOM     72  C   UNL A   1      43.470  25.197  26.168  1.00  0.00     0.064 A 
ATOM     73  C   UNL A   1      44.547  25.034  25.285  1.00  0.00     0.173 A 
ATOM     74  C   UNL A   1      42.627  24.084  26.353  1.00  0.00     0.173 A 
ATOM     75  F   UNL A   1      45.404  26.042  25.073  1.00  0.00    -0.203 F 
ATOM     76  C   UNL A   1      44.799  23.809  24.660  1.00  0.00     0.198 A 
ATOM     77  C   UNL A   1      42.882  22.859  25.731  1.00  0.00     0.198 A 
ATOM     78  F   UNL A   1      41.600  24.142  27.215  1.00  0.00    -0.203 F 
ATOM     79  F   UNL A   1      45.875  23.669  23.874  1.00  0.00    -0.200 F 
ATOM     80  C   UNL A   1      43.979  22.718  24.900  1.00  0.00     0.200 A 
ATOM     81  F   UNL A   1      42.102  21.803  25.998  1.00  0.00    -0.200 F 
ATOM     82  F   UNL A   1      44.268  21.523  24.365  1.00  0.00    -0.200 F 
ENDBRANCH  48  72
BRANCH  60  83
ATOM     83  C   UNL A   1      45.333  30.649  28.456  1.00  0.00     0.064 A 
ATOM     84  C   UNL A   1      44.247  31.179  27.743  1.00  0.00     0.173 A 
ATOM     85  C   UNL A   1      46.607  31.146  28.161  1.00  0.00     0.173 A 
ATOM     86  F   UNL A   1      42.995  30.798  28.016  1.00  0.00    -0.203 F 
ATOM     87  C   UNL A   1      44.436  32.136  26.747  1.00  0.00     0.198 A 
ATOM     88  C   UNL A   1      46.791  32.121  27.186  1.00  0.00     0.198 A 
ATOM     89  F   UNL A   1      47.675  30.696  28.837  1.00  0.00    -0.203 F 
ATOM     90  F   UNL A   1      43.386  32.611  26.061  1.00  0.00    -0.200 F 
ATOM     91  C   UNL A   1      45.709  32.607  26.471  1.00  0.00     0.200 A 
ATOM     92  F   UNL A   1      48.022  32.596  26.945  1.00  0.00    -0.200 F 
ATOM     93  F   UNL A   1      45.892  33.541  25.527  1.00  0.00    -0.200 F 
ENDBRANCH  60  83
ENDBRANCH  34  35
ENDBRANCH  26  29
ENDBRANCH  24  25
ENDBRANCH   1  24
TORSDOF 12
ENDMDL
