MODEL 1
REMARK VINA RESULT:     -12.4      0.000      0.000
REMARK SMILES O=C(NCCCNC(=O)[C@@H]1CC[C@@]2(CCN(C(=O)OCc3ccccc3)C2)C1)c1ccc(-c2c3nc(c(-c4c(F)c(F)c(F)c(F)c4F)c4ccc([nH]4)c(-c4c(F)c(F)c(F)c(F)c4F)c4nc(c(-c5c(F)c(F)c(F)c(F)c5F)c5ccc2[nH]5)C=C4)C=C3)cc1
REMARK SMILES IDX 6 1 5 2 4 3 3 4 1 5 2 6 29 8 30 9 91 10 31 11 90 12 32 13
REMARK SMILES IDX 33 14 34 15 84 16 35 17 89 18 83 19 85 20 36 21 88 22 82 23
REMARK SMILES IDX 81 24 37 26 69 27 49 28 68 29 50 30 53 31 67 32 86 33 51 34
REMARK SMILES IDX 52 35 66 37 87 38 54 39 38 40 39 41 47 42 40 43 41 44 45 45
REMARK SMILES IDX 48 46 42 47 43 48 46 49 44 50 70 51 71 52 79 53 72 54 73 55
REMARK SMILES IDX 77 56 80 57 74 58 75 59 78 60 76 61 55 62 56 63 64 64 57 65
REMARK SMILES IDX 58 66 62 67 65 68 59 69 60 70 63 71 61 72 7 73 8 74 9 76
REMARK SMILES IDX 10 77 11 78 28 79 12 80 13 81 14 82 27 83 15 84 16 85 17 86
REMARK SMILES IDX 18 87 19 88 20 89 21 90 22 91 26 92 23 93 25 94 24 95
REMARK H PARENT 3 7 85 25 53 36 7 75
REMARK Flexibility Score: inf
ROOT
ATOM      1  C   UNL A   1      36.752  20.658  25.132  1.00  0.00     0.117 C 
ENDROOT
BRANCH   1   2
ATOM      2  C   UNL A   1      38.001  19.813  24.922  1.00  0.00     0.042 C 
BRANCH   2   3
ATOM      3  C   UNL A   1      39.164  20.251  25.798  1.00  0.00     0.118 C 
BRANCH   3   4
ATOM      4  N   UNL A   1      40.204  19.235  25.881  1.00  0.00    -0.352 N 
ATOM      5  O   UNL A   1      42.330  18.473  25.931  1.00  0.00    -0.269 OA
ATOM      6  C   UNL A   1      41.550  19.406  26.089  1.00  0.00     0.251 C 
ATOM      7  H   UNL A   1      39.903  18.305  25.774  1.00  0.00     0.163 HD
BRANCH   6   8
ATOM      8  C   UNL A   1      42.048  20.737  26.484  1.00  0.00     0.039 A 
ATOM      9  C   UNL A   1      42.208  21.052  27.836  1.00  0.00     0.014 A 
ATOM     10  C   UNL A   1      42.327  21.681  25.496  1.00  0.00     0.014 A 
ATOM     11  C   UNL A   1      42.508  22.356  28.205  1.00  0.00     0.010 A 
ATOM     12  C   UNL A   1      42.723  22.965  25.868  1.00  0.00     0.010 A 
ATOM     13  C   UNL A   1      42.787  23.320  27.226  1.00  0.00    -0.014 A 
BRANCH  13  14
ATOM     14  C   UNL A   1      43.208  24.679  27.638  1.00  0.00     0.031 A 
ATOM     15  C   UNL A   1      42.196  25.721  28.016  1.00  0.00     0.074 A 
ATOM     16  C   UNL A   1      44.524  24.964  27.664  1.00  0.00     0.049 A 
ATOM     17  N   UNL A   1      42.385  26.973  28.346  1.00  0.00    -0.248 NA
ATOM     18  C   UNL A   1      40.784  25.307  28.013  1.00  0.00     0.031 C 
ATOM     19  C   UNL A   1      45.594  24.027  27.316  1.00  0.00     0.029 A 
ATOM     20  N   UNL A   1      45.185  26.116  27.999  1.00  0.00    -0.354 N 
ATOM     21  C   UNL A   1      41.121  27.504  28.567  1.00  0.00     0.074 A 
ATOM     22  C   UNL A   1      40.169  26.443  28.309  1.00  0.00     0.031 C 
ATOM     23  C   UNL A   1      46.778  24.630  27.484  1.00  0.00     0.029 A 
ATOM     24  C   UNL A   1      46.549  26.013  27.881  1.00  0.00     0.049 A 
ATOM     25  H   UNL A   1      44.729  26.936  28.295  1.00  0.00     0.167 HD
ATOM     26  C   UNL A   1      40.792  28.760  28.955  1.00  0.00     0.037 A 
ATOM     27  C   UNL A   1      47.510  26.940  28.045  1.00  0.00     0.037 A 
ATOM     28  C   UNL A   1      41.753  29.801  29.220  1.00  0.00     0.049 A 
ATOM     29  C   UNL A   1      47.114  28.333  28.440  1.00  0.00     0.074 A 
ATOM     30  C   UNL A   1      41.526  31.097  29.650  1.00  0.00     0.029 A 
ATOM     31  N   UNL A   1      43.127  29.666  29.073  1.00  0.00    -0.354 N 
ATOM     32  N   UNL A   1      45.919  28.818  28.670  1.00  0.00    -0.248 NA
ATOM     33  C   UNL A   1      48.201  29.307  28.596  1.00  0.00     0.031 C 
ATOM     34  C   UNL A   1      42.755  31.760  29.712  1.00  0.00     0.029 A 
ATOM     35  C   UNL A   1      43.757  30.862  29.380  1.00  0.00     0.049 A 
ATOM     36  H   UNL A   1      43.586  28.841  28.793  1.00  0.00     0.167 HD
ATOM     37  C   UNL A   1      46.109  30.146  29.020  1.00  0.00     0.074 A 
ATOM     38  C   UNL A   1      47.536  30.387  28.985  1.00  0.00     0.031 C 
ATOM     39  C   UNL A   1      45.182  31.081  29.343  1.00  0.00     0.037 A 
BRANCH  26  40
ATOM     40  C   UNL A   1      39.332  29.087  29.088  1.00  0.00     0.064 A 
ATOM     41  C   UNL A   1      38.673  29.049  30.326  1.00  0.00     0.173 A 
ATOM     42  C   UNL A   1      38.587  29.476  27.963  1.00  0.00     0.173 A 
ATOM     43  F   UNL A   1      39.333  28.674  31.431  1.00  0.00    -0.203 F 
ATOM     44  C   UNL A   1      37.318  29.357  30.428  1.00  0.00     0.198 A 
ATOM     45  C   UNL A   1      37.240  29.812  28.073  1.00  0.00     0.198 A 
ATOM     46  F   UNL A   1      39.168  29.536  26.755  1.00  0.00    -0.203 F 
ATOM     47  F   UNL A   1      36.698  29.263  31.612  1.00  0.00    -0.200 F 
ATOM     48  C   UNL A   1      36.605  29.743  29.303  1.00  0.00     0.200 A 
ATOM     49  F   UNL A   1      36.557  30.198  26.987  1.00  0.00    -0.200 F 
ATOM     50  F   UNL A   1      35.302  30.043  29.403  1.00  0.00    -0.200 F 
ENDBRANCH  26  40
BRANCH  27  51
ATOM     51  C   UNL A   1      48.929  26.566  27.825  1.00  0.00     0.064 A 
ATOM     52  C   UNL A   1      49.776  26.285  28.906  1.00  0.00     0.173 A 
ATOM     53  C   UNL A   1      49.458  26.447  26.531  1.00  0.00     0.173 A 
ATOM     54  F   UNL A   1      49.318  26.401  30.161  1.00  0.00    -0.203 F 
ATOM     55  C   UNL A   1      51.101  25.909  28.700  1.00  0.00     0.198 A 
ATOM     56  C   UNL A   1      50.774  26.042  26.326  1.00  0.00     0.198 A 
ATOM     57  F   UNL A   1      48.684  26.697  25.463  1.00  0.00    -0.203 F 
ATOM     58  F   UNL A   1      51.900  25.679  29.751  1.00  0.00    -0.200 F 
ATOM     59  C   UNL A   1      51.597  25.779  27.411  1.00  0.00     0.200 A 
ATOM     60  F   UNL A   1      51.242  25.899  25.079  1.00  0.00    -0.200 F 
ATOM     61  F   UNL A   1      52.867  25.405  27.214  1.00  0.00    -0.200 F 
ENDBRANCH  27  51
BRANCH  39  62
ATOM     62  C   UNL A   1      45.688  32.442  29.724  1.00  0.00     0.064 A 
ATOM     63  C   UNL A   1      45.836  33.466  28.777  1.00  0.00     0.173 A 
ATOM     64  C   UNL A   1      45.996  32.732  31.062  1.00  0.00     0.173 A 
ATOM     65  F   UNL A   1      45.572  33.232  27.483  1.00  0.00    -0.203 F 
ATOM     66  C   UNL A   1      46.296  34.725  29.154  1.00  0.00     0.198 A 
ATOM     67  C   UNL A   1      46.425  34.001  31.439  1.00  0.00     0.198 A 
ATOM     68  F   UNL A   1      45.867  31.788  32.005  1.00  0.00    -0.203 F 
ATOM     69  F   UNL A   1      46.475  35.675  28.225  1.00  0.00    -0.200 F 
ATOM     70  C   UNL A   1      46.583  34.994  30.484  1.00  0.00     0.200 A 
ATOM     71  F   UNL A   1      46.690  34.262  32.726  1.00  0.00    -0.200 F 
ATOM     72  F   UNL A   1      47.016  36.209  30.845  1.00  0.00    -0.200 F 
ENDBRANCH  39  62
ENDBRANCH  13  14
ENDBRANCH   6   8
ENDBRANCH   3   4
ENDBRANCH   2   3
ENDBRANCH   1   2
BRANCH   1  73
ATOM     73  N   UNL A   1      36.900  21.929  24.449  1.00  0.00    -0.356 N 
ATOM     74  C   UNL A   1      35.920  22.605  23.788  1.00  0.00     0.223 C 
ATOM     75  H   UNL A   1      37.794  22.342  24.465  1.00  0.00     0.163 HD
ATOM     76  O   UNL A   1      36.208  23.244  22.781  1.00  0.00    -0.275 OA
BRANCH  74  77
ATOM     77  C   UNL A   1      34.558  22.646  24.437  1.00  0.00     0.079 C 
ATOM     78  C   UNL A   1      33.512  21.785  23.749  1.00  0.00     0.014 C 
ATOM     79  C   UNL A   1      34.020  24.079  24.344  1.00  0.00     0.022 C 
ATOM     80  C   UNL A   1      32.216  22.449  24.191  1.00  0.00     0.010 C 
ATOM     81  C   UNL A   1      32.509  23.944  24.049  1.00  0.00    -0.009 C 
ATOM     82  C   UNL A   1      31.668  24.847  24.977  1.00  0.00     0.030 C 
ATOM     83  C   UNL A   1      32.188  24.484  22.643  1.00  0.00     0.130 C 
ATOM     84  C   UNL A   1      31.353  26.099  24.155  1.00  0.00     0.124 C 
ATOM     85  N   UNL A   1      32.054  25.898  22.907  1.00  0.00    -0.308 N 
BRANCH  85  86
ATOM     86  C   UNL A   1      32.868  26.812  22.274  1.00  0.00     0.410 C 
ATOM     87  O   UNL A   1      33.913  26.525  21.716  1.00  0.00    -0.224 OA
BRANCH  86  88
ATOM     88  O   UNL A   1      32.407  28.082  22.434  1.00  0.00    -0.445 OA
BRANCH  88  89
ATOM     89  C   UNL A   1      33.312  28.977  23.094  1.00  0.00     0.270 C 
BRANCH  89  90
ATOM     90  C   UNL A   1      33.123  28.993  24.598  1.00  0.00    -0.011 A 
ATOM     91  C   UNL A   1      32.142  29.779  25.220  1.00  0.00     0.007 A 
ATOM     92  C   UNL A   1      33.980  28.231  25.406  1.00  0.00     0.007 A 
ATOM     93  C   UNL A   1      31.993  29.772  26.609  1.00  0.00     0.000 A 
ATOM     94  C   UNL A   1      33.838  28.233  26.797  1.00  0.00     0.000 A 
ATOM     95  C   UNL A   1      32.841  28.998  27.397  1.00  0.00     0.000 A 
ENDBRANCH  89  90
ENDBRANCH  88  89
ENDBRANCH  86  88
ENDBRANCH  85  86
ENDBRANCH  74  77
ENDBRANCH   1  73
TORSDOF 14
ENDMDL
MODEL 2
REMARK VINA RESULT:     -12.4      0.174      1.937
REMARK SMILES O=C(NCCCNC(=O)[C@@H]1CC[C@@]2(CCN(C(=O)OCc3ccccc3)C2)C1)c1ccc(-c2c3nc(c(-c4c(F)c(F)c(F)c(F)c4F)c4ccc([nH]4)c(-c4c(F)c(F)c(F)c(F)c4F)c4nc(c(-c5c(F)c(F)c(F)c(F)c5F)c5ccc2[nH]5)C=C4)C=C3)cc1
REMARK SMILES IDX 6 1 5 2 4 3 3 4 1 5 2 6 29 8 30 9 91 10 31 11 90 12 32 13
REMARK SMILES IDX 33 14 34 15 84 16 35 17 89 18 83 19 85 20 36 21 88 22 82 23
REMARK SMILES IDX 81 24 37 26 69 27 49 28 68 29 50 30 53 31 67 32 86 33 51 34
REMARK SMILES IDX 52 35 66 37 87 38 54 39 38 40 39 41 47 42 40 43 41 44 45 45
REMARK SMILES IDX 48 46 42 47 43 48 46 49 44 50 70 51 71 52 79 53 72 54 73 55
REMARK SMILES IDX 77 56 80 57 74 58 75 59 78 60 76 61 55 62 56 63 64 64 57 65
REMARK SMILES IDX 58 66 62 67 65 68 59 69 60 70 63 71 61 72 7 73 8 74 9 76
REMARK SMILES IDX 10 77 11 78 28 79 12 80 13 81 14 82 27 83 15 84 16 85 17 86
REMARK SMILES IDX 18 87 19 88 20 89 21 90 22 91 26 92 23 93 25 94 24 95
REMARK H PARENT 3 7 85 25 53 36 7 75
REMARK Flexibility Score: inf
ROOT
ATOM      1  C   UNL A   1      36.994  20.694  25.041  1.00  0.00     0.117 C 
ENDROOT
BRANCH   1   2
ATOM      2  C   UNL A   1      38.289  19.917  24.845  1.00  0.00     0.042 C 
BRANCH   2   3
ATOM      3  C   UNL A   1      39.272  20.111  25.989  1.00  0.00     0.118 C 
BRANCH   3   4
ATOM      4  N   UNL A   1      40.337  19.118  25.975  1.00  0.00    -0.352 N 
ATOM      5  O   UNL A   1      42.477  18.405  25.863  1.00  0.00    -0.269 OA
ATOM      6  C   UNL A   1      41.690  19.314  26.098  1.00  0.00     0.251 C 
ATOM      7  H   UNL A   1      40.049  18.184  25.863  1.00  0.00     0.163 HD
BRANCH   6   8
ATOM      8  C   UNL A   1      42.184  20.646  26.496  1.00  0.00     0.039 A 
ATOM      9  C   UNL A   1      42.252  20.993  27.849  1.00  0.00     0.014 A 
ATOM     10  C   UNL A   1      42.554  21.559  25.509  1.00  0.00     0.014 A 
ATOM     11  C   UNL A   1      42.549  22.299  28.208  1.00  0.00     0.010 A 
ATOM     12  C   UNL A   1      42.947  22.845  25.878  1.00  0.00     0.010 A 
ATOM     13  C   UNL A   1      42.919  23.233  27.228  1.00  0.00    -0.014 A 
BRANCH  13  14
ATOM     14  C   UNL A   1      43.336  24.594  27.638  1.00  0.00     0.031 A 
ATOM     15  C   UNL A   1      42.320  25.638  27.998  1.00  0.00     0.074 A 
ATOM     16  C   UNL A   1      44.651  24.879  27.676  1.00  0.00     0.049 A 
ATOM     17  N   UNL A   1      42.506  26.893  28.324  1.00  0.00    -0.248 NA
ATOM     18  C   UNL A   1      40.909  25.226  27.982  1.00  0.00     0.031 C 
ATOM     19  C   UNL A   1      45.725  23.939  27.346  1.00  0.00     0.029 A 
ATOM     20  N   UNL A   1      45.310  26.032  28.012  1.00  0.00    -0.354 N 
ATOM     21  C   UNL A   1      41.241  27.425  28.527  1.00  0.00     0.074 A 
ATOM     22  C   UNL A   1      40.291  26.364  28.265  1.00  0.00     0.031 C 
ATOM     23  C   UNL A   1      46.907  24.543  27.523  1.00  0.00     0.029 A 
ATOM     24  C   UNL A   1      46.675  25.928  27.910  1.00  0.00     0.049 A 
ATOM     25  H   UNL A   1      44.851  26.854  28.298  1.00  0.00     0.167 HD
ATOM     26  C   UNL A   1      40.908  28.683  28.904  1.00  0.00     0.037 A 
ATOM     27  C   UNL A   1      47.634  26.856  28.079  1.00  0.00     0.037 A 
ATOM     28  C   UNL A   1      41.866  29.726  29.174  1.00  0.00     0.049 A 
ATOM     29  C   UNL A   1      47.235  28.251  28.461  1.00  0.00     0.074 A 
ATOM     30  C   UNL A   1      41.635  31.024  29.594  1.00  0.00     0.029 A 
ATOM     31  N   UNL A   1      43.241  29.589  29.043  1.00  0.00    -0.354 N 
ATOM     32  N   UNL A   1      46.037  28.737  28.675  1.00  0.00    -0.248 NA
ATOM     33  C   UNL A   1      48.321  29.225  28.624  1.00  0.00     0.031 C 
ATOM     34  C   UNL A   1      42.864  31.687  29.666  1.00  0.00     0.029 A 
ATOM     35  C   UNL A   1      43.869  30.786  29.350  1.00  0.00     0.049 A 
ATOM     36  H   UNL A   1      43.703  28.762  28.773  1.00  0.00     0.167 HD
ATOM     37  C   UNL A   1      46.224  30.068  29.020  1.00  0.00     0.074 A 
ATOM     38  C   UNL A   1      47.652  30.307  28.999  1.00  0.00     0.031 C 
ATOM     39  C   UNL A   1      45.294  31.005  29.328  1.00  0.00     0.037 A 
BRANCH  26  40
ATOM     40  C   UNL A   1      39.446  29.012  29.019  1.00  0.00     0.064 A 
ATOM     41  C   UNL A   1      38.678  29.375  27.904  1.00  0.00     0.173 A 
ATOM     42  C   UNL A   1      38.797  28.932  30.262  1.00  0.00     0.173 A 
ATOM     43  F   UNL A   1      39.249  29.478  26.695  1.00  0.00    -0.203 F 
ATOM     44  C   UNL A   1      37.323  29.676  28.032  1.00  0.00     0.198 A 
ATOM     45  C   UNL A   1      37.437  29.204  30.382  1.00  0.00     0.198 A 
ATOM     46  F   UNL A   1      39.482  28.583  31.362  1.00  0.00    -0.203 F 
ATOM     47  F   UNL A   1      36.621  30.071  26.961  1.00  0.00    -0.200 F 
ATOM     48  C   UNL A   1      36.703  29.585  29.269  1.00  0.00     0.200 A 
ATOM     49  F   UNL A   1      36.837  29.102  31.576  1.00  0.00    -0.200 F 
ATOM     50  F   UNL A   1      35.399  29.871  29.391  1.00  0.00    -0.200 F 
ENDBRANCH  26  40
BRANCH  27  51
ATOM     51  C   UNL A   1      49.056  26.480  27.877  1.00  0.00     0.064 A 
ATOM     52  C   UNL A   1      49.594  26.363  26.589  1.00  0.00     0.173 A 
ATOM     53  C   UNL A   1      49.913  26.266  28.967  1.00  0.00     0.173 A 
ATOM     54  F   UNL A   1      48.808  26.544  25.517  1.00  0.00    -0.203 F 
ATOM     55  C   UNL A   1      50.934  26.035  26.398  1.00  0.00     0.198 A 
ATOM     56  C   UNL A   1      51.260  25.968  28.775  1.00  0.00     0.198 A 
ATOM     57  F   UNL A   1      49.447  26.375  30.220  1.00  0.00    -0.203 F 
ATOM     58  F   UNL A   1      51.416  25.896  25.156  1.00  0.00    -0.200 F 
ATOM     59  C   UNL A   1      51.768  25.847  27.490  1.00  0.00     0.200 A 
ATOM     60  F   UNL A   1      52.065  25.806  29.834  1.00  0.00    -0.200 F 
ATOM     61  F   UNL A   1      53.060  25.545  27.306  1.00  0.00    -0.200 F 
ENDBRANCH  27  51
BRANCH  39  62
ATOM     62  C   UNL A   1      45.797  32.368  29.707  1.00  0.00     0.064 A 
ATOM     63  C   UNL A   1      46.128  32.690  31.030  1.00  0.00     0.173 A 
ATOM     64  C   UNL A   1      45.981  33.351  28.723  1.00  0.00     0.173 A 
ATOM     65  F   UNL A   1      45.952  31.789  32.009  1.00  0.00    -0.203 F 
ATOM     66  C   UNL A   1      46.605  33.957  31.359  1.00  0.00     0.198 A 
ATOM     67  C   UNL A   1      46.487  34.605  29.051  1.00  0.00     0.198 A 
ATOM     68  F   UNL A   1      45.683  33.091  27.442  1.00  0.00    -0.203 F 
ATOM     69  F   UNL A   1      46.870  34.259  32.637  1.00  0.00    -0.200 F 
ATOM     70  C   UNL A   1      46.791  34.910  30.369  1.00  0.00     0.200 A 
ATOM     71  F   UNL A   1      46.678  35.521  28.091  1.00  0.00    -0.200 F 
ATOM     72  F   UNL A   1      47.258  36.125  30.686  1.00  0.00    -0.200 F 
ENDBRANCH  39  62
ENDBRANCH  13  14
ENDBRANCH   6   8
ENDBRANCH   3   4
ENDBRANCH   2   3
ENDBRANCH   1   2
BRANCH   1  73
ATOM     73  N   UNL A   1      37.081  21.971  24.359  1.00  0.00    -0.356 N 
ATOM     74  C   UNL A   1      36.058  22.625  23.744  1.00  0.00     0.223 C 
ATOM     75  H   UNL A   1      37.965  22.406  24.339  1.00  0.00     0.163 HD
ATOM     76  O   UNL A   1      36.286  23.276  22.729  1.00  0.00    -0.275 OA
BRANCH  74  77
ATOM     77  C   UNL A   1      34.724  22.630  24.450  1.00  0.00     0.079 C 
ATOM     78  C   UNL A   1      33.682  21.717  23.824  1.00  0.00     0.014 C 
ATOM     79  C   UNL A   1      34.130  24.040  24.355  1.00  0.00     0.022 C 
ATOM     80  C   UNL A   1      32.383  22.343  24.308  1.00  0.00     0.010 C 
ATOM     81  C   UNL A   1      32.613  23.845  24.127  1.00  0.00    -0.009 C 
ATOM     82  C   UNL A   1      31.780  24.734  25.075  1.00  0.00     0.030 C 
ATOM     83  C   UNL A   1      32.213  24.345  22.728  1.00  0.00     0.130 C 
ATOM     84  C   UNL A   1      31.383  25.958  24.245  1.00  0.00     0.124 C 
ATOM     85  N   UNL A   1      32.038  25.758  22.971  1.00  0.00    -0.308 N 
BRANCH  85  86
ATOM     86  C   UNL A   1      32.789  26.689  22.288  1.00  0.00     0.410 C 
ATOM     87  O   UNL A   1      33.813  26.427  21.681  1.00  0.00    -0.224 OA
BRANCH  86  88
ATOM     88  O   UNL A   1      32.297  27.946  22.458  1.00  0.00    -0.445 OA
BRANCH  88  89
ATOM     89  C   UNL A   1      33.205  28.875  23.063  1.00  0.00     0.270 C 
BRANCH  89  90
ATOM     90  C   UNL A   1      33.054  28.939  24.571  1.00  0.00    -0.011 A 
ATOM     91  C   UNL A   1      32.097  29.757  25.192  1.00  0.00     0.007 A 
ATOM     92  C   UNL A   1      33.922  28.192  25.381  1.00  0.00     0.007 A 
ATOM     93  C   UNL A   1      31.983  29.793  26.583  1.00  0.00     0.000 A 
ATOM     94  C   UNL A   1      33.815  28.238  26.773  1.00  0.00     0.000 A 
ATOM     95  C   UNL A   1      32.842  29.033  27.374  1.00  0.00     0.000 A 
ENDBRANCH  89  90
ENDBRANCH  88  89
ENDBRANCH  86  88
ENDBRANCH  85  86
ENDBRANCH  74  77
ENDBRANCH   1  73
TORSDOF 14
ENDMDL
MODEL 3
REMARK VINA RESULT:     -12.3      5.228     10.486
REMARK SMILES O=C(NCCCNC(=O)[C@@H]1CC[C@@]2(CCN(C(=O)OCc3ccccc3)C2)C1)c1ccc(-c2c3nc(c(-c4c(F)c(F)c(F)c(F)c4F)c4ccc([nH]4)c(-c4c(F)c(F)c(F)c(F)c4F)c4nc(c(-c5c(F)c(F)c(F)c(F)c5F)c5ccc2[nH]5)C=C4)C=C3)cc1
REMARK SMILES IDX 6 1 5 2 4 3 3 4 1 5 2 6 29 8 30 9 91 10 31 11 90 12 32 13
REMARK SMILES IDX 33 14 34 15 84 16 35 17 89 18 83 19 85 20 36 21 88 22 82 23
REMARK SMILES IDX 81 24 37 26 69 27 49 28 68 29 50 30 53 31 67 32 86 33 51 34
REMARK SMILES IDX 52 35 66 37 87 38 54 39 38 40 39 41 47 42 40 43 41 44 45 45
REMARK SMILES IDX 48 46 42 47 43 48 46 49 44 50 70 51 71 52 79 53 72 54 73 55
REMARK SMILES IDX 77 56 80 57 74 58 75 59 78 60 76 61 55 62 56 63 64 64 57 65
REMARK SMILES IDX 58 66 62 67 65 68 59 69 60 70 63 71 61 72 7 73 8 74 9 76
REMARK SMILES IDX 10 77 11 78 28 79 12 80 13 81 14 82 27 83 15 84 16 85 17 86
REMARK SMILES IDX 18 87 19 88 20 89 21 90 22 91 26 92 23 93 25 94 24 95
REMARK H PARENT 3 7 85 25 53 36 7 75
REMARK Flexibility Score: inf
ROOT
ATOM      1  C   UNL A   1      31.650  30.870  26.079  1.00  0.00     0.117 C 
ENDROOT
BRANCH   1   2
ATOM      2  C   UNL A   1      31.398  32.149  26.866  1.00  0.00     0.042 C 
BRANCH   2   3
ATOM      3  C   UNL A   1      32.680  32.890  27.213  1.00  0.00     0.118 C 
BRANCH   3   4
ATOM      4  N   UNL A   1      32.428  34.264  27.623  1.00  0.00    -0.352 N 
ATOM      5  O   UNL A   1      32.540  36.048  29.004  1.00  0.00    -0.269 OA
ATOM      6  C   UNL A   1      33.000  34.967  28.654  1.00  0.00     0.251 C 
ATOM      7  H   UNL A   1      31.761  34.754  27.091  1.00  0.00     0.163 HD
BRANCH   6   8
ATOM      8  C   UNL A   1      34.164  34.389  29.351  1.00  0.00     0.039 A 
ATOM      9  C   UNL A   1      35.457  34.628  28.873  1.00  0.00     0.014 A 
ATOM     10  C   UNL A   1      33.958  33.583  30.470  1.00  0.00     0.014 A 
ATOM     11  C   UNL A   1      36.529  33.943  29.425  1.00  0.00     0.010 A 
ATOM     12  C   UNL A   1      35.051  32.972  31.085  1.00  0.00     0.010 A 
ATOM     13  C   UNL A   1      36.340  33.124  30.548  1.00  0.00    -0.014 A 
BRANCH  13  14
ATOM     14  C   UNL A   1      37.512  32.483  31.190  1.00  0.00     0.031 A 
ATOM     15  C   UNL A   1      38.263  31.381  30.504  1.00  0.00     0.074 A 
ATOM     16  C   UNL A   1      37.888  32.910  32.411  1.00  0.00     0.049 A 
ATOM     17  N   UNL A   1      39.274  30.674  30.942  1.00  0.00    -0.248 NA
ATOM     18  C   UNL A   1      37.818  31.016  29.151  1.00  0.00     0.031 C 
ATOM     19  C   UNL A   1      37.229  33.975  33.170  1.00  0.00     0.029 A 
ATOM     20  N   UNL A   1      38.914  32.507  33.224  1.00  0.00    -0.354 N 
ATOM     21  C   UNL A   1      39.570  29.767  29.934  1.00  0.00     0.074 A 
ATOM     22  C   UNL A   1      38.616  29.996  28.869  1.00  0.00     0.031 C 
ATOM     23  C   UNL A   1      37.883  34.161  34.324  1.00  0.00     0.029 A 
ATOM     24  C   UNL A   1      38.961  33.185  34.417  1.00  0.00     0.049 A 
ATOM     25  H   UNL A   1      39.555  31.801  32.979  1.00  0.00     0.167 HD
ATOM     26  C   UNL A   1      40.552  28.834  29.903  1.00  0.00     0.037 A 
ATOM     27  C   UNL A   1      39.764  33.018  35.484  1.00  0.00     0.037 A 
ATOM     28  C   UNL A   1      41.502  28.626  30.967  1.00  0.00     0.049 A 
ATOM     29  C   UNL A   1      40.820  31.954  35.437  1.00  0.00     0.074 A 
ATOM     30  C   UNL A   1      42.557  27.732  31.021  1.00  0.00     0.029 A 
ATOM     31  N   UNL A   1      41.508  29.321  32.170  1.00  0.00    -0.354 N 
ATOM     32  N   UNL A   1      41.107  31.118  34.469  1.00  0.00    -0.248 NA
ATOM     33  C   UNL A   1      41.662  31.809  36.630  1.00  0.00     0.031 C 
ATOM     34  C   UNL A   1      43.167  27.848  32.274  1.00  0.00     0.029 A 
ATOM     35  C   UNL A   1      42.532  28.857  32.981  1.00  0.00     0.049 A 
ATOM     36  H   UNL A   1      40.878  30.038  32.410  1.00  0.00     0.167 HD
ATOM     37  C   UNL A   1      42.177  30.362  34.925  1.00  0.00     0.074 A 
ATOM     38  C   UNL A   1      42.496  30.849  36.251  1.00  0.00     0.031 C 
ATOM     39  C   UNL A   1      42.837  29.357  34.299  1.00  0.00     0.037 A 
BRANCH  26  40
ATOM     40  C   UNL A   1      40.633  27.947  28.693  1.00  0.00     0.064 A 
ATOM     41  C   UNL A   1      39.912  26.747  28.604  1.00  0.00     0.173 A 
ATOM     42  C   UNL A   1      41.420  28.320  27.592  1.00  0.00     0.173 A 
ATOM     43  F   UNL A   1      39.152  26.338  29.631  1.00  0.00    -0.203 F 
ATOM     44  C   UNL A   1      40.000  25.939  27.473  1.00  0.00     0.198 A 
ATOM     45  C   UNL A   1      41.482  27.525  26.451  1.00  0.00     0.198 A 
ATOM     46  F   UNL A   1      42.126  29.461  27.620  1.00  0.00    -0.203 F 
ATOM     47  F   UNL A   1      39.343  24.771  27.432  1.00  0.00    -0.200 F 
ATOM     48  C   UNL A   1      40.780  26.331  26.395  1.00  0.00     0.200 A 
ATOM     49  F   UNL A   1      42.227  27.912  25.406  1.00  0.00    -0.200 F 
ATOM     50  F   UNL A   1      40.862  25.554  25.306  1.00  0.00    -0.200 F 
ENDBRANCH  26  40
BRANCH  27  51
ATOM     51  C   UNL A   1      39.581  33.882  36.676  1.00  0.00     0.064 A 
ATOM     52  C   UNL A   1      38.805  33.456  37.763  1.00  0.00     0.173 A 
ATOM     53  C   UNL A   1      40.206  35.135  36.770  1.00  0.00     0.173 A 
ATOM     54  F   UNL A   1      38.177  32.272  37.712  1.00  0.00    -0.203 F 
ATOM     55  C   UNL A   1      38.654  34.254  38.893  1.00  0.00     0.198 A 
ATOM     56  C   UNL A   1      40.078  35.919  37.913  1.00  0.00     0.198 A 
ATOM     57  F   UNL A   1      40.966  35.584  35.760  1.00  0.00    -0.203 F 
ATOM     58  F   UNL A   1      37.879  33.838  39.905  1.00  0.00    -0.200 F 
ATOM     59  C   UNL A   1      39.297  35.481  38.972  1.00  0.00     0.200 A 
ATOM     60  F   UNL A   1      40.717  37.094  37.992  1.00  0.00    -0.200 F 
ATOM     61  F   UNL A   1      39.161  36.242  40.065  1.00  0.00    -0.200 F 
ENDBRANCH  27  51
BRANCH  39  62
ATOM     62  C   UNL A   1      43.996  28.742  35.027  1.00  0.00     0.064 A 
ATOM     63  C   UNL A   1      45.311  29.187  34.829  1.00  0.00     0.173 A 
ATOM     64  C   UNL A   1      43.780  27.718  35.961  1.00  0.00     0.173 A 
ATOM     65  F   UNL A   1      45.570  30.152  33.933  1.00  0.00    -0.203 F 
ATOM     66  C   UNL A   1      46.372  28.611  35.525  1.00  0.00     0.198 A 
ATOM     67  C   UNL A   1      44.839  27.167  36.677  1.00  0.00     0.198 A 
ATOM     68  F   UNL A   1      42.541  27.261  36.190  1.00  0.00    -0.203 F 
ATOM     69  F   UNL A   1      47.626  29.018  35.285  1.00  0.00    -0.200 F 
ATOM     70  C   UNL A   1      46.135  27.608  36.453  1.00  0.00     0.200 A 
ATOM     71  F   UNL A   1      44.606  26.207  37.582  1.00  0.00    -0.200 F 
ATOM     72  F   UNL A   1      47.155  27.062  37.127  1.00  0.00    -0.200 F 
ENDBRANCH  39  62
ENDBRANCH  13  14
ENDBRANCH   6   8
ENDBRANCH   3   4
ENDBRANCH   2   3
ENDBRANCH   1   2
BRANCH   1  73
ATOM     73  N   UNL A   1      31.988  29.793  26.990  1.00  0.00    -0.356 N 
ATOM     74  C   UNL A   1      31.734  28.469  26.798  1.00  0.00     0.223 C 
ATOM     75  H   UNL A   1      32.444  30.043  27.826  1.00  0.00     0.163 HD
ATOM     76  O   UNL A   1      31.456  27.766  27.764  1.00  0.00    -0.275 OA
BRANCH  74  77
ATOM     77  C   UNL A   1      31.967  27.919  25.411  1.00  0.00     0.079 C 
ATOM     78  C   UNL A   1      30.726  27.887  24.535  1.00  0.00     0.014 C 
ATOM     79  C   UNL A   1      32.407  26.456  25.538  1.00  0.00     0.022 C 
ATOM     80  C   UNL A   1      31.083  26.808  23.523  1.00  0.00     0.010 C 
ATOM     81  C   UNL A   1      31.716  25.706  24.375  1.00  0.00    -0.009 C 
ATOM     82  C   UNL A   1      32.711  24.806  23.612  1.00  0.00     0.030 C 
ATOM     83  C   UNL A   1      30.681  24.707  24.923  1.00  0.00     0.130 C 
ATOM     84  C   UNL A   1      32.501  23.397  24.172  1.00  0.00     0.124 C 
ATOM     85  N   UNL A   1      31.517  23.567  25.219  1.00  0.00    -0.308 N 
BRANCH  85  86
ATOM     86  C   UNL A   1      31.596  23.065  26.499  1.00  0.00     0.410 C 
ATOM     87  O   UNL A   1      30.869  23.410  27.414  1.00  0.00    -0.224 OA
BRANCH  86  88
ATOM     88  O   UNL A   1      32.647  22.210  26.634  1.00  0.00    -0.445 OA
BRANCH  88  89
ATOM     89  C   UNL A   1      33.808  22.771  27.260  1.00  0.00     0.270 C 
BRANCH  89  90
ATOM     90  C   UNL A   1      35.051  22.648  26.401  1.00  0.00    -0.011 A 
ATOM     91  C   UNL A   1      35.819  23.764  26.034  1.00  0.00     0.007 A 
ATOM     92  C   UNL A   1      35.430  21.387  25.917  1.00  0.00     0.007 A 
ATOM     93  C   UNL A   1      36.959  23.617  25.241  1.00  0.00     0.000 A 
ATOM     94  C   UNL A   1      36.564  21.243  25.114  1.00  0.00     0.000 A 
ATOM     95  C   UNL A   1      37.332  22.356  24.781  1.00  0.00     0.000 A 
ENDBRANCH  89  90
ENDBRANCH  88  89
ENDBRANCH  86  88
ENDBRANCH  85  86
ENDBRANCH  74  77
ENDBRANCH   1  73
TORSDOF 14
ENDMDL
