MODEL 1
REMARK VINA RESULT:     -12.5      0.000      0.000
REMARK SMILES CCOc1ccc(-c2nc(C(=O)NCCCNC(=O)c3ccc(-c4c5nc(c(-c6c(F)c(F)c(F)c(F)c6F)c6ccc([nH]6)c(-c6c(F)c(F)c(F)c(F)c6F)c6nc(c(-c7c(F)c(F)c(F)c(F)c7F)c7ccc4[nH]7)C=C6)C=C5)cc3)cc(=O)[nH]2)cc1
REMARK SMILES IDX 14 1 13 2 11 3 12 4 10 6 8 7 9 8 86 9 84 10 83 12 85 13 7 14
REMARK SMILES IDX 4 15 5 16 88 17 6 18 87 19 3 20 2 21 1 22 15 23 16 24 17 25
REMARK SMILES IDX 18 26 19 28 20 29 21 30 82 31 22 32 81 33 23 34 24 35 25 36
REMARK SMILES IDX 75 37 26 38 80 39 74 40 76 41 27 42 79 43 73 44 72 45 28 47
REMARK SMILES IDX 60 48 40 49 59 50 41 51 44 52 58 53 77 54 42 55 43 56 57 58
REMARK SMILES IDX 78 59 45 60 29 61 30 62 38 63 31 64 32 65 36 66 39 67 33 68
REMARK SMILES IDX 34 69 37 70 35 71 61 72 62 73 70 74 63 75 64 76 68 77 71 78
REMARK SMILES IDX 65 79 66 80 69 81 67 82 46 83 47 84 55 85 48 86 49 87 53 88
REMARK SMILES IDX 56 89 50 90 51 91 54 92 52 93
REMARK H PARENT 13 5 86 11 17 27 76 46 44 57
REMARK Flexibility Score: inf
ROOT
ATOM      1  C   UNL A   1      34.745  21.895  25.056  1.00  0.00     0.118 C 
ENDROOT
BRANCH   1   2
ATOM      2  N   UNL A   1      33.801  21.655  23.985  1.00  0.00    -0.351 N 
ATOM      3  C   UNL A   1      32.495  21.956  23.769  1.00  0.00     0.270 C 
ATOM      4  O   UNL A   1      32.032  21.514  22.712  1.00  0.00    -0.268 OA
ATOM      5  H   UNL A   1      34.200  21.155  23.239  1.00  0.00     0.163 HD
BRANCH   3   6
ATOM      6  C   UNL A   1      31.623  22.804  24.681  1.00  0.00     0.136 A 
ATOM      7  C   UNL A   1      30.670  24.887  24.919  1.00  0.00     0.141 A 
ATOM      8  N   UNL A   1      31.390  24.085  24.211  1.00  0.00    -0.225 NA
ATOM      9  N   UNL A   1      30.133  24.538  26.126  1.00  0.00    -0.306 N 
ATOM     10  C   UNL A   1      30.286  23.288  26.636  1.00  0.00     0.251 A 
ATOM     11  H   UNL A   1      29.623  25.206  26.637  1.00  0.00     0.171 HD
ATOM     12  C   UNL A   1      31.062  22.352  25.810  1.00  0.00     0.105 A 
ATOM     13  O   UNL A   1      29.811  22.943  27.708  1.00  0.00    -0.269 OA
BRANCH   7  14
ATOM     14  C   UNL A   1      30.341  26.238  24.428  1.00  0.00     0.018 A 
ATOM     15  C   UNL A   1      29.808  28.792  23.473  1.00  0.00     0.119 A 
ATOM     16  C   UNL A   1      28.805  27.822  23.448  1.00  0.00     0.047 A 
ATOM     17  C   UNL A   1      31.058  28.505  24.019  1.00  0.00     0.047 A 
ATOM     18  C   UNL A   1      29.072  26.534  23.919  1.00  0.00     0.016 A 
ATOM     19  C   UNL A   1      31.330  27.224  24.492  1.00  0.00     0.016 A 
BRANCH  15  20
ATOM     20  O   UNL A   1      29.496  30.059  23.067  1.00  0.00    -0.494 OA
BRANCH  20  21
ATOM     21  C   UNL A   1      28.105  30.220  22.760  1.00  0.00     0.226 C 
ATOM     22  C   UNL A   1      27.480  31.354  23.558  1.00  0.00     0.049 C 
ENDBRANCH  20  21
ENDBRANCH  15  20
ENDBRANCH   7  14
ENDBRANCH   3   6
ENDBRANCH   1   2
BRANCH   1  23
ATOM     23  C   UNL A   1      35.657  23.073  24.716  1.00  0.00     0.042 C 
BRANCH  23  24
ATOM     24  C   UNL A   1      36.525  23.503  25.899  1.00  0.00     0.118 C 
BRANCH  24  25
ATOM     25  N   UNL A   1      37.642  22.588  26.108  1.00  0.00    -0.352 N 
ATOM     26  C   UNL A   1      38.954  22.837  26.412  1.00  0.00     0.251 C 
ATOM     27  H   UNL A   1      37.415  21.635  26.015  1.00  0.00     0.163 HD
ATOM     28  O   UNL A   1      39.791  21.955  26.247  1.00  0.00    -0.269 OA
BRANCH  26  29
ATOM     29  C   UNL A   1      39.365  24.148  26.951  1.00  0.00     0.039 A 
ATOM     30  C   UNL A   1      39.994  25.064  26.103  1.00  0.00     0.014 A 
ATOM     31  C   UNL A   1      39.199  24.448  28.305  1.00  0.00     0.014 A 
ATOM     32  C   UNL A   1      40.424  26.292  26.607  1.00  0.00     0.010 A 
ATOM     33  C   UNL A   1      39.536  25.708  28.783  1.00  0.00     0.010 A 
ATOM     34  C   UNL A   1      40.178  26.632  27.948  1.00  0.00    -0.014 A 
BRANCH  34  35
ATOM     35  C   UNL A   1      40.622  27.931  28.506  1.00  0.00     0.031 A 
ATOM     36  C   UNL A   1      42.079  28.161  28.808  1.00  0.00     0.074 A 
ATOM     37  C   UNL A   1      39.709  28.878  28.794  1.00  0.00     0.049 A 
ATOM     38  N   UNL A   1      42.662  29.205  29.338  1.00  0.00    -0.248 NA
ATOM     39  C   UNL A   1      42.999  27.053  28.505  1.00  0.00     0.031 C 
ATOM     40  C   UNL A   1      38.267  28.750  28.590  1.00  0.00     0.029 A 
ATOM     41  N   UNL A   1      39.861  30.135  29.321  1.00  0.00    -0.354 N 
ATOM     42  C   UNL A   1      44.006  28.870  29.452  1.00  0.00     0.074 A 
ATOM     43  C   UNL A   1      44.141  27.504  29.000  1.00  0.00     0.031 C 
ATOM     44  C   UNL A   1      37.670  29.898  28.945  1.00  0.00     0.029 A 
ATOM     45  C   UNL A   1      38.681  30.825  29.442  1.00  0.00     0.049 A 
ATOM     46  H   UNL A   1      40.733  30.506  29.586  1.00  0.00     0.167 HD
ATOM     47  C   UNL A   1      45.037  29.640  29.872  1.00  0.00     0.037 A 
ATOM     48  C   UNL A   1      38.446  32.068  29.901  1.00  0.00     0.037 A 
ATOM     49  C   UNL A   1      44.893  31.009  30.294  1.00  0.00     0.049 A 
ATOM     50  C   UNL A   1      39.608  32.902  30.370  1.00  0.00     0.074 A 
ATOM     51  C   UNL A   1      45.877  31.906  30.670  1.00  0.00     0.029 A 
ATOM     52  N   UNL A   1      43.681  31.678  30.402  1.00  0.00    -0.354 N 
ATOM     53  N   UNL A   1      40.885  32.606  30.397  1.00  0.00    -0.248 NA
ATOM     54  C   UNL A   1      39.293  34.248  30.864  1.00  0.00     0.031 C 
ATOM     55  C   UNL A   1      45.256  33.095  31.067  1.00  0.00     0.029 A 
ATOM     56  C   UNL A   1      43.889  32.965  30.869  1.00  0.00     0.049 A 
ATOM     57  H   UNL A   1      42.803  31.293  30.179  1.00  0.00     0.167 HD
ATOM     58  C   UNL A   1      41.530  33.740  30.871  1.00  0.00     0.074 A 
ATOM     59  C   UNL A   1      40.503  34.733  31.108  1.00  0.00     0.031 C 
ATOM     60  C   UNL A   1      42.853  33.944  31.089  1.00  0.00     0.037 A 
BRANCH  47  61
ATOM     61  C   UNL A   1      46.403  29.015  29.906  1.00  0.00     0.064 A 
ATOM     62  C   UNL A   1      46.903  28.380  31.055  1.00  0.00     0.173 A 
ATOM     63  C   UNL A   1      47.226  29.043  28.769  1.00  0.00     0.173 A 
ATOM     64  F   UNL A   1      46.166  28.331  32.175  1.00  0.00    -0.203 F 
ATOM     65  C   UNL A   1      48.187  27.841  31.078  1.00  0.00     0.198 A 
ATOM     66  C   UNL A   1      48.494  28.468  28.783  1.00  0.00     0.198 A 
ATOM     67  F   UNL A   1      46.800  29.629  27.640  1.00  0.00    -0.203 F 
ATOM     68  F   UNL A   1      48.667  27.304  32.209  1.00  0.00    -0.200 F 
ATOM     69  C   UNL A   1      48.979  27.879  29.940  1.00  0.00     0.200 A 
ATOM     70  F   UNL A   1      49.251  28.492  27.678  1.00  0.00    -0.200 F 
ATOM     71  F   UNL A   1      50.214  27.359  29.964  1.00  0.00    -0.200 F 
ENDBRANCH  47  61
BRANCH  48  72
ATOM     72  C   UNL A   1      37.065  32.617  29.892  1.00  0.00     0.064 A 
ATOM     73  C   UNL A   1      36.580  33.313  28.775  1.00  0.00     0.173 A 
ATOM     74  C   UNL A   1      36.203  32.462  30.987  1.00  0.00     0.173 A 
ATOM     75  F   UNL A   1      37.373  33.501  27.709  1.00  0.00    -0.203 F 
ATOM     76  C   UNL A   1      35.297  33.854  28.763  1.00  0.00     0.198 A 
ATOM     77  C   UNL A   1      34.909  32.978  30.962  1.00  0.00     0.198 A 
ATOM     78  F   UNL A   1      36.614  31.799  32.077  1.00  0.00    -0.203 F 
ATOM     79  F   UNL A   1      34.878  34.557  27.702  1.00  0.00    -0.200 F 
ATOM     80  C   UNL A   1      34.460  33.682  29.855  1.00  0.00     0.200 A 
ATOM     81  F   UNL A   1      34.097  32.794  32.012  1.00  0.00    -0.200 F 
ATOM     82  F   UNL A   1      33.224  34.199  29.842  1.00  0.00    -0.200 F 
ENDBRANCH  48  72
BRANCH  60  83
ATOM     83  C   UNL A   1      43.270  35.309  31.556  1.00  0.00     0.064 A 
ATOM     84  C   UNL A   1      43.665  36.314  30.661  1.00  0.00     0.173 A 
ATOM     85  C   UNL A   1      43.245  35.624  32.925  1.00  0.00     0.173 A 
ATOM     86  F   UNL A   1      43.720  36.062  29.344  1.00  0.00    -0.203 F 
ATOM     87  C   UNL A   1      44.055  37.570  31.121  1.00  0.00     0.198 A 
ATOM     88  C   UNL A   1      43.598  36.892  33.377  1.00  0.00     0.198 A 
ATOM     89  F   UNL A   1      42.867  34.703  33.825  1.00  0.00    -0.203 F 
ATOM     90  F   UNL A   1      44.489  38.493  30.252  1.00  0.00    -0.200 F 
ATOM     91  C   UNL A   1      44.014  37.859  32.476  1.00  0.00     0.200 A 
ATOM     92  F   UNL A   1      43.540  37.175  34.686  1.00  0.00    -0.200 F 
ATOM     93  F   UNL A   1      44.384  39.070  32.916  1.00  0.00    -0.200 F 
ENDBRANCH  60  83
ENDBRANCH  34  35
ENDBRANCH  26  29
ENDBRANCH  24  25
ENDBRANCH  23  24
ENDBRANCH   1  23
TORSDOF 13
ENDMDL
MODEL 2
REMARK VINA RESULT:     -12.4      5.007     10.748
REMARK SMILES CCOc1ccc(-c2nc(C(=O)NCCCNC(=O)c3ccc(-c4c5nc(c(-c6c(F)c(F)c(F)c(F)c6F)c6ccc([nH]6)c(-c6c(F)c(F)c(F)c(F)c6F)c6nc(c(-c7c(F)c(F)c(F)c(F)c7F)c7ccc4[nH]7)C=C6)C=C5)cc3)cc(=O)[nH]2)cc1
REMARK SMILES IDX 14 1 13 2 11 3 12 4 10 6 8 7 9 8 86 9 84 10 83 12 85 13 7 14
REMARK SMILES IDX 4 15 5 16 88 17 6 18 87 19 3 20 2 21 1 22 15 23 16 24 17 25
REMARK SMILES IDX 18 26 19 28 20 29 21 30 82 31 22 32 81 33 23 34 24 35 25 36
REMARK SMILES IDX 75 37 26 38 80 39 74 40 76 41 27 42 79 43 73 44 72 45 28 47
REMARK SMILES IDX 60 48 40 49 59 50 41 51 44 52 58 53 77 54 42 55 43 56 57 58
REMARK SMILES IDX 78 59 45 60 29 61 30 62 38 63 31 64 32 65 36 66 39 67 33 68
REMARK SMILES IDX 34 69 37 70 35 71 61 72 62 73 70 74 63 75 64 76 68 77 71 78
REMARK SMILES IDX 65 79 66 80 69 81 67 82 46 83 47 84 55 85 48 86 49 87 53 88
REMARK SMILES IDX 56 89 50 90 51 91 54 92 52 93
REMARK H PARENT 13 5 86 11 17 27 76 46 44 57
REMARK Flexibility Score: inf
ROOT
ATOM      1  C   UNL A   1      33.624  34.224  27.867  1.00  0.00     0.118 C 
ENDROOT
BRANCH   1   2
ATOM      2  N   UNL A   1      33.595  35.657  28.076  1.00  0.00    -0.351 N 
ATOM      3  C   UNL A   1      33.304  36.471  29.122  1.00  0.00     0.270 C 
ATOM      4  O   UNL A   1      33.355  37.679  28.866  1.00  0.00    -0.268 OA
ATOM      5  H   UNL A   1      33.846  36.159  27.268  1.00  0.00     0.163 HD
BRANCH   3   6
ATOM      6  C   UNL A   1      32.979  36.010  30.534  1.00  0.00     0.136 A 
ATOM      7  C   UNL A   1      33.786  34.794  32.316  1.00  0.00     0.141 A 
ATOM      8  N   UNL A   1      33.971  35.244  31.121  1.00  0.00    -0.225 NA
ATOM      9  N   UNL A   1      32.645  35.027  33.031  1.00  0.00    -0.306 N 
ATOM     10  C   UNL A   1      31.643  35.800  32.537  1.00  0.00     0.251 A 
ATOM     11  H   UNL A   1      32.547  34.626  33.924  1.00  0.00     0.171 HD
ATOM     12  C   UNL A   1      31.869  36.359  31.197  1.00  0.00     0.105 A 
ATOM     13  O   UNL A   1      30.614  36.033  33.155  1.00  0.00    -0.269 OA
BRANCH   7  14
ATOM     14  C   UNL A   1      34.840  34.029  33.006  1.00  0.00     0.018 A 
ATOM     15  C   UNL A   1      36.798  32.621  34.386  1.00  0.00     0.119 A 
ATOM     16  C   UNL A   1      36.233  32.071  33.235  1.00  0.00     0.047 A 
ATOM     17  C   UNL A   1      36.425  33.893  34.821  1.00  0.00     0.047 A 
ATOM     18  C   UNL A   1      35.242  32.772  32.544  1.00  0.00     0.016 A 
ATOM     19  C   UNL A   1      35.439  34.597  34.135  1.00  0.00     0.016 A 
BRANCH  15  20
ATOM     20  O   UNL A   1      37.811  31.942  35.002  1.00  0.00    -0.494 OA
BRANCH  20  21
ATOM     21  C   UNL A   1      38.933  31.712  34.139  1.00  0.00     0.226 C 
ATOM     22  C   UNL A   1      39.935  32.855  34.203  1.00  0.00     0.049 C 
ENDBRANCH  20  21
ENDBRANCH  15  20
ENDBRANCH   7  14
ENDBRANCH   3   6
ENDBRANCH   1   2
BRANCH   1  23
ATOM     23  C   UNL A   1      35.001  33.658  28.211  1.00  0.00     0.042 C 
BRANCH  23  24
ATOM     24  C   UNL A   1      34.923  32.484  29.188  1.00  0.00     0.118 C 
BRANCH  24  25
ATOM     25  N   UNL A   1      34.274  31.324  28.585  1.00  0.00    -0.352 N 
ATOM     26  C   UNL A   1      34.808  30.186  28.041  1.00  0.00     0.251 C 
ATOM     27  H   UNL A   1      33.291  31.366  28.566  1.00  0.00     0.163 HD
ATOM     28  O   UNL A   1      34.114  29.477  27.319  1.00  0.00    -0.269 OA
BRANCH  26  29
ATOM     29  C   UNL A   1      36.204  29.799  28.328  1.00  0.00     0.039 A 
ATOM     30  C   UNL A   1      36.523  29.296  29.592  1.00  0.00     0.014 A 
ATOM     31  C   UNL A   1      37.209  29.998  27.379  1.00  0.00     0.014 A 
ATOM     32  C   UNL A   1      37.845  28.963  29.890  1.00  0.00     0.010 A 
ATOM     33  C   UNL A   1      38.505  29.572  27.642  1.00  0.00     0.010 A 
ATOM     34  C   UNL A   1      38.843  29.078  28.908  1.00  0.00    -0.014 A 
BRANCH  34  35
ATOM     35  C   UNL A   1      40.253  28.728  29.200  1.00  0.00     0.031 A 
ATOM     36  C   UNL A   1      41.105  29.658  30.020  1.00  0.00     0.074 A 
ATOM     37  C   UNL A   1      40.780  27.603  28.679  1.00  0.00     0.049 A 
ATOM     38  N   UNL A   1      42.368  29.557  30.348  1.00  0.00    -0.248 NA
ATOM     39  C   UNL A   1      40.459  30.887  30.510  1.00  0.00     0.031 C 
ATOM     40  C   UNL A   1      40.065  26.650  27.830  1.00  0.00     0.029 A 
ATOM     41  N   UNL A   1      42.040  27.073  28.787  1.00  0.00    -0.354 N 
ATOM     42  C   UNL A   1      42.668  30.713  31.056  1.00  0.00     0.074 A 
ATOM     43  C   UNL A   1      41.478  31.533  31.054  1.00  0.00     0.031 C 
ATOM     44  C   UNL A   1      40.884  25.630  27.530  1.00  0.00     0.029 A 
ATOM     45  C   UNL A   1      42.191  25.879  28.128  1.00  0.00     0.049 A 
ATOM     46  H   UNL A   1      42.767  27.509  29.288  1.00  0.00     0.167 HD
ATOM     47  C   UNL A   1      43.825  31.050  31.674  1.00  0.00     0.037 A 
ATOM     48  C   UNL A   1      43.266  25.076  28.023  1.00  0.00     0.037 A 
ATOM     49  C   UNL A   1      44.996  30.212  31.693  1.00  0.00     0.049 A 
ATOM     50  C   UNL A   1      44.543  25.476  28.713  1.00  0.00     0.074 A 
ATOM     51  C   UNL A   1      46.197  30.419  32.348  1.00  0.00     0.029 A 
ATOM     52  N   UNL A   1      45.112  29.005  31.016  1.00  0.00    -0.354 N 
ATOM     53  N   UNL A   1      44.793  26.531  29.449  1.00  0.00    -0.248 NA
ATOM     54  C   UNL A   1      45.684  24.564  28.562  1.00  0.00     0.031 C 
ATOM     55  C   UNL A   1      47.062  29.371  32.015  1.00  0.00     0.029 A 
ATOM     56  C   UNL A   1      46.376  28.473  31.211  1.00  0.00     0.049 A 
ATOM     57  H   UNL A   1      44.401  28.590  30.477  1.00  0.00     0.167 HD
ATOM     58  C   UNL A   1      46.105  26.392  29.883  1.00  0.00     0.074 A 
ATOM     59  C   UNL A   1      46.592  25.143  29.335  1.00  0.00     0.031 C 
ATOM     60  C   UNL A   1      46.840  27.220  30.666  1.00  0.00     0.037 A 
BRANCH  47  61
ATOM     61  C   UNL A   1      43.881  32.383  32.367  1.00  0.00     0.064 A 
ATOM     62  C   UNL A   1      44.280  33.552  31.701  1.00  0.00     0.173 A 
ATOM     63  C   UNL A   1      43.522  32.495  33.720  1.00  0.00     0.173 A 
ATOM     64  F   UNL A   1      44.644  33.504  30.410  1.00  0.00    -0.203 F 
ATOM     65  C   UNL A   1      44.362  34.771  32.371  1.00  0.00     0.198 A 
ATOM     66  C   UNL A   1      43.568  33.721  34.378  1.00  0.00     0.198 A 
ATOM     67  F   UNL A   1      43.126  31.413  34.408  1.00  0.00    -0.203 F 
ATOM     68  F   UNL A   1      44.814  35.857  31.730  1.00  0.00    -0.200 F 
ATOM     69  C   UNL A   1      44.000  34.855  33.707  1.00  0.00     0.200 A 
ATOM     70  F   UNL A   1      43.202  33.805  35.664  1.00  0.00    -0.200 F 
ATOM     71  F   UNL A   1      44.079  36.029  34.351  1.00  0.00    -0.200 F 
ENDBRANCH  47  61
BRANCH  48  72
ATOM     72  C   UNL A   1      43.167  23.792  27.281  1.00  0.00     0.064 A 
ATOM     73  C   UNL A   1      42.666  22.641  27.907  1.00  0.00     0.173 A 
ATOM     74  C   UNL A   1      43.567  23.683  25.941  1.00  0.00     0.173 A 
ATOM     75  F   UNL A   1      42.286  22.691  29.192  1.00  0.00    -0.203 F 
ATOM     76  C   UNL A   1      42.592  21.426  27.231  1.00  0.00     0.198 A 
ATOM     77  C   UNL A   1      43.464  22.473  25.256  1.00  0.00     0.198 A 
ATOM     78  F   UNL A   1      44.046  24.754  25.293  1.00  0.00    -0.203 F 
ATOM     79  F   UNL A   1      42.156  20.332  27.868  1.00  0.00    -0.200 F 
ATOM     80  C   UNL A   1      42.986  21.344  25.904  1.00  0.00     0.200 A 
ATOM     81  F   UNL A   1      43.828  22.403  23.969  1.00  0.00    -0.200 F 
ATOM     82  F   UNL A   1      42.911  20.177  25.251  1.00  0.00    -0.200 F 
ENDBRANCH  48  72
BRANCH  60  83
ATOM     83  C   UNL A   1      48.230  26.776  31.021  1.00  0.00     0.064 A 
ATOM     84  C   UNL A   1      49.354  27.196  30.295  1.00  0.00     0.173 A 
ATOM     85  C   UNL A   1      48.441  25.937  32.128  1.00  0.00     0.173 A 
ATOM     86  F   UNL A   1      49.208  27.987  29.221  1.00  0.00    -0.203 F 
ATOM     87  C   UNL A   1      50.632  26.762  30.640  1.00  0.00     0.198 A 
ATOM     88  C   UNL A   1      49.722  25.537  32.493  1.00  0.00     0.198 A 
ATOM     89  F   UNL A   1      47.401  25.512  32.864  1.00  0.00    -0.203 F 
ATOM     90  F   UNL A   1      51.684  27.126  29.894  1.00  0.00    -0.200 F 
ATOM     91  C   UNL A   1      50.815  25.941  31.743  1.00  0.00     0.200 A 
ATOM     92  F   UNL A   1      49.899  24.759  33.569  1.00  0.00    -0.200 F 
ATOM     93  F   UNL A   1      52.046  25.530  32.077  1.00  0.00    -0.200 F 
ENDBRANCH  60  83
ENDBRANCH  34  35
ENDBRANCH  26  29
ENDBRANCH  24  25
ENDBRANCH  23  24
ENDBRANCH   1  23
TORSDOF 13
ENDMDL
MODEL 3
REMARK VINA RESULT:     -12.4      4.494      7.357
REMARK SMILES CCOc1ccc(-c2nc(C(=O)NCCCNC(=O)c3ccc(-c4c5nc(c(-c6c(F)c(F)c(F)c(F)c6F)c6ccc([nH]6)c(-c6c(F)c(F)c(F)c(F)c6F)c6nc(c(-c7c(F)c(F)c(F)c(F)c7F)c7ccc4[nH]7)C=C6)C=C5)cc3)cc(=O)[nH]2)cc1
REMARK SMILES IDX 14 1 13 2 11 3 12 4 10 6 8 7 9 8 86 9 84 10 83 12 85 13 7 14
REMARK SMILES IDX 4 15 5 16 88 17 6 18 87 19 3 20 2 21 1 22 15 23 16 24 17 25
REMARK SMILES IDX 18 26 19 28 20 29 21 30 82 31 22 32 81 33 23 34 24 35 25 36
REMARK SMILES IDX 75 37 26 38 80 39 74 40 76 41 27 42 79 43 73 44 72 45 28 47
REMARK SMILES IDX 60 48 40 49 59 50 41 51 44 52 58 53 77 54 42 55 43 56 57 58
REMARK SMILES IDX 78 59 45 60 29 61 30 62 38 63 31 64 32 65 36 66 39 67 33 68
REMARK SMILES IDX 34 69 37 70 35 71 61 72 62 73 70 74 63 75 64 76 68 77 71 78
REMARK SMILES IDX 65 79 66 80 69 81 67 82 46 83 47 84 55 85 48 86 49 87 53 88
REMARK SMILES IDX 56 89 50 90 51 91 54 92 52 93
REMARK H PARENT 13 5 86 11 17 27 76 46 44 57
REMARK Flexibility Score: inf
ROOT
ATOM      1  C   UNL A   1      40.756  19.822  26.471  1.00  0.00     0.118 C 
ENDROOT
BRANCH   1   2
ATOM      2  N   UNL A   1      41.713  18.814  26.877  1.00  0.00    -0.351 N 
ATOM      3  C   UNL A   1      42.943  18.428  26.450  1.00  0.00     0.270 C 
ATOM      4  O   UNL A   1      43.419  17.462  27.057  1.00  0.00    -0.268 OA
ATOM      5  H   UNL A   1      41.397  18.284  27.643  1.00  0.00     0.163 HD
BRANCH   3   6
ATOM      6  C   UNL A   1      43.750  19.108  25.356  1.00  0.00     0.136 A 
ATOM      7  C   UNL A   1      44.520  21.150  24.620  1.00  0.00     0.141 A 
ATOM      8  N   UNL A   1      43.863  20.479  25.505  1.00  0.00    -0.225 NA
ATOM      9  N   UNL A   1      45.103  20.571  23.529  1.00  0.00    -0.306 N 
ATOM     10  C   UNL A   1      45.068  19.228  23.333  1.00  0.00     0.251 A 
ATOM     11  H   UNL A   1      45.560  21.141  22.869  1.00  0.00     0.171 HD
ATOM     12  C   UNL A   1      44.365  18.451  24.365  1.00  0.00     0.105 A 
ATOM     13  O   UNL A   1      45.587  18.680  22.372  1.00  0.00    -0.269 OA
BRANCH   7  14
ATOM     14  C   UNL A   1      44.721  22.602  24.772  1.00  0.00     0.018 A 
ATOM     15  C   UNL A   1      45.025  25.343  25.110  1.00  0.00     0.119 A 
ATOM     16  C   UNL A   1      46.155  24.531  24.999  1.00  0.00     0.047 A 
ATOM     17  C   UNL A   1      43.747  24.798  25.001  1.00  0.00     0.047 A 
ATOM     18  C   UNL A   1      46.006  23.152  24.839  1.00  0.00     0.016 A 
ATOM     19  C   UNL A   1      43.592  23.424  24.839  1.00  0.00     0.016 A 
BRANCH  15  20
ATOM     20  O   UNL A   1      45.203  26.696  25.199  1.00  0.00    -0.494 OA
BRANCH  20  21
ATOM     21  C   UNL A   1      43.973  27.409  25.376  1.00  0.00     0.226 C 
ATOM     22  C   UNL A   1      43.994  28.264  26.633  1.00  0.00     0.049 C 
ENDBRANCH  20  21
ENDBRANCH  15  20
ENDBRANCH   7  14
ENDBRANCH   3   6
ENDBRANCH   1   2
BRANCH   1  23
ATOM     23  C   UNL A   1      40.838  21.042  27.387  1.00  0.00     0.042 C 
BRANCH  23  24
ATOM     24  C   UNL A   1      41.008  22.348  26.610  1.00  0.00     0.118 C 
BRANCH  24  25
ATOM     25  N   UNL A   1      39.773  22.738  25.937  1.00  0.00    -0.352 N 
ATOM     26  C   UNL A   1      38.902  23.762  26.196  1.00  0.00     0.251 C 
ATOM     27  H   UNL A   1      39.527  22.172  25.170  1.00  0.00     0.163 HD
ATOM     28  O   UNL A   1      37.776  23.737  25.708  1.00  0.00    -0.269 OA
BRANCH  26  29
ATOM     29  C   UNL A   1      39.310  24.902  27.042  1.00  0.00     0.039 A 
ATOM     30  C   UNL A   1      38.902  24.936  28.378  1.00  0.00     0.014 A 
ATOM     31  C   UNL A   1      40.031  25.969  26.502  1.00  0.00     0.014 A 
ATOM     32  C   UNL A   1      39.246  26.025  29.179  1.00  0.00     0.010 A 
ATOM     33  C   UNL A   1      40.459  27.003  27.325  1.00  0.00     0.010 A 
ATOM     34  C   UNL A   1      40.047  27.057  28.663  1.00  0.00    -0.014 A 
BRANCH  34  35
ATOM     35  C   UNL A   1      40.429  28.224  29.495  1.00  0.00     0.031 A 
ATOM     36  C   UNL A   1      41.798  28.288  30.116  1.00  0.00     0.074 A 
ATOM     37  C   UNL A   1      39.526  29.193  29.735  1.00  0.00     0.049 A 
ATOM     38  N   UNL A   1      42.309  29.196  30.909  1.00  0.00    -0.248 NA
ATOM     39  C   UNL A   1      42.704  27.161  29.838  1.00  0.00     0.031 C 
ATOM     40  C   UNL A   1      38.155  29.215  29.226  1.00  0.00     0.029 A 
ATOM     41  N   UNL A   1      39.627  30.346  30.469  1.00  0.00    -0.354 N 
ATOM     42  C   UNL A   1      43.578  28.738  31.239  1.00  0.00     0.074 A 
ATOM     43  C   UNL A   1      43.736  27.443  30.617  1.00  0.00     0.031 C 
ATOM     44  C   UNL A   1      37.555  30.346  29.626  1.00  0.00     0.029 A 
ATOM     45  C   UNL A   1      38.485  31.108  30.455  1.00  0.00     0.049 A 
ATOM     46  H   UNL A   1      40.440  30.604  30.960  1.00  0.00     0.167 HD
ATOM     47  C   UNL A   1      44.535  29.354  31.973  1.00  0.00     0.037 A 
ATOM     48  C   UNL A   1      38.222  32.289  31.044  1.00  0.00     0.037 A 
ATOM     49  C   UNL A   1      44.375  30.657  32.564  1.00  0.00     0.049 A 
ATOM     50  C   UNL A   1      39.299  32.949  31.861  1.00  0.00     0.074 A 
ATOM     51  C   UNL A   1      45.302  31.408  33.265  1.00  0.00     0.029 A 
ATOM     52  N   UNL A   1      43.204  31.402  32.526  1.00  0.00    -0.354 N 
ATOM     53  N   UNL A   1      40.524  32.548  32.100  1.00  0.00    -0.248 NA
ATOM     54  C   UNL A   1      38.955  34.234  32.483  1.00  0.00     0.031 C 
ATOM     55  C   UNL A   1      44.672  32.577  33.707  1.00  0.00     0.029 A 
ATOM     56  C   UNL A   1      43.374  32.588  33.220  1.00  0.00     0.049 A 
ATOM     57  H   UNL A   1      42.375  31.126  32.073  1.00  0.00     0.167 HD
ATOM     58  C   UNL A   1      41.111  33.548  32.864  1.00  0.00     0.074 A 
ATOM     59  C   UNL A   1      40.109  34.579  33.039  1.00  0.00     0.031 C 
ATOM     60  C   UNL A   1      42.367  33.609  33.374  1.00  0.00     0.037 A 
BRANCH  47  61
ATOM     61  C   UNL A   1      45.829  28.619  32.186  1.00  0.00     0.064 A 
ATOM     62  C   UNL A   1      46.907  28.738  31.294  1.00  0.00     0.173 A 
ATOM     63  C   UNL A   1      45.998  27.788  33.304  1.00  0.00     0.173 A 
ATOM     64  F   UNL A   1      46.800  29.511  30.203  1.00  0.00    -0.203 F 
ATOM     65  C   UNL A   1      48.084  28.018  31.488  1.00  0.00     0.198 A 
ATOM     66  C   UNL A   1      47.190  27.100  33.517  1.00  0.00     0.198 A 
ATOM     67  F   UNL A   1      45.005  27.640  34.195  1.00  0.00    -0.203 F 
ATOM     68  F   UNL A   1      49.071  28.094  30.584  1.00  0.00    -0.200 F 
ATOM     69  C   UNL A   1      48.227  27.205  32.602  1.00  0.00     0.200 A 
ATOM     70  F   UNL A   1      47.332  26.327  34.602  1.00  0.00    -0.200 F 
ATOM     71  F   UNL A   1      49.360  26.514  32.789  1.00  0.00    -0.200 F 
ENDBRANCH  47  61
BRANCH  48  72
ATOM     72  C   UNL A   1      36.904  32.946  30.840  1.00  0.00     0.064 A 
ATOM     73  C   UNL A   1      35.908  32.873  31.825  1.00  0.00     0.173 A 
ATOM     74  C   UNL A   1      36.610  33.658  29.668  1.00  0.00     0.173 A 
ATOM     75  F   UNL A   1      36.137  32.190  32.957  1.00  0.00    -0.203 F 
ATOM     76  C   UNL A   1      34.661  33.463  31.635  1.00  0.00     0.198 A 
ATOM     77  C   UNL A   1      35.372  34.273  29.492  1.00  0.00     0.198 A 
ATOM     78  F   UNL A   1      37.529  33.765  28.698  1.00  0.00    -0.203 F 
ATOM     79  F   UNL A   1      33.712  33.334  32.572  1.00  0.00    -0.200 F 
ATOM     80  C   UNL A   1      34.396  34.168  30.471  1.00  0.00     0.200 A 
ATOM     81  F   UNL A   1      35.126  34.969  28.373  1.00  0.00    -0.200 F 
ATOM     82  F   UNL A   1      33.198  34.740  30.290  1.00  0.00    -0.200 F 
ENDBRANCH  48  72
BRANCH  60  83
ATOM     83  C   UNL A   1      42.744  34.856  34.122  1.00  0.00     0.064 A 
ATOM     84  C   UNL A   1      43.161  36.021  33.463  1.00  0.00     0.173 A 
ATOM     85  C   UNL A   1      42.659  34.891  35.523  1.00  0.00     0.173 A 
ATOM     86  F   UNL A   1      43.272  36.039  32.125  1.00  0.00    -0.203 F 
ATOM     87  C   UNL A   1      43.513  37.162  34.180  1.00  0.00     0.198 A 
ATOM     88  C   UNL A   1      42.975  36.044  36.234  1.00  0.00     0.198 A 
ATOM     89  F   UNL A   1      42.258  33.806  36.204  1.00  0.00    -0.203 F 
ATOM     90  F   UNL A   1      43.968  38.244  33.531  1.00  0.00    -0.200 F 
ATOM     91  C   UNL A   1      43.412  37.175  35.563  1.00  0.00     0.200 A 
ATOM     92  F   UNL A   1      42.859  36.060  37.569  1.00  0.00    -0.200 F 
ATOM     93  F   UNL A   1      43.746  38.276  36.250  1.00  0.00    -0.200 F 
ENDBRANCH  60  83
ENDBRANCH  34  35
ENDBRANCH  26  29
ENDBRANCH  24  25
ENDBRANCH  23  24
ENDBRANCH   1  23
TORSDOF 13
ENDMDL
