MODEL 1
REMARK VINA RESULT:     -12.4      0.000      0.000
REMARK SMILES Cn1ncc(C(=O)NCc2ccc(F)cc2)c1C(=O)NCCCNC(=O)c1ccc(-c2c3nc(c(-c4c(F)c(F)c(F)c(F)c4F)c4ccc([nH]4)c(-c4c(F)c(F)c(F)c(F)c4F)c4nc(c(-c5c(F)c(F)c(F)c(F)c5F)c5ccc2[nH]5)C=C4)C=C3)cc1
REMARK SMILES IDX 21 1 20 2 18 3 19 4 17 6 1 7 2 8 3 9 4 10 5 11 6 12 7 13
REMARK SMILES IDX 8 14 9 16 10 17 11 18 16 19 12 20 15 21 13 22 14 23 22 24
REMARK SMILES IDX 23 25 24 26 25 27 26 29 27 30 28 31 89 32 29 33 88 34 30 35
REMARK SMILES IDX 31 36 32 37 82 38 33 39 87 40 81 41 83 42 34 43 86 44 80 45
REMARK SMILES IDX 79 46 35 48 67 49 47 50 66 51 48 52 51 53 65 54 84 55 49 56
REMARK SMILES IDX 50 57 64 59 85 60 52 61 36 62 37 63 45 64 38 65 39 66 43 67
REMARK SMILES IDX 46 68 40 69 41 70 44 71 42 72 68 73 69 74 77 75 70 76 71 77
REMARK SMILES IDX 75 78 78 79 72 80 73 81 76 82 74 83 53 84 54 85 62 86 55 87
REMARK SMILES IDX 56 88 60 89 63 90 57 91 58 92 61 93 59 94
REMARK H PARENT 20 5 8 15 24 28 83 47 51 58
REMARK Flexibility Score: inf
ROOT
ATOM      1  C   UNL A   1      34.780  23.258  23.995  1.00  0.00     0.118 C 
ENDROOT
BRANCH   1   2
ATOM      2  N   UNL A   1      33.757  24.289  24.081  1.00  0.00    -0.351 N 
ATOM      3  C   UNL A   1      33.493  24.959  25.260  1.00  0.00     0.270 C 
ATOM      4  O   UNL A   1      34.194  25.916  25.565  1.00  0.00    -0.268 OA
ATOM      5  H   UNL A   1      33.238  24.516  23.276  1.00  0.00     0.163 HD
BRANCH   3   6
ATOM      6  C   UNL A   1      32.225  24.655  25.881  1.00  0.00     0.138 A 
ATOM      7  C   UNL A   1      30.895  26.724  25.224  1.00  0.00     0.174 C 
ATOM      8  N   UNL A   1      31.084  25.427  25.827  1.00  0.00    -0.262 N 
ATOM      9  N   UNL A   1      29.999  24.840  26.359  1.00  0.00    -0.180 NA
ATOM     10  C   UNL A   1      30.454  23.669  26.785  1.00  0.00     0.149 A 
ATOM     11  C   UNL A   1      31.848  23.510  26.594  1.00  0.00     0.090 A 
BRANCH  11  12
ATOM     12  C   UNL A   1      32.558  22.320  27.041  1.00  0.00     0.255 C 
ATOM     13  O   UNL A   1      33.144  22.321  28.125  1.00  0.00    -0.269 OA
ATOM     14  N   UNL A   1      32.736  21.219  26.247  1.00  0.00    -0.348 N 
ATOM     15  H   UNL A   1      33.357  20.549  26.616  1.00  0.00     0.164 HD
BRANCH  14  16
ATOM     16  C   UNL A   1      32.179  20.865  24.971  1.00  0.00     0.152 C 
BRANCH  16  17
ATOM     17  C   UNL A   1      32.841  19.690  24.304  1.00  0.00    -0.029 A 
ATOM     18  C   UNL A   1      34.022  19.140  24.825  1.00  0.00     0.008 A 
ATOM     19  C   UNL A   1      32.201  19.050  23.230  1.00  0.00     0.008 A 
ATOM     20  C   UNL A   1      34.529  17.947  24.308  1.00  0.00     0.039 A 
ATOM     21  C   UNL A   1      32.707  17.855  22.718  1.00  0.00     0.039 A 
ATOM     22  C   UNL A   1      33.860  17.310  23.269  1.00  0.00     0.123 A 
ATOM     23  F   UNL A   1      34.324  16.143  22.803  1.00  0.00    -0.207 F 
ENDBRANCH  16  17
ENDBRANCH  14  16
ENDBRANCH  11  12
ENDBRANCH   3   6
ENDBRANCH   1   2
BRANCH   1  24
ATOM     24  C   UNL A   1      35.593  23.187  25.286  1.00  0.00     0.042 C 
BRANCH  24  25
ATOM     25  C   UNL A   1      36.997  23.775  25.160  1.00  0.00     0.118 C 
BRANCH  25  26
ATOM     26  N   UNL A   1      38.018  22.810  25.532  1.00  0.00    -0.352 N 
ATOM     27  C   UNL A   1      39.233  22.999  26.144  1.00  0.00     0.251 C 
ATOM     28  H   UNL A   1      37.806  21.875  25.309  1.00  0.00     0.163 HD
ATOM     29  O   UNL A   1      40.062  22.094  26.126  1.00  0.00    -0.269 OA
BRANCH  27  30
ATOM     30  C   UNL A   1      39.564  24.273  26.826  1.00  0.00     0.039 A 
ATOM     31  C   UNL A   1      40.284  25.243  26.120  1.00  0.00     0.014 A 
ATOM     32  C   UNL A   1      39.257  24.482  28.173  1.00  0.00     0.014 A 
ATOM     33  C   UNL A   1      40.659  26.436  26.748  1.00  0.00     0.010 A 
ATOM     34  C   UNL A   1      39.584  25.693  28.786  1.00  0.00     0.010 A 
ATOM     35  C   UNL A   1      40.297  26.677  28.082  1.00  0.00    -0.014 A 
BRANCH  35  36
ATOM     36  C   UNL A   1      40.676  27.939  28.766  1.00  0.00     0.031 A 
ATOM     37  C   UNL A   1      42.077  28.131  29.278  1.00  0.00     0.074 A 
ATOM     38  C   UNL A   1      39.750  28.894  28.977  1.00  0.00     0.049 A 
ATOM     39  N   UNL A   1      42.572  29.115  29.987  1.00  0.00    -0.248 NA
ATOM     40  C   UNL A   1      43.044  27.068  28.969  1.00  0.00     0.031 C 
ATOM     41  C   UNL A   1      38.353  28.822  28.551  1.00  0.00     0.029 A 
ATOM     42  N   UNL A   1      39.845  30.107  29.611  1.00  0.00    -0.354 N 
ATOM     43  C   UNL A   1      43.896  28.775  30.233  1.00  0.00     0.074 A 
ATOM     44  C   UNL A   1      44.123  27.485  29.616  1.00  0.00     0.031 C 
ATOM     45  C   UNL A   1      37.723  29.949  28.921  1.00  0.00     0.029 A 
ATOM     46  C   UNL A   1      38.665  30.807  29.637  1.00  0.00     0.049 A 
ATOM     47  H   UNL A   1      40.680  30.443  30.009  1.00  0.00     0.167 HD
ATOM     48  C   UNL A   1      44.839  29.481  30.901  1.00  0.00     0.037 A 
ATOM     49  C   UNL A   1      38.371  32.004  30.181  1.00  0.00     0.037 A 
ATOM     50  C   UNL A   1      44.630  30.784  31.475  1.00  0.00     0.049 A 
ATOM     51  C   UNL A   1      39.441  32.779  30.898  1.00  0.00     0.074 A 
ATOM     52  C   UNL A   1      45.544  31.598  32.120  1.00  0.00     0.029 A 
ATOM     53  N   UNL A   1      43.424  31.466  31.462  1.00  0.00    -0.354 N 
ATOM     54  N   UNL A   1      40.693  32.456  31.105  1.00  0.00    -0.248 NA
ATOM     55  C   UNL A   1      39.055  34.081  31.459  1.00  0.00     0.031 C 
ATOM     56  C   UNL A   1      44.885  32.766  32.519  1.00  0.00     0.029 A 
ATOM     57  C   UNL A   1      43.568  32.689  32.096  1.00  0.00     0.049 A 
ATOM     58  H   UNL A   1      42.589  31.132  31.062  1.00  0.00     0.167 HD
ATOM     59  C   UNL A   1      41.250  33.515  31.805  1.00  0.00     0.074 A 
ATOM     60  C   UNL A   1      40.201  34.499  31.981  1.00  0.00     0.031 C 
ATOM     61  C   UNL A   1      42.517  33.658  32.261  1.00  0.00     0.037 A 
BRANCH  48  62
ATOM     62  C   UNL A   1      46.194  28.859  31.049  1.00  0.00     0.064 A 
ATOM     63  C   UNL A   1      47.169  29.036  30.058  1.00  0.00     0.173 A 
ATOM     64  C   UNL A   1      46.508  28.046  32.148  1.00  0.00     0.173 A 
ATOM     65  F   UNL A   1      46.913  29.801  28.986  1.00  0.00    -0.203 F 
ATOM     66  C   UNL A   1      48.411  28.417  30.158  1.00  0.00     0.198 A 
ATOM     67  C   UNL A   1      47.760  27.445  32.256  1.00  0.00     0.198 A 
ATOM     68  F   UNL A   1      45.611  27.857  33.127  1.00  0.00    -0.203 F 
ATOM     69  F   UNL A   1      49.324  28.584  29.191  1.00  0.00    -0.200 F 
ATOM     70  C   UNL A   1      48.707  27.625  31.258  1.00  0.00     0.200 A 
ATOM     71  F   UNL A   1      48.051  26.698  33.329  1.00  0.00    -0.200 F 
ATOM     72  F   UNL A   1      49.909  27.040  31.360  1.00  0.00    -0.200 F 
ENDBRANCH  48  62
BRANCH  49  73
ATOM     73  C   UNL A   1      37.000  32.552  30.040  1.00  0.00     0.064 A 
ATOM     74  C   UNL A   1      36.627  33.306  28.918  1.00  0.00     0.173 A 
ATOM     75  C   UNL A   1      36.047  32.358  31.049  1.00  0.00     0.173 A 
ATOM     76  F   UNL A   1      37.508  33.520  27.930  1.00  0.00    -0.203 F 
ATOM     77  C   UNL A   1      35.352  33.858  28.819  1.00  0.00     0.198 A 
ATOM     78  C   UNL A   1      34.768  32.896  30.940  1.00  0.00     0.198 A 
ATOM     79  F   UNL A   1      36.357  31.626  32.129  1.00  0.00    -0.203 F 
ATOM     80  F   UNL A   1      35.027  34.597  27.749  1.00  0.00    -0.200 F 
ATOM     81  C   UNL A   1      34.423  33.652  29.828  1.00  0.00     0.200 A 
ATOM     82  F   UNL A   1      33.868  32.680  31.909  1.00  0.00    -0.200 F 
ATOM     83  F   UNL A   1      33.196  34.180  29.730  1.00  0.00    -0.200 F 
ENDBRANCH  49  73
BRANCH  61  84
ATOM     84  C   UNL A   1      42.853  34.926  32.983  1.00  0.00     0.064 A 
ATOM     85  C   UNL A   1      42.573  35.061  34.350  1.00  0.00     0.173 A 
ATOM     86  C   UNL A   1      43.386  36.030  32.303  1.00  0.00     0.173 A 
ATOM     87  F   UNL A   1      42.059  34.033  35.040  1.00  0.00    -0.203 F 
ATOM     88  C   UNL A   1      42.807  36.264  35.011  1.00  0.00     0.198 A 
ATOM     89  C   UNL A   1      43.634  37.226  32.971  1.00  0.00     0.198 A 
ATOM     90  F   UNL A   1      43.681  35.940  30.998  1.00  0.00    -0.203 F 
ATOM     91  F   UNL A   1      42.512  36.381  36.313  1.00  0.00    -0.200 F 
ATOM     92  C   UNL A   1      43.337  37.345  34.321  1.00  0.00     0.200 A 
ATOM     93  F   UNL A   1      44.162  38.264  32.309  1.00  0.00    -0.200 F 
ATOM     94  F   UNL A   1      43.565  38.501  34.959  1.00  0.00    -0.200 F 
ENDBRANCH  61  84
ENDBRANCH  35  36
ENDBRANCH  27  30
ENDBRANCH  25  26
ENDBRANCH  24  25
ENDBRANCH   1  24
TORSDOF 13
ENDMDL
MODEL 2
REMARK VINA RESULT:     -12.3      3.411      9.208
REMARK SMILES Cn1ncc(C(=O)NCc2ccc(F)cc2)c1C(=O)NCCCNC(=O)c1ccc(-c2c3nc(c(-c4c(F)c(F)c(F)c(F)c4F)c4ccc([nH]4)c(-c4c(F)c(F)c(F)c(F)c4F)c4nc(c(-c5c(F)c(F)c(F)c(F)c5F)c5ccc2[nH]5)C=C4)C=C3)cc1
REMARK SMILES IDX 21 1 20 2 18 3 19 4 17 6 1 7 2 8 3 9 4 10 5 11 6 12 7 13
REMARK SMILES IDX 8 14 9 16 10 17 11 18 16 19 12 20 15 21 13 22 14 23 22 24
REMARK SMILES IDX 23 25 24 26 25 27 26 29 27 30 28 31 89 32 29 33 88 34 30 35
REMARK SMILES IDX 31 36 32 37 82 38 33 39 87 40 81 41 83 42 34 43 86 44 80 45
REMARK SMILES IDX 79 46 35 48 67 49 47 50 66 51 48 52 51 53 65 54 84 55 49 56
REMARK SMILES IDX 50 57 64 59 85 60 52 61 36 62 37 63 45 64 38 65 39 66 43 67
REMARK SMILES IDX 46 68 40 69 41 70 44 71 42 72 68 73 69 74 77 75 70 76 71 77
REMARK SMILES IDX 75 78 78 79 72 80 73 81 76 82 74 83 53 84 54 85 62 86 55 87
REMARK SMILES IDX 56 88 60 89 63 90 57 91 58 92 61 93 59 94
REMARK H PARENT 20 5 8 15 24 28 83 47 51 58
REMARK Flexibility Score: inf
ROOT
ATOM      1  C   UNL A   1      31.995  26.958  25.889  1.00  0.00     0.118 C 
ENDROOT
BRANCH   1   2
ATOM      2  N   UNL A   1      32.417  25.648  25.418  1.00  0.00    -0.351 N 
ATOM      3  C   UNL A   1      33.604  25.466  24.735  1.00  0.00     0.270 C 
ATOM      4  O   UNL A   1      34.642  25.345  25.376  1.00  0.00    -0.268 OA
ATOM      5  H   UNL A   1      31.841  24.870  25.591  1.00  0.00     0.163 HD
BRANCH   3   6
ATOM      6  C   UNL A   1      33.475  25.136  23.335  1.00  0.00     0.138 A 
ATOM      7  C   UNL A   1      33.723  22.605  23.444  1.00  0.00     0.174 C 
ATOM      8  N   UNL A   1      33.497  23.870  22.789  1.00  0.00    -0.262 N 
ATOM      9  N   UNL A   1      33.200  23.832  21.479  1.00  0.00    -0.180 NA
ATOM     10  C   UNL A   1      33.002  25.107  21.166  1.00  0.00     0.149 A 
ATOM     11  C   UNL A   1      33.231  25.988  22.251  1.00  0.00     0.090 A 
BRANCH  11  12
ATOM     12  C   UNL A   1      33.122  27.433  22.107  1.00  0.00     0.255 C 
ATOM     13  O   UNL A   1      34.130  28.110  21.894  1.00  0.00    -0.269 OA
ATOM     14  N   UNL A   1      31.959  28.118  22.340  1.00  0.00    -0.348 N 
ATOM     15  H   UNL A   1      32.061  29.097  22.350  1.00  0.00     0.164 HD
BRANCH  14  16
ATOM     16  C   UNL A   1      30.617  27.662  22.569  1.00  0.00     0.152 C 
BRANCH  16  17
ATOM     17  C   UNL A   1      29.610  28.762  22.771  1.00  0.00    -0.029 A 
ATOM     18  C   UNL A   1      28.234  28.489  22.752  1.00  0.00     0.008 A 
ATOM     19  C   UNL A   1      30.050  30.050  23.118  1.00  0.00     0.008 A 
ATOM     20  C   UNL A   1      27.317  29.477  23.115  1.00  0.00     0.039 A 
ATOM     21  C   UNL A   1      29.131  31.034  23.485  1.00  0.00     0.039 A 
ATOM     22  C   UNL A   1      27.775  30.734  23.490  1.00  0.00     0.123 A 
ATOM     23  F   UNL A   1      26.896  31.667  23.880  1.00  0.00    -0.207 F 
ENDBRANCH  16  17
ENDBRANCH  14  16
ENDBRANCH  11  12
ENDBRANCH   3   6
ENDBRANCH   1   2
BRANCH   1  24
ATOM     24  C   UNL A   1      33.137  27.968  25.792  1.00  0.00     0.042 C 
BRANCH  24  25
ATOM     25  C   UNL A   1      33.777  28.302  27.138  1.00  0.00     0.118 C 
BRANCH  25  26
ATOM     26  N   UNL A   1      33.712  29.726  27.423  1.00  0.00    -0.352 N 
ATOM     27  C   UNL A   1      34.595  30.534  28.096  1.00  0.00     0.251 C 
ATOM     28  H   UNL A   1      32.909  30.182  27.081  1.00  0.00     0.163 HD
ATOM     29  O   UNL A   1      34.230  31.648  28.463  1.00  0.00    -0.269 OA
BRANCH  27  30
ATOM     30  C   UNL A   1      35.979  30.091  28.389  1.00  0.00     0.039 A 
ATOM     31  C   UNL A   1      36.266  29.592  29.664  1.00  0.00     0.014 A 
ATOM     32  C   UNL A   1      37.009  30.248  27.458  1.00  0.00     0.014 A 
ATOM     33  C   UNL A   1      37.572  29.213  29.991  1.00  0.00     0.010 A 
ATOM     34  C   UNL A   1      38.301  29.821  27.766  1.00  0.00     0.010 A 
ATOM     35  C   UNL A   1      38.598  29.309  29.039  1.00  0.00    -0.014 A 
BRANCH  35  36
ATOM     36  C   UNL A   1      39.990  28.903  29.362  1.00  0.00     0.031 A 
ATOM     37  C   UNL A   1      40.867  29.803  30.188  1.00  0.00     0.074 A 
ATOM     38  C   UNL A   1      40.485  27.752  28.870  1.00  0.00     0.049 A 
ATOM     39  N   UNL A   1      42.135  29.673  30.489  1.00  0.00    -0.248 NA
ATOM     40  C   UNL A   1      40.242  31.018  30.729  1.00  0.00     0.031 C 
ATOM     41  C   UNL A   1      39.746  26.802  28.039  1.00  0.00     0.029 A 
ATOM     42  N   UNL A   1      41.732  27.191  28.991  1.00  0.00    -0.354 N 
ATOM     43  C   UNL A   1      42.465  30.801  31.228  1.00  0.00     0.074 A 
ATOM     44  C   UNL A   1      41.272  31.616  31.313  1.00  0.00     0.031 C 
ATOM     45  C   UNL A   1      40.548  25.767  27.737  1.00  0.00     0.029 A 
ATOM     46  C   UNL A   1      41.864  25.997  28.328  1.00  0.00     0.049 A 
ATOM     47  H   UNL A   1      42.461  27.606  29.506  1.00  0.00     0.167 HD
ATOM     48  C   UNL A   1      43.652  31.121  31.795  1.00  0.00     0.037 A 
ATOM     49  C   UNL A   1      42.929  25.181  28.203  1.00  0.00     0.037 A 
ATOM     50  C   UNL A   1      44.828  30.292  31.753  1.00  0.00     0.049 A 
ATOM     51  C   UNL A   1      44.229  25.547  28.861  1.00  0.00     0.074 A 
ATOM     52  C   UNL A   1      46.058  30.510  32.348  1.00  0.00     0.029 A 
ATOM     53  N   UNL A   1      44.913  29.081  31.086  1.00  0.00    -0.354 N 
ATOM     54  N   UNL A   1      44.522  26.606  29.574  1.00  0.00    -0.248 NA
ATOM     55  C   UNL A   1      45.347  24.607  28.693  1.00  0.00     0.031 C 
ATOM     56  C   UNL A   1      46.898  29.440  32.022  1.00  0.00     0.029 A 
ATOM     57  C   UNL A   1      46.180  28.543  31.248  1.00  0.00     0.049 A 
ATOM     58  H   UNL A   1      44.184  28.664  30.574  1.00  0.00     0.167 HD
ATOM     59  C   UNL A   1      45.848  26.456  29.953  1.00  0.00     0.074 A 
ATOM     60  C   UNL A   1      46.303  25.198  29.399  1.00  0.00     0.031 C 
ATOM     61  C   UNL A   1      46.617  27.289  30.693  1.00  0.00     0.037 A 
BRANCH  48  62
ATOM     62  C   UNL A   1      43.744  32.431  32.518  1.00  0.00     0.064 A 
ATOM     63  C   UNL A   1      44.185  33.582  31.849  1.00  0.00     0.173 A 
ATOM     64  C   UNL A   1      43.446  32.533  33.884  1.00  0.00     0.173 A 
ATOM     65  F   UNL A   1      44.487  33.531  30.543  1.00  0.00    -0.203 F 
ATOM     66  C   UNL A   1      44.328  34.790  32.524  1.00  0.00     0.198 A 
ATOM     67  C   UNL A   1      43.570  33.749  34.552  1.00  0.00     0.198 A 
ATOM     68  F   UNL A   1      43.010  31.463  34.562  1.00  0.00    -0.203 F 
ATOM     69  F   UNL A   1      44.768  35.875  31.871  1.00  0.00    -0.200 F 
ATOM     70  C   UNL A   1      44.017  34.874  33.874  1.00  0.00     0.200 A 
ATOM     71  F   UNL A   1      43.249  33.834  35.850  1.00  0.00    -0.200 F 
ATOM     72  F   UNL A   1      44.143  36.042  34.520  1.00  0.00    -0.200 F 
ENDBRANCH  48  62
BRANCH  49  73
ATOM     73  C   UNL A   1      42.792  23.917  27.439  1.00  0.00     0.064 A 
ATOM     74  C   UNL A   1      42.369  22.732  28.059  1.00  0.00     0.173 A 
ATOM     75  C   UNL A   1      43.118  23.867  26.078  1.00  0.00     0.173 A 
ATOM     76  F   UNL A   1      42.049  22.733  29.361  1.00  0.00    -0.203 F 
ATOM     77  C   UNL A   1      42.291  21.540  27.344  1.00  0.00     0.198 A 
ATOM     78  C   UNL A   1      43.024  22.677  25.361  1.00  0.00     0.198 A 
ATOM     79  F   UNL A   1      43.509  24.982  25.443  1.00  0.00    -0.203 F 
ATOM     80  F   UNL A   1      41.909  20.414  27.963  1.00  0.00    -0.200 F 
ATOM     81  C   UNL A   1      42.618  21.512  25.996  1.00  0.00     0.200 A 
ATOM     82  F   UNL A   1      43.324  22.660  24.055  1.00  0.00    -0.200 F 
ATOM     83  F   UNL A   1      42.540  20.366  25.308  1.00  0.00    -0.200 F 
ENDBRANCH  49  73
BRANCH  61  84
ATOM     84  C   UNL A   1      48.028  26.868  30.964  1.00  0.00     0.064 A 
ATOM     85  C   UNL A   1      49.063  27.249  30.098  1.00  0.00     0.173 A 
ATOM     86  C   UNL A   1      48.342  26.029  32.043  1.00  0.00     0.173 A 
ATOM     87  F   UNL A   1      48.809  28.048  29.051  1.00  0.00    -0.203 F 
ATOM     88  C   UNL A   1      50.364  26.794  30.296  1.00  0.00     0.198 A 
ATOM     89  C   UNL A   1      49.647  25.590  32.248  1.00  0.00     0.198 A 
ATOM     90  F   UNL A   1      47.385  25.651  32.903  1.00  0.00    -0.203 F 
ATOM     91  F   UNL A   1      51.335  27.152  29.445  1.00  0.00    -0.200 F 
ATOM     92  C   UNL A   1      50.655  25.967  31.371  1.00  0.00     0.200 A 
ATOM     93  F   UNL A   1      49.931  24.805  33.295  1.00  0.00    -0.200 F 
ATOM     94  F   UNL A   1      51.908  25.533  31.564  1.00  0.00    -0.200 F 
ENDBRANCH  61  84
ENDBRANCH  35  36
ENDBRANCH  27  30
ENDBRANCH  25  26
ENDBRANCH  24  25
ENDBRANCH   1  24
TORSDOF 13
ENDMDL
MODEL 3
REMARK VINA RESULT:     -12.2      3.328      6.358
REMARK SMILES Cn1ncc(C(=O)NCc2ccc(F)cc2)c1C(=O)NCCCNC(=O)c1ccc(-c2c3nc(c(-c4c(F)c(F)c(F)c(F)c4F)c4ccc([nH]4)c(-c4c(F)c(F)c(F)c(F)c4F)c4nc(c(-c5c(F)c(F)c(F)c(F)c5F)c5ccc2[nH]5)C=C4)C=C3)cc1
REMARK SMILES IDX 21 1 20 2 18 3 19 4 17 6 1 7 2 8 3 9 4 10 5 11 6 12 7 13
REMARK SMILES IDX 8 14 9 16 10 17 11 18 16 19 12 20 15 21 13 22 14 23 22 24
REMARK SMILES IDX 23 25 24 26 25 27 26 29 27 30 28 31 89 32 29 33 88 34 30 35
REMARK SMILES IDX 31 36 32 37 82 38 33 39 87 40 81 41 83 42 34 43 86 44 80 45
REMARK SMILES IDX 79 46 35 48 67 49 47 50 66 51 48 52 51 53 65 54 84 55 49 56
REMARK SMILES IDX 50 57 64 59 85 60 52 61 36 62 37 63 45 64 38 65 39 66 43 67
REMARK SMILES IDX 46 68 40 69 41 70 44 71 42 72 68 73 69 74 77 75 70 76 71 77
REMARK SMILES IDX 75 78 78 79 72 80 73 81 76 82 74 83 53 84 54 85 62 86 55 87
REMARK SMILES IDX 56 88 60 89 63 90 57 91 58 92 61 93 59 94
REMARK H PARENT 20 5 8 15 24 28 83 47 51 58
REMARK Flexibility Score: inf
ROOT
ATOM      1  C   UNL A   1      33.233  27.666  22.669  1.00  0.00     0.118 C 
ENDROOT
BRANCH   1   2
ATOM      2  N   UNL A   1      33.495  26.459  23.438  1.00  0.00    -0.351 N 
ATOM      3  C   UNL A   1      32.630  25.382  23.422  1.00  0.00     0.270 C 
ATOM      4  O   UNL A   1      32.712  24.571  22.507  1.00  0.00    -0.268 OA
ATOM      5  H   UNL A   1      34.311  26.409  23.984  1.00  0.00     0.163 HD
BRANCH   3   6
ATOM      6  C   UNL A   1      31.905  25.146  24.648  1.00  0.00     0.138 A 
ATOM      7  C   UNL A   1      29.965  26.766  24.343  1.00  0.00     0.174 C 
ATOM      8  N   UNL A   1      30.717  25.740  25.022  1.00  0.00    -0.262 N 
ATOM      9  N   UNL A   1      30.176  25.228  26.140  1.00  0.00    -0.180 NA
ATOM     10  C   UNL A   1      31.045  24.295  26.510  1.00  0.00     0.149 A 
ATOM     11  C   UNL A   1      32.187  24.237  25.675  1.00  0.00     0.090 A 
BRANCH  11  12
ATOM     12  C   UNL A   1      33.287  23.320  25.937  1.00  0.00     0.255 C 
ATOM     13  O   UNL A   1      34.251  23.688  26.611  1.00  0.00    -0.269 OA
ATOM     14  N   UNL A   1      33.384  22.087  25.348  1.00  0.00    -0.348 N 
ATOM     15  H   UNL A   1      34.246  21.634  25.496  1.00  0.00     0.164 HD
BRANCH  14  16
ATOM     16  C   UNL A   1      32.452  21.336  24.554  1.00  0.00     0.152 C 
BRANCH  16  17
ATOM     17  C   UNL A   1      32.967  20.005  24.078  1.00  0.00    -0.029 A 
ATOM     18  C   UNL A   1      34.109  19.429  24.655  1.00  0.00     0.008 A 
ATOM     19  C   UNL A   1      32.223  19.266  23.144  1.00  0.00     0.008 A 
ATOM     20  C   UNL A   1      34.475  18.121  24.333  1.00  0.00     0.039 A 
ATOM     21  C   UNL A   1      32.588  17.957  22.828  1.00  0.00     0.039 A 
ATOM     22  C   UNL A   1      33.704  17.394  23.434  1.00  0.00     0.123 A 
ATOM     23  F   UNL A   1      34.031  16.124  23.160  1.00  0.00    -0.207 F 
ENDBRANCH  16  17
ENDBRANCH  14  16
ENDBRANCH  11  12
ENDBRANCH   3   6
ENDBRANCH   1   2
BRANCH   1  24
ATOM     24  C   UNL A   1      33.615  28.913  23.464  1.00  0.00     0.042 C 
BRANCH  24  25
ATOM     25  C   UNL A   1      33.255  28.829  24.946  1.00  0.00     0.118 C 
BRANCH  25  26
ATOM     26  N   UNL A   1      32.689  30.077  25.432  1.00  0.00    -0.352 N 
ATOM     27  C   UNL A   1      33.015  30.826  26.536  1.00  0.00     0.251 C 
ATOM     28  H   UNL A   1      31.957  30.442  24.884  1.00  0.00     0.163 HD
ATOM     29  O   UNL A   1      32.242  31.700  26.919  1.00  0.00    -0.269 OA
BRANCH  27  30
ATOM     30  C   UNL A   1      34.279  30.600  27.276  1.00  0.00     0.039 A 
ATOM     31  C   UNL A   1      34.579  29.305  27.712  1.00  0.00     0.014 A 
ATOM     32  C   UNL A   1      35.120  31.660  27.625  1.00  0.00     0.014 A 
ATOM     33  C   UNL A   1      35.738  29.065  28.458  1.00  0.00     0.010 A 
ATOM     34  C   UNL A   1      36.303  31.414  28.324  1.00  0.00     0.010 A 
ATOM     35  C   UNL A   1      36.618  30.116  28.756  1.00  0.00    -0.014 A 
BRANCH  35  36
ATOM     36  C   UNL A   1      37.858  29.883  29.539  1.00  0.00     0.031 A 
ATOM     37  C   UNL A   1      38.934  28.980  29.001  1.00  0.00     0.074 A 
ATOM     38  C   UNL A   1      37.998  30.438  30.757  1.00  0.00     0.049 A 
ATOM     39  N   UNL A   1      40.037  28.573  29.577  1.00  0.00    -0.248 NA
ATOM     40  C   UNL A   1      38.733  28.449  27.644  1.00  0.00     0.031 C 
ATOM     41  C   UNL A   1      37.020  31.313  31.402  1.00  0.00     0.029 A 
ATOM     42  N   UNL A   1      39.015  30.339  31.674  1.00  0.00    -0.354 N 
ATOM     43  C   UNL A   1      40.645  27.718  28.667  1.00  0.00     0.074 A 
ATOM     44  C   UNL A   1      39.779  27.646  27.509  1.00  0.00     0.031 C 
ATOM     45  C   UNL A   1      37.491  31.685  32.605  1.00  0.00     0.029 A 
ATOM     46  C   UNL A   1      38.787  31.049  32.826  1.00  0.00     0.049 A 
ATOM     47  H   UNL A   1      39.829  29.808  31.520  1.00  0.00     0.167 HD
ATOM     48  C   UNL A   1      41.824  27.062  28.782  1.00  0.00     0.037 A 
ATOM     49  C   UNL A   1      39.536  31.171  33.939  1.00  0.00     0.037 A 
ATOM     50  C   UNL A   1      42.710  27.167  29.911  1.00  0.00     0.049 A 
ATOM     51  C   UNL A   1      40.852  30.451  34.034  1.00  0.00     0.074 A 
ATOM     52  C   UNL A   1      43.953  26.582  30.089  1.00  0.00     0.029 A 
ATOM     53  N   UNL A   1      42.450  27.913  31.049  1.00  0.00    -0.354 N 
ATOM     54  N   UNL A   1      41.424  29.663  33.158  1.00  0.00    -0.248 NA
ATOM     55  C   UNL A   1      41.622  30.636  35.272  1.00  0.00     0.031 C 
ATOM     56  C   UNL A   1      44.436  26.958  31.347  1.00  0.00     0.029 A 
ATOM     57  C   UNL A   1      43.507  27.798  31.938  1.00  0.00     0.049 A 
ATOM     58  H   UNL A   1      41.638  28.446  31.204  1.00  0.00     0.167 HD
ATOM     59  C   UNL A   1      42.625  29.268  33.728  1.00  0.00     0.074 A 
ATOM     60  C   UNL A   1      42.707  29.911  35.024  1.00  0.00     0.031 C 
ATOM     61  C   UNL A   1      43.574  28.446  33.222  1.00  0.00     0.037 A 
BRANCH  48  62
ATOM     62  C   UNL A   1      42.233  26.167  27.652  1.00  0.00     0.064 A 
ATOM     63  C   UNL A   1      41.725  24.863  27.559  1.00  0.00     0.173 A 
ATOM     64  C   UNL A   1      43.166  26.583  26.692  1.00  0.00     0.173 A 
ATOM     65  F   UNL A   1      40.833  24.419  28.457  1.00  0.00    -0.203 F 
ATOM     66  C   UNL A   1      42.141  24.004  26.546  1.00  0.00     0.198 A 
ATOM     67  C   UNL A   1      43.564  25.728  25.666  1.00  0.00     0.198 A 
ATOM     68  F   UNL A   1      43.670  27.825  26.733  1.00  0.00    -0.203 F 
ATOM     69  F   UNL A   1      41.657  22.757  26.484  1.00  0.00    -0.200 F 
ATOM     70  C   UNL A   1      43.057  24.439  25.598  1.00  0.00     0.200 A 
ATOM     71  F   UNL A   1      44.433  26.156  24.740  1.00  0.00    -0.200 F 
ATOM     72  F   UNL A   1      43.447  23.615  24.615  1.00  0.00    -0.200 F 
ENDBRANCH  48  62
BRANCH  49  73
ATOM     73  C   UNL A   1      39.061  32.038  35.045  1.00  0.00     0.064 A 
ATOM     74  C   UNL A   1      39.294  33.420  35.041  1.00  0.00     0.173 A 
ATOM     75  C   UNL A   1      38.394  31.486  36.147  1.00  0.00     0.173 A 
ATOM     76  F   UNL A   1      39.932  33.990  34.009  1.00  0.00    -0.203 F 
ATOM     77  C   UNL A   1      38.888  34.217  36.108  1.00  0.00     0.198 A 
ATOM     78  C   UNL A   1      37.974  32.287  37.206  1.00  0.00     0.198 A 
ATOM     79  F   UNL A   1      38.134  30.171  36.181  1.00  0.00    -0.203 F 
ATOM     80  F   UNL A   1      39.145  35.532  36.094  1.00  0.00    -0.200 F 
ATOM     81  C   UNL A   1      38.228  33.651  37.189  1.00  0.00     0.200 A 
ATOM     82  F   UNL A   1      37.321  31.739  38.239  1.00  0.00    -0.200 F 
ATOM     83  F   UNL A   1      37.834  34.419  38.214  1.00  0.00    -0.200 F 
ENDBRANCH  49  73
BRANCH  61  84
ATOM     84  C   UNL A   1      44.793  28.200  34.057  1.00  0.00     0.064 A 
ATOM     85  C   UNL A   1      45.917  29.029  33.936  1.00  0.00     0.173 A 
ATOM     86  C   UNL A   1      44.870  27.100  34.923  1.00  0.00     0.173 A 
ATOM     87  F   UNL A   1      45.890  30.090  33.116  1.00  0.00    -0.203 F 
ATOM     88  C   UNL A   1      47.083  28.759  34.647  1.00  0.00     0.198 A 
ATOM     89  C   UNL A   1      46.032  26.843  35.646  1.00  0.00     0.198 A 
ATOM     90  F   UNL A   1      43.814  26.290  35.079  1.00  0.00    -0.203 F 
ATOM     91  F   UNL A   1      48.155  29.550  34.501  1.00  0.00    -0.200 F 
ATOM     92  C   UNL A   1      47.139  27.667  35.501  1.00  0.00     0.200 A 
ATOM     93  F   UNL A   1      46.080  25.799  36.483  1.00  0.00    -0.200 F 
ATOM     94  F   UNL A   1      48.260  27.410  36.188  1.00  0.00    -0.200 F 
ENDBRANCH  61  84
ENDBRANCH  35  36
ENDBRANCH  27  30
ENDBRANCH  25  26
ENDBRANCH  24  25
ENDBRANCH   1  24
TORSDOF 13
ENDMDL
