MODEL 1
REMARK VINA RESULT:     -13.9      0.000      0.000
REMARK SMILES CC(C)=C1[C@H]2CC[C@@H]1[C@H](C(=O)NNC(=O)c1ccoc1C)[C@H]2C(=O)NCCCNC(=O)c1ccc(-c2c3nc(c(-c4c(F)c(F)c(F)c(F)c4F)c4ccc([nH]4)c(-c4c(F)c(F)c(F)c(F)c4F)c4nc(c(-c5c(F)c(F)c(F)c(F)c5F)c5ccc2[nH]5)C=C4)C=C3)cc1
REMARK SMILES IDX 26 1 25 2 23 3 24 4 22 6 1 7 2 8 3 9 4 10 5 11 8 12 6 13
REMARK SMILES IDX 7 14 9 15 10 16 11 17 12 18 13 20 14 21 15 23 16 24 17 25
REMARK SMILES IDX 20 26 18 27 19 28 21 29 27 30 28 31 29 32 30 33 31 35 32 36
REMARK SMILES IDX 33 37 94 38 34 39 93 40 35 41 36 42 37 43 87 44 38 45 92 46
REMARK SMILES IDX 86 47 88 48 39 49 91 50 85 51 84 52 40 54 72 55 52 56 71 57
REMARK SMILES IDX 53 58 56 59 70 60 89 61 54 62 55 63 69 65 90 66 57 67 41 68
REMARK SMILES IDX 42 69 50 70 43 71 44 72 48 73 51 74 45 75 46 76 49 77 47 78
REMARK SMILES IDX 73 79 74 80 82 81 75 82 76 83 80 84 83 85 77 86 78 87 81 88
REMARK SMILES IDX 79 89 58 90 59 91 67 92 60 93 61 94 65 95 68 96 62 97 63 98
REMARK SMILES IDX 66 99 64 100
REMARK H PARENT 25 5 12 19 13 22 29 34 88 53 56 64
REMARK Flexibility Score: inf
ROOT
ATOM      1  C   UNL A   1      31.498  30.886  26.012  1.00  0.00     0.117 C 
ENDROOT
BRANCH   1   2
ATOM      2  N   UNL A   1      31.510  29.738  26.904  1.00  0.00    -0.356 N 
ATOM      3  C   UNL A   1      31.797  28.427  26.744  1.00  0.00     0.224 C 
ATOM      4  O   UNL A   1      31.612  27.721  27.742  1.00  0.00    -0.275 OA
ATOM      5  H   UNL A   1      31.255  29.966  27.827  1.00  0.00     0.163 HD
BRANCH   3   6
ATOM      6  C   UNL A   1      32.384  27.775  25.500  1.00  0.00     0.098 C 
ATOM      7  C   UNL A   1      30.638  23.367  25.193  1.00  0.00     0.039 C 
ATOM      8  C   UNL A   1      31.668  24.256  25.835  1.00  0.00    -0.077 C 
ATOM      9  C   UNL A   1      32.296  23.665  27.072  1.00  0.00     0.039 C 
ATOM     10  C   UNL A   1      32.050  25.431  25.306  1.00  0.00    -0.064 C 
ATOM     11  C   UNL A   1      33.083  26.425  25.760  1.00  0.00     0.028 C 
ATOM     12  C   UNL A   1      31.767  26.044  23.953  1.00  0.00     0.028 C 
ATOM     13  C   UNL A   1      34.103  26.188  24.635  1.00  0.00     0.009 C 
ATOM     14  C   UNL A   1      33.210  25.892  23.412  1.00  0.00     0.009 C 
ATOM     15  C   UNL A   1      31.418  27.513  24.326  1.00  0.00     0.100 C 
BRANCH  15  16
ATOM     16  C   UNL A   1      31.601  28.455  23.135  1.00  0.00     0.242 C 
ATOM     17  O   UNL A   1      32.690  28.606  22.579  1.00  0.00    -0.273 OA
ATOM     18  N   UNL A   1      30.530  29.124  22.606  1.00  0.00    -0.267 N 
ATOM     19  H   UNL A   1      30.724  29.934  22.081  1.00  0.00     0.191 HD
BRANCH  18  20
ATOM     20  N   UNL A   1      29.194  28.762  22.744  1.00  0.00    -0.263 N 
ATOM     21  C   UNL A   1      28.145  29.658  22.866  1.00  0.00     0.273 C 
ATOM     22  H   UNL A   1      28.978  27.801  22.758  1.00  0.00     0.191 HD
ATOM     23  O   UNL A   1      27.021  29.237  23.136  1.00  0.00    -0.267 OA
BRANCH  21  24
ATOM     24  C   UNL A   1      28.406  31.080  22.725  1.00  0.00     0.082 A 
ATOM     25  C   UNL A   1      28.781  31.976  23.771  1.00  0.00     0.056 A 
ATOM     26  C   UNL A   1      28.274  31.870  21.594  1.00  0.00     0.113 A 
ATOM     27  C   UNL A   1      28.916  33.217  23.198  1.00  0.00     0.196 A 
ATOM     28  O   UNL A   1      28.615  33.160  21.878  1.00  0.00    -0.469 OA
ATOM     29  C   UNL A   1      27.840  31.628  20.201  1.00  0.00     0.088 C 
ENDBRANCH  21  24
ENDBRANCH  18  20
ENDBRANCH  15  16
ENDBRANCH   3   6
ENDBRANCH   1   2
BRANCH   1  30
ATOM     30  C   UNL A   1      31.362  32.193  26.786  1.00  0.00     0.042 C 
BRANCH  30  31
ATOM     31  C   UNL A   1      32.689  32.875  27.097  1.00  0.00     0.118 C 
BRANCH  31  32
ATOM     32  N   UNL A   1      32.508  34.221  27.621  1.00  0.00    -0.352 N 
ATOM     33  C   UNL A   1      33.070  34.854  28.702  1.00  0.00     0.251 C 
ATOM     34  H   UNL A   1      31.872  34.773  27.111  1.00  0.00     0.163 HD
ATOM     35  O   UNL A   1      32.591  35.924  29.074  1.00  0.00    -0.269 OA
BRANCH  33  36
ATOM     36  C   UNL A   1      34.229  34.289  29.439  1.00  0.00     0.039 A 
ATOM     37  C   UNL A   1      35.517  34.544  28.950  1.00  0.00     0.014 A 
ATOM     38  C   UNL A   1      34.072  33.439  30.535  1.00  0.00     0.014 A 
ATOM     39  C   UNL A   1      36.637  33.992  29.582  1.00  0.00     0.010 A 
ATOM     40  C   UNL A   1      35.192  32.944  31.209  1.00  0.00     0.010 A 
ATOM     41  C   UNL A   1      36.486  33.204  30.733  1.00  0.00    -0.014 A 
BRANCH  41  42
ATOM     42  C   UNL A   1      37.657  32.613  31.433  1.00  0.00     0.031 A 
ATOM     43  C   UNL A   1      38.417  31.473  30.807  1.00  0.00     0.074 A 
ATOM     44  C   UNL A   1      38.001  33.043  32.662  1.00  0.00     0.049 A 
ATOM     45  N   UNL A   1      39.365  30.728  31.318  1.00  0.00    -0.248 NA
ATOM     46  C   UNL A   1      38.038  31.104  29.434  1.00  0.00     0.031 C 
ATOM     47  C   UNL A   1      37.334  34.115  33.402  1.00  0.00     0.029 A 
ATOM     48  N   UNL A   1      38.988  32.615  33.515  1.00  0.00    -0.354 N 
ATOM     49  C   UNL A   1      39.661  29.776  30.352  1.00  0.00     0.074 A 
ATOM     50  C   UNL A   1      38.785  30.029  29.227  1.00  0.00     0.031 C 
ATOM     51  C   UNL A   1      37.933  34.265  34.594  1.00  0.00     0.029 A 
ATOM     52  C   UNL A   1      39.005  33.280  34.716  1.00  0.00     0.049 A 
ATOM     53  H   UNL A   1      39.624  31.898  33.287  1.00  0.00     0.167 HD
ATOM     54  C   UNL A   1      40.581  28.783  30.395  1.00  0.00     0.037 A 
ATOM     55  C   UNL A   1      39.785  33.107  35.800  1.00  0.00     0.037 A 
ATOM     56  C   UNL A   1      41.504  28.570  31.477  1.00  0.00     0.049 A 
ATOM     57  C   UNL A   1      40.842  32.039  35.797  1.00  0.00     0.074 A 
ATOM     58  C   UNL A   1      42.531  27.646  31.565  1.00  0.00     0.029 A 
ATOM     59  N   UNL A   1      41.521  29.301  32.653  1.00  0.00    -0.354 N 
ATOM     60  N   UNL A   1      41.131  31.167  34.865  1.00  0.00    -0.248 NA
ATOM     61  C   UNL A   1      41.682  31.934  37.000  1.00  0.00     0.031 C 
ATOM     62  C   UNL A   1      43.159  27.806  32.806  1.00  0.00     0.029 A 
ATOM     63  C   UNL A   1      42.536  28.843  33.478  1.00  0.00     0.049 A 
ATOM     64  H   UNL A   1      40.904  30.037  32.872  1.00  0.00     0.167 HD
ATOM     65  C   UNL A   1      42.187  30.417  35.360  1.00  0.00     0.074 A 
ATOM     66  C   UNL A   1      42.500  30.943  36.672  1.00  0.00     0.031 C 
ATOM     67  C   UNL A   1      42.837  29.381  34.779  1.00  0.00     0.037 A 
BRANCH  54  68
ATOM     68  C   UNL A   1      40.637  27.843  29.232  1.00  0.00     0.064 A 
ATOM     69  C   UNL A   1      41.566  28.010  28.196  1.00  0.00     0.173 A 
ATOM     70  C   UNL A   1      39.778  26.736  29.177  1.00  0.00     0.173 A 
ATOM     71  F   UNL A   1      42.401  29.060  28.201  1.00  0.00    -0.203 F 
ATOM     72  C   UNL A   1      41.621  27.110  27.135  1.00  0.00     0.198 A 
ATOM     73  C   UNL A   1      39.847  25.828  28.124  1.00  0.00     0.198 A 
ATOM     74  F   UNL A   1      38.874  26.533  30.147  1.00  0.00    -0.203 F 
ATOM     75  F   UNL A   1      42.495  27.305  26.138  1.00  0.00    -0.200 F 
ATOM     76  C   UNL A   1      40.767  26.018  27.102  1.00  0.00     0.200 A 
ATOM     77  F   UNL A   1      39.025  24.770  28.097  1.00  0.00    -0.200 F 
ATOM     78  F   UNL A   1      40.824  25.152  26.082  1.00  0.00    -0.200 F 
ENDBRANCH  54  68
BRANCH  55  79
ATOM     79  C   UNL A   1      39.596  33.978  36.985  1.00  0.00     0.064 A 
ATOM     80  C   UNL A   1      38.804  33.559  38.062  1.00  0.00     0.173 A 
ATOM     81  C   UNL A   1      40.205  35.236  37.066  1.00  0.00     0.173 A 
ATOM     82  F   UNL A   1      38.184  32.369  38.014  1.00  0.00    -0.203 F 
ATOM     83  C   UNL A   1      38.622  34.373  39.177  1.00  0.00     0.198 A 
ATOM     84  C   UNL A   1      40.036  36.042  38.190  1.00  0.00     0.198 A 
ATOM     85  F   UNL A   1      40.973  35.677  36.059  1.00  0.00    -0.203 F 
ATOM     86  F   UNL A   1      37.836  33.963  40.182  1.00  0.00    -0.200 F 
ATOM     87  C   UNL A   1      39.241  35.612  39.242  1.00  0.00     0.200 A 
ATOM     88  F   UNL A   1      40.641  37.236  38.253  1.00  0.00    -0.200 F 
ATOM     89  F   UNL A   1      39.068  36.393  40.316  1.00  0.00    -0.200 F 
ENDBRANCH  55  79
BRANCH  67  90
ATOM     90  C   UNL A   1      43.961  28.759  35.548  1.00  0.00     0.064 A 
ATOM     91  C   UNL A   1      43.733  27.697  36.433  1.00  0.00     0.173 A 
ATOM     92  C   UNL A   1      45.279  29.200  35.366  1.00  0.00     0.173 A 
ATOM     93  F   UNL A   1      42.486  27.253  36.649  1.00  0.00    -0.203 F 
ATOM     94  C   UNL A   1      44.789  27.105  37.121  1.00  0.00     0.198 A 
ATOM     95  C   UNL A   1      46.333  28.596  36.043  1.00  0.00     0.198 A 
ATOM     96  F   UNL A   1      45.542  30.213  34.526  1.00  0.00    -0.203 F 
ATOM     97  F   UNL A   1      44.549  26.109  37.984  1.00  0.00    -0.200 F 
ATOM     98  C   UNL A   1      46.087  27.551  36.921  1.00  0.00     0.200 A 
ATOM     99  F   UNL A   1      47.588  29.025  35.847  1.00  0.00    -0.200 F 
ATOM    100  F   UNL A   1      47.103  26.978  37.583  1.00  0.00    -0.200 F 
ENDBRANCH  67  90
ENDBRANCH  41  42
ENDBRANCH  33  36
ENDBRANCH  31  32
ENDBRANCH  30  31
ENDBRANCH   1  30
TORSDOF 13
ENDMDL
MODEL 2
REMARK VINA RESULT:     -13.7      6.577     11.905
REMARK SMILES CC(C)=C1[C@H]2CC[C@@H]1[C@H](C(=O)NNC(=O)c1ccoc1C)[C@H]2C(=O)NCCCNC(=O)c1ccc(-c2c3nc(c(-c4c(F)c(F)c(F)c(F)c4F)c4ccc([nH]4)c(-c4c(F)c(F)c(F)c(F)c4F)c4nc(c(-c5c(F)c(F)c(F)c(F)c5F)c5ccc2[nH]5)C=C4)C=C3)cc1
REMARK SMILES IDX 26 1 25 2 23 3 24 4 22 6 1 7 2 8 3 9 4 10 5 11 8 12 6 13
REMARK SMILES IDX 7 14 9 15 10 16 11 17 12 18 13 20 14 21 15 23 16 24 17 25
REMARK SMILES IDX 20 26 18 27 19 28 21 29 27 30 28 31 29 32 30 33 31 35 32 36
REMARK SMILES IDX 33 37 94 38 34 39 93 40 35 41 36 42 37 43 87 44 38 45 92 46
REMARK SMILES IDX 86 47 88 48 39 49 91 50 85 51 84 52 40 54 72 55 52 56 71 57
REMARK SMILES IDX 53 58 56 59 70 60 89 61 54 62 55 63 69 65 90 66 57 67 41 68
REMARK SMILES IDX 42 69 50 70 43 71 44 72 48 73 51 74 45 75 46 76 49 77 47 78
REMARK SMILES IDX 73 79 74 80 82 81 75 82 76 83 80 84 83 85 77 86 78 87 81 88
REMARK SMILES IDX 79 89 58 90 59 91 67 92 60 93 61 94 65 95 68 96 62 97 63 98
REMARK SMILES IDX 66 99 64 100
REMARK H PARENT 25 5 12 19 13 22 29 34 88 53 56 64
REMARK Flexibility Score: inf
ROOT
ATOM      1  C   UNL A   1      37.162  20.311  24.994  1.00  0.00     0.117 C 
ENDROOT
BRANCH   1   2
ATOM      2  N   UNL A   1      37.103  21.485  24.138  1.00  0.00    -0.356 N 
ATOM      3  C   UNL A   1      36.258  22.535  24.040  1.00  0.00     0.224 C 
ATOM      4  O   UNL A   1      36.493  23.316  23.111  1.00  0.00    -0.275 OA
ATOM      5  H   UNL A   1      37.841  21.524  23.488  1.00  0.00     0.163 HD
BRANCH   3   6
ATOM      6  C   UNL A   1      35.120  22.871  24.992  1.00  0.00     0.098 C 
ATOM      7  C   UNL A   1      31.532  24.636  22.426  1.00  0.00     0.039 C 
ATOM      8  C   UNL A   1      32.851  24.929  23.087  1.00  0.00    -0.077 C 
ATOM      9  C   UNL A   1      33.508  26.195  22.600  1.00  0.00     0.039 C 
ATOM     10  C   UNL A   1      33.355  24.173  24.078  1.00  0.00    -0.064 C 
ATOM     11  C   UNL A   1      34.612  24.324  24.889  1.00  0.00     0.028 C 
ATOM     12  C   UNL A   1      32.727  23.063  24.891  1.00  0.00     0.028 C 
ATOM     13  C   UNL A   1      33.949  24.698  26.224  1.00  0.00     0.009 C 
ATOM     14  C   UNL A   1      32.648  23.869  26.212  1.00  0.00     0.009 C 
ATOM     15  C   UNL A   1      33.855  21.992  24.909  1.00  0.00     0.100 C 
BRANCH  15  16
ATOM     16  C   UNL A   1      33.685  21.016  26.074  1.00  0.00     0.242 C 
ATOM     17  O   UNL A   1      33.922  21.338  27.239  1.00  0.00    -0.273 OA
ATOM     18  N   UNL A   1      33.203  19.753  25.860  1.00  0.00    -0.267 N 
ATOM     19  H   UNL A   1      33.407  19.074  26.542  1.00  0.00     0.191 HD
BRANCH  18  20
ATOM     20  N   UNL A   1      32.449  19.344  24.763  1.00  0.00    -0.263 N 
ATOM     21  C   UNL A   1      32.624  18.146  24.092  1.00  0.00     0.273 C 
ATOM     22  H   UNL A   1      31.742  19.950  24.441  1.00  0.00     0.191 HD
ATOM     23  O   UNL A   1      32.011  17.946  23.044  1.00  0.00    -0.267 OA
BRANCH  21  24
ATOM     24  C   UNL A   1      33.569  17.173  24.611  1.00  0.00     0.082 A 
ATOM     25  C   UNL A   1      34.991  17.230  24.491  1.00  0.00     0.056 A 
ATOM     26  C   UNL A   1      33.303  15.971  25.247  1.00  0.00     0.113 A 
ATOM     27  C   UNL A   1      35.485  16.111  25.112  1.00  0.00     0.196 A 
ATOM     28  O   UNL A   1      34.469  15.345  25.579  1.00  0.00    -0.469 OA
ATOM     29  C   UNL A   1      32.071  15.239  25.614  1.00  0.00     0.088 C 
ENDBRANCH  21  24
ENDBRANCH  18  20
ENDBRANCH  15  16
ENDBRANCH   3   6
ENDBRANCH   1   2
BRANCH   1  30
ATOM     30  C   UNL A   1      38.504  19.597  24.870  1.00  0.00     0.042 C 
BRANCH  30  31
ATOM     31  C   UNL A   1      39.409  19.754  26.085  1.00  0.00     0.118 C 
BRANCH  31  32
ATOM     32  N   UNL A   1      40.587  18.903  26.011  1.00  0.00    -0.352 N 
ATOM     33  C   UNL A   1      41.926  19.208  25.995  1.00  0.00     0.251 C 
ATOM     34  H   UNL A   1      40.389  17.939  25.963  1.00  0.00     0.163 HD
ATOM     35  O   UNL A   1      42.730  18.326  25.702  1.00  0.00    -0.269 OA
BRANCH  33  36
ATOM     36  C   UNL A   1      42.433  20.567  26.312  1.00  0.00     0.039 A 
ATOM     37  C   UNL A   1      42.511  20.952  27.657  1.00  0.00     0.014 A 
ATOM     38  C   UNL A   1      42.738  21.500  25.319  1.00  0.00     0.014 A 
ATOM     39  C   UNL A   1      42.936  22.241  28.003  1.00  0.00     0.010 A 
ATOM     40  C   UNL A   1      43.229  22.762  25.663  1.00  0.00     0.010 A 
ATOM     41  C   UNL A   1      43.321  23.151  27.009  1.00  0.00    -0.014 A 
BRANCH  41  42
ATOM     42  C   UNL A   1      43.788  24.522  27.345  1.00  0.00     0.031 A 
ATOM     43  C   UNL A   1      42.813  25.548  27.860  1.00  0.00     0.074 A 
ATOM     44  C   UNL A   1      45.067  24.877  27.122  1.00  0.00     0.049 A 
ATOM     45  N   UNL A   1      42.988  26.829  28.068  1.00  0.00    -0.248 NA
ATOM     46  C   UNL A   1      41.451  25.075  28.152  1.00  0.00     0.031 C 
ATOM     47  C   UNL A   1      46.111  23.997  26.595  1.00  0.00     0.029 A 
ATOM     48  N   UNL A   1      45.703  26.083  27.293  1.00  0.00    -0.354 N 
ATOM     49  C   UNL A   1      41.753  27.321  28.466  1.00  0.00     0.074 A 
ATOM     50  C   UNL A   1      40.831  26.205  28.462  1.00  0.00     0.031 C 
ATOM     51  C   UNL A   1      47.257  24.689  26.491  1.00  0.00     0.029 A 
ATOM     52  C   UNL A   1      47.023  26.067  26.913  1.00  0.00     0.049 A 
ATOM     53  H   UNL A   1      45.255  26.882  27.653  1.00  0.00     0.167 HD
ATOM     54  C   UNL A   1      41.416  28.588  28.809  1.00  0.00     0.037 A 
ATOM     55  C   UNL A   1      47.937  27.056  26.892  1.00  0.00     0.037 A 
ATOM     56  C   UNL A   1      42.340  29.687  28.887  1.00  0.00     0.049 A 
ATOM     57  C   UNL A   1      47.554  28.438  27.339  1.00  0.00     0.074 A 
ATOM     58  C   UNL A   1      42.105  30.983  29.313  1.00  0.00     0.029 A 
ATOM     59  N   UNL A   1      43.680  29.615  28.543  1.00  0.00    -0.354 N 
ATOM     60  N   UNL A   1      46.390  28.882  27.742  1.00  0.00    -0.248 NA
ATOM     61  C   UNL A   1      48.615  29.457  27.326  1.00  0.00     0.031 C 
ATOM     62  C   UNL A   1      43.302  31.702  29.210  1.00  0.00     0.029 A 
ATOM     63  C   UNL A   1      44.283  30.847  28.740  1.00  0.00     0.049 A 
ATOM     64  H   UNL A   1      44.137  28.810  28.209  1.00  0.00     0.167 HD
ATOM     65  C   UNL A   1      46.577  30.223  28.041  1.00  0.00     0.074 A 
ATOM     66  C   UNL A   1      47.970  30.523  27.785  1.00  0.00     0.031 C 
ATOM     67  C   UNL A   1      45.672  31.127  28.484  1.00  0.00     0.037 A 
BRANCH  54  68
ATOM     68  C   UNL A   1      39.979  28.857  29.129  1.00  0.00     0.064 A 
ATOM     69  C   UNL A   1      39.065  29.238  28.138  1.00  0.00     0.173 A 
ATOM     70  C   UNL A   1      39.505  28.690  30.438  1.00  0.00     0.173 A 
ATOM     71  F   UNL A   1      39.476  29.421  26.875  1.00  0.00    -0.203 F 
ATOM     72  C   UNL A   1      37.726  29.459  28.450  1.00  0.00     0.198 A 
ATOM     73  C   UNL A   1      38.162  28.894  30.743  1.00  0.00     0.198 A 
ATOM     74  F   UNL A   1      40.342  28.323  31.420  1.00  0.00    -0.203 F 
ATOM     75  F   UNL A   1      36.873  29.854  27.495  1.00  0.00    -0.200 F 
ATOM     76  C   UNL A   1      37.275  29.283  29.749  1.00  0.00     0.200 A 
ATOM     77  F   UNL A   1      37.726  28.717  31.999  1.00  0.00    -0.200 F 
ATOM     78  F   UNL A   1      35.985  29.493  30.047  1.00  0.00    -0.200 F 
ENDBRANCH  54  68
BRANCH  55  79
ATOM     79  C   UNL A   1      49.317  26.767  26.434  1.00  0.00     0.064 A 
ATOM     80  C   UNL A   1      49.688  26.981  25.100  1.00  0.00     0.173 A 
ATOM     81  C   UNL A   1      50.289  26.280  27.317  1.00  0.00     0.173 A 
ATOM     82  F   UNL A   1      48.780  27.426  24.217  1.00  0.00    -0.203 F 
ATOM     83  C   UNL A   1      50.982  26.711  24.663  1.00  0.00     0.198 A 
ATOM     84  C   UNL A   1      51.588  26.025  26.882  1.00  0.00     0.198 A 
ATOM     85  F   UNL A   1      49.979  26.061  28.603  1.00  0.00    -0.203 F 
ATOM     86  F   UNL A   1      51.305  26.897  23.376  1.00  0.00    -0.200 F 
ATOM     87  C   UNL A   1      51.932  26.237  25.555  1.00  0.00     0.200 A 
ATOM     88  F   UNL A   1      52.506  25.575  27.748  1.00  0.00    -0.200 F 
ATOM     89  F   UNL A   1      53.178  25.980  25.136  1.00  0.00    -0.200 F 
ENDBRANCH  55  79
BRANCH  67  90
ATOM     90  C   UNL A   1      46.161  32.519  28.737  1.00  0.00     0.064 A 
ATOM     91  C   UNL A   1      46.115  33.497  27.734  1.00  0.00     0.173 A 
ATOM     92  C   UNL A   1      46.640  32.888  30.002  1.00  0.00     0.173 A 
ATOM     93  F   UNL A   1      45.679  33.184  26.505  1.00  0.00    -0.203 F 
ATOM     94  C   UNL A   1      46.544  34.798  27.988  1.00  0.00     0.198 A 
ATOM     95  C   UNL A   1      47.053  34.192  30.256  1.00  0.00     0.198 A 
ATOM     96  F   UNL A   1      46.700  31.983  30.991  1.00  0.00    -0.203 F 
ATOM     97  F   UNL A   1      46.518  35.712  27.010  1.00  0.00    -0.200 F 
ATOM     98  C   UNL A   1      47.007  35.144  29.249  1.00  0.00     0.200 A 
ATOM     99  F   UNL A   1      47.497  34.527  31.475  1.00  0.00    -0.200 F 
ATOM    100  F   UNL A   1      47.417  36.397  29.492  1.00  0.00    -0.200 F 
ENDBRANCH  67  90
ENDBRANCH  41  42
ENDBRANCH  33  36
ENDBRANCH  31  32
ENDBRANCH  30  31
ENDBRANCH   1  30
TORSDOF 13
ENDMDL
MODEL 3
REMARK VINA RESULT:     -13.6      6.554     11.807
REMARK SMILES CC(C)=C1[C@H]2CC[C@@H]1[C@H](C(=O)NNC(=O)c1ccoc1C)[C@H]2C(=O)NCCCNC(=O)c1ccc(-c2c3nc(c(-c4c(F)c(F)c(F)c(F)c4F)c4ccc([nH]4)c(-c4c(F)c(F)c(F)c(F)c4F)c4nc(c(-c5c(F)c(F)c(F)c(F)c5F)c5ccc2[nH]5)C=C4)C=C3)cc1
REMARK SMILES IDX 26 1 25 2 23 3 24 4 22 6 1 7 2 8 3 9 4 10 5 11 8 12 6 13
REMARK SMILES IDX 7 14 9 15 10 16 11 17 12 18 13 20 14 21 15 23 16 24 17 25
REMARK SMILES IDX 20 26 18 27 19 28 21 29 27 30 28 31 29 32 30 33 31 35 32 36
REMARK SMILES IDX 33 37 94 38 34 39 93 40 35 41 36 42 37 43 87 44 38 45 92 46
REMARK SMILES IDX 86 47 88 48 39 49 91 50 85 51 84 52 40 54 72 55 52 56 71 57
REMARK SMILES IDX 53 58 56 59 70 60 89 61 54 62 55 63 69 65 90 66 57 67 41 68
REMARK SMILES IDX 42 69 50 70 43 71 44 72 48 73 51 74 45 75 46 76 49 77 47 78
REMARK SMILES IDX 73 79 74 80 82 81 75 82 76 83 80 84 83 85 77 86 78 87 81 88
REMARK SMILES IDX 79 89 58 90 59 91 67 92 60 93 61 94 65 95 68 96 62 97 63 98
REMARK SMILES IDX 66 99 64 100
REMARK H PARENT 25 5 12 19 13 22 29 34 88 53 56 64
REMARK Flexibility Score: inf
ROOT
ATOM      1  C   UNL A   1      36.865  20.057  24.995  1.00  0.00     0.117 C 
ENDROOT
BRANCH   1   2
ATOM      2  N   UNL A   1      36.970  21.325  24.291  1.00  0.00    -0.356 N 
ATOM      3  C   UNL A   1      36.222  22.450  24.264  1.00  0.00     0.224 C 
ATOM      4  O   UNL A   1      36.595  23.312  23.460  1.00  0.00    -0.275 OA
ATOM      5  H   UNL A   1      37.761  21.376  23.707  1.00  0.00     0.163 HD
BRANCH   3   6
ATOM      6  C   UNL A   1      35.039  22.771  25.165  1.00  0.00     0.098 C 
ATOM      7  C   UNL A   1      31.597  24.625  22.465  1.00  0.00     0.039 C 
ATOM      8  C   UNL A   1      32.883  24.892  23.199  1.00  0.00    -0.077 C 
ATOM      9  C   UNL A   1      33.572  26.165  22.779  1.00  0.00     0.039 C 
ATOM     10  C   UNL A   1      33.331  24.107  24.195  1.00  0.00    -0.064 C 
ATOM     11  C   UNL A   1      34.545  24.230  25.073  1.00  0.00     0.028 C 
ATOM     12  C   UNL A   1      32.656  22.983  24.947  1.00  0.00     0.028 C 
ATOM     13  C   UNL A   1      33.818  24.575  26.382  1.00  0.00     0.009 C 
ATOM     14  C   UNL A   1      32.514  23.756  26.282  1.00  0.00     0.009 C 
ATOM     15  C   UNL A   1      33.775  21.904  24.996  1.00  0.00     0.100 C 
BRANCH  15  16
ATOM     16  C   UNL A   1      33.540  20.900  26.125  1.00  0.00     0.242 C 
ATOM     17  O   UNL A   1      33.706  21.194  27.310  1.00  0.00    -0.273 OA
ATOM     18  N   UNL A   1      33.075  19.641  25.853  1.00  0.00    -0.267 N 
ATOM     19  H   UNL A   1      33.241  18.946  26.530  1.00  0.00     0.191 HD
BRANCH  18  20
ATOM     20  N   UNL A   1      32.389  19.257  24.704  1.00  0.00    -0.263 N 
ATOM     21  C   UNL A   1      32.623  18.085  24.005  1.00  0.00     0.273 C 
ATOM     22  H   UNL A   1      31.689  19.861  24.365  1.00  0.00     0.191 HD
ATOM     23  O   UNL A   1      32.070  17.911  22.919  1.00  0.00    -0.267 OA
BRANCH  21  24
ATOM     24  C   UNL A   1      33.558  17.112  24.541  1.00  0.00     0.082 A 
ATOM     25  C   UNL A   1      34.977  17.129  24.384  1.00  0.00     0.056 A 
ATOM     26  C   UNL A   1      33.279  15.944  25.235  1.00  0.00     0.113 A 
ATOM     27  C   UNL A   1      35.460  16.024  25.041  1.00  0.00     0.196 A 
ATOM     28  O   UNL A   1      34.438  15.304  25.564  1.00  0.00    -0.469 OA
ATOM     29  C   UNL A   1      32.040  15.259  25.662  1.00  0.00     0.088 C 
ENDBRANCH  21  24
ENDBRANCH  18  20
ENDBRANCH  15  16
ENDBRANCH   3   6
ENDBRANCH   1   2
BRANCH   1  30
ATOM     30  C   UNL A   1      38.177  19.282  24.947  1.00  0.00     0.042 C 
BRANCH  30  31
ATOM     31  C   UNL A   1      39.298  19.901  25.772  1.00  0.00     0.118 C 
BRANCH  31  32
ATOM     32  N   UNL A   1      40.431  19.001  25.927  1.00  0.00    -0.352 N 
ATOM     33  C   UNL A   1      41.770  19.252  26.103  1.00  0.00     0.251 C 
ATOM     34  H   UNL A   1      40.196  18.045  25.902  1.00  0.00     0.163 HD
ATOM     35  O   UNL A   1      42.566  18.322  25.986  1.00  0.00    -0.269 OA
BRANCH  33  36
ATOM     36  C   UNL A   1      42.288  20.607  26.419  1.00  0.00     0.039 A 
ATOM     37  C   UNL A   1      42.361  20.995  27.763  1.00  0.00     0.014 A 
ATOM     38  C   UNL A   1      42.608  21.534  25.425  1.00  0.00     0.014 A 
ATOM     39  C   UNL A   1      42.796  22.280  28.109  1.00  0.00     0.010 A 
ATOM     40  C   UNL A   1      43.109  22.792  25.769  1.00  0.00     0.010 A 
ATOM     41  C   UNL A   1      43.196  23.184  27.114  1.00  0.00    -0.014 A 
BRANCH  41  42
ATOM     42  C   UNL A   1      43.674  24.551  27.450  1.00  0.00     0.031 A 
ATOM     43  C   UNL A   1      42.706  25.588  27.957  1.00  0.00     0.074 A 
ATOM     44  C   UNL A   1      44.958  24.894  27.232  1.00  0.00     0.049 A 
ATOM     45  N   UNL A   1      42.892  26.867  28.163  1.00  0.00    -0.248 NA
ATOM     46  C   UNL A   1      41.338  25.127  28.243  1.00  0.00     0.031 C 
ATOM     47  C   UNL A   1      45.996  24.003  26.713  1.00  0.00     0.029 A 
ATOM     48  N   UNL A   1      45.604  26.094  27.404  1.00  0.00    -0.354 N 
ATOM     49  C   UNL A   1      41.659  27.372  28.554  1.00  0.00     0.074 A 
ATOM     50  C   UNL A   1      40.728  26.264  28.548  1.00  0.00     0.031 C 
ATOM     51  C   UNL A   1      47.149  24.684  26.614  1.00  0.00     0.029 A 
ATOM     52  C   UNL A   1      46.925  26.066  27.031  1.00  0.00     0.049 A 
ATOM     53  H   UNL A   1      45.162  26.898  27.760  1.00  0.00     0.167 HD
ATOM     54  C   UNL A   1      41.333  28.642  28.892  1.00  0.00     0.037 A 
ATOM     55  C   UNL A   1      47.849  27.046  27.012  1.00  0.00     0.037 A 
ATOM     56  C   UNL A   1      42.266  29.733  28.972  1.00  0.00     0.049 A 
ATOM     57  C   UNL A   1      47.476  28.432  27.454  1.00  0.00     0.074 A 
ATOM     58  C   UNL A   1      42.041  31.032  29.394  1.00  0.00     0.029 A 
ATOM     59  N   UNL A   1      43.607  29.648  28.636  1.00  0.00    -0.354 N 
ATOM     60  N   UNL A   1      46.315  28.887  27.850  1.00  0.00    -0.248 NA
ATOM     61  C   UNL A   1      48.546  29.442  27.445  1.00  0.00     0.031 C 
ATOM     62  C   UNL A   1      43.245  31.740  29.295  1.00  0.00     0.029 A 
ATOM     63  C   UNL A   1      44.221  30.875  28.833  1.00  0.00     0.049 A 
ATOM     64  H   UNL A   1      44.058  28.837  28.306  1.00  0.00     0.167 HD
ATOM     65  C   UNL A   1      46.512  30.228  28.147  1.00  0.00     0.074 A 
ATOM     66  C   UNL A   1      47.909  30.514  27.897  1.00  0.00     0.031 C 
ATOM     67  C   UNL A   1      45.613  31.141  28.583  1.00  0.00     0.037 A 
BRANCH  54  68
ATOM     68  C   UNL A   1      39.896  28.926  29.204  1.00  0.00     0.064 A 
ATOM     69  C   UNL A   1      38.996  29.336  28.212  1.00  0.00     0.173 A 
ATOM     70  C   UNL A   1      39.407  28.741  30.506  1.00  0.00     0.173 A 
ATOM     71  F   UNL A   1      39.422  29.536  26.956  1.00  0.00    -0.203 F 
ATOM     72  C   UNL A   1      37.658  29.571  28.516  1.00  0.00     0.198 A 
ATOM     73  C   UNL A   1      38.065  28.959  30.802  1.00  0.00     0.198 A 
ATOM     74  F   UNL A   1      40.231  28.345  31.488  1.00  0.00    -0.203 F 
ATOM     75  F   UNL A   1      36.820  29.994  27.560  1.00  0.00    -0.200 F 
ATOM     76  C   UNL A   1      37.192  29.377  29.808  1.00  0.00     0.200 A 
ATOM     77  F   UNL A   1      37.615  28.765  32.050  1.00  0.00    -0.200 F 
ATOM     78  F   UNL A   1      35.903  29.599  30.097  1.00  0.00    -0.200 F 
ENDBRANCH  54  68
BRANCH  55  79
ATOM     79  C   UNL A   1      49.229  26.743  26.562  1.00  0.00     0.064 A 
ATOM     80  C   UNL A   1      50.198  26.302  27.473  1.00  0.00     0.173 A 
ATOM     81  C   UNL A   1      49.602  26.880  25.219  1.00  0.00     0.173 A 
ATOM     82  F   UNL A   1      49.886  26.178  28.773  1.00  0.00    -0.203 F 
ATOM     83  C   UNL A   1      51.495  26.017  27.057  1.00  0.00     0.198 A 
ATOM     84  C   UNL A   1      50.896  26.578  24.801  1.00  0.00     0.198 A 
ATOM     85  F   UNL A   1      48.707  27.298  24.313  1.00  0.00    -0.203 F 
ATOM     86  F   UNL A   1      52.413  25.624  27.951  1.00  0.00    -0.200 F 
ATOM     87  C   UNL A   1      51.843  26.151  25.721  1.00  0.00     0.200 A 
ATOM     88  F   UNL A   1      51.227  26.702  23.509  1.00  0.00    -0.200 F 
ATOM     89  F   UNL A   1      53.090  25.874  25.320  1.00  0.00    -0.200 F 
ENDBRANCH  55  79
BRANCH  67  90
ATOM     90  C   UNL A   1      46.114  32.529  28.835  1.00  0.00     0.064 A 
ATOM     91  C   UNL A   1      46.640  32.895  30.082  1.00  0.00     0.173 A 
ATOM     92  C   UNL A   1      46.106  33.487  27.812  1.00  0.00     0.173 A 
ATOM     93  F   UNL A   1      46.653  32.015  31.094  1.00  0.00    -0.203 F 
ATOM     94  C   UNL A   1      47.132  34.180  30.298  1.00  0.00     0.198 A 
ATOM     95  C   UNL A   1      46.612  34.765  28.026  1.00  0.00     0.198 A 
ATOM     96  F   UNL A   1      45.612  33.179  26.603  1.00  0.00    -0.203 F 
ATOM     97  F   UNL A   1      47.606  34.520  31.503  1.00  0.00    -0.200 F 
ATOM     98  C   UNL A   1      47.122  35.111  29.269  1.00  0.00     0.200 A 
ATOM     99  F   UNL A   1      46.606  35.663  27.032  1.00  0.00    -0.200 F 
ATOM    100  F   UNL A   1      47.598  36.347  29.478  1.00  0.00    -0.200 F 
ENDBRANCH  67  90
ENDBRANCH  41  42
ENDBRANCH  33  36
ENDBRANCH  31  32
ENDBRANCH  30  31
ENDBRANCH   1  30
TORSDOF 13
ENDMDL
