MODEL 1
REMARK VINA RESULT:     -12.3      0.000      0.000
REMARK SMILES CC(C)[C@@H]1CCCN1C(=O)N1CCO[C@H](CC(=O)NCCCNC(=O)c2ccc(-c3c4nc(c(-c5c(F)c(F)c(F)c(F)c5F)c5ccc([nH]5)c(-c5c(F)c(F)c(F)c(F)c5F)c5nc(c(-c6c(F)c(F)c(F)c(F)c6F)c6ccc3[nH]6)C=C5)C=C4)cc2)C1
REMARK SMILES IDX 20 1 19 2 17 3 18 4 16 6 15 7 11 8 12 9 89 10 13 11 14 12
REMARK SMILES IDX 9 13 10 14 8 15 4 16 5 17 6 18 7 19 2 20 1 21 3 22 21 23
REMARK SMILES IDX 22 24 23 25 24 26 25 28 26 29 27 30 88 31 28 32 87 33 29 34
REMARK SMILES IDX 30 35 31 36 81 37 32 38 86 39 80 40 82 41 33 42 85 43 79 44
REMARK SMILES IDX 78 45 34 47 66 48 46 49 65 50 47 51 50 52 64 53 83 54 48 55
REMARK SMILES IDX 49 56 63 58 84 59 51 60 35 61 36 62 44 63 37 64 38 65 42 66
REMARK SMILES IDX 45 67 39 68 40 69 43 70 41 71 67 72 68 73 76 74 69 75 70 76
REMARK SMILES IDX 74 77 77 78 71 79 72 80 75 81 73 82 52 83 53 84 61 85 54 86
REMARK SMILES IDX 55 87 59 88 62 89 56 90 57 91 60 92 58 93
REMARK H PARENT 19 5 23 27 82 46 50 57
REMARK Flexibility Score: inf
ROOT
ATOM      1  C   UNL A   1      31.646  30.779  26.080  1.00  0.00     0.117 C 
ENDROOT
BRANCH   1   2
ATOM      2  N   UNL A   1      31.640  29.824  27.163  1.00  0.00    -0.356 N 
ATOM      3  C   UNL A   1      31.718  28.463  27.075  1.00  0.00     0.222 C 
ATOM      4  O   UNL A   1      31.691  27.795  28.108  1.00  0.00    -0.275 OA
ATOM      5  H   UNL A   1      31.573  30.198  28.073  1.00  0.00     0.163 HD
BRANCH   3   6
ATOM      6  C   UNL A   1      31.913  27.819  25.724  1.00  0.00     0.133 C 
BRANCH   6   7
ATOM      7  C   UNL A   1      30.657  27.185  25.117  1.00  0.00     0.147 C 
ATOM      8  N   UNL A   1      31.350  24.845  25.345  1.00  0.00    -0.320 N 
ATOM      9  C   UNL A   1      31.108  24.582  23.937  1.00  0.00     0.150 C 
ATOM     10  C   UNL A   1      30.405  25.848  25.829  1.00  0.00     0.154 C 
ATOM     11  C   UNL A   1      31.247  25.867  23.125  1.00  0.00     0.182 C 
ATOM     12  O   UNL A   1      30.639  27.037  23.685  1.00  0.00    -0.374 OA
BRANCH   8  13
ATOM     13  C   UNL A   1      31.566  23.766  26.169  1.00  0.00     0.320 C 
ATOM     14  O   UNL A   1      31.037  23.713  27.278  1.00  0.00    -0.248 OA
BRANCH  13  15
ATOM     15  N   UNL A   1      32.453  22.808  25.721  1.00  0.00    -0.321 N 
ATOM     16  C   UNL A   1      33.927  22.741  25.746  1.00  0.00     0.089 C 
ATOM     17  C   UNL A   1      34.244  21.420  25.024  1.00  0.00     0.027 C 
ATOM     18  C   UNL A   1      33.054  20.543  25.358  1.00  0.00     0.024 C 
ATOM     19  C   UNL A   1      31.895  21.525  25.322  1.00  0.00     0.122 C 
BRANCH  16  20
ATOM     20  C   UNL A   1      34.710  23.924  25.140  1.00  0.00     0.005 C 
ATOM     21  C   UNL A   1      36.169  23.939  25.625  1.00  0.00     0.009 C 
ATOM     22  C   UNL A   1      34.687  24.018  23.616  1.00  0.00     0.009 C 
ENDBRANCH  16  20
ENDBRANCH  13  15
ENDBRANCH   8  13
ENDBRANCH   6   7
ENDBRANCH   3   6
ENDBRANCH   1   2
BRANCH   1  23
ATOM     23  C   UNL A   1      31.407  32.203  26.550  1.00  0.00     0.042 C 
BRANCH  23  24
ATOM     24  C   UNL A   1      32.616  32.773  27.259  1.00  0.00     0.118 C 
BRANCH  24  25
ATOM     25  N   UNL A   1      32.436  34.187  27.588  1.00  0.00    -0.352 N 
ATOM     26  C   UNL A   1      32.981  34.948  28.596  1.00  0.00     0.251 C 
ATOM     27  H   UNL A   1      31.825  34.674  26.990  1.00  0.00     0.163 HD
ATOM     28  O   UNL A   1      32.504  36.054  28.845  1.00  0.00    -0.269 OA
BRANCH  26  29
ATOM     29  C   UNL A   1      34.121  34.439  29.387  1.00  0.00     0.039 A 
ATOM     30  C   UNL A   1      33.892  33.783  30.600  1.00  0.00     0.014 A 
ATOM     31  C   UNL A   1      35.428  34.614  28.935  1.00  0.00     0.014 A 
ATOM     32  C   UNL A   1      34.968  33.239  31.307  1.00  0.00     0.010 A 
ATOM     33  C   UNL A   1      36.471  33.941  29.551  1.00  0.00     0.010 A 
ATOM     34  C   UNL A   1      36.262  33.271  30.761  1.00  0.00    -0.014 A 
BRANCH  34  35
ATOM     35  C   UNL A   1      37.427  32.647  31.441  1.00  0.00     0.031 A 
ATOM     36  C   UNL A   1      38.146  31.494  30.785  1.00  0.00     0.074 A 
ATOM     37  C   UNL A   1      37.770  33.048  32.681  1.00  0.00     0.049 A 
ATOM     38  N   UNL A   1      39.104  30.737  31.258  1.00  0.00    -0.248 NA
ATOM     39  C   UNL A   1      37.695  31.107  29.436  1.00  0.00     0.031 C 
ATOM     40  C   UNL A   1      37.096  34.094  33.452  1.00  0.00     0.029 A 
ATOM     41  N   UNL A   1      38.766  32.612  33.518  1.00  0.00    -0.354 N 
ATOM     42  C   UNL A   1      39.336  29.773  30.284  1.00  0.00     0.074 A 
ATOM     43  C   UNL A   1      38.376  29.992  29.228  1.00  0.00     0.031 C 
ATOM     44  C   UNL A   1      37.717  34.244  34.632  1.00  0.00     0.029 A 
ATOM     45  C   UNL A   1      38.804  33.275  34.720  1.00  0.00     0.049 A 
ATOM     46  H   UNL A   1      39.393  31.891  33.280  1.00  0.00     0.167 HD
ATOM     47  C   UNL A   1      40.290  28.812  30.257  1.00  0.00     0.037 A 
ATOM     48  C   UNL A   1      39.623  33.113  35.777  1.00  0.00     0.037 A 
ATOM     49  C   UNL A   1      41.279  28.640  31.287  1.00  0.00     0.049 A 
ATOM     50  C   UNL A   1      40.705  32.069  35.700  1.00  0.00     0.074 A 
ATOM     51  C   UNL A   1      42.347  27.764  31.320  1.00  0.00     0.029 A 
ATOM     52  N   UNL A   1      41.321  29.370  32.467  1.00  0.00    -0.354 N 
ATOM     53  N   UNL A   1      40.972  31.222  34.735  1.00  0.00    -0.248 NA
ATOM     54  C   UNL A   1      41.606  31.966  36.855  1.00  0.00     0.031 C 
ATOM     55  C   UNL A   1      43.006  27.926  32.542  1.00  0.00     0.029 A 
ATOM     56  C   UNL A   1      42.384  28.945  33.245  1.00  0.00     0.049 A 
ATOM     57  H   UNL A   1      40.688  30.082  32.714  1.00  0.00     0.167 HD
ATOM     58  C   UNL A   1      42.084  30.504  35.155  1.00  0.00     0.074 A 
ATOM     59  C   UNL A   1      42.457  31.035  36.450  1.00  0.00     0.031 C 
ATOM     60  C   UNL A   1      42.736  29.493  34.529  1.00  0.00     0.037 A 
BRANCH  47  61
ATOM     61  C   UNL A   1      40.323  27.887  29.074  1.00  0.00     0.064 A 
ATOM     62  C   UNL A   1      39.576  26.699  29.041  1.00  0.00     0.173 A 
ATOM     63  C   UNL A   1      41.082  28.212  27.938  1.00  0.00     0.173 A 
ATOM     64  F   UNL A   1      38.843  26.332  30.103  1.00  0.00    -0.203 F 
ATOM     65  C   UNL A   1      39.607  25.860  27.930  1.00  0.00     0.198 A 
ATOM     66  C   UNL A   1      41.084  27.387  26.816  1.00  0.00     0.198 A 
ATOM     67  F   UNL A   1      41.814  29.336  27.912  1.00  0.00    -0.203 F 
ATOM     68  F   UNL A   1      38.926  24.705  27.944  1.00  0.00    -0.200 F 
ATOM     69  C   UNL A   1      40.354  26.209  26.815  1.00  0.00     0.200 A 
ATOM     70  F   UNL A   1      41.795  27.734  25.733  1.00  0.00    -0.200 F 
ATOM     71  F   UNL A   1      40.374  25.406  25.741  1.00  0.00    -0.200 F 
ENDBRANCH  47  61
BRANCH  48  72
ATOM     72  C   UNL A   1      39.474  33.977  36.980  1.00  0.00     0.064 A 
ATOM     73  C   UNL A   1      40.064  35.247  37.034  1.00  0.00     0.173 A 
ATOM     74  C   UNL A   1      38.750  33.548  38.102  1.00  0.00     0.173 A 
ATOM     75  F   UNL A   1      40.780  35.697  35.992  1.00  0.00    -0.203 F 
ATOM     76  C   UNL A   1      39.963  36.043  38.173  1.00  0.00     0.198 A 
ATOM     77  C   UNL A   1      38.620  34.359  39.228  1.00  0.00     0.198 A 
ATOM     78  F   UNL A   1      38.155  32.347  38.100  1.00  0.00    -0.203 F 
ATOM     79  F   UNL A   1      40.584  37.229  38.216  1.00  0.00    -0.200 F 
ATOM     80  C   UNL A   1      39.237  35.600  39.268  1.00  0.00     0.200 A 
ATOM     81  F   UNL A   1      37.901  33.936  40.277  1.00  0.00    -0.200 F 
ATOM     82  F   UNL A   1      39.137  36.366  40.363  1.00  0.00    -0.200 F 
ENDBRANCH  48  72
BRANCH  60  83
ATOM     83  C   UNL A   1      43.937  28.922  35.227  1.00  0.00     0.064 A 
ATOM     84  C   UNL A   1      45.228  29.420  34.999  1.00  0.00     0.173 A 
ATOM     85  C   UNL A   1      43.787  27.880  36.156  1.00  0.00     0.173 A 
ATOM     86  F   UNL A   1      45.424  30.406  34.111  1.00  0.00    -0.203 F 
ATOM     87  C   UNL A   1      46.330  28.871  35.647  1.00  0.00     0.198 A 
ATOM     88  C   UNL A   1      44.887  27.360  36.829  1.00  0.00     0.198 A 
ATOM     89  F   UNL A   1      42.572  27.376  36.418  1.00  0.00    -0.203 F 
ATOM     90  F   UNL A   1      47.561  29.320  35.368  1.00  0.00    -0.200 F 
ATOM     91  C   UNL A   1      46.158  27.846  36.566  1.00  0.00     0.200 A 
ATOM     92  F   UNL A   1      44.718  26.382  37.730  1.00  0.00    -0.200 F 
ATOM     93  F   UNL A   1      47.221  27.322  37.192  1.00  0.00    -0.200 F 
ENDBRANCH  60  83
ENDBRANCH  34  35
ENDBRANCH  26  29
ENDBRANCH  24  25
ENDBRANCH  23  24
ENDBRANCH   1  23
TORSDOF 14
ENDMDL
MODEL 2
REMARK VINA RESULT:     -12.3      0.135      1.954
REMARK SMILES CC(C)[C@@H]1CCCN1C(=O)N1CCO[C@H](CC(=O)NCCCNC(=O)c2ccc(-c3c4nc(c(-c5c(F)c(F)c(F)c(F)c5F)c5ccc([nH]5)c(-c5c(F)c(F)c(F)c(F)c5F)c5nc(c(-c6c(F)c(F)c(F)c(F)c6F)c6ccc3[nH]6)C=C5)C=C4)cc2)C1
REMARK SMILES IDX 20 1 19 2 17 3 18 4 16 6 15 7 11 8 12 9 89 10 13 11 14 12
REMARK SMILES IDX 9 13 10 14 8 15 4 16 5 17 6 18 7 19 2 20 1 21 3 22 21 23
REMARK SMILES IDX 22 24 23 25 24 26 25 28 26 29 27 30 88 31 28 32 87 33 29 34
REMARK SMILES IDX 30 35 31 36 81 37 32 38 86 39 80 40 82 41 33 42 85 43 79 44
REMARK SMILES IDX 78 45 34 47 66 48 46 49 65 50 47 51 50 52 64 53 83 54 48 55
REMARK SMILES IDX 49 56 63 58 84 59 51 60 35 61 36 62 44 63 37 64 38 65 42 66
REMARK SMILES IDX 45 67 39 68 40 69 43 70 41 71 67 72 68 73 76 74 69 75 70 76
REMARK SMILES IDX 74 77 77 78 71 79 72 80 75 81 73 82 52 83 53 84 61 85 54 86
REMARK SMILES IDX 55 87 59 88 62 89 56 90 57 91 60 92 58 93
REMARK H PARENT 19 5 23 27 82 46 50 57
REMARK Flexibility Score: inf
ROOT
ATOM      1  C   UNL A   1      31.646  30.789  26.042  1.00  0.00     0.117 C 
ENDROOT
BRANCH   1   2
ATOM      2  N   UNL A   1      31.656  29.845  27.134  1.00  0.00    -0.356 N 
ATOM      3  C   UNL A   1      31.776  28.486  27.060  1.00  0.00     0.222 C 
ATOM      4  O   UNL A   1      31.755  27.827  28.099  1.00  0.00    -0.275 OA
ATOM      5  H   UNL A   1      31.565  30.225  28.039  1.00  0.00     0.163 HD
BRANCH   3   6
ATOM      6  C   UNL A   1      32.009  27.835  25.718  1.00  0.00     0.133 C 
BRANCH   6   7
ATOM      7  C   UNL A   1      30.767  27.215  25.070  1.00  0.00     0.147 C 
ATOM      8  N   UNL A   1      31.436  24.868  25.303  1.00  0.00    -0.320 N 
ATOM      9  C   UNL A   1      31.233  24.615  23.886  1.00  0.00     0.150 C 
ATOM     10  C   UNL A   1      30.484  25.874  25.766  1.00  0.00     0.154 C 
ATOM     11  C   UNL A   1      31.404  25.905  23.088  1.00  0.00     0.182 C 
ATOM     12  O   UNL A   1      30.789  27.076  23.638  1.00  0.00    -0.374 OA
BRANCH   8  13
ATOM     13  C   UNL A   1      31.621  23.782  26.125  1.00  0.00     0.320 C 
ATOM     14  O   UNL A   1      31.124  23.761  27.251  1.00  0.00    -0.248 OA
BRANCH  13  15
ATOM     15  N   UNL A   1      32.441  22.777  25.656  1.00  0.00    -0.321 N 
ATOM     16  C   UNL A   1      33.909  22.626  25.648  1.00  0.00     0.089 C 
ATOM     17  C   UNL A   1      34.134  21.291  24.916  1.00  0.00     0.027 C 
ATOM     18  C   UNL A   1      32.904  20.483  25.272  1.00  0.00     0.024 C 
ATOM     19  C   UNL A   1      31.802  21.529  25.265  1.00  0.00     0.122 C 
BRANCH  16  20
ATOM     20  C   UNL A   1      34.746  23.765  25.029  1.00  0.00     0.005 C 
ATOM     21  C   UNL A   1      36.128  23.870  25.692  1.00  0.00     0.009 C 
ATOM     22  C   UNL A   1      34.919  23.705  23.514  1.00  0.00     0.009 C 
ENDBRANCH  16  20
ENDBRANCH  13  15
ENDBRANCH   8  13
ENDBRANCH   6   7
ENDBRANCH   3   6
ENDBRANCH   1   2
BRANCH   1  23
ATOM     23  C   UNL A   1      31.413  32.217  26.500  1.00  0.00     0.042 C 
BRANCH  23  24
ATOM     24  C   UNL A   1      32.582  32.750  27.300  1.00  0.00     0.118 C 
BRANCH  24  25
ATOM     25  N   UNL A   1      32.420  34.169  27.619  1.00  0.00    -0.352 N 
ATOM     26  C   UNL A   1      32.988  34.934  28.611  1.00  0.00     0.251 C 
ATOM     27  H   UNL A   1      31.802  34.656  27.028  1.00  0.00     0.163 HD
ATOM     28  O   UNL A   1      32.525  36.046  28.859  1.00  0.00    -0.269 OA
BRANCH  26  29
ATOM     29  C   UNL A   1      34.138  34.423  29.386  1.00  0.00     0.039 A 
ATOM     30  C   UNL A   1      33.926  33.794  30.617  1.00  0.00     0.014 A 
ATOM     31  C   UNL A   1      35.437  34.568  28.902  1.00  0.00     0.014 A 
ATOM     32  C   UNL A   1      35.009  33.247  31.310  1.00  0.00     0.010 A 
ATOM     33  C   UNL A   1      36.483  33.891  29.507  1.00  0.00     0.010 A 
ATOM     34  C   UNL A   1      36.291  33.248  30.735  1.00  0.00    -0.014 A 
BRANCH  34  35
ATOM     35  C   UNL A   1      37.461  32.619  31.401  1.00  0.00     0.031 A 
ATOM     36  C   UNL A   1      38.173  31.469  30.732  1.00  0.00     0.074 A 
ATOM     37  C   UNL A   1      37.816  33.012  32.640  1.00  0.00     0.049 A 
ATOM     38  N   UNL A   1      39.134  30.708  31.192  1.00  0.00    -0.248 NA
ATOM     39  C   UNL A   1      37.710  31.090  29.385  1.00  0.00     0.031 C 
ATOM     40  C   UNL A   1      37.149  34.055  33.423  1.00  0.00     0.029 A 
ATOM     41  N   UNL A   1      38.818  32.571  33.466  1.00  0.00    -0.354 N 
ATOM     42  C   UNL A   1      39.357  29.749  30.211  1.00  0.00     0.074 A 
ATOM     43  C   UNL A   1      38.388  29.975  29.165  1.00  0.00     0.031 C 
ATOM     44  C   UNL A   1      37.781  34.197  34.598  1.00  0.00     0.029 A 
ATOM     45  C   UNL A   1      38.868  33.227  34.671  1.00  0.00     0.049 A 
ATOM     46  H   UNL A   1      39.443  31.850  33.218  1.00  0.00     0.167 HD
ATOM     47  C   UNL A   1      40.309  28.788  30.170  1.00  0.00     0.037 A 
ATOM     48  C   UNL A   1      39.696  33.058  35.720  1.00  0.00     0.037 A 
ATOM     49  C   UNL A   1      41.307  28.608  31.190  1.00  0.00     0.049 A 
ATOM     50  C   UNL A   1      40.776  32.013  35.628  1.00  0.00     0.074 A 
ATOM     51  C   UNL A   1      42.375  27.731  31.208  1.00  0.00     0.029 A 
ATOM     52  N   UNL A   1      41.360  29.331  32.374  1.00  0.00    -0.354 N 
ATOM     53  N   UNL A   1      41.034  31.171  34.656  1.00  0.00    -0.248 NA
ATOM     54  C   UNL A   1      41.687  31.903  36.774  1.00  0.00     0.031 C 
ATOM     55  C   UNL A   1      43.045  27.886  32.426  1.00  0.00     0.029 A 
ATOM     56  C   UNL A   1      42.430  28.902  33.140  1.00  0.00     0.049 A 
ATOM     57  H   UNL A   1      40.730  30.043  32.631  1.00  0.00     0.167 HD
ATOM     58  C   UNL A   1      42.148  30.450  35.061  1.00  0.00     0.074 A 
ATOM     59  C   UNL A   1      42.533  30.973  36.356  1.00  0.00     0.031 C 
ATOM     60  C   UNL A   1      42.794  29.442  34.424  1.00  0.00     0.037 A 
BRANCH  47  61
ATOM     61  C   UNL A   1      40.331  27.869  28.981  1.00  0.00     0.064 A 
ATOM     62  C   UNL A   1      41.080  28.166  27.831  1.00  0.00     0.173 A 
ATOM     63  C   UNL A   1      39.628  26.655  29.007  1.00  0.00     0.173 A 
ATOM     64  F   UNL A   1      41.761  29.319  27.746  1.00  0.00    -0.203 F 
ATOM     65  C   UNL A   1      41.101  27.297  26.742  1.00  0.00     0.198 A 
ATOM     66  C   UNL A   1      39.679  25.773  27.930  1.00  0.00     0.198 A 
ATOM     67  F   UNL A   1      38.898  26.318  30.080  1.00  0.00    -0.203 F 
ATOM     68  F   UNL A   1      41.780  27.628  25.635  1.00  0.00    -0.200 F 
ATOM     69  C   UNL A   1      40.408  26.097  26.797  1.00  0.00     0.200 A 
ATOM     70  F   UNL A   1      39.020  24.606  27.990  1.00  0.00    -0.200 F 
ATOM     71  F   UNL A   1      40.439  25.256  25.754  1.00  0.00    -0.200 F 
ENDBRANCH  47  61
BRANCH  48  72
ATOM     72  C   UNL A   1      39.558  33.914  36.929  1.00  0.00     0.064 A 
ATOM     73  C   UNL A   1      38.790  33.496  38.025  1.00  0.00     0.173 A 
ATOM     74  C   UNL A   1      40.177  35.170  37.011  1.00  0.00     0.173 A 
ATOM     75  F   UNL A   1      38.165  32.310  37.990  1.00  0.00    -0.203 F 
ATOM     76  C   UNL A   1      38.623  34.311  39.143  1.00  0.00     0.198 A 
ATOM     77  C   UNL A   1      40.037  35.971  38.143  1.00  0.00     0.198 A 
ATOM     78  F   UNL A   1      40.932  35.615  35.996  1.00  0.00    -0.203 F 
ATOM     79  F   UNL A   1      37.838  33.908  40.151  1.00  0.00    -0.200 F 
ATOM     80  C   UNL A   1      39.250  35.546  39.203  1.00  0.00     0.200 A 
ATOM     81  F   UNL A   1      40.661  37.155  38.206  1.00  0.00    -0.200 F 
ATOM     82  F   UNL A   1      39.090  36.329  40.279  1.00  0.00    -0.200 F 
ENDBRANCH  48  72
BRANCH  60  83
ATOM     83  C   UNL A   1      44.000  28.865  35.108  1.00  0.00     0.064 A 
ATOM     84  C   UNL A   1      43.898  27.779  35.989  1.00  0.00     0.173 A 
ATOM     85  C   UNL A   1      45.277  29.390  34.855  1.00  0.00     0.173 A 
ATOM     86  F   UNL A   1      42.698  27.250  36.273  1.00  0.00    -0.203 F 
ATOM     87  C   UNL A   1      45.025  27.264  36.621  1.00  0.00     0.198 A 
ATOM     88  C   UNL A   1      46.406  28.848  35.460  1.00  0.00     0.198 A 
ATOM     89  F   UNL A   1      45.430  30.422  34.012  1.00  0.00    -0.203 F 
ATOM     90  F   UNL A   1      44.897  26.266  37.506  1.00  0.00    -0.200 F 
ATOM     91  C   UNL A   1      46.278  27.794  36.352  1.00  0.00     0.200 A 
ATOM     92  F   UNL A   1      47.618  29.349  35.185  1.00  0.00    -0.200 F 
ATOM     93  F   UNL A   1      47.363  27.293  36.959  1.00  0.00    -0.200 F 
ENDBRANCH  60  83
ENDBRANCH  34  35
ENDBRANCH  26  29
ENDBRANCH  24  25
ENDBRANCH  23  24
ENDBRANCH   1  23
TORSDOF 14
ENDMDL
MODEL 3
REMARK VINA RESULT:     -12.3      0.982      1.663
REMARK SMILES CC(C)[C@@H]1CCCN1C(=O)N1CCO[C@H](CC(=O)NCCCNC(=O)c2ccc(-c3c4nc(c(-c5c(F)c(F)c(F)c(F)c5F)c5ccc([nH]5)c(-c5c(F)c(F)c(F)c(F)c5F)c5nc(c(-c6c(F)c(F)c(F)c(F)c6F)c6ccc3[nH]6)C=C5)C=C4)cc2)C1
REMARK SMILES IDX 20 1 19 2 17 3 18 4 16 6 15 7 11 8 12 9 89 10 13 11 14 12
REMARK SMILES IDX 9 13 10 14 8 15 4 16 5 17 6 18 7 19 2 20 1 21 3 22 21 23
REMARK SMILES IDX 22 24 23 25 24 26 25 28 26 29 27 30 88 31 28 32 87 33 29 34
REMARK SMILES IDX 30 35 31 36 81 37 32 38 86 39 80 40 82 41 33 42 85 43 79 44
REMARK SMILES IDX 78 45 34 47 66 48 46 49 65 50 47 51 50 52 64 53 83 54 48 55
REMARK SMILES IDX 49 56 63 58 84 59 51 60 35 61 36 62 44 63 37 64 38 65 42 66
REMARK SMILES IDX 45 67 39 68 40 69 43 70 41 71 67 72 68 73 76 74 69 75 70 76
REMARK SMILES IDX 74 77 77 78 71 79 72 80 75 81 73 82 52 83 53 84 61 85 54 86
REMARK SMILES IDX 55 87 59 88 62 89 56 90 57 91 60 92 58 93
REMARK H PARENT 19 5 23 27 82 46 50 57
REMARK Flexibility Score: inf
ROOT
ATOM      1  C   UNL A   1      31.561  30.857  26.155  1.00  0.00     0.117 C 
ENDROOT
BRANCH   1   2
ATOM      2  N   UNL A   1      32.848  30.339  26.552  1.00  0.00    -0.356 N 
ATOM      3  C   UNL A   1      33.475  29.218  26.084  1.00  0.00     0.222 C 
ATOM      4  O   UNL A   1      34.576  28.915  26.543  1.00  0.00    -0.275 OA
ATOM      5  H   UNL A   1      33.331  30.852  27.241  1.00  0.00     0.163 HD
BRANCH   3   6
ATOM      6  C   UNL A   1      32.842  28.428  24.965  1.00  0.00     0.133 C 
BRANCH   6   7
ATOM      7  C   UNL A   1      32.023  27.211  25.409  1.00  0.00     0.147 C 
ATOM      8  N   UNL A   1      32.438  25.821  23.433  1.00  0.00    -0.320 N 
ATOM      9  C   UNL A   1      31.017  25.610  23.219  1.00  0.00     0.150 C 
ATOM     10  C   UNL A   1      32.708  25.949  24.863  1.00  0.00     0.154 C 
ATOM     11  C   UNL A   1      30.214  26.770  23.802  1.00  0.00     0.182 C 
ATOM     12  O   UNL A   1      30.618  27.232  25.096  1.00  0.00    -0.374 OA
BRANCH   8  13
ATOM     13  C   UNL A   1      33.316  25.042  22.716  1.00  0.00     0.320 C 
ATOM     14  O   UNL A   1      33.825  25.470  21.681  1.00  0.00    -0.248 OA
BRANCH  13  15
ATOM     15  N   UNL A   1      33.524  23.757  23.173  1.00  0.00    -0.321 N 
ATOM     16  C   UNL A   1      34.352  23.224  24.271  1.00  0.00     0.089 C 
ATOM     17  C   UNL A   1      34.154  21.701  24.170  1.00  0.00     0.027 C 
ATOM     18  C   UNL A   1      32.746  21.565  23.630  1.00  0.00     0.024 C 
ATOM     19  C   UNL A   1      32.651  22.718  22.646  1.00  0.00     0.122 C 
BRANCH  16  20
ATOM     20  C   UNL A   1      35.846  23.604  24.296  1.00  0.00     0.005 C 
ATOM     21  C   UNL A   1      36.355  23.792  25.734  1.00  0.00     0.009 C 
ATOM     22  C   UNL A   1      36.781  22.653  23.553  1.00  0.00     0.009 C 
ENDBRANCH  16  20
ENDBRANCH  13  15
ENDBRANCH   8  13
ENDBRANCH   6   7
ENDBRANCH   3   6
ENDBRANCH   1   2
BRANCH   1  23
ATOM     23  C   UNL A   1      31.376  32.318  26.525  1.00  0.00     0.042 C 
BRANCH  23  24
ATOM     24  C   UNL A   1      32.541  32.848  27.332  1.00  0.00     0.118 C 
BRANCH  24  25
ATOM     25  N   UNL A   1      32.383  34.267  27.648  1.00  0.00    -0.352 N 
ATOM     26  C   UNL A   1      32.954  35.034  28.637  1.00  0.00     0.251 C 
ATOM     27  H   UNL A   1      31.765  34.755  27.057  1.00  0.00     0.163 HD
ATOM     28  O   UNL A   1      32.494  36.148  28.882  1.00  0.00    -0.269 OA
BRANCH  26  29
ATOM     29  C   UNL A   1      34.104  34.522  29.411  1.00  0.00     0.039 A 
ATOM     30  C   UNL A   1      33.905  33.995  30.691  1.00  0.00     0.014 A 
ATOM     31  C   UNL A   1      35.391  34.566  28.878  1.00  0.00     0.014 A 
ATOM     32  C   UNL A   1      34.984  33.445  31.389  1.00  0.00     0.010 A 
ATOM     33  C   UNL A   1      36.423  33.882  29.498  1.00  0.00     0.010 A 
ATOM     34  C   UNL A   1      36.244  33.339  30.776  1.00  0.00    -0.014 A 
BRANCH  34  35
ATOM     35  C   UNL A   1      37.404  32.702  31.450  1.00  0.00     0.031 A 
ATOM     36  C   UNL A   1      38.111  31.546  30.786  1.00  0.00     0.074 A 
ATOM     37  C   UNL A   1      37.754  33.093  32.690  1.00  0.00     0.049 A 
ATOM     38  N   UNL A   1      39.063  30.777  31.253  1.00  0.00    -0.248 NA
ATOM     39  C   UNL A   1      37.653  31.169  29.437  1.00  0.00     0.031 C 
ATOM     40  C   UNL A   1      37.091  34.142  33.469  1.00  0.00     0.029 A 
ATOM     41  N   UNL A   1      38.748  32.644  33.523  1.00  0.00    -0.354 N 
ATOM     42  C   UNL A   1      39.284  29.815  30.274  1.00  0.00     0.074 A 
ATOM     43  C   UNL A   1      38.323  30.048  29.221  1.00  0.00     0.031 C 
ATOM     44  C   UNL A   1      37.717  34.279  34.647  1.00  0.00     0.029 A 
ATOM     45  C   UNL A   1      38.795  33.301  34.728  1.00  0.00     0.049 A 
ATOM     46  H   UNL A   1      39.368  31.919  33.279  1.00  0.00     0.167 HD
ATOM     47  C   UNL A   1      40.228  28.846  30.240  1.00  0.00     0.037 A 
ATOM     48  C   UNL A   1      39.616  33.126  35.782  1.00  0.00     0.037 A 
ATOM     49  C   UNL A   1      41.219  28.660  31.266  1.00  0.00     0.049 A 
ATOM     50  C   UNL A   1      40.687  32.072  35.697  1.00  0.00     0.074 A 
ATOM     51  C   UNL A   1      42.279  27.774  31.292  1.00  0.00     0.029 A 
ATOM     52  N   UNL A   1      41.270  29.383  32.449  1.00  0.00    -0.354 N 
ATOM     53  N   UNL A   1      40.945  31.228  34.728  1.00  0.00    -0.248 NA
ATOM     54  C   UNL A   1      41.591  31.956  36.850  1.00  0.00     0.031 C 
ATOM     55  C   UNL A   1      42.943  27.924  32.513  1.00  0.00     0.029 A 
ATOM     56  C   UNL A   1      42.332  28.946  33.223  1.00  0.00     0.049 A 
ATOM     57  H   UNL A   1      40.644  30.100  32.702  1.00  0.00     0.167 HD
ATOM     58  C   UNL A   1      42.050  30.498  35.141  1.00  0.00     0.074 A 
ATOM     59  C   UNL A   1      42.432  31.019  36.437  1.00  0.00     0.031 C 
ATOM     60  C   UNL A   1      42.692  29.484  34.509  1.00  0.00     0.037 A 
BRANCH  47  61
ATOM     61  C   UNL A   1      40.251  27.927  29.051  1.00  0.00     0.064 A 
ATOM     62  C   UNL A   1      40.995  28.225  27.899  1.00  0.00     0.173 A 
ATOM     63  C   UNL A   1      39.552  26.710  29.080  1.00  0.00     0.173 A 
ATOM     64  F   UNL A   1      41.672  29.380  27.811  1.00  0.00    -0.203 F 
ATOM     65  C   UNL A   1      41.016  27.355  26.811  1.00  0.00     0.198 A 
ATOM     66  C   UNL A   1      39.603  25.827  28.005  1.00  0.00     0.198 A 
ATOM     67  F   UNL A   1      38.826  26.372  30.156  1.00  0.00    -0.203 F 
ATOM     68  F   UNL A   1      41.692  27.687  25.702  1.00  0.00    -0.200 F 
ATOM     69  C   UNL A   1      40.328  26.152  26.869  1.00  0.00     0.200 A 
ATOM     70  F   UNL A   1      38.948  24.658  28.067  1.00  0.00    -0.200 F 
ATOM     71  F   UNL A   1      40.359  25.310  25.826  1.00  0.00    -0.200 F 
ENDBRANCH  47  61
BRANCH  48  72
ATOM     72  C   UNL A   1      39.477  33.985  36.989  1.00  0.00     0.064 A 
ATOM     73  C   UNL A   1      40.076  35.252  37.046  1.00  0.00     0.173 A 
ATOM     74  C   UNL A   1      38.756  33.556  38.113  1.00  0.00     0.173 A 
ATOM     75  F   UNL A   1      40.790  35.702  36.004  1.00  0.00    -0.203 F 
ATOM     76  C   UNL A   1      39.985  36.043  38.190  1.00  0.00     0.198 A 
ATOM     77  C   UNL A   1      38.636  34.362  39.244  1.00  0.00     0.198 A 
ATOM     78  F   UNL A   1      38.154  32.358  38.109  1.00  0.00    -0.203 F 
ATOM     79  F   UNL A   1      40.614  37.224  38.235  1.00  0.00    -0.200 F 
ATOM     80  C   UNL A   1      39.261  35.599  39.286  1.00  0.00     0.200 A 
ATOM     81  F   UNL A   1      37.920  33.939  40.294  1.00  0.00    -0.200 F 
ATOM     82  F   UNL A   1      39.172  36.361  40.385  1.00  0.00    -0.200 F 
ENDBRANCH  48  72
BRANCH  60  83
ATOM     83  C   UNL A   1      43.889  28.898  35.200  1.00  0.00     0.064 A 
ATOM     84  C   UNL A   1      45.183  29.393  34.980  1.00  0.00     0.173 A 
ATOM     85  C   UNL A   1      43.734  27.845  36.115  1.00  0.00     0.173 A 
ATOM     86  F   UNL A   1      45.385  30.391  34.106  1.00  0.00    -0.203 F 
ATOM     87  C   UNL A   1      46.281  28.831  35.623  1.00  0.00     0.198 A 
ATOM     88  C   UNL A   1      44.830  27.311  36.783  1.00  0.00     0.198 A 
ATOM     89  F   UNL A   1      42.516  27.342  36.369  1.00  0.00    -0.203 F 
ATOM     90  F   UNL A   1      47.515  29.279  35.352  1.00  0.00    -0.200 F 
ATOM     91  C   UNL A   1      46.104  27.795  36.528  1.00  0.00     0.200 A 
ATOM     92  F   UNL A   1      44.656  26.322  37.671  1.00  0.00    -0.200 F 
ATOM     93  F   UNL A   1      47.163  27.258  37.149  1.00  0.00    -0.200 F 
ENDBRANCH  60  83
ENDBRANCH  34  35
ENDBRANCH  26  29
ENDBRANCH  24  25
ENDBRANCH  23  24
ENDBRANCH   1  23
TORSDOF 14
ENDMDL
