MODEL 1
REMARK VINA RESULT:     -12.7      0.000      0.000
REMARK SMILES Cc1cccc(C(=O)NCCCNC(=O)c2ccc(-c3c4nc(c(-c5c(F)c(F)c(F)c(F)c5F)c5ccc([nH]5)c(-c5c(F)c(F)c(F)c(F)c5F)c5nc(c(-c6c(F)c(F)c(F)c(F)c6F)c6ccc3[nH]6)C=C5)C=C4)cc2)c1O[C@H](C)[C@H](C)O
REMARK SMILES IDX 10 1 9 2 7 3 8 4 6 6 1 7 2 8 3 9 79 10 4 11 5 12 80 13 81 14
REMARK SMILES IDX 82 15 83 16 84 17 85 18 11 20 12 21 13 22 14 23 15 25 16 26
REMARK SMILES IDX 17 27 78 28 18 29 77 30 19 31 20 32 21 33 71 34 22 35 76 36
REMARK SMILES IDX 70 37 72 38 23 39 75 40 69 41 68 42 24 44 56 45 36 46 55 47
REMARK SMILES IDX 37 48 40 49 54 50 73 51 38 52 39 53 53 55 74 56 41 57 25 58
REMARK SMILES IDX 26 59 34 60 27 61 28 62 32 63 35 64 29 65 30 66 33 67 31 68
REMARK SMILES IDX 57 69 58 70 66 71 59 72 60 73 64 74 67 75 61 76 62 77 65 78
REMARK SMILES IDX 63 79 42 80 43 81 51 82 44 83 45 84 49 85 52 86 46 87 47 88
REMARK SMILES IDX 50 89 48 90
REMARK H PARENT 9 5 85 19 13 24 72 43 40 54
REMARK Flexibility Score: inf
ROOT
ATOM      1  C   UNL A   1      37.848  20.988  24.959  1.00  0.00     0.118 C 
ENDROOT
BRANCH   1   2
ATOM      2  N   UNL A   1      36.820  21.807  24.166  1.00  0.00    -0.352 N 
ATOM      3  C   UNL A   1      35.764  22.691  23.973  1.00  0.00     0.255 C 
ATOM      4  O   UNL A   1      35.815  23.019  22.766  1.00  0.00    -0.269 OA
ATOM      5  H   UNL A   1      37.042  21.559  23.240  1.00  0.00     0.163 HD
BRANCH   3   6
ATOM      6  C   UNL A   1      34.600  23.371  24.746  1.00  0.00     0.082 A 
ATOM      7  C   UNL A   1      31.368  23.329  26.875  1.00  0.00     0.048 C 
ATOM      8  C   UNL A   1      32.539  23.856  26.075  1.00  0.00    -0.008 A 
ATOM      9  C   UNL A   1      32.802  25.219  26.095  1.00  0.00     0.007 A 
ATOM     10  C   UNL A   1      33.340  22.979  25.280  1.00  0.00     0.135 A 
ATOM     11  C   UNL A   1      33.909  25.688  25.420  1.00  0.00     0.001 A 
ATOM     12  C   UNL A   1      34.801  24.783  24.819  1.00  0.00     0.018 A 
BRANCH  10  13
ATOM     13  O   UNL A   1      32.590  21.844  25.070  1.00  0.00    -0.487 OA
BRANCH  13  14
ATOM     14  C   UNL A   1      32.857  21.111  23.891  1.00  0.00     0.198 C 
ATOM     15  C   UNL A   1      32.077  21.952  22.843  1.00  0.00     0.056 C 
BRANCH  14  16
ATOM     16  C   UNL A   1      32.919  19.601  24.411  1.00  0.00     0.151 C 
ATOM     17  C   UNL A   1      32.467  18.647  23.303  1.00  0.00     0.042 C 
BRANCH  16  18
ATOM     18  O   UNL A   1      32.164  19.174  25.535  1.00  0.00    -0.390 OA
ATOM     19  H   UNL A   1      32.359  19.747  26.293  1.00  0.00     0.211 HD
ENDBRANCH  16  18
ENDBRANCH  14  16
ENDBRANCH  13  14
ENDBRANCH  10  13
ENDBRANCH   3   6
ENDBRANCH   1   2
BRANCH   1  20
ATOM     20  C   UNL A   1      39.051  21.487  25.815  1.00  0.00     0.042 C 
BRANCH  20  21
ATOM     21  C   UNL A   1      39.173  22.936  26.288  1.00  0.00     0.118 C 
BRANCH  21  22
ATOM     22  N   UNL A   1      40.612  23.274  26.482  1.00  0.00    -0.352 N 
ATOM     23  C   UNL A   1      41.240  24.470  26.811  1.00  0.00     0.251 C 
ATOM     24  H   UNL A   1      41.227  22.517  26.355  1.00  0.00     0.163 HD
ATOM     25  O   UNL A   1      42.422  24.554  27.005  1.00  0.00    -0.269 OA
BRANCH  23  26
ATOM     26  C   UNL A   1      40.347  25.621  27.032  1.00  0.00     0.039 A 
ATOM     27  C   UNL A   1      40.751  26.806  26.410  1.00  0.00     0.014 A 
ATOM     28  C   UNL A   1      39.577  25.601  28.188  1.00  0.00     0.014 A 
ATOM     29  C   UNL A   1      40.652  27.982  27.130  1.00  0.00     0.010 A 
ATOM     30  C   UNL A   1      39.546  26.760  28.931  1.00  0.00     0.010 A 
ATOM     31  C   UNL A   1      40.174  27.914  28.437  1.00  0.00    -0.014 A 
BRANCH  31  32
ATOM     32  C   UNL A   1      40.322  29.014  29.374  1.00  0.00     0.031 A 
ATOM     33  C   UNL A   1      39.245  30.015  29.415  1.00  0.00     0.074 A 
ATOM     34  C   UNL A   1      41.406  29.112  30.173  1.00  0.00     0.049 A 
ATOM     35  N   UNL A   1      39.383  31.223  29.833  1.00  0.00    -0.248 NA
ATOM     36  C   UNL A   1      37.917  29.734  28.885  1.00  0.00     0.031 C 
ATOM     37  C   UNL A   1      41.604  30.037  31.287  1.00  0.00     0.029 A 
ATOM     38  N   UNL A   1      42.668  28.513  29.994  1.00  0.00    -0.354 N 
ATOM     39  C   UNL A   1      38.136  31.804  29.858  1.00  0.00     0.074 A 
ATOM     40  C   UNL A   1      37.272  30.859  29.195  1.00  0.00     0.031 C 
ATOM     41  C   UNL A   1      42.922  30.196  31.489  1.00  0.00     0.029 A 
ATOM     42  C   UNL A   1      43.605  29.485  30.422  1.00  0.00     0.049 A 
ATOM     43  H   UNL A   1      42.858  27.612  29.645  1.00  0.00     0.167 HD
ATOM     44  C   UNL A   1      37.975  32.968  30.550  1.00  0.00     0.037 A 
ATOM     45  C   UNL A   1      44.513  30.039  29.566  1.00  0.00     0.037 A 
ATOM     46  C   UNL A   1      39.272  33.487  30.984  1.00  0.00     0.049 A 
ATOM     47  C   UNL A   1      44.411  31.543  29.473  1.00  0.00     0.074 A 
ATOM     48  C   UNL A   1      39.979  33.383  32.171  1.00  0.00     0.029 A 
ATOM     49  N   UNL A   1      40.179  33.926  30.024  1.00  0.00    -0.354 N 
ATOM     50  N   UNL A   1      43.338  32.215  29.789  1.00  0.00    -0.248 NA
ATOM     51  C   UNL A   1      45.488  32.402  28.988  1.00  0.00     0.031 C 
ATOM     52  C   UNL A   1      41.335  33.702  31.903  1.00  0.00     0.029 A 
ATOM     53  C   UNL A   1      41.447  34.030  30.563  1.00  0.00     0.049 A 
ATOM     54  H   UNL A   1      39.949  34.134  29.089  1.00  0.00     0.167 HD
ATOM     55  C   UNL A   1      43.547  33.548  29.548  1.00  0.00     0.074 A 
ATOM     56  C   UNL A   1      44.914  33.616  29.064  1.00  0.00     0.031 C 
ATOM     57  C   UNL A   1      42.569  34.479  29.751  1.00  0.00     0.037 A 
BRANCH  44  58
ATOM     58  C   UNL A   1      36.644  33.464  31.080  1.00  0.00     0.064 A 
ATOM     59  C   UNL A   1      35.656  33.943  30.191  1.00  0.00     0.173 A 
ATOM     60  C   UNL A   1      36.303  33.582  32.440  1.00  0.00     0.173 A 
ATOM     61  F   UNL A   1      35.783  33.803  28.865  1.00  0.00    -0.203 F 
ATOM     62  C   UNL A   1      34.496  34.590  30.629  1.00  0.00     0.198 A 
ATOM     63  C   UNL A   1      35.173  34.279  32.881  1.00  0.00     0.198 A 
ATOM     64  F   UNL A   1      37.003  32.969  33.398  1.00  0.00    -0.203 F 
ATOM     65  F   UNL A   1      33.601  35.029  29.733  1.00  0.00    -0.200 F 
ATOM     66  C   UNL A   1      34.274  34.794  31.974  1.00  0.00     0.200 A 
ATOM     67  F   UNL A   1      34.963  34.438  34.196  1.00  0.00    -0.200 F 
ATOM     68  F   UNL A   1      33.185  35.451  32.395  1.00  0.00    -0.200 F 
ENDBRANCH  44  58
BRANCH  45  69
ATOM     69  C   UNL A   1      44.891  29.132  28.450  1.00  0.00     0.064 A 
ATOM     70  C   UNL A   1      45.709  28.022  28.743  1.00  0.00     0.173 A 
ATOM     71  C   UNL A   1      44.174  29.106  27.249  1.00  0.00     0.173 A 
ATOM     72  F   UNL A   1      46.421  27.994  29.882  1.00  0.00    -0.203 F 
ATOM     73  C   UNL A   1      45.693  26.879  27.947  1.00  0.00     0.198 A 
ATOM     74  C   UNL A   1      44.180  27.967  26.440  1.00  0.00     0.198 A 
ATOM     75  F   UNL A   1      43.374  30.129  26.913  1.00  0.00    -0.203 F 
ATOM     76  F   UNL A   1      46.367  25.787  28.334  1.00  0.00    -0.200 F 
ATOM     77  C   UNL A   1      44.905  26.842  26.810  1.00  0.00     0.200 A 
ATOM     78  F   UNL A   1      43.401  27.921  25.350  1.00  0.00    -0.200 F 
ATOM     79  F   UNL A   1      44.806  25.711  26.099  1.00  0.00    -0.200 F 
ENDBRANCH  45  69
BRANCH  57  80
ATOM     80  C   UNL A   1      42.593  35.915  29.281  1.00  0.00     0.064 A 
ATOM     81  C   UNL A   1      43.347  36.929  29.893  1.00  0.00     0.173 A 
ATOM     82  C   UNL A   1      41.960  36.277  28.066  1.00  0.00     0.173 A 
ATOM     83  F   UNL A   1      44.086  36.690  30.984  1.00  0.00    -0.203 F 
ATOM     84  C   UNL A   1      43.419  38.220  29.360  1.00  0.00     0.198 A 
ATOM     85  C   UNL A   1      42.087  37.547  27.504  1.00  0.00     0.198 A 
ATOM     86  F   UNL A   1      41.226  35.398  27.367  1.00  0.00    -0.203 F 
ATOM     87  F   UNL A   1      44.122  39.163  30.003  1.00  0.00    -0.200 F 
ATOM     88  C   UNL A   1      42.805  38.524  28.160  1.00  0.00     0.200 A 
ATOM     89  F   UNL A   1      41.530  37.807  26.313  1.00  0.00    -0.200 F 
ATOM     90  F   UNL A   1      42.922  39.747  27.627  1.00  0.00    -0.200 F 
ENDBRANCH  57  80
ENDBRANCH  31  32
ENDBRANCH  23  26
ENDBRANCH  21  22
ENDBRANCH  20  21
ENDBRANCH   1  20
TORSDOF 14
ENDMDL
MODEL 2
REMARK VINA RESULT:     -12.5      1.409      2.287
REMARK SMILES Cc1cccc(C(=O)NCCCNC(=O)c2ccc(-c3c4nc(c(-c5c(F)c(F)c(F)c(F)c5F)c5ccc([nH]5)c(-c5c(F)c(F)c(F)c(F)c5F)c5nc(c(-c6c(F)c(F)c(F)c(F)c6F)c6ccc3[nH]6)C=C5)C=C4)cc2)c1O[C@H](C)[C@H](C)O
REMARK SMILES IDX 10 1 9 2 7 3 8 4 6 6 1 7 2 8 3 9 79 10 4 11 5 12 80 13 81 14
REMARK SMILES IDX 82 15 83 16 84 17 85 18 11 20 12 21 13 22 14 23 15 25 16 26
REMARK SMILES IDX 17 27 78 28 18 29 77 30 19 31 20 32 21 33 71 34 22 35 76 36
REMARK SMILES IDX 70 37 72 38 23 39 75 40 69 41 68 42 24 44 56 45 36 46 55 47
REMARK SMILES IDX 37 48 40 49 54 50 73 51 38 52 39 53 53 55 74 56 41 57 25 58
REMARK SMILES IDX 26 59 34 60 27 61 28 62 32 63 35 64 29 65 30 66 33 67 31 68
REMARK SMILES IDX 57 69 58 70 66 71 59 72 60 73 64 74 67 75 61 76 62 77 65 78
REMARK SMILES IDX 63 79 42 80 43 81 51 82 44 83 45 84 49 85 52 86 46 87 47 88
REMARK SMILES IDX 50 89 48 90
REMARK H PARENT 9 5 85 19 13 24 72 43 40 54
REMARK Flexibility Score: inf
ROOT
ATOM      1  C   UNL A   1      37.629  19.947  24.733  1.00  0.00     0.118 C 
ENDROOT
BRANCH   1   2
ATOM      2  N   UNL A   1      36.119  19.850  24.993  1.00  0.00    -0.352 N 
ATOM      3  C   UNL A   1      34.838  20.310  25.275  1.00  0.00     0.255 C 
ATOM      4  O   UNL A   1      34.067  19.377  24.957  1.00  0.00    -0.269 OA
ATOM      5  H   UNL A   1      35.968  18.881  24.912  1.00  0.00     0.163 HD
BRANCH   3   6
ATOM      6  C   UNL A   1      34.096  21.559  25.826  1.00  0.00     0.082 A 
ATOM      7  C   UNL A   1      32.488  25.063  25.479  1.00  0.00     0.048 C 
ATOM      8  C   UNL A   1      32.983  23.780  26.110  1.00  0.00    -0.008 A 
ATOM      9  C   UNL A   1      32.622  23.497  27.420  1.00  0.00     0.007 A 
ATOM     10  C   UNL A   1      33.839  22.890  25.390  1.00  0.00     0.135 A 
ATOM     11  C   UNL A   1      33.018  22.296  27.970  1.00  0.00     0.001 A 
ATOM     12  C   UNL A   1      33.682  21.345  27.176  1.00  0.00     0.018 A 
BRANCH  10  13
ATOM     13  O   UNL A   1      34.398  23.624  24.368  1.00  0.00    -0.487 OA
BRANCH  13  14
ATOM     14  C   UNL A   1      34.635  22.945  23.150  1.00  0.00     0.198 C 
ATOM     15  C   UNL A   1      36.173  23.121  23.015  1.00  0.00     0.056 C 
BRANCH  14  16
ATOM     16  C   UNL A   1      33.314  23.251  22.305  1.00  0.00     0.151 C 
ATOM     17  C   UNL A   1      32.383  22.036  22.334  1.00  0.00     0.042 C 
BRANCH  16  18
ATOM     18  O   UNL A   1      33.377  23.578  20.924  1.00  0.00    -0.390 OA
ATOM     19  H   UNL A   1      32.533  23.964  20.645  1.00  0.00     0.211 HD
ENDBRANCH  16  18
ENDBRANCH  14  16
ENDBRANCH  13  14
ENDBRANCH  10  13
ENDBRANCH   3   6
ENDBRANCH   1   2
BRANCH   1  20
ATOM     20  C   UNL A   1      38.747  20.530  25.650  1.00  0.00     0.042 C 
BRANCH  20  21
ATOM     21  C   UNL A   1      38.955  22.033  25.831  1.00  0.00     0.118 C 
BRANCH  21  22
ATOM     22  N   UNL A   1      40.384  22.299  26.164  1.00  0.00    -0.352 N 
ATOM     23  C   UNL A   1      41.036  23.461  26.558  1.00  0.00     0.251 C 
ATOM     24  H   UNL A   1      40.970  21.511  26.093  1.00  0.00     0.163 HD
ATOM     25  O   UNL A   1      42.197  23.486  26.865  1.00  0.00    -0.269 OA
BRANCH  23  26
ATOM     26  C   UNL A   1      40.185  24.655  26.698  1.00  0.00     0.039 A 
ATOM     27  C   UNL A   1      40.721  25.826  26.155  1.00  0.00     0.014 A 
ATOM     28  C   UNL A   1      39.284  24.660  27.756  1.00  0.00     0.014 A 
ATOM     29  C   UNL A   1      40.600  26.995  26.884  1.00  0.00     0.010 A 
ATOM     30  C   UNL A   1      39.227  25.806  28.516  1.00  0.00     0.010 A 
ATOM     31  C   UNL A   1      39.968  26.932  28.124  1.00  0.00    -0.014 A 
BRANCH  31  32
ATOM     32  C   UNL A   1      40.062  28.007  29.096  1.00  0.00     0.031 A 
ATOM     33  C   UNL A   1      39.116  29.125  28.960  1.00  0.00     0.074 A 
ATOM     34  C   UNL A   1      40.983  27.980  30.085  1.00  0.00     0.049 A 
ATOM     35  N   UNL A   1      39.310  30.309  29.422  1.00  0.00    -0.248 NA
ATOM     36  C   UNL A   1      37.887  28.999  28.187  1.00  0.00     0.031 C 
ATOM     37  C   UNL A   1      41.072  28.875  31.236  1.00  0.00     0.029 A 
ATOM     38  N   UNL A   1      42.180  27.239  30.129  1.00  0.00    -0.354 N 
ATOM     39  C   UNL A   1      38.153  31.030  29.229  1.00  0.00     0.074 A 
ATOM     40  C   UNL A   1      37.327  30.190  28.397  1.00  0.00     0.031 C 
ATOM     41  C   UNL A   1      42.339  28.881  31.681  1.00  0.00     0.029 A 
ATOM     42  C   UNL A   1      43.124  28.098  30.744  1.00  0.00     0.049 A 
ATOM     43  H   UNL A   1      42.329  26.323  29.801  1.00  0.00     0.167 HD
ATOM     44  C   UNL A   1      37.998  32.204  29.904  1.00  0.00     0.037 A 
ATOM     45  C   UNL A   1      44.232  28.544  30.084  1.00  0.00     0.037 A 
ATOM     46  C   UNL A   1      39.242  32.570  30.582  1.00  0.00     0.049 A 
ATOM     47  C   UNL A   1      44.319  30.050  30.005  1.00  0.00     0.074 A 
ATOM     48  C   UNL A   1      39.699  32.385  31.877  1.00  0.00     0.029 A 
ATOM     49  N   UNL A   1      40.356  32.903  29.816  1.00  0.00    -0.354 N 
ATOM     50  N   UNL A   1      43.290  30.840  30.133  1.00  0.00    -0.248 NA
ATOM     51  C   UNL A   1      45.558  30.779  29.747  1.00  0.00     0.031 C 
ATOM     52  C   UNL A   1      41.109  32.546  31.872  1.00  0.00     0.029 A 
ATOM     53  C   UNL A   1      41.504  32.860  30.583  1.00  0.00     0.049 A 
ATOM     54  H   UNL A   1      40.329  33.136  28.860  1.00  0.00     0.167 HD
ATOM     55  C   UNL A   1      43.689  32.140  29.964  1.00  0.00     0.074 A 
ATOM     56  C   UNL A   1      45.121  32.051  29.743  1.00  0.00     0.031 C 
ATOM     57  C   UNL A   1      42.801  33.178  30.003  1.00  0.00     0.037 A 
BRANCH  44  58
ATOM     58  C   UNL A   1      36.656  32.849  30.190  1.00  0.00     0.064 A 
ATOM     59  C   UNL A   1      35.971  33.549  29.172  1.00  0.00     0.173 A 
ATOM     60  C   UNL A   1      36.029  32.899  31.448  1.00  0.00     0.173 A 
ATOM     61  F   UNL A   1      36.381  33.507  27.897  1.00  0.00    -0.203 F 
ATOM     62  C   UNL A   1      34.834  34.325  29.423  1.00  0.00     0.198 A 
ATOM     63  C   UNL A   1      34.928  33.720  31.714  1.00  0.00     0.198 A 
ATOM     64  F   UNL A   1      36.404  32.105  32.454  1.00  0.00    -0.203 F 
ATOM     65  F   UNL A   1      34.235  34.972  28.414  1.00  0.00    -0.200 F 
ATOM     66  C   UNL A   1      34.336  34.442  30.703  1.00  0.00     0.200 A 
ATOM     67  F   UNL A   1      34.442  33.793  32.962  1.00  0.00    -0.200 F 
ATOM     68  F   UNL A   1      33.274  35.220  30.954  1.00  0.00    -0.200 F 
ENDBRANCH  44  58
BRANCH  45  69
ATOM     69  C   UNL A   1      44.707  27.600  29.037  1.00  0.00     0.064 A 
ATOM     70  C   UNL A   1      44.366  27.868  27.695  1.00  0.00     0.173 A 
ATOM     71  C   UNL A   1      45.769  26.719  29.268  1.00  0.00     0.173 A 
ATOM     72  F   UNL A   1      43.354  28.705  27.415  1.00  0.00    -0.203 F 
ATOM     73  C   UNL A   1      45.144  27.396  26.641  1.00  0.00     0.198 A 
ATOM     74  C   UNL A   1      46.532  26.227  28.206  1.00  0.00     0.198 A 
ATOM     75  F   UNL A   1      46.148  26.426  30.521  1.00  0.00    -0.203 F 
ATOM     76  F   UNL A   1      44.878  27.791  25.387  1.00  0.00    -0.200 F 
ATOM     77  C   UNL A   1      46.244  26.599  26.899  1.00  0.00     0.200 A 
ATOM     78  F   UNL A   1      47.611  25.472  28.456  1.00  0.00    -0.200 F 
ATOM     79  F   UNL A   1      47.054  26.227  25.898  1.00  0.00    -0.200 F 
ENDBRANCH  45  69
BRANCH  57  80
ATOM     80  C   UNL A   1      43.074  34.601  29.577  1.00  0.00     0.064 A 
ATOM     81  C   UNL A   1      43.250  35.669  30.472  1.00  0.00     0.173 A 
ATOM     82  C   UNL A   1      43.333  34.901  28.216  1.00  0.00     0.173 A 
ATOM     83  F   UNL A   1      43.149  35.495  31.796  1.00  0.00    -0.203 F 
ATOM     84  C   UNL A   1      43.604  36.949  30.035  1.00  0.00     0.198 A 
ATOM     85  C   UNL A   1      43.748  36.162  27.792  1.00  0.00     0.198 A 
ATOM     86  F   UNL A   1      43.223  33.967  27.259  1.00  0.00    -0.203 F 
ATOM     87  F   UNL A   1      43.721  37.944  30.926  1.00  0.00    -0.200 F 
ATOM     88  C   UNL A   1      43.869  37.192  28.700  1.00  0.00     0.200 A 
ATOM     89  F   UNL A   1      44.053  36.364  26.502  1.00  0.00    -0.200 F 
ATOM     90  F   UNL A   1      44.259  38.407  28.295  1.00  0.00    -0.200 F 
ENDBRANCH  57  80
ENDBRANCH  31  32
ENDBRANCH  23  26
ENDBRANCH  21  22
ENDBRANCH  20  21
ENDBRANCH   1  20
TORSDOF 14
ENDMDL
MODEL 3
REMARK VINA RESULT:     -12.5      4.269     10.392
REMARK SMILES Cc1cccc(C(=O)NCCCNC(=O)c2ccc(-c3c4nc(c(-c5c(F)c(F)c(F)c(F)c5F)c5ccc([nH]5)c(-c5c(F)c(F)c(F)c(F)c5F)c5nc(c(-c6c(F)c(F)c(F)c(F)c6F)c6ccc3[nH]6)C=C5)C=C4)cc2)c1O[C@H](C)[C@H](C)O
REMARK SMILES IDX 10 1 9 2 7 3 8 4 6 6 1 7 2 8 3 9 79 10 4 11 5 12 80 13 81 14
REMARK SMILES IDX 82 15 83 16 84 17 85 18 11 20 12 21 13 22 14 23 15 25 16 26
REMARK SMILES IDX 17 27 78 28 18 29 77 30 19 31 20 32 21 33 71 34 22 35 76 36
REMARK SMILES IDX 70 37 72 38 23 39 75 40 69 41 68 42 24 44 56 45 36 46 55 47
REMARK SMILES IDX 37 48 40 49 54 50 73 51 38 52 39 53 53 55 74 56 41 57 25 58
REMARK SMILES IDX 26 59 34 60 27 61 28 62 32 63 35 64 29 65 30 66 33 67 31 68
REMARK SMILES IDX 57 69 58 70 66 71 59 72 60 73 64 74 67 75 61 76 62 77 65 78
REMARK SMILES IDX 63 79 42 80 43 81 51 82 44 83 45 84 49 85 52 86 46 87 47 88
REMARK SMILES IDX 50 89 48 90
REMARK H PARENT 9 5 85 19 13 24 72 43 40 54
REMARK Flexibility Score: inf
ROOT
ATOM      1  C   UNL A   1      32.742  30.539  26.928  1.00  0.00     0.118 C 
ENDROOT
BRANCH   1   2
ATOM      2  N   UNL A   1      33.082  29.839  25.605  1.00  0.00    -0.352 N 
ATOM      3  C   UNL A   1      33.118  28.803  24.678  1.00  0.00     0.255 C 
ATOM      4  O   UNL A   1      33.413  29.337  23.586  1.00  0.00    -0.269 OA
ATOM      5  H   UNL A   1      33.564  30.550  25.124  1.00  0.00     0.163 HD
BRANCH   3   6
ATOM      6  C   UNL A   1      32.910  27.266  24.575  1.00  0.00     0.082 A 
ATOM      7  C   UNL A   1      31.533  24.064  22.891  1.00  0.00     0.048 C 
ATOM      8  C   UNL A   1      32.227  24.959  23.895  1.00  0.00    -0.008 A 
ATOM      9  C   UNL A   1      32.995  24.375  24.892  1.00  0.00     0.007 A 
ATOM     10  C   UNL A   1      32.069  26.379  23.846  1.00  0.00     0.135 A 
ATOM     11  C   UNL A   1      33.681  25.194  25.764  1.00  0.00     0.001 A 
ATOM     12  C   UNL A   1      33.678  26.586  25.569  1.00  0.00     0.018 A 
BRANCH  10  13
ATOM     13  O   UNL A   1      30.928  26.622  23.113  1.00  0.00    -0.487 OA
BRANCH  13  14
ATOM     14  C   UNL A   1      29.925  27.401  23.733  1.00  0.00     0.198 C 
ATOM     15  C   UNL A   1      28.881  26.305  24.082  1.00  0.00     0.056 C 
BRANCH  14  16
ATOM     16  C   UNL A   1      29.992  28.781  22.931  1.00  0.00     0.151 C 
ATOM     17  C   UNL A   1      28.588  29.191  22.478  1.00  0.00     0.042 C 
BRANCH  16  18
ATOM     18  O   UNL A   1      30.765  28.912  21.747  1.00  0.00    -0.390 OA
ATOM     19  H   UNL A   1      31.565  29.427  21.939  1.00  0.00     0.211 HD
ENDBRANCH  16  18
ENDBRANCH  14  16
ENDBRANCH  13  14
ENDBRANCH  10  13
ENDBRANCH   3   6
ENDBRANCH   1   2
BRANCH   1  20
ATOM     20  C   UNL A   1      33.576  31.584  27.727  1.00  0.00     0.042 C 
BRANCH  20  21
ATOM     21  C   UNL A   1      35.094  31.700  27.588  1.00  0.00     0.118 C 
BRANCH  21  22
ATOM     22  N   UNL A   1      35.691  32.020  28.915  1.00  0.00    -0.352 N 
ATOM     23  C   UNL A   1      36.582  31.317  29.718  1.00  0.00     0.251 C 
ATOM     24  H   UNL A   1      35.405  32.884  29.290  1.00  0.00     0.163 HD
ATOM     25  O   UNL A   1      37.028  31.761  30.742  1.00  0.00    -0.269 OA
BRANCH  23  26
ATOM     26  C   UNL A   1      37.050  30.030  29.177  1.00  0.00     0.039 A 
ATOM     27  C   UNL A   1      37.306  29.046  30.136  1.00  0.00     0.014 A 
ATOM     28  C   UNL A   1      37.696  30.067  27.946  1.00  0.00     0.014 A 
ATOM     29  C   UNL A   1      38.447  28.279  29.992  1.00  0.00     0.010 A 
ATOM     30  C   UNL A   1      38.869  29.354  27.841  1.00  0.00     0.010 A 
ATOM     31  C   UNL A   1      39.284  28.545  28.909  1.00  0.00    -0.014 A 
BRANCH  31  32
ATOM     32  C   UNL A   1      40.639  28.028  28.834  1.00  0.00     0.031 A 
ATOM     33  C   UNL A   1      40.801  26.595  28.547  1.00  0.00     0.074 A 
ATOM     34  C   UNL A   1      41.707  28.835  29.021  1.00  0.00     0.049 A 
ATOM     35  N   UNL A   1      41.837  25.899  28.855  1.00  0.00    -0.248 NA
ATOM     36  C   UNL A   1      39.729  25.807  27.954  1.00  0.00     0.031 C 
ATOM     37  C   UNL A   1      43.112  28.511  28.787  1.00  0.00     0.029 A 
ATOM     38  N   UNL A   1      41.745  30.079  29.680  1.00  0.00    -0.354 N 
ATOM     39  C   UNL A   1      41.684  24.649  28.299  1.00  0.00     0.074 A 
ATOM     40  C   UNL A   1      40.327  24.624  27.810  1.00  0.00     0.031 C 
ATOM     41  C   UNL A   1      43.874  29.319  29.541  1.00  0.00     0.029 A 
ATOM     42  C   UNL A   1      42.975  30.089  30.381  1.00  0.00     0.049 A 
ATOM     43  H   UNL A   1      41.062  30.787  29.658  1.00  0.00     0.167 HD
ATOM     44  C   UNL A   1      42.774  23.834  28.220  1.00  0.00     0.037 A 
ATOM     45  C   UNL A   1      43.029  30.143  31.745  1.00  0.00     0.037 A 
ATOM     46  C   UNL A   1      43.898  24.413  28.955  1.00  0.00     0.049 A 
ATOM     47  C   UNL A   1      43.764  28.978  32.363  1.00  0.00     0.074 A 
ATOM     48  C   UNL A   1      44.983  25.183  28.566  1.00  0.00     0.029 A 
ATOM     49  N   UNL A   1      43.811  24.530  30.340  1.00  0.00    -0.354 N 
ATOM     50  N   UNL A   1      43.942  27.835  31.761  1.00  0.00    -0.248 NA
ATOM     51  C   UNL A   1      44.325  28.995  33.711  1.00  0.00     0.031 C 
ATOM     52  C   UNL A   1      45.509  25.815  29.722  1.00  0.00     0.029 A 
ATOM     53  C   UNL A   1      44.767  25.406  30.816  1.00  0.00     0.049 A 
ATOM     54  H   UNL A   1      43.158  24.053  30.902  1.00  0.00     0.167 HD
ATOM     55  C   UNL A   1      44.600  26.974  32.602  1.00  0.00     0.074 A 
ATOM     56  C   UNL A   1      44.833  27.753  33.804  1.00  0.00     0.031 C 
ATOM     57  C   UNL A   1      44.879  25.687  32.240  1.00  0.00     0.037 A 
BRANCH  44  58
ATOM     58  C   UNL A   1      42.905  22.683  27.242  1.00  0.00     0.064 A 
ATOM     59  C   UNL A   1      42.149  21.504  27.424  1.00  0.00     0.173 A 
ATOM     60  C   UNL A   1      43.808  22.629  26.164  1.00  0.00     0.173 A 
ATOM     61  F   UNL A   1      41.171  21.434  28.338  1.00  0.00    -0.203 F 
ATOM     62  C   UNL A   1      42.369  20.343  26.675  1.00  0.00     0.198 A 
ATOM     63  C   UNL A   1      44.071  21.454  25.453  1.00  0.00     0.198 A 
ATOM     64  F   UNL A   1      44.421  23.723  25.704  1.00  0.00    -0.203 F 
ATOM     65  F   UNL A   1      41.622  19.253  26.903  1.00  0.00    -0.200 F 
ATOM     66  C   UNL A   1      43.358  20.306  25.716  1.00  0.00     0.200 A 
ATOM     67  F   UNL A   1      45.017  21.452  24.503  1.00  0.00    -0.200 F 
ATOM     68  F   UNL A   1      43.601  19.182  25.027  1.00  0.00    -0.200 F 
ENDBRANCH  44  58
BRANCH  45  69
ATOM     69  C   UNL A   1      41.862  30.841  32.348  1.00  0.00     0.064 A 
ATOM     70  C   UNL A   1      40.775  30.059  32.790  1.00  0.00     0.173 A 
ATOM     71  C   UNL A   1      41.960  32.146  32.841  1.00  0.00     0.173 A 
ATOM     72  F   UNL A   1      40.631  28.799  32.347  1.00  0.00    -0.203 F 
ATOM     73  C   UNL A   1      39.917  30.509  33.790  1.00  0.00     0.198 A 
ATOM     74  C   UNL A   1      41.081  32.604  33.827  1.00  0.00     0.198 A 
ATOM     75  F   UNL A   1      42.973  32.940  32.465  1.00  0.00    -0.203 F 
ATOM     76  F   UNL A   1      38.986  29.685  34.292  1.00  0.00    -0.200 F 
ATOM     77  C   UNL A   1      40.089  31.772  34.328  1.00  0.00     0.200 A 
ATOM     78  F   UNL A   1      41.259  33.818  34.365  1.00  0.00    -0.200 F 
ATOM     79  F   UNL A   1      39.332  32.170  35.360  1.00  0.00    -0.200 F 
ENDBRANCH  45  69
BRANCH  57  80
ATOM     80  C   UNL A   1      45.353  24.586  33.159  1.00  0.00     0.064 A 
ATOM     81  C   UNL A   1      44.567  23.486  33.540  1.00  0.00     0.173 A 
ATOM     82  C   UNL A   1      46.711  24.529  33.561  1.00  0.00     0.173 A 
ATOM     83  F   UNL A   1      43.299  23.358  33.129  1.00  0.00    -0.203 F 
ATOM     84  C   UNL A   1      45.084  22.438  34.308  1.00  0.00     0.198 A 
ATOM     85  C   UNL A   1      47.239  23.452  34.272  1.00  0.00     0.198 A 
ATOM     86  F   UNL A   1      47.578  25.504  33.246  1.00  0.00    -0.203 F 
ATOM     87  F   UNL A   1      44.282  21.430  34.678  1.00  0.00    -0.200 F 
ATOM     88  C   UNL A   1      46.421  22.413  34.659  1.00  0.00     0.200 A 
ATOM     89  F   UNL A   1      48.548  23.420  34.556  1.00  0.00    -0.200 F 
ATOM     90  F   UNL A   1      46.922  21.381  35.350  1.00  0.00    -0.200 F 
ENDBRANCH  57  80
ENDBRANCH  31  32
ENDBRANCH  23  26
ENDBRANCH  21  22
ENDBRANCH  20  21
ENDBRANCH   1  20
TORSDOF 14
ENDMDL
