MODEL 1
REMARK VINA RESULT:     -12.4      0.000      0.000
REMARK SMILES O=C(CC[NH+]1CC[NH+](Cc2ccccc2C2CC2)CC1)NCCCNC(=O)c1ccc(-c2c3nc(c(-c4c(F)c(F)c(F)c(F)c4F)c4ccc([nH]4)c(-c4c(F)c(F)c(F)c(F)c4F)c4nc(c(-c5c(F)c(F)c(F)c(F)c5F)c5ccc2[nH]5)C=C4)C=C3)cc1
REMARK SMILES IDX 1 1 2 2 21 3 3 5 4 6 5 7 6 8 20 9 7 11 19 12 8 13 9 15 10 16
REMARK SMILES IDX 11 17 15 18 12 19 14 20 13 21 16 22 17 23 18 24 22 25 23 26
REMARK SMILES IDX 24 27 25 28 26 29 27 31 28 32 29 33 90 34 30 35 89 36 31 37
REMARK SMILES IDX 32 38 33 39 83 40 34 41 88 42 82 43 84 44 35 45 87 46 81 47
REMARK SMILES IDX 80 48 36 50 68 51 48 52 67 53 49 54 52 55 66 56 85 57 50 58
REMARK SMILES IDX 51 59 65 61 86 62 53 63 37 64 38 65 46 66 39 67 40 68 44 69
REMARK SMILES IDX 47 70 41 71 42 72 45 73 43 74 69 75 70 76 78 77 71 78 72 79
REMARK SMILES IDX 76 80 79 81 73 82 74 83 77 84 75 85 54 86 55 87 63 88 56 89
REMARK SMILES IDX 57 90 61 91 64 92 58 93 59 94 62 95 60 96
REMARK H PARENT 21 4 5 10 8 14 25 30 84 49 52 60
REMARK Flexibility Score: inf
ROOT
ATOM      1  O   UNL A   1      33.785  28.647  25.501  1.00  0.00    -0.275 OA
ATOM      2  C   UNL A   1      32.973  29.113  24.709  1.00  0.00     0.225 C 
ATOM      3  N   UNL A   1      32.030  30.059  25.045  1.00  0.00    -0.356 N 
ATOM      4  H   UNL A   1      31.524  30.493  24.322  1.00  0.00     0.163 HD
ENDROOT
BRANCH   2   5
ATOM      5  C   UNL A   1      32.928  28.688  23.254  1.00  0.00     0.161 C 
BRANCH   5   6
ATOM      6  C   UNL A   1      32.196  27.345  23.098  1.00  0.00     0.272 C 
BRANCH   6   7
ATOM      7  N   UNL A   1      32.735  26.419  24.098  1.00  0.00    -0.325 N 
ATOM      8  C   UNL A   1      31.672  25.623  24.726  1.00  0.00     0.324 C 
ATOM      9  C   UNL A   1      33.881  25.600  23.667  1.00  0.00     0.324 C 
ATOM     10  H   UNL A   1      33.143  27.025  24.809  1.00  0.00     0.348 HD
ATOM     11  C   UNL A   1      31.392  24.260  24.068  1.00  0.00     0.324 C 
ATOM     12  C   UNL A   1      33.604  24.165  23.160  1.00  0.00     0.324 C 
ATOM     13  N   UNL A   1      32.569  23.417  23.878  1.00  0.00    -0.322 N 
ATOM     14  H   UNL A   1      32.294  22.642  23.275  1.00  0.00     0.348 HD
BRANCH  13  15
ATOM     15  C   UNL A   1      33.007  22.633  25.045  1.00  0.00     0.299 C 
BRANCH  15  16
ATOM     16  C   UNL A   1      33.397  21.175  24.876  1.00  0.00     0.010 A 
ATOM     17  C   UNL A   1      32.325  20.287  24.586  1.00  0.00     0.010 A 
ATOM     18  C   UNL A   1      34.715  20.654  24.981  1.00  0.00    -0.036 A 
ATOM     19  C   UNL A   1      32.528  18.939  24.310  1.00  0.00     0.001 A 
ATOM     20  C   UNL A   1      34.872  19.271  24.691  1.00  0.00     0.004 A 
ATOM     21  C   UNL A   1      33.813  18.432  24.344  1.00  0.00     0.000 A 
BRANCH  18  22
ATOM     22  C   UNL A   1      36.025  21.397  25.248  1.00  0.00     0.020 C 
ATOM     23  C   UNL A   1      37.414  21.075  24.774  1.00  0.00     0.009 C 
ATOM     24  C   UNL A   1      36.659  22.187  24.125  1.00  0.00     0.009 C 
ENDBRANCH  18  22
ENDBRANCH  15  16
ENDBRANCH  13  15
ENDBRANCH   6   7
ENDBRANCH   5   6
ENDBRANCH   2   5
BRANCH   3  25
ATOM     25  C   UNL A   1      31.748  30.444  26.410  1.00  0.00     0.117 C 
BRANCH  25  26
ATOM     26  C   UNL A   1      31.549  31.942  26.578  1.00  0.00     0.042 C 
BRANCH  26  27
ATOM     27  C   UNL A   1      32.704  32.653  27.276  1.00  0.00     0.118 C 
BRANCH  27  28
ATOM     28  N   UNL A   1      32.408  34.041  27.619  1.00  0.00    -0.352 N 
ATOM     29  C   UNL A   1      32.980  34.872  28.551  1.00  0.00     0.251 C 
ATOM     30  H   UNL A   1      31.678  34.447  27.097  1.00  0.00     0.163 HD
ATOM     31  O   UNL A   1      32.489  35.979  28.769  1.00  0.00    -0.269 OA
BRANCH  29  32
ATOM     32  C   UNL A   1      34.176  34.445  29.309  1.00  0.00     0.039 A 
ATOM     33  C   UNL A   1      34.013  33.868  30.573  1.00  0.00     0.014 A 
ATOM     34  C   UNL A   1      35.458  34.620  28.784  1.00  0.00     0.014 A 
ATOM     35  C   UNL A   1      35.126  33.383  31.266  1.00  0.00     0.010 A 
ATOM     36  C   UNL A   1      36.556  34.069  29.440  1.00  0.00     0.010 A 
ATOM     37  C   UNL A   1      36.403  33.434  30.682  1.00  0.00    -0.014 A 
BRANCH  37  38
ATOM     38  C   UNL A   1      37.588  32.811  31.327  1.00  0.00     0.031 A 
ATOM     39  C   UNL A   1      38.289  31.657  30.666  1.00  0.00     0.074 A 
ATOM     40  C   UNL A   1      37.970  33.215  32.555  1.00  0.00     0.049 A 
ATOM     41  N   UNL A   1      39.241  30.887  31.130  1.00  0.00    -0.248 NA
ATOM     42  C   UNL A   1      37.839  31.303  29.310  1.00  0.00     0.031 C 
ATOM     43  C   UNL A   1      37.353  34.300  33.318  1.00  0.00     0.029 A 
ATOM     44  N   UNL A   1      38.954  32.741  33.390  1.00  0.00    -0.354 N 
ATOM     45  C   UNL A   1      39.491  29.952  30.135  1.00  0.00     0.074 A 
ATOM     46  C   UNL A   1      38.557  30.218  29.062  1.00  0.00     0.031 C 
ATOM     47  C   UNL A   1      37.976  34.416  34.501  1.00  0.00     0.029 A 
ATOM     48  C   UNL A   1      39.002  33.383  34.604  1.00  0.00     0.049 A 
ATOM     49  H   UNL A   1      39.566  32.012  33.141  1.00  0.00     0.167 HD
ATOM     50  C   UNL A   1      40.425  28.971  30.113  1.00  0.00     0.037 A 
ATOM     51  C   UNL A   1      39.766  33.149  35.688  1.00  0.00     0.037 A 
ATOM     52  C   UNL A   1      41.362  28.720  31.177  1.00  0.00     0.049 A 
ATOM     53  C   UNL A   1      40.772  32.029  35.652  1.00  0.00     0.074 A 
ATOM     54  C   UNL A   1      42.381  27.786  31.226  1.00  0.00     0.029 A 
ATOM     55  N   UNL A   1      41.389  29.403  32.385  1.00  0.00    -0.354 N 
ATOM     56  N   UNL A   1      41.041  31.189  34.682  1.00  0.00    -0.248 NA
ATOM     57  C   UNL A   1      41.585  31.825  36.860  1.00  0.00     0.031 C 
ATOM     58  C   UNL A   1      42.986  27.861  32.484  1.00  0.00     0.029 A 
ATOM     59  C   UNL A   1      42.389  28.891  33.195  1.00  0.00     0.049 A 
ATOM     60  H   UNL A   1      40.787  30.143  32.630  1.00  0.00     0.167 HD
ATOM     61  C   UNL A   1      42.075  30.386  35.147  1.00  0.00     0.074 A 
ATOM     62  C   UNL A   1      42.389  30.841  36.484  1.00  0.00     0.031 C 
ATOM     63  C   UNL A   1      42.708  29.366  34.517  1.00  0.00     0.037 A 
BRANCH  50  64
ATOM     64  C   UNL A   1      40.480  28.087  28.900  1.00  0.00     0.064 A 
ATOM     65  C   UNL A   1      39.754  26.888  28.826  1.00  0.00     0.173 A 
ATOM     66  C   UNL A   1      41.232  28.466  27.777  1.00  0.00     0.173 A 
ATOM     67  F   UNL A   1      39.025  26.475  29.872  1.00  0.00    -0.203 F 
ATOM     68  C   UNL A   1      39.806  26.087  27.687  1.00  0.00     0.198 A 
ATOM     69  C   UNL A   1      41.253  27.680  26.628  1.00  0.00     0.198 A 
ATOM     70  F   UNL A   1      41.938  29.607  27.788  1.00  0.00    -0.203 F 
ATOM     71  F   UNL A   1      39.147  24.921  27.661  1.00  0.00    -0.200 F 
ATOM     72  C   UNL A   1      40.549  26.488  26.586  1.00  0.00     0.200 A 
ATOM     73  F   UNL A   1      41.958  28.078  25.559  1.00  0.00    -0.200 F 
ATOM     74  F   UNL A   1      40.589  25.720  25.488  1.00  0.00    -0.200 F 
ENDBRANCH  50  64
BRANCH  51  75
ATOM     75  C   UNL A   1      39.619  33.998  36.901  1.00  0.00     0.064 A 
ATOM     76  C   UNL A   1      38.833  33.579  37.982  1.00  0.00     0.173 A 
ATOM     77  C   UNL A   1      40.251  35.247  37.001  1.00  0.00     0.173 A 
ATOM     78  F   UNL A   1      38.191  32.402  37.926  1.00  0.00    -0.203 F 
ATOM     79  C   UNL A   1      38.664  34.384  39.108  1.00  0.00     0.198 A 
ATOM     80  C   UNL A   1      40.107  36.038  38.139  1.00  0.00     0.198 A 
ATOM     81  F   UNL A   1      41.017  35.695  35.996  1.00  0.00    -0.203 F 
ATOM     82  F   UNL A   1      37.865  33.980  40.104  1.00  0.00    -0.200 F 
ATOM     83  C   UNL A   1      39.307  35.610  39.188  1.00  0.00     0.200 A 
ATOM     84  F   UNL A   1      40.742  37.215  38.219  1.00  0.00    -0.200 F 
ATOM     85  F   UNL A   1      39.147  36.382  40.270  1.00  0.00    -0.200 F 
ENDBRANCH  51  75
BRANCH  63  86
ATOM     86  C   UNL A   1      43.848  28.703  35.236  1.00  0.00     0.064 A 
ATOM     87  C   UNL A   1      45.168  29.159  35.114  1.00  0.00     0.173 A 
ATOM     88  C   UNL A   1      43.599  27.638  36.117  1.00  0.00     0.173 A 
ATOM     89  F   UNL A   1      45.461  30.164  34.275  1.00  0.00    -0.203 F 
ATOM     90  C   UNL A   1      46.200  28.563  35.836  1.00  0.00     0.198 A 
ATOM     91  C   UNL A   1      44.628  27.066  36.860  1.00  0.00     0.198 A 
ATOM     92  F   UNL A   1      42.354  27.167  36.275  1.00  0.00    -0.203 F 
ATOM     93  F   UNL A   1      47.460  28.990  35.675  1.00  0.00    -0.200 F 
ATOM     94  C   UNL A   1      45.928  27.526  36.715  1.00  0.00     0.200 A 
ATOM     95  F   UNL A   1      44.360  26.076  37.722  1.00  0.00    -0.200 F 
ATOM     96  F   UNL A   1      46.920  26.968  37.423  1.00  0.00    -0.200 F 
ENDBRANCH  63  86
ENDBRANCH  37  38
ENDBRANCH  29  32
ENDBRANCH  27  28
ENDBRANCH  26  27
ENDBRANCH  25  26
ENDBRANCH   3  25
TORSDOF 15
ENDMDL
MODEL 2
REMARK VINA RESULT:     -12.4      5.720     11.428
REMARK SMILES O=C(CC[NH+]1CC[NH+](Cc2ccccc2C2CC2)CC1)NCCCNC(=O)c1ccc(-c2c3nc(c(-c4c(F)c(F)c(F)c(F)c4F)c4ccc([nH]4)c(-c4c(F)c(F)c(F)c(F)c4F)c4nc(c(-c5c(F)c(F)c(F)c(F)c5F)c5ccc2[nH]5)C=C4)C=C3)cc1
REMARK SMILES IDX 1 1 2 2 21 3 3 5 4 6 5 7 6 8 20 9 7 11 19 12 8 13 9 15 10 16
REMARK SMILES IDX 11 17 15 18 12 19 14 20 13 21 16 22 17 23 18 24 22 25 23 26
REMARK SMILES IDX 24 27 25 28 26 29 27 31 28 32 29 33 90 34 30 35 89 36 31 37
REMARK SMILES IDX 32 38 33 39 83 40 34 41 88 42 82 43 84 44 35 45 87 46 81 47
REMARK SMILES IDX 80 48 36 50 68 51 48 52 67 53 49 54 52 55 66 56 85 57 50 58
REMARK SMILES IDX 51 59 65 61 86 62 53 63 37 64 38 65 46 66 39 67 40 68 44 69
REMARK SMILES IDX 47 70 41 71 42 72 45 73 43 74 69 75 70 76 78 77 71 78 72 79
REMARK SMILES IDX 76 80 79 81 73 82 74 83 77 84 75 85 54 86 55 87 63 88 56 89
REMARK SMILES IDX 57 90 61 91 64 92 58 93 59 94 62 95 60 96
REMARK H PARENT 21 4 5 10 8 14 25 30 84 49 52 60
REMARK Flexibility Score: inf
ROOT
ATOM      1  O   UNL A   1      35.962  23.163  26.210  1.00  0.00    -0.275 OA
ATOM      2  C   UNL A   1      35.447  22.059  26.353  1.00  0.00     0.225 C 
ATOM      3  N   UNL A   1      35.936  20.905  25.784  1.00  0.00    -0.356 N 
ATOM      4  H   UNL A   1      35.560  20.043  26.073  1.00  0.00     0.163 HD
ENDROOT
BRANCH   2   5
ATOM      5  C   UNL A   1      34.198  21.852  27.188  1.00  0.00     0.161 C 
BRANCH   5   6
ATOM      6  C   UNL A   1      33.030  21.367  26.315  1.00  0.00     0.272 C 
BRANCH   6   7
ATOM      7  N   UNL A   1      31.923  22.314  26.474  1.00  0.00    -0.325 N 
ATOM      8  C   UNL A   1      32.406  23.651  26.845  1.00  0.00     0.324 C 
ATOM      9  C   UNL A   1      30.940  22.347  25.379  1.00  0.00     0.324 C 
ATOM     10  H   UNL A   1      31.383  21.942  27.255  1.00  0.00     0.348 HD
ATOM     11  C   UNL A   1      32.650  24.614  25.669  1.00  0.00     0.324 C 
ATOM     12  C   UNL A   1      31.099  23.429  24.285  1.00  0.00     0.324 C 
ATOM     13  N   UNL A   1      31.528  24.751  24.745  1.00  0.00    -0.322 N 
ATOM     14  H   UNL A   1      31.869  25.252  23.925  1.00  0.00     0.348 HD
BRANCH  13  15
ATOM     15  C   UNL A   1      30.467  25.691  25.142  1.00  0.00     0.299 C 
BRANCH  15  16
ATOM     16  C   UNL A   1      30.457  27.104  24.584  1.00  0.00     0.010 A 
ATOM     17  C   UNL A   1      29.560  27.326  23.503  1.00  0.00     0.010 A 
ATOM     18  C   UNL A   1      31.252  28.184  25.052  1.00  0.00    -0.036 A 
ATOM     19  C   UNL A   1      29.363  28.584  22.945  1.00  0.00     0.001 A 
ATOM     20  C   UNL A   1      31.015  29.450  24.450  1.00  0.00     0.004 A 
ATOM     21  C   UNL A   1      30.082  29.657  23.434  1.00  0.00     0.000 A 
BRANCH  18  22
ATOM     22  C   UNL A   1      32.255  28.211  26.207  1.00  0.00     0.020 C 
ATOM     23  C   UNL A   1      32.589  29.331  27.151  1.00  0.00     0.009 C 
ATOM     24  C   UNL A   1      31.735  28.203  27.627  1.00  0.00     0.009 C 
ENDBRANCH  18  22
ENDBRANCH  15  16
ENDBRANCH  13  15
ENDBRANCH   6   7
ENDBRANCH   5   6
ENDBRANCH   2   5
BRANCH   3  25
ATOM     25  C   UNL A   1      36.978  20.898  24.780  1.00  0.00     0.117 C 
BRANCH  25  26
ATOM     26  C   UNL A   1      37.994  19.785  24.982  1.00  0.00     0.042 C 
BRANCH  26  27
ATOM     27  C   UNL A   1      39.242  20.209  25.751  1.00  0.00     0.118 C 
BRANCH  27  28
ATOM     28  N   UNL A   1      40.233  19.144  25.879  1.00  0.00    -0.352 N 
ATOM     29  C   UNL A   1      41.582  19.205  26.124  1.00  0.00     0.251 C 
ATOM     30  H   UNL A   1      39.874  18.233  25.771  1.00  0.00     0.163 HD
ATOM     31  O   UNL A   1      42.264  18.182  26.066  1.00  0.00    -0.269 OA
BRANCH  29  32
ATOM     32  C   UNL A   1      42.233  20.494  26.444  1.00  0.00     0.039 A 
ATOM     33  C   UNL A   1      42.790  21.253  25.410  1.00  0.00     0.014 A 
ATOM     34  C   UNL A   1      42.306  20.952  27.761  1.00  0.00     0.014 A 
ATOM     35  C   UNL A   1      43.334  22.512  25.685  1.00  0.00     0.010 A 
ATOM     36  C   UNL A   1      42.777  22.237  28.023  1.00  0.00     0.010 A 
ATOM     37  C   UNL A   1      43.286  23.035  26.988  1.00  0.00    -0.014 A 
BRANCH  37  38
ATOM     38  C   UNL A   1      43.732  24.420  27.295  1.00  0.00     0.031 A 
ATOM     39  C   UNL A   1      42.740  25.446  27.768  1.00  0.00     0.074 A 
ATOM     40  C   UNL A   1      45.007  24.782  27.049  1.00  0.00     0.049 A 
ATOM     41  N   UNL A   1      42.898  26.733  27.947  1.00  0.00    -0.248 NA
ATOM     42  C   UNL A   1      41.378  24.964  28.050  1.00  0.00     0.031 C 
ATOM     43  C   UNL A   1      46.059  23.891  26.558  1.00  0.00     0.029 A 
ATOM     44  N   UNL A   1      45.630  26.003  27.155  1.00  0.00    -0.354 N 
ATOM     45  C   UNL A   1      41.658  27.215  28.345  1.00  0.00     0.074 A 
ATOM     46  C   UNL A   1      40.746  26.092  28.334  1.00  0.00     0.031 C 
ATOM     47  C   UNL A   1      47.196  24.590  26.414  1.00  0.00     0.029 A 
ATOM     48  C   UNL A   1      46.944  25.987  26.752  1.00  0.00     0.049 A 
ATOM     49  H   UNL A   1      45.177  26.811  27.488  1.00  0.00     0.167 HD
ATOM     50  C   UNL A   1      41.317  28.477  28.703  1.00  0.00     0.037 A 
ATOM     51  C   UNL A   1      47.837  26.989  26.643  1.00  0.00     0.037 A 
ATOM     52  C   UNL A   1      42.233  29.587  28.727  1.00  0.00     0.049 A 
ATOM     53  C   UNL A   1      47.423  28.389  27.012  1.00  0.00     0.074 A 
ATOM     54  C   UNL A   1      41.996  30.891  29.127  1.00  0.00     0.029 A 
ATOM     55  N   UNL A   1      43.560  29.527  28.328  1.00  0.00    -0.354 N 
ATOM     56  N   UNL A   1      46.264  28.823  27.445  1.00  0.00    -0.248 NA
ATOM     57  C   UNL A   1      48.442  29.441  26.880  1.00  0.00     0.031 C 
ATOM     58  C   UNL A   1      43.161  31.633  28.913  1.00  0.00     0.029 A 
ATOM     59  C   UNL A   1      44.145  30.777  28.445  1.00  0.00     0.049 A 
ATOM     60  H   UNL A   1      44.019  28.716  28.009  1.00  0.00     0.167 HD
ATOM     61  C   UNL A   1      46.425  30.183  27.673  1.00  0.00     0.074 A 
ATOM     62  C   UNL A   1      47.795  30.505  27.335  1.00  0.00     0.031 C 
ATOM     63  C   UNL A   1      45.518  31.082  28.126  1.00  0.00     0.037 A 
BRANCH  50  64
ATOM     64  C   UNL A   1      39.889  28.729  29.094  1.00  0.00     0.064 A 
ATOM     65  C   UNL A   1      38.924  29.125  28.154  1.00  0.00     0.173 A 
ATOM     66  C   UNL A   1      39.468  28.528  30.418  1.00  0.00     0.173 A 
ATOM     67  F   UNL A   1      39.273  29.338  26.877  1.00  0.00    -0.203 F 
ATOM     68  C   UNL A   1      37.600  29.341  28.532  1.00  0.00     0.198 A 
ATOM     69  C   UNL A   1      38.137  28.711  30.784  1.00  0.00     0.198 A 
ATOM     70  F   UNL A   1      40.345  28.140  31.356  1.00  0.00    -0.203 F 
ATOM     71  F   UNL A   1      36.710  29.770  27.627  1.00  0.00    -0.200 F 
ATOM     72  C   UNL A   1      37.206  29.126  29.844  1.00  0.00     0.200 A 
ATOM     73  F   UNL A   1      37.754  28.486  32.049  1.00  0.00    -0.200 F 
ATOM     74  F   UNL A   1      35.930  29.325  30.203  1.00  0.00    -0.200 F 
ENDBRANCH  50  64
BRANCH  51  75
ATOM     75  C   UNL A   1      49.219  26.706  26.170  1.00  0.00     0.064 A 
ATOM     76  C   UNL A   1      49.569  26.876  24.824  1.00  0.00     0.173 A 
ATOM     77  C   UNL A   1      50.214  26.252  27.049  1.00  0.00     0.173 A 
ATOM     78  F   UNL A   1      48.647  27.288  23.940  1.00  0.00    -0.203 F 
ATOM     79  C   UNL A   1      50.852  26.582  24.368  1.00  0.00     0.198 A 
ATOM     80  C   UNL A   1      51.507  25.987  26.598  1.00  0.00     0.198 A 
ATOM     81  F   UNL A   1      49.934  26.075  28.348  1.00  0.00    -0.203 F 
ATOM     82  F   UNL A   1      51.143  26.704  23.066  1.00  0.00    -0.200 F 
ATOM     83  C   UNL A   1      51.822  26.143  25.257  1.00  0.00     0.200 A 
ATOM     84  F   UNL A   1      52.444  25.579  27.464  1.00  0.00    -0.200 F 
ATOM     85  F   UNL A   1      53.057  25.863  24.820  1.00  0.00    -0.200 F 
ENDBRANCH  51  75
BRANCH  63  86
ATOM     86  C   UNL A   1      45.982  32.493  28.344  1.00  0.00     0.064 A 
ATOM     87  C   UNL A   1      46.571  32.903  29.549  1.00  0.00     0.173 A 
ATOM     88  C   UNL A   1      45.901  33.430  27.301  1.00  0.00     0.173 A 
ATOM     89  F   UNL A   1      46.660  32.051  30.582  1.00  0.00    -0.203 F 
ATOM     90  C   UNL A   1      47.047  34.203  29.707  1.00  0.00     0.198 A 
ATOM     91  C   UNL A   1      46.407  34.718  27.451  1.00  0.00     0.198 A 
ATOM     92  F   UNL A   1      45.353  33.088  26.126  1.00  0.00    -0.203 F 
ATOM     93  F   UNL A   1      47.571  34.584  30.880  1.00  0.00    -0.200 F 
ATOM     94  C   UNL A   1      46.974  35.104  28.656  1.00  0.00     0.200 A 
ATOM     95  F   UNL A   1      46.352  35.581  26.429  1.00  0.00    -0.200 F 
ATOM     96  F   UNL A   1      47.451  36.349  28.804  1.00  0.00    -0.200 F 
ENDBRANCH  63  86
ENDBRANCH  37  38
ENDBRANCH  29  32
ENDBRANCH  27  28
ENDBRANCH  26  27
ENDBRANCH  25  26
ENDBRANCH   3  25
TORSDOF 15
ENDMDL
MODEL 3
REMARK VINA RESULT:     -12.2      5.714     11.259
REMARK SMILES O=C(CC[NH+]1CC[NH+](Cc2ccccc2C2CC2)CC1)NCCCNC(=O)c1ccc(-c2c3nc(c(-c4c(F)c(F)c(F)c(F)c4F)c4ccc([nH]4)c(-c4c(F)c(F)c(F)c(F)c4F)c4nc(c(-c5c(F)c(F)c(F)c(F)c5F)c5ccc2[nH]5)C=C4)C=C3)cc1
REMARK SMILES IDX 1 1 2 2 21 3 3 5 4 6 5 7 6 8 20 9 7 11 19 12 8 13 9 15 10 16
REMARK SMILES IDX 11 17 15 18 12 19 14 20 13 21 16 22 17 23 18 24 22 25 23 26
REMARK SMILES IDX 24 27 25 28 26 29 27 31 28 32 29 33 90 34 30 35 89 36 31 37
REMARK SMILES IDX 32 38 33 39 83 40 34 41 88 42 82 43 84 44 35 45 87 46 81 47
REMARK SMILES IDX 80 48 36 50 68 51 48 52 67 53 49 54 52 55 66 56 85 57 50 58
REMARK SMILES IDX 51 59 65 61 86 62 53 63 37 64 38 65 46 66 39 67 40 68 44 69
REMARK SMILES IDX 47 70 41 71 42 72 45 73 43 74 69 75 70 76 78 77 71 78 72 79
REMARK SMILES IDX 76 80 79 81 73 82 74 83 77 84 75 85 54 86 55 87 63 88 56 89
REMARK SMILES IDX 57 90 61 91 64 92 58 93 59 94 62 95 60 96
REMARK H PARENT 21 4 5 10 8 14 25 30 84 49 52 60
REMARK Flexibility Score: inf
ROOT
ATOM      1  O   UNL A   1      35.454  22.844  26.181  1.00  0.00    -0.275 OA
ATOM      2  C   UNL A   1      35.024  21.711  25.995  1.00  0.00     0.225 C 
ATOM      3  N   UNL A   1      35.754  20.699  25.413  1.00  0.00    -0.356 N 
ATOM      4  H   UNL A   1      35.395  19.784  25.443  1.00  0.00     0.163 HD
ENDROOT
BRANCH   2   5
ATOM      5  C   UNL A   1      33.620  21.304  26.398  1.00  0.00     0.161 C 
BRANCH   5   6
ATOM      6  C   UNL A   1      32.596  21.753  25.344  1.00  0.00     0.272 C 
BRANCH   6   7
ATOM      7  N   UNL A   1      32.675  23.212  25.232  1.00  0.00    -0.325 N 
ATOM      8  C   UNL A   1      32.241  23.676  23.907  1.00  0.00     0.324 C 
ATOM      9  C   UNL A   1      32.065  23.978  26.331  1.00  0.00     0.324 C 
ATOM     10  H   UNL A   1      33.668  23.419  25.333  1.00  0.00     0.348 HD
ATOM     11  C   UNL A   1      30.755  24.059  23.796  1.00  0.00     0.324 C 
ATOM     12  C   UNL A   1      30.622  24.504  26.143  1.00  0.00     0.324 C 
ATOM     13  N   UNL A   1      30.288  25.003  24.807  1.00  0.00    -0.322 N 
ATOM     14  H   UNL A   1      29.270  25.031  24.750  1.00  0.00     0.348 HD
BRANCH  13  15
ATOM     15  C   UNL A   1      30.554  26.427  24.546  1.00  0.00     0.299 C 
BRANCH  15  16
ATOM     16  C   UNL A   1      31.576  27.174  25.385  1.00  0.00     0.010 A 
ATOM     17  C   UNL A   1      31.123  27.592  26.666  1.00  0.00     0.010 A 
ATOM     18  C   UNL A   1      32.909  27.473  24.994  1.00  0.00    -0.036 A 
ATOM     19  C   UNL A   1      31.963  28.203  27.591  1.00  0.00     0.001 A 
ATOM     20  C   UNL A   1      33.729  28.098  25.973  1.00  0.00     0.004 A 
ATOM     21  C   UNL A   1      33.280  28.441  27.249  1.00  0.00     0.000 A 
BRANCH  18  22
ATOM     22  C   UNL A   1      33.637  27.107  23.699  1.00  0.00     0.020 C 
ATOM     23  C   UNL A   1      33.074  26.870  22.327  1.00  0.00     0.009 C 
ATOM     24  C   UNL A   1      33.776  28.155  22.618  1.00  0.00     0.009 C 
ENDBRANCH  18  22
ENDBRANCH  15  16
ENDBRANCH  13  15
ENDBRANCH   6   7
ENDBRANCH   5   6
ENDBRANCH   2   5
BRANCH   3  25
ATOM     25  C   UNL A   1      37.025  20.918  24.757  1.00  0.00     0.117 C 
BRANCH  25  26
ATOM     26  C   UNL A   1      38.018  19.790  24.992  1.00  0.00     0.042 C 
BRANCH  26  27
ATOM     27  C   UNL A   1      39.239  20.192  25.814  1.00  0.00     0.118 C 
BRANCH  27  28
ATOM     28  N   UNL A   1      40.242  19.136  25.916  1.00  0.00    -0.352 N 
ATOM     29  C   UNL A   1      41.597  19.209  26.126  1.00  0.00     0.251 C 
ATOM     30  H   UNL A   1      39.889  18.222  25.817  1.00  0.00     0.163 HD
ATOM     31  O   UNL A   1      42.286  18.192  26.049  1.00  0.00    -0.269 OA
BRANCH  29  32
ATOM     32  C   UNL A   1      42.244  20.504  26.430  1.00  0.00     0.039 A 
ATOM     33  C   UNL A   1      42.676  21.316  25.377  1.00  0.00     0.014 A 
ATOM     34  C   UNL A   1      42.437  20.916  27.751  1.00  0.00     0.014 A 
ATOM     35  C   UNL A   1      43.213  22.579  25.645  1.00  0.00     0.010 A 
ATOM     36  C   UNL A   1      42.900  22.203  28.014  1.00  0.00     0.010 A 
ATOM     37  C   UNL A   1      43.283  23.053  26.966  1.00  0.00    -0.014 A 
BRANCH  37  38
ATOM     38  C   UNL A   1      43.722  24.438  27.282  1.00  0.00     0.031 A 
ATOM     39  C   UNL A   1      42.724  25.459  27.751  1.00  0.00     0.074 A 
ATOM     40  C   UNL A   1      44.998  24.804  27.046  1.00  0.00     0.049 A 
ATOM     41  N   UNL A   1      42.877  26.746  27.936  1.00  0.00    -0.248 NA
ATOM     42  C   UNL A   1      41.362  24.972  28.022  1.00  0.00     0.031 C 
ATOM     43  C   UNL A   1      46.056  23.918  26.559  1.00  0.00     0.029 A 
ATOM     44  N   UNL A   1      45.617  26.026  27.161  1.00  0.00    -0.354 N 
ATOM     45  C   UNL A   1      41.633  27.223  28.327  1.00  0.00     0.074 A 
ATOM     46  C   UNL A   1      40.724  26.098  28.305  1.00  0.00     0.031 C 
ATOM     47  C   UNL A   1      47.192  24.620  26.427  1.00  0.00     0.029 A 
ATOM     48  C   UNL A   1      46.934  26.016  26.768  1.00  0.00     0.049 A 
ATOM     49  H   UNL A   1      45.159  26.832  27.494  1.00  0.00     0.167 HD
ATOM     50  C   UNL A   1      41.286  28.482  28.687  1.00  0.00     0.037 A 
ATOM     51  C   UNL A   1      47.825  27.020  26.669  1.00  0.00     0.037 A 
ATOM     52  C   UNL A   1      42.198  29.595  28.722  1.00  0.00     0.049 A 
ATOM     53  C   UNL A   1      47.404  28.418  27.040  1.00  0.00     0.074 A 
ATOM     54  C   UNL A   1      41.955  30.897  29.124  1.00  0.00     0.029 A 
ATOM     55  N   UNL A   1      43.529  29.541  28.332  1.00  0.00    -0.354 N 
ATOM     56  N   UNL A   1      46.241  28.847  27.466  1.00  0.00    -0.248 NA
ATOM     57  C   UNL A   1      48.421  29.473  26.919  1.00  0.00     0.031 C 
ATOM     58  C   UNL A   1      43.119  31.643  28.921  1.00  0.00     0.029 A 
ATOM     59  C   UNL A   1      44.109  30.792  28.458  1.00  0.00     0.049 A 
ATOM     60  H   UNL A   1      43.992  28.732  28.013  1.00  0.00     0.167 HD
ATOM     61  C   UNL A   1      46.396  30.207  27.700  1.00  0.00     0.074 A 
ATOM     62  C   UNL A   1      47.767  30.533  27.374  1.00  0.00     0.031 C 
ATOM     63  C   UNL A   1      45.483  31.101  28.150  1.00  0.00     0.037 A 
BRANCH  50  64
ATOM     64  C   UNL A   1      39.854  28.729  29.068  1.00  0.00     0.064 A 
ATOM     65  C   UNL A   1      39.398  28.546  30.384  1.00  0.00     0.173 A 
ATOM     66  C   UNL A   1      38.935  29.198  28.117  1.00  0.00     0.173 A 
ATOM     67  F   UNL A   1      40.233  28.093  31.330  1.00  0.00    -0.203 F 
ATOM     68  C   UNL A   1      38.070  28.793  30.723  1.00  0.00     0.198 A 
ATOM     69  C   UNL A   1      37.617  29.477  28.469  1.00  0.00     0.198 A 
ATOM     70  F   UNL A   1      39.317  29.399  26.847  1.00  0.00    -0.203 F 
ATOM     71  F   UNL A   1      37.647  28.561  31.973  1.00  0.00    -0.200 F 
ATOM     72  C   UNL A   1      37.182  29.266  29.768  1.00  0.00     0.200 A 
ATOM     73  F   UNL A   1      36.765  29.950  27.548  1.00  0.00    -0.200 F 
ATOM     74  F   UNL A   1      35.907  29.512  30.100  1.00  0.00    -0.200 F 
ENDBRANCH  50  64
BRANCH  51  75
ATOM     75  C   UNL A   1      49.211  26.743  26.205  1.00  0.00     0.064 A 
ATOM     76  C   UNL A   1      49.570  26.919  24.862  1.00  0.00     0.173 A 
ATOM     77  C   UNL A   1      50.201  26.289  27.089  1.00  0.00     0.173 A 
ATOM     78  F   UNL A   1      48.653  27.332  23.973  1.00  0.00    -0.203 F 
ATOM     79  C   UNL A   1      50.858  26.630  24.414  1.00  0.00     0.198 A 
ATOM     80  C   UNL A   1      51.498  26.030  26.647  1.00  0.00     0.198 A 
ATOM     81  F   UNL A   1      49.912  26.106  28.385  1.00  0.00    -0.203 F 
ATOM     82  F   UNL A   1      51.158  26.757  23.115  1.00  0.00    -0.200 F 
ATOM     83  C   UNL A   1      51.822  26.191  25.309  1.00  0.00     0.200 A 
ATOM     84  F   UNL A   1      52.430  25.621  27.518  1.00  0.00    -0.200 F 
ATOM     85  F   UNL A   1      53.061  25.916  24.879  1.00  0.00    -0.200 F 
ENDBRANCH  51  75
BRANCH  63  86
ATOM     86  C   UNL A   1      45.942  32.513  28.377  1.00  0.00     0.064 A 
ATOM     87  C   UNL A   1      45.800  33.506  27.397  1.00  0.00     0.173 A 
ATOM     88  C   UNL A   1      46.467  32.891  29.623  1.00  0.00     0.173 A 
ATOM     89  F   UNL A   1      45.318  33.195  26.184  1.00  0.00    -0.203 F 
ATOM     90  C   UNL A   1      46.181  34.822  27.651  1.00  0.00     0.198 A 
ATOM     91  C   UNL A   1      46.816  34.213  29.885  1.00  0.00     0.198 A 
ATOM     92  F   UNL A   1      46.618  31.982  30.597  1.00  0.00    -0.203 F 
ATOM     93  F   UNL A   1      46.072  35.747  26.688  1.00  0.00    -0.200 F 
ATOM     94  C   UNL A   1      46.677  35.175  28.897  1.00  0.00     0.200 A 
ATOM     95  F   UNL A   1      47.278  34.555  31.094  1.00  0.00    -0.200 F 
ATOM     96  F   UNL A   1      47.024  36.447  29.145  1.00  0.00    -0.200 F 
ENDBRANCH  63  86
ENDBRANCH  37  38
ENDBRANCH  29  32
ENDBRANCH  27  28
ENDBRANCH  26  27
ENDBRANCH  25  26
ENDBRANCH   3  25
TORSDOF 15
ENDMDL
