MODEL 1
REMARK VINA RESULT:     -12.4      0.000      0.000
REMARK SMILES CCc1nc(N2CCC[C@@H](C(=O)NCCCNC(=O)c3ccc(-c4c5nc(c(-c6c(F)c(F)c(F)c(F)c6F)c6ccc([nH]6)c(-c6c(F)c(F)c(F)c(F)c6F)c6nc(c(-c7c(F)c(F)c(F)c(F)c7F)c7ccc4[nH]7)C=C6)C=C5)cc3)C2)c2c(C)c(C)oc2n1
REMARK SMILES IDX 15 1 14 2 13 3 11 4 12 5 10 7 6 8 7 9 83 10 8 11 9 12 5 13
REMARK SMILES IDX 3 14 4 15 91 16 90 17 84 18 89 19 85 20 87 21 86 22 88 23
REMARK SMILES IDX 2 24 1 25 16 26 17 27 18 28 19 30 20 31 21 32 82 33 22 34
REMARK SMILES IDX 81 35 23 36 24 37 25 38 75 39 26 40 80 41 74 42 76 43 27 44
REMARK SMILES IDX 79 45 73 46 72 47 28 49 60 50 40 51 59 52 41 53 44 54 58 55
REMARK SMILES IDX 77 56 42 57 43 58 57 60 78 61 45 62 29 63 30 64 38 65 31 66
REMARK SMILES IDX 32 67 36 68 39 69 33 70 34 71 37 72 35 73 61 74 62 75 70 76
REMARK SMILES IDX 63 77 64 78 68 79 71 80 65 81 66 82 69 83 67 84 46 85 47 86
REMARK SMILES IDX 55 87 48 88 49 89 53 90 56 91 50 92 51 93 54 94 52 95
REMARK H PARENT 13 6 17 29 76 48 44 59
REMARK Flexibility Score: inf
ROOT
ATOM      1  C   UNL A   1      36.296  21.753  24.429  1.00  0.00     0.042 C 
ENDROOT
BRANCH   1   2
ATOM      2  C   UNL A   1      35.078  21.056  25.063  1.00  0.00     0.117 C 
BRANCH   2   3
ATOM      3  N   UNL A   1      33.968  20.825  24.145  1.00  0.00    -0.356 N 
ATOM      4  C   UNL A   1      32.875  21.591  23.841  1.00  0.00     0.224 C 
ATOM      5  O   UNL A   1      32.234  21.285  22.829  1.00  0.00    -0.275 OA
ATOM      6  H   UNL A   1      34.012  19.970  23.661  1.00  0.00     0.163 HD
BRANCH   4   7
ATOM      7  C   UNL A   1      32.400  22.710  24.754  1.00  0.00     0.098 C 
ATOM      8  N   UNL A   1      30.879  24.526  25.065  1.00  0.00    -0.355 N 
ATOM      9  C   UNL A   1      30.206  24.049  26.263  1.00  0.00     0.118 C 
ATOM     10  C   UNL A   1      31.261  23.507  24.096  1.00  0.00     0.131 C 
ATOM     11  C   UNL A   1      31.115  23.055  26.993  1.00  0.00     0.022 C 
ATOM     12  C   UNL A   1      31.903  22.097  26.084  1.00  0.00     0.017 C 
BRANCH   8  13
ATOM     13  C   UNL A   1      30.734  25.842  24.687  1.00  0.00     0.143 A 
ATOM     14  C   UNL A   1      29.457  27.577  23.747  1.00  0.00     0.134 A 
ATOM     15  N   UNL A   1      29.599  26.267  24.073  1.00  0.00    -0.215 NA
ATOM     16  N   UNL A   1      30.359  28.549  23.957  1.00  0.00    -0.197 NA
ATOM     17  C   UNL A   1      31.485  28.084  24.502  1.00  0.00     0.231 A 
ATOM     18  C   UNL A   1      31.767  26.780  24.868  1.00  0.00     0.086 A 
ATOM     19  O   UNL A   1      32.558  28.884  24.758  1.00  0.00    -0.443 OA
ATOM     20  C   UNL A   1      33.136  26.774  25.296  1.00  0.00     0.004 A 
ATOM     21  C   UNL A   1      33.550  28.091  25.242  1.00  0.00     0.107 A 
ATOM     22  C   UNL A   1      33.980  25.621  25.679  1.00  0.00     0.049 C 
ATOM     23  C   UNL A   1      34.829  28.759  25.561  1.00  0.00     0.088 C 
BRANCH  14  24
ATOM     24  C   UNL A   1      28.218  28.023  23.006  1.00  0.00     0.074 C 
ATOM     25  C   UNL A   1      28.238  29.450  22.486  1.00  0.00     0.012 C 
ENDBRANCH  14  24
ENDBRANCH   8  13
ENDBRANCH   4   7
ENDBRANCH   2   3
ENDBRANCH   1   2
BRANCH   1  26
ATOM     26  C   UNL A   1      37.125  22.695  25.335  1.00  0.00     0.118 C 
BRANCH  26  27
ATOM     27  N   UNL A   1      38.134  21.975  26.101  1.00  0.00    -0.352 N 
ATOM     28  C   UNL A   1      39.288  22.344  26.736  1.00  0.00     0.251 C 
ATOM     29  H   UNL A   1      37.944  21.012  26.179  1.00  0.00     0.163 HD
ATOM     30  O   UNL A   1      40.031  21.420  27.113  1.00  0.00    -0.269 OA
BRANCH  28  31
ATOM     31  C   UNL A   1      39.732  23.735  27.021  1.00  0.00     0.039 A 
ATOM     32  C   UNL A   1      41.046  24.077  26.650  1.00  0.00     0.014 A 
ATOM     33  C   UNL A   1      39.005  24.644  27.791  1.00  0.00     0.014 A 
ATOM     34  C   UNL A   1      41.616  25.307  27.007  1.00  0.00     0.010 A 
ATOM     35  C   UNL A   1      39.580  25.882  28.151  1.00  0.00     0.010 A 
ATOM     36  C   UNL A   1      40.884  26.236  27.752  1.00  0.00    -0.014 A 
BRANCH  36  37
ATOM     37  C   UNL A   1      41.431  27.616  27.876  1.00  0.00     0.031 A 
ATOM     38  C   UNL A   1      40.379  28.678  27.933  1.00  0.00     0.074 A 
ATOM     39  C   UNL A   1      42.643  27.953  28.380  1.00  0.00     0.049 A 
ATOM     40  N   UNL A   1      39.771  29.002  29.037  1.00  0.00    -0.248 NA
ATOM     41  C   UNL A   1      39.760  29.232  26.730  1.00  0.00     0.031 C 
ATOM     42  C   UNL A   1      43.289  27.250  29.492  1.00  0.00     0.029 A 
ATOM     43  N   UNL A   1      43.408  29.095  28.214  1.00  0.00    -0.354 N 
ATOM     44  C   UNL A   1      38.652  29.732  28.688  1.00  0.00     0.074 A 
ATOM     45  C   UNL A   1      38.696  29.868  27.247  1.00  0.00     0.031 C 
ATOM     46  C   UNL A   1      44.237  28.055  30.020  1.00  0.00     0.029 A 
ATOM     47  C   UNL A   1      44.380  29.262  29.201  1.00  0.00     0.049 A 
ATOM     48  H   UNL A   1      43.277  29.729  27.472  1.00  0.00     0.167 HD
ATOM     49  C   UNL A   1      37.747  30.169  29.602  1.00  0.00     0.037 A 
ATOM     50  C   UNL A   1      44.833  30.458  29.678  1.00  0.00     0.037 A 
ATOM     51  C   UNL A   1      38.043  29.869  30.971  1.00  0.00     0.049 A 
ATOM     52  C   UNL A   1      43.636  30.927  30.467  1.00  0.00     0.074 A 
ATOM     53  C   UNL A   1      37.700  28.918  31.907  1.00  0.00     0.029 A 
ATOM     54  N   UNL A   1      38.938  30.685  31.622  1.00  0.00    -0.354 N 
ATOM     55  N   UNL A   1      43.289  30.529  31.662  1.00  0.00    -0.248 NA
ATOM     56  C   UNL A   1      42.589  31.628  29.723  1.00  0.00     0.031 C 
ATOM     57  C   UNL A   1      38.752  28.943  32.878  1.00  0.00     0.029 A 
ATOM     58  C   UNL A   1      39.686  29.880  32.441  1.00  0.00     0.049 A 
ATOM     59  H   UNL A   1      39.024  31.660  31.520  1.00  0.00     0.167 HD
ATOM     60  C   UNL A   1      41.902  30.685  31.707  1.00  0.00     0.074 A 
ATOM     61  C   UNL A   1      41.540  31.390  30.495  1.00  0.00     0.031 C 
ATOM     62  C   UNL A   1      41.105  30.071  32.626  1.00  0.00     0.037 A 
BRANCH  49  63
ATOM     63  C   UNL A   1      36.615  31.063  29.306  1.00  0.00     0.064 A 
ATOM     64  C   UNL A   1      35.454  30.486  28.772  1.00  0.00     0.173 A 
ATOM     65  C   UNL A   1      36.728  32.455  29.305  1.00  0.00     0.173 A 
ATOM     66  F   UNL A   1      35.319  29.150  28.752  1.00  0.00    -0.203 F 
ATOM     67  C   UNL A   1      34.461  31.270  28.202  1.00  0.00     0.198 A 
ATOM     68  C   UNL A   1      35.723  33.242  28.743  1.00  0.00     0.198 A 
ATOM     69  F   UNL A   1      37.827  33.047  29.795  1.00  0.00    -0.203 F 
ATOM     70  F   UNL A   1      33.391  30.687  27.645  1.00  0.00    -0.200 F 
ATOM     71  C   UNL A   1      34.601  32.648  28.177  1.00  0.00     0.200 A 
ATOM     72  F   UNL A   1      35.855  34.576  28.715  1.00  0.00    -0.200 F 
ATOM     73  F   UNL A   1      33.661  33.404  27.593  1.00  0.00    -0.200 F 
ENDBRANCH  49  63
BRANCH  50  74
ATOM     74  C   UNL A   1      45.580  31.356  28.732  1.00  0.00     0.064 A 
ATOM     75  C   UNL A   1      46.883  31.764  29.080  1.00  0.00     0.173 A 
ATOM     76  C   UNL A   1      45.086  31.870  27.521  1.00  0.00     0.173 A 
ATOM     77  F   UNL A   1      47.389  31.446  30.282  1.00  0.00    -0.203 F 
ATOM     78  C   UNL A   1      47.686  32.508  28.212  1.00  0.00     0.198 A 
ATOM     79  C   UNL A   1      45.899  32.585  26.636  1.00  0.00     0.198 A 
ATOM     80  F   UNL A   1      43.809  31.689  27.158  1.00  0.00    -0.203 F 
ATOM     81  F   UNL A   1      48.932  32.843  28.575  1.00  0.00    -0.200 F 
ATOM     82  C   UNL A   1      47.206  32.884  26.972  1.00  0.00     0.200 A 
ATOM     83  F   UNL A   1      45.413  32.964  25.444  1.00  0.00    -0.200 F 
ATOM     84  F   UNL A   1      47.994  33.540  26.109  1.00  0.00    -0.200 F 
ENDBRANCH  50  74
BRANCH  62  85
ATOM     85  C   UNL A   1      41.810  29.369  33.732  1.00  0.00     0.064 A 
ATOM     86  C   UNL A   1      42.072  30.039  34.934  1.00  0.00     0.173 A 
ATOM     87  C   UNL A   1      42.183  28.020  33.633  1.00  0.00     0.173 A 
ATOM     88  F   UNL A   1      41.725  31.328  35.079  1.00  0.00    -0.203 F 
ATOM     89  C   UNL A   1      42.656  29.375  36.007  1.00  0.00     0.198 A 
ATOM     90  C   UNL A   1      42.744  27.354  34.718  1.00  0.00     0.198 A 
ATOM     91  F   UNL A   1      41.980  27.333  32.498  1.00  0.00    -0.203 F 
ATOM     92  F   UNL A   1      42.885  30.031  37.155  1.00  0.00    -0.200 F 
ATOM     93  C   UNL A   1      42.977  28.030  35.904  1.00  0.00     0.200 A 
ATOM     94  F   UNL A   1      43.035  26.047  34.623  1.00  0.00    -0.200 F 
ATOM     95  F   UNL A   1      43.498  27.381  36.956  1.00  0.00    -0.200 F 
ENDBRANCH  62  85
ENDBRANCH  36  37
ENDBRANCH  28  31
ENDBRANCH  26  27
ENDBRANCH   1  26
TORSDOF 12
ENDMDL
MODEL 2
REMARK VINA RESULT:     -12.0      5.225     10.118
REMARK SMILES CCc1nc(N2CCC[C@@H](C(=O)NCCCNC(=O)c3ccc(-c4c5nc(c(-c6c(F)c(F)c(F)c(F)c6F)c6ccc([nH]6)c(-c6c(F)c(F)c(F)c(F)c6F)c6nc(c(-c7c(F)c(F)c(F)c(F)c7F)c7ccc4[nH]7)C=C6)C=C5)cc3)C2)c2c(C)c(C)oc2n1
REMARK SMILES IDX 15 1 14 2 13 3 11 4 12 5 10 7 6 8 7 9 83 10 8 11 9 12 5 13
REMARK SMILES IDX 3 14 4 15 91 16 90 17 84 18 89 19 85 20 87 21 86 22 88 23
REMARK SMILES IDX 2 24 1 25 16 26 17 27 18 28 19 30 20 31 21 32 82 33 22 34
REMARK SMILES IDX 81 35 23 36 24 37 25 38 75 39 26 40 80 41 74 42 76 43 27 44
REMARK SMILES IDX 79 45 73 46 72 47 28 49 60 50 40 51 59 52 41 53 44 54 58 55
REMARK SMILES IDX 77 56 42 57 43 58 57 60 78 61 45 62 29 63 30 64 38 65 31 66
REMARK SMILES IDX 32 67 36 68 39 69 33 70 34 71 37 72 35 73 61 74 62 75 70 76
REMARK SMILES IDX 63 77 64 78 68 79 71 80 65 81 66 82 69 83 67 84 46 85 47 86
REMARK SMILES IDX 55 87 48 88 49 89 53 90 56 91 50 92 51 93 54 94 52 95
REMARK H PARENT 13 6 17 29 76 48 44 59
REMARK Flexibility Score: inf
ROOT
ATOM      1  C   UNL A   1      43.017  26.305  37.177  1.00  0.00     0.042 C 
ENDROOT
BRANCH   1   2
ATOM      2  C   UNL A   1      42.827  27.376  36.086  1.00  0.00     0.117 C 
BRANCH   2   3
ATOM      3  N   UNL A   1      41.650  27.181  35.246  1.00  0.00    -0.356 N 
ATOM      4  C   UNL A   1      41.036  28.011  34.348  1.00  0.00     0.224 C 
ATOM      5  O   UNL A   1      40.221  27.500  33.572  1.00  0.00    -0.275 OA
ATOM      6  H   UNL A   1      41.223  26.300  35.343  1.00  0.00     0.163 HD
BRANCH   4   7
ATOM      7  C   UNL A   1      41.262  29.514  34.361  1.00  0.00     0.098 C 
ATOM      8  N   UNL A   1      40.639  31.636  33.457  1.00  0.00    -0.355 N 
ATOM      9  C   UNL A   1      40.196  32.279  34.684  1.00  0.00     0.118 C 
ATOM     10  C   UNL A   1      40.349  30.213  33.338  1.00  0.00     0.131 C 
ATOM     11  C   UNL A   1      40.852  31.587  35.884  1.00  0.00     0.022 C 
ATOM     12  C   UNL A   1      40.964  30.056  35.777  1.00  0.00     0.017 C 
BRANCH   8  13
ATOM     13  C   UNL A   1      40.876  32.406  32.339  1.00  0.00     0.143 A 
ATOM     14  C   UNL A   1      42.349  33.571  30.927  1.00  0.00     0.134 A 
ATOM     15  N   UNL A   1      42.128  32.850  32.056  1.00  0.00    -0.215 NA
ATOM     16  N   UNL A   1      41.427  33.927  30.020  1.00  0.00    -0.197 NA
ATOM     17  C   UNL A   1      40.200  33.529  30.364  1.00  0.00     0.231 A 
ATOM     18  C   UNL A   1      39.833  32.806  31.485  1.00  0.00     0.086 A 
ATOM     19  O   UNL A   1      39.099  33.823  29.616  1.00  0.00    -0.443 OA
ATOM     20  C   UNL A   1      38.400  32.731  31.458  1.00  0.00     0.004 A 
ATOM     21  C   UNL A   1      38.016  33.335  30.277  1.00  0.00     0.107 A 
ATOM     22  C   UNL A   1      37.486  32.175  32.479  1.00  0.00     0.049 C 
ATOM     23  C   UNL A   1      36.701  33.573  29.648  1.00  0.00     0.088 C 
BRANCH  14  24
ATOM     24  C   UNL A   1      43.734  34.114  30.658  1.00  0.00     0.074 C 
ATOM     25  C   UNL A   1      44.869  33.419  31.390  1.00  0.00     0.012 C 
ENDBRANCH  14  24
ENDBRANCH   8  13
ENDBRANCH   4   7
ENDBRANCH   2   3
ENDBRANCH   1   2
BRANCH   1  26
ATOM     26  C   UNL A   1      42.742  24.834  36.782  1.00  0.00     0.118 C 
BRANCH  26  27
ATOM     27  N   UNL A   1      43.971  24.064  36.637  1.00  0.00    -0.352 N 
ATOM     28  C   UNL A   1      44.815  23.809  35.591  1.00  0.00     0.251 C 
ATOM     29  H   UNL A   1      44.256  23.633  37.476  1.00  0.00     0.163 HD
ATOM     30  O   UNL A   1      45.665  22.919  35.772  1.00  0.00    -0.269 OA
BRANCH  28  31
ATOM     31  C   UNL A   1      44.816  24.494  34.271  1.00  0.00     0.039 A 
ATOM     32  C   UNL A   1      45.240  25.836  34.246  1.00  0.00     0.014 A 
ATOM     33  C   UNL A   1      44.253  23.956  33.112  1.00  0.00     0.014 A 
ATOM     34  C   UNL A   1      45.137  26.620  33.088  1.00  0.00     0.010 A 
ATOM     35  C   UNL A   1      44.149  24.746  31.947  1.00  0.00     0.010 A 
ATOM     36  C   UNL A   1      44.602  26.080  31.914  1.00  0.00    -0.014 A 
BRANCH  36  37
ATOM     37  C   UNL A   1      44.759  26.861  30.655  1.00  0.00     0.031 A 
ATOM     38  C   UNL A   1      44.710  26.023  29.418  1.00  0.00     0.074 A 
ATOM     39  C   UNL A   1      44.485  28.177  30.492  1.00  0.00     0.049 A 
ATOM     40  N   UNL A   1      43.590  25.665  28.857  1.00  0.00    -0.248 NA
ATOM     41  C   UNL A   1      45.882  25.315  28.904  1.00  0.00     0.031 C 
ATOM     42  C   UNL A   1      43.384  28.872  31.166  1.00  0.00     0.029 A 
ATOM     43  N   UNL A   1      44.921  29.083  29.539  1.00  0.00    -0.354 N 
ATOM     44  C   UNL A   1      43.882  24.641  27.979  1.00  0.00     0.074 A 
ATOM     45  C   UNL A   1      45.319  24.470  28.025  1.00  0.00     0.031 C 
ATOM     46  C   UNL A   1      43.117  30.013  30.494  1.00  0.00     0.029 A 
ATOM     47  C   UNL A   1      44.114  30.218  29.441  1.00  0.00     0.049 A 
ATOM     48  H   UNL A   1      45.721  28.940  28.985  1.00  0.00     0.167 HD
ATOM     49  C   UNL A   1      42.924  23.983  27.277  1.00  0.00     0.037 A 
ATOM     50  C   UNL A   1      43.885  30.934  28.301  1.00  0.00     0.037 A 
ATOM     51  C   UNL A   1      41.581  24.445  27.462  1.00  0.00     0.049 A 
ATOM     52  C   UNL A   1      43.012  29.978  27.529  1.00  0.00     0.074 A 
ATOM     53  C   UNL A   1      40.477  24.108  28.215  1.00  0.00     0.029 A 
ATOM     54  N   UNL A   1      41.187  25.557  26.755  1.00  0.00    -0.354 N 
ATOM     55  N   UNL A   1      41.736  29.770  27.710  1.00  0.00    -0.248 NA
ATOM     56  C   UNL A   1      43.697  28.953  26.739  1.00  0.00     0.031 C 
ATOM     57  C   UNL A   1      39.677  25.295  28.271  1.00  0.00     0.029 A 
ATOM     58  C   UNL A   1      40.373  26.286  27.582  1.00  0.00     0.049 A 
ATOM     59  H   UNL A   1      41.441  25.785  25.832  1.00  0.00     0.167 HD
ATOM     60  C   UNL A   1      41.520  28.454  27.295  1.00  0.00     0.074 A 
ATOM     61  C   UNL A   1      42.759  28.020  26.684  1.00  0.00     0.031 C 
ATOM     62  C   UNL A   1      40.418  27.728  27.638  1.00  0.00     0.037 A 
BRANCH  49  63
ATOM     63  C   UNL A   1      43.184  22.981  26.229  1.00  0.00     0.064 A 
ATOM     64  C   UNL A   1      43.019  21.630  26.567  1.00  0.00     0.173 A 
ATOM     65  C   UNL A   1      43.808  23.294  25.019  1.00  0.00     0.173 A 
ATOM     66  F   UNL A   1      42.430  21.298  27.728  1.00  0.00    -0.203 F 
ATOM     67  C   UNL A   1      43.511  20.622  25.750  1.00  0.00     0.198 A 
ATOM     68  C   UNL A   1      44.290  22.278  24.194  1.00  0.00     0.198 A 
ATOM     69  F   UNL A   1      43.996  24.573  24.664  1.00  0.00    -0.203 F 
ATOM     70  F   UNL A   1      43.393  19.343  26.129  1.00  0.00    -0.200 F 
ATOM     71  C   UNL A   1      44.157  20.946  24.568  1.00  0.00     0.200 A 
ATOM     72  F   UNL A   1      44.918  22.588  23.050  1.00  0.00    -0.200 F 
ATOM     73  F   UNL A   1      44.667  19.975  23.798  1.00  0.00    -0.200 F 
ENDBRANCH  49  63
BRANCH  50  74
ATOM     74  C   UNL A   1      45.047  31.654  27.676  1.00  0.00     0.064 A 
ATOM     75  C   UNL A   1      44.878  33.000  27.296  1.00  0.00     0.173 A 
ATOM     76  C   UNL A   1      46.306  31.098  27.395  1.00  0.00     0.173 A 
ATOM     77  F   UNL A   1      43.670  33.579  27.389  1.00  0.00    -0.203 F 
ATOM     78  C   UNL A   1      45.934  33.774  26.808  1.00  0.00     0.198 A 
ATOM     79  C   UNL A   1      47.374  31.878  26.940  1.00  0.00     0.198 A 
ATOM     80  F   UNL A   1      46.540  29.788  27.560  1.00  0.00    -0.203 F 
ATOM     81  F   UNL A   1      45.731  35.061  26.492  1.00  0.00    -0.200 F 
ATOM     82  C   UNL A   1      47.194  33.221  26.669  1.00  0.00     0.200 A 
ATOM     83  F   UNL A   1      48.586  31.323  26.787  1.00  0.00    -0.200 F 
ATOM     84  F   UNL A   1      48.226  33.975  26.265  1.00  0.00    -0.200 F 
ENDBRANCH  50  74
BRANCH  62  85
ATOM     85  C   UNL A   1      39.332  28.479  28.322  1.00  0.00     0.064 A 
ATOM     86  C   UNL A   1      38.497  29.330  27.587  1.00  0.00     0.173 A 
ATOM     87  C   UNL A   1      39.076  28.323  29.693  1.00  0.00     0.173 A 
ATOM     88  F   UNL A   1      38.698  29.504  26.271  1.00  0.00    -0.203 F 
ATOM     89  C   UNL A   1      37.426  29.977  28.195  1.00  0.00     0.198 A 
ATOM     90  C   UNL A   1      37.987  28.952  30.291  1.00  0.00     0.198 A 
ATOM     91  F   UNL A   1      39.856  27.540  30.453  1.00  0.00    -0.203 F 
ATOM     92  F   UNL A   1      36.629  30.776  27.470  1.00  0.00    -0.200 F 
ATOM     93  C   UNL A   1      37.163  29.775  29.541  1.00  0.00     0.200 A 
ATOM     94  F   UNL A   1      37.722  28.739  31.589  1.00  0.00    -0.200 F 
ATOM     95  F   UNL A   1      36.102  30.363  30.114  1.00  0.00    -0.200 F 
ENDBRANCH  62  85
ENDBRANCH  36  37
ENDBRANCH  28  31
ENDBRANCH  26  27
ENDBRANCH   1  26
TORSDOF 12
ENDMDL
MODEL 3
REMARK VINA RESULT:     -12.0      4.514     10.650
REMARK SMILES CCc1nc(N2CCC[C@@H](C(=O)NCCCNC(=O)c3ccc(-c4c5nc(c(-c6c(F)c(F)c(F)c(F)c6F)c6ccc([nH]6)c(-c6c(F)c(F)c(F)c(F)c6F)c6nc(c(-c7c(F)c(F)c(F)c(F)c7F)c7ccc4[nH]7)C=C6)C=C5)cc3)C2)c2c(C)c(C)oc2n1
REMARK SMILES IDX 15 1 14 2 13 3 11 4 12 5 10 7 6 8 7 9 83 10 8 11 9 12 5 13
REMARK SMILES IDX 3 14 4 15 91 16 90 17 84 18 89 19 85 20 87 21 86 22 88 23
REMARK SMILES IDX 2 24 1 25 16 26 17 27 18 28 19 30 20 31 21 32 82 33 22 34
REMARK SMILES IDX 81 35 23 36 24 37 25 38 75 39 26 40 80 41 74 42 76 43 27 44
REMARK SMILES IDX 79 45 73 46 72 47 28 49 60 50 40 51 59 52 41 53 44 54 58 55
REMARK SMILES IDX 77 56 42 57 43 58 57 60 78 61 45 62 29 63 30 64 38 65 31 66
REMARK SMILES IDX 32 67 36 68 39 69 33 70 34 71 37 72 35 73 61 74 62 75 70 76
REMARK SMILES IDX 63 77 64 78 68 79 71 80 65 81 66 82 69 83 67 84 46 85 47 86
REMARK SMILES IDX 55 87 48 88 49 89 53 90 56 91 50 92 51 93 54 94 52 95
REMARK H PARENT 13 6 17 29 76 48 44 59
REMARK Flexibility Score: inf
ROOT
ATOM      1  C   UNL A   1      34.042  33.988  29.808  1.00  0.00     0.042 C 
ENDROOT
BRANCH   1   2
ATOM      2  C   UNL A   1      34.415  35.300  30.523  1.00  0.00     0.117 C 
BRANCH   2   3
ATOM      3  N   UNL A   1      34.109  35.319  31.949  1.00  0.00    -0.356 N 
ATOM      4  C   UNL A   1      34.879  35.021  33.040  1.00  0.00     0.224 C 
ATOM      5  O   UNL A   1      34.459  35.383  34.145  1.00  0.00    -0.275 OA
ATOM      6  H   UNL A   1      33.189  35.593  32.164  1.00  0.00     0.163 HD
BRANCH   4   7
ATOM      7  C   UNL A   1      36.148  34.191  32.924  1.00  0.00     0.098 C 
ATOM      8  N   UNL A   1      38.279  33.658  33.863  1.00  0.00    -0.355 N 
ATOM      9  C   UNL A   1      38.068  32.239  34.101  1.00  0.00     0.118 C 
ATOM     10  C   UNL A   1      37.124  34.521  34.067  1.00  0.00     0.131 C 
ATOM     11  C   UNL A   1      36.959  31.729  33.174  1.00  0.00     0.022 C 
ATOM     12  C   UNL A   1      35.776  32.692  32.976  1.00  0.00     0.017 C 
BRANCH   8  13
ATOM     13  C   UNL A   1      39.559  34.167  33.905  1.00  0.00     0.143 A 
ATOM     14  C   UNL A   1      41.389  35.015  35.110  1.00  0.00     0.134 A 
ATOM     15  N   UNL A   1      40.112  34.557  35.083  1.00  0.00    -0.215 NA
ATOM     16  N   UNL A   1      42.206  35.150  34.054  1.00  0.00    -0.197 NA
ATOM     17  C   UNL A   1      41.608  34.819  32.907  1.00  0.00     0.231 A 
ATOM     18  C   UNL A   1      40.316  34.355  32.735  1.00  0.00     0.086 A 
ATOM     19  O   UNL A   1      42.232  34.926  31.700  1.00  0.00    -0.443 OA
ATOM     20  C   UNL A   1      40.115  34.255  31.318  1.00  0.00     0.004 A 
ATOM     21  C   UNL A   1      41.329  34.579  30.744  1.00  0.00     0.107 A 
ATOM     22  C   UNL A   1      38.876  33.923  30.582  1.00  0.00     0.049 C 
ATOM     23  C   UNL A   1      41.794  34.654  29.344  1.00  0.00     0.088 C 
BRANCH  14  24
ATOM     24  C   UNL A   1      41.969  35.506  36.416  1.00  0.00     0.074 C 
ATOM     25  C   UNL A   1      43.317  34.920  36.801  1.00  0.00     0.012 C 
ENDBRANCH  14  24
ENDBRANCH   8  13
ENDBRANCH   4   7
ENDBRANCH   2   3
ENDBRANCH   1   2
BRANCH   1  26
ATOM     26  C   UNL A   1      34.708  33.713  28.439  1.00  0.00     0.118 C 
BRANCH  26  27
ATOM     27  N   UNL A   1      34.178  32.516  27.798  1.00  0.00    -0.352 N 
ATOM     28  C   UNL A   1      34.666  31.255  27.588  1.00  0.00     0.251 C 
ATOM     29  H   UNL A   1      33.271  32.641  27.438  1.00  0.00     0.163 HD
ATOM     30  O   UNL A   1      34.022  30.537  26.804  1.00  0.00    -0.269 OA
BRANCH  28  31
ATOM     31  C   UNL A   1      35.881  30.664  28.211  1.00  0.00     0.039 A 
ATOM     32  C   UNL A   1      35.851  30.454  29.602  1.00  0.00     0.014 A 
ATOM     33  C   UNL A   1      37.093  30.487  27.541  1.00  0.00     0.014 A 
ATOM     34  C   UNL A   1      36.990  30.047  30.311  1.00  0.00     0.010 A 
ATOM     35  C   UNL A   1      38.241  30.078  28.256  1.00  0.00     0.010 A 
ATOM     36  C   UNL A   1      38.201  29.838  29.644  1.00  0.00    -0.014 A 
BRANCH  36  37
ATOM     37  C   UNL A   1      39.297  29.157  30.388  1.00  0.00     0.031 A 
ATOM     38  C   UNL A   1      39.475  27.720  30.017  1.00  0.00     0.074 A 
ATOM     39  C   UNL A   1      40.367  29.759  30.961  1.00  0.00     0.049 A 
ATOM     40  N   UNL A   1      40.172  27.344  28.983  1.00  0.00    -0.248 NA
ATOM     41  C   UNL A   1      38.667  26.653  30.605  1.00  0.00     0.031 C 
ATOM     42  C   UNL A   1      41.040  30.935  30.401  1.00  0.00     0.029 A 
ATOM     43  N   UNL A   1      41.221  29.328  31.963  1.00  0.00    -0.354 N 
ATOM     44  C   UNL A   1      39.849  26.027  28.729  1.00  0.00     0.074 A 
ATOM     45  C   UNL A   1      38.926  25.632  29.772  1.00  0.00     0.031 C 
ATOM     46  C   UNL A   1      42.274  31.025  30.943  1.00  0.00     0.029 A 
ATOM     47  C   UNL A   1      42.433  30.019  31.996  1.00  0.00     0.049 A 
ATOM     48  H   UNL A   1      40.995  28.604  32.590  1.00  0.00     0.167 HD
ATOM     49  C   UNL A   1      40.346  25.342  27.667  1.00  0.00     0.037 A 
ATOM     50  C   UNL A   1      43.635  29.498  32.378  1.00  0.00     0.037 A 
ATOM     51  C   UNL A   1      41.273  26.054  26.839  1.00  0.00     0.049 A 
ATOM     52  C   UNL A   1      43.936  28.582  31.219  1.00  0.00     0.074 A 
ATOM     53  C   UNL A   1      41.255  26.769  25.663  1.00  0.00     0.029 A 
ATOM     54  N   UNL A   1      42.578  26.130  27.267  1.00  0.00    -0.354 N 
ATOM     55  N   UNL A   1      44.407  28.934  30.053  1.00  0.00    -0.248 NA
ATOM     56  C   UNL A   1      43.347  27.243  31.267  1.00  0.00     0.031 C 
ATOM     57  C   UNL A   1      42.411  27.612  25.711  1.00  0.00     0.029 A 
ATOM     58  C   UNL A   1      43.031  27.381  26.937  1.00  0.00     0.049 A 
ATOM     59  H   UNL A   1      43.089  25.423  27.723  1.00  0.00     0.167 HD
ATOM     60  C   UNL A   1      43.924  27.972  29.162  1.00  0.00     0.074 A 
ATOM     61  C   UNL A   1      43.305  26.948  29.977  1.00  0.00     0.031 C 
ATOM     62  C   UNL A   1      43.884  28.150  27.811  1.00  0.00     0.037 A 
BRANCH  49  63
ATOM     63  C   UNL A   1      40.146  23.903  27.422  1.00  0.00     0.064 A 
ATOM     64  C   UNL A   1      41.102  23.017  27.939  1.00  0.00     0.173 A 
ATOM     65  C   UNL A   1      39.204  23.412  26.516  1.00  0.00     0.173 A 
ATOM     66  F   UNL A   1      42.026  23.462  28.807  1.00  0.00    -0.203 F 
ATOM     67  C   UNL A   1      41.153  21.695  27.521  1.00  0.00     0.198 A 
ATOM     68  C   UNL A   1      39.250  22.079  26.107  1.00  0.00     0.198 A 
ATOM     69  F   UNL A   1      38.280  24.228  25.988  1.00  0.00    -0.203 F 
ATOM     70  F   UNL A   1      42.116  20.888  27.986  1.00  0.00    -0.200 F 
ATOM     71  C   UNL A   1      40.234  21.228  26.596  1.00  0.00     0.200 A 
ATOM     72  F   UNL A   1      38.363  21.624  25.210  1.00  0.00    -0.200 F 
ATOM     73  F   UNL A   1      40.306  19.962  26.163  1.00  0.00    -0.200 F 
ENDBRANCH  49  63
BRANCH  50  74
ATOM     74  C   UNL A   1      43.793  29.068  33.810  1.00  0.00     0.064 A 
ATOM     75  C   UNL A   1      44.998  29.373  34.475  1.00  0.00     0.173 A 
ATOM     76  C   UNL A   1      42.852  28.346  34.562  1.00  0.00     0.173 A 
ATOM     77  F   UNL A   1      46.015  29.932  33.801  1.00  0.00    -0.203 F 
ATOM     78  C   UNL A   1      45.186  29.107  35.834  1.00  0.00     0.198 A 
ATOM     79  C   UNL A   1      43.023  28.110  35.930  1.00  0.00     0.198 A 
ATOM     80  F   UNL A   1      41.739  27.857  33.998  1.00  0.00    -0.203 F 
ATOM     81  F   UNL A   1      46.338  29.448  36.429  1.00  0.00    -0.200 F 
ATOM     82  C   UNL A   1      44.180  28.511  36.571  1.00  0.00     0.200 A 
ATOM     83  F   UNL A   1      42.048  27.509  36.628  1.00  0.00    -0.200 F 
ATOM     84  F   UNL A   1      44.329  28.314  37.888  1.00  0.00    -0.200 F 
ENDBRANCH  50  74
BRANCH  62  85
ATOM     85  C   UNL A   1      44.580  29.360  27.295  1.00  0.00     0.064 A 
ATOM     86  C   UNL A   1      43.875  30.561  27.137  1.00  0.00     0.173 A 
ATOM     87  C   UNL A   1      45.952  29.356  27.004  1.00  0.00     0.173 A 
ATOM     88  F   UNL A   1      42.562  30.615  27.412  1.00  0.00    -0.203 F 
ATOM     89  C   UNL A   1      44.526  31.721  26.734  1.00  0.00     0.198 A 
ATOM     90  C   UNL A   1      46.604  30.526  26.626  1.00  0.00     0.198 A 
ATOM     91  F   UNL A   1      46.674  28.231  27.114  1.00  0.00    -0.203 F 
ATOM     92  F   UNL A   1      43.836  32.864  26.603  1.00  0.00    -0.200 F 
ATOM     93  C   UNL A   1      45.892  31.707  26.495  1.00  0.00     0.200 A 
ATOM     94  F   UNL A   1      47.929  30.515  26.415  1.00  0.00    -0.200 F 
ATOM     95  F   UNL A   1      46.526  32.838  26.151  1.00  0.00    -0.200 F 
ENDBRANCH  62  85
ENDBRANCH  36  37
ENDBRANCH  28  31
ENDBRANCH  26  27
ENDBRANCH   1  26
TORSDOF 12
ENDMDL
