MODEL 1
REMARK VINA RESULT:     -11.9      0.000      0.000
REMARK SMILES CCC(CC)(NC(=O)N(C)[C@H]1CCC[C@H](C)C1)C(=O)NCCCNC(=O)c1ccc(-c2c3nc(c(-c4c(F)c(F)c(F)c(F)c4F)c4ccc([nH]4)c(-c4c(F)c(F)c(F)c(F)c4F)c4nc(c(-c5c(F)c(F)c(F)c(F)c5F)c5ccc2[nH]5)C=C4)C=C3)cc1
REMARK SMILES IDX 21 1 20 2 18 3 19 4 3 6 2 7 1 8 4 9 5 10 6 11 7 12 8 14 9 15
REMARK SMILES IDX 10 16 11 17 12 18 17 19 13 20 15 21 14 22 16 23 22 24 23 25
REMARK SMILES IDX 24 26 25 27 26 29 27 30 28 31 89 32 29 33 88 34 30 35 31 36
REMARK SMILES IDX 32 37 82 38 33 39 87 40 81 41 83 42 34 43 86 44 80 45 79 46
REMARK SMILES IDX 35 48 67 49 47 50 66 51 48 52 51 53 65 54 84 55 49 56 50 57
REMARK SMILES IDX 64 59 85 60 52 61 36 62 37 63 45 64 38 65 39 66 43 67 46 68
REMARK SMILES IDX 40 69 41 70 44 71 42 72 68 73 69 74 77 75 70 76 71 77 75 78
REMARK SMILES IDX 78 79 72 80 73 81 76 82 74 83 53 84 54 85 62 86 55 87 56 88
REMARK SMILES IDX 60 89 63 90 57 91 58 92 61 93 59 94
REMARK H PARENT 20 5 6 13 24 28 83 47 51 58
REMARK Flexibility Score: inf
ROOT
ATOM      1  C   UNL A   1      31.612  30.717  26.122  1.00  0.00     0.117 C 
ENDROOT
BRANCH   1   2
ATOM      2  N   UNL A   1      31.083  30.295  24.828  1.00  0.00    -0.354 N 
ATOM      3  C   UNL A   1      31.179  29.106  24.134  1.00  0.00     0.245 C 
ATOM      4  O   UNL A   1      30.304  28.915  23.283  1.00  0.00    -0.272 OA
ATOM      5  H   UNL A   1      30.562  30.989  24.363  1.00  0.00     0.163 HD
BRANCH   3   6
ATOM      6  C   UNL A   1      32.251  28.006  24.486  1.00  0.00     0.120 C 
BRANCH   6   7
ATOM      7  C   UNL A   1      33.686  28.427  24.945  1.00  0.00     0.035 C 
ATOM      8  C   UNL A   1      34.107  28.059  26.358  1.00  0.00     0.007 C 
ENDBRANCH   6   7
BRANCH   6   9
ATOM      9  C   UNL A   1      32.446  27.226  23.128  1.00  0.00     0.035 C 
ATOM     10  C   UNL A   1      33.735  27.462  22.348  1.00  0.00     0.007 C 
ENDBRANCH   6   9
BRANCH   6  11
ATOM     11  N   UNL A   1      31.647  27.185  25.565  1.00  0.00    -0.323 N 
ATOM     12  C   UNL A   1      31.016  25.980  25.625  1.00  0.00     0.318 C 
ATOM     13  H   UNL A   1      31.719  27.614  26.448  1.00  0.00     0.166 HD
ATOM     14  O   UNL A   1      30.662  25.639  26.759  1.00  0.00    -0.249 OA
BRANCH  12  15
ATOM     15  N   UNL A   1      30.926  25.112  24.556  1.00  0.00    -0.325 N 
ATOM     16  C   UNL A   1      30.033  25.238  23.417  1.00  0.00     0.149 C 
BRANCH  15  17
ATOM     17  C   UNL A   1      31.719  23.853  24.624  1.00  0.00     0.086 C 
ATOM     18  C   UNL A   1      31.917  23.137  23.276  1.00  0.00     0.025 C 
ATOM     19  C   UNL A   1      33.049  24.003  25.391  1.00  0.00     0.028 C 
ATOM     20  C   UNL A   1      33.130  23.589  22.464  1.00  0.00     0.002 C 
ATOM     21  C   UNL A   1      34.252  24.477  24.567  1.00  0.00    -0.012 C 
ATOM     22  C   UNL A   1      34.415  23.659  23.288  1.00  0.00     0.003 C 
ATOM     23  C   UNL A   1      35.520  24.434  25.424  1.00  0.00     0.008 C 
ENDBRANCH  15  17
ENDBRANCH  12  15
ENDBRANCH   6  11
ENDBRANCH   3   6
ENDBRANCH   1   2
BRANCH   1  24
ATOM     24  C   UNL A   1      31.406  32.174  26.518  1.00  0.00     0.042 C 
BRANCH  24  25
ATOM     25  C   UNL A   1      32.522  32.852  27.289  1.00  0.00     0.118 C 
BRANCH  25  26
ATOM     26  N   UNL A   1      32.243  34.208  27.719  1.00  0.00    -0.352 N 
ATOM     27  C   UNL A   1      32.954  35.031  28.563  1.00  0.00     0.251 C 
ATOM     28  H   UNL A   1      31.419  34.601  27.349  1.00  0.00     0.163 HD
ATOM     29  O   UNL A   1      32.562  36.174  28.761  1.00  0.00    -0.269 OA
BRANCH  27  30
ATOM     30  C   UNL A   1      34.145  34.534  29.296  1.00  0.00     0.039 A 
ATOM     31  C   UNL A   1      33.927  33.902  30.525  1.00  0.00     0.014 A 
ATOM     32  C   UNL A   1      35.450  34.671  28.813  1.00  0.00     0.014 A 
ATOM     33  C   UNL A   1      34.996  33.334  31.221  1.00  0.00     0.010 A 
ATOM     34  C   UNL A   1      36.512  34.048  29.478  1.00  0.00     0.010 A 
ATOM     35  C   UNL A   1      36.291  33.361  30.682  1.00  0.00    -0.014 A 
BRANCH  35  36
ATOM     36  C   UNL A   1      37.397  32.634  31.361  1.00  0.00     0.031 A 
ATOM     37  C   UNL A   1      38.084  31.475  30.697  1.00  0.00     0.074 A 
ATOM     38  C   UNL A   1      37.774  33.015  32.597  1.00  0.00     0.049 A 
ATOM     39  N   UNL A   1      39.084  30.749  31.133  1.00  0.00    -0.248 NA
ATOM     40  C   UNL A   1      37.575  31.069  29.380  1.00  0.00     0.031 C 
ATOM     41  C   UNL A   1      37.159  34.096  33.369  1.00  0.00     0.029 A 
ATOM     42  N   UNL A   1      38.763  32.540  33.422  1.00  0.00    -0.354 N 
ATOM     43  C   UNL A   1      39.325  29.805  30.145  1.00  0.00     0.074 A 
ATOM     44  C   UNL A   1      38.337  30.018  29.108  1.00  0.00     0.031 C 
ATOM     45  C   UNL A   1      37.801  34.218  34.542  1.00  0.00     0.029 A 
ATOM     46  C   UNL A   1      38.852  33.208  34.620  1.00  0.00     0.049 A 
ATOM     47  H   UNL A   1      39.355  31.792  33.178  1.00  0.00     0.167 HD
ATOM     48  C   UNL A   1      40.296  28.861  30.096  1.00  0.00     0.037 A 
ATOM     49  C   UNL A   1      39.683  33.027  35.664  1.00  0.00     0.037 A 
ATOM     50  C   UNL A   1      41.288  28.655  31.120  1.00  0.00     0.049 A 
ATOM     51  C   UNL A   1      40.738  31.957  35.592  1.00  0.00     0.074 A 
ATOM     52  C   UNL A   1      42.348  27.764  31.127  1.00  0.00     0.029 A 
ATOM     53  N   UNL A   1      41.336  29.341  32.325  1.00  0.00    -0.354 N 
ATOM     54  N   UNL A   1      41.007  31.124  34.616  1.00  0.00    -0.248 NA
ATOM     55  C   UNL A   1      41.608  31.804  36.767  1.00  0.00     0.031 C 
ATOM     56  C   UNL A   1      43.009  27.878  32.355  1.00  0.00     0.029 A 
ATOM     57  C   UNL A   1      42.389  28.871  33.095  1.00  0.00     0.049 A 
ATOM     58  H   UNL A   1      40.713  30.055  32.593  1.00  0.00     0.167 HD
ATOM     59  C   UNL A   1      42.086  30.365  35.048  1.00  0.00     0.074 A 
ATOM     60  C   UNL A   1      42.436  30.849  36.368  1.00  0.00     0.031 C 
ATOM     61  C   UNL A   1      42.726  29.356  34.409  1.00  0.00     0.037 A 
BRANCH  48  62
ATOM     62  C   UNL A   1      40.339  27.973  28.887  1.00  0.00     0.064 A 
ATOM     63  C   UNL A   1      41.081  28.322  27.748  1.00  0.00     0.173 A 
ATOM     64  C   UNL A   1      39.672  26.738  28.885  1.00  0.00     0.173 A 
ATOM     65  F   UNL A   1      41.729  29.494  27.697  1.00  0.00    -0.203 F 
ATOM     66  C   UNL A   1      41.131  27.478  26.641  1.00  0.00     0.198 A 
ATOM     67  C   UNL A   1      39.747  25.885  27.787  1.00  0.00     0.198 A 
ATOM     68  F   UNL A   1      38.956  26.355  29.952  1.00  0.00    -0.203 F 
ATOM     69  F   UNL A   1      41.812  27.849  25.548  1.00  0.00    -0.200 F 
ATOM     70  C   UNL A   1      40.472  26.258  26.664  1.00  0.00     0.200 A 
ATOM     71  F   UNL A   1      39.119  24.703  27.815  1.00  0.00    -0.200 F 
ATOM     72  F   UNL A   1      40.528  25.444  25.601  1.00  0.00    -0.200 F 
ENDBRANCH  48  62
BRANCH  49  73
ATOM     73  C   UNL A   1      39.564  33.893  36.864  1.00  0.00     0.064 A 
ATOM     74  C   UNL A   1      38.798  33.495  37.968  1.00  0.00     0.173 A 
ATOM     75  C   UNL A   1      40.208  35.137  36.930  1.00  0.00     0.173 A 
ATOM     76  F   UNL A   1      38.144  32.324  37.941  1.00  0.00    -0.203 F 
ATOM     77  C   UNL A   1      38.665  34.316  39.086  1.00  0.00     0.198 A 
ATOM     78  C   UNL A   1      40.097  35.945  38.059  1.00  0.00     0.198 A 
ATOM     79  F   UNL A   1      40.953  35.562  35.900  1.00  0.00    -0.203 F 
ATOM     80  F   UNL A   1      37.890  33.931  40.109  1.00  0.00    -0.200 F 
ATOM     81  C   UNL A   1      39.319  35.538  39.133  1.00  0.00     0.200 A 
ATOM     82  F   UNL A   1      40.739  37.121  38.106  1.00  0.00    -0.200 F 
ATOM     83  F   UNL A   1      39.194  36.326  40.209  1.00  0.00    -0.200 F 
ENDBRANCH  49  73
BRANCH  61  84
ATOM     84  C   UNL A   1      43.880  28.715  35.122  1.00  0.00     0.064 A 
ATOM     85  C   UNL A   1      43.703  27.590  35.940  1.00  0.00     0.173 A 
ATOM     86  C   UNL A   1      45.184  29.210  34.959  1.00  0.00     0.173 A 
ATOM     87  F   UNL A   1      42.475  27.089  36.142  1.00  0.00    -0.203 F 
ATOM     88  C   UNL A   1      44.784  26.998  36.589  1.00  0.00     0.198 A 
ATOM     89  C   UNL A   1      46.266  28.599  35.586  1.00  0.00     0.198 A 
ATOM     90  F   UNL A   1      45.408  30.282  34.183  1.00  0.00    -0.203 F 
ATOM     91  F   UNL A   1      44.585  25.952  37.401  1.00  0.00    -0.200 F 
ATOM     92  C   UNL A   1      46.065  27.498  36.406  1.00  0.00     0.200 A 
ATOM     93  F   UNL A   1      47.504  29.077  35.399  1.00  0.00    -0.200 F 
ATOM     94  F   UNL A   1      47.105  26.924  37.025  1.00  0.00    -0.200 F 
ENDBRANCH  61  84
ENDBRANCH  35  36
ENDBRANCH  27  30
ENDBRANCH  25  26
ENDBRANCH  24  25
ENDBRANCH   1  24
TORSDOF 15
ENDMDL
MODEL 2
REMARK VINA RESULT:     -11.8      1.179      7.622
REMARK SMILES CCC(CC)(NC(=O)N(C)[C@H]1CCC[C@H](C)C1)C(=O)NCCCNC(=O)c1ccc(-c2c3nc(c(-c4c(F)c(F)c(F)c(F)c4F)c4ccc([nH]4)c(-c4c(F)c(F)c(F)c(F)c4F)c4nc(c(-c5c(F)c(F)c(F)c(F)c5F)c5ccc2[nH]5)C=C4)C=C3)cc1
REMARK SMILES IDX 21 1 20 2 18 3 19 4 3 6 2 7 1 8 4 9 5 10 6 11 7 12 8 14 9 15
REMARK SMILES IDX 10 16 11 17 12 18 17 19 13 20 15 21 14 22 16 23 22 24 23 25
REMARK SMILES IDX 24 26 25 27 26 29 27 30 28 31 89 32 29 33 88 34 30 35 31 36
REMARK SMILES IDX 32 37 82 38 33 39 87 40 81 41 83 42 34 43 86 44 80 45 79 46
REMARK SMILES IDX 35 48 67 49 47 50 66 51 48 52 51 53 65 54 84 55 49 56 50 57
REMARK SMILES IDX 64 59 85 60 52 61 36 62 37 63 45 64 38 65 39 66 43 67 46 68
REMARK SMILES IDX 40 69 41 70 44 71 42 72 68 73 69 74 77 75 70 76 71 77 75 78
REMARK SMILES IDX 78 79 72 80 73 81 76 82 74 83 53 84 54 85 62 86 55 87 56 88
REMARK SMILES IDX 60 89 63 90 57 91 58 92 61 93 59 94
REMARK H PARENT 20 5 6 13 24 28 83 47 51 58
REMARK Flexibility Score: inf
ROOT
ATOM      1  C   UNL A   1      31.762  30.248  26.057  1.00  0.00     0.117 C 
ENDROOT
BRANCH   1   2
ATOM      2  N   UNL A   1      32.790  30.046  25.039  1.00  0.00    -0.354 N 
ATOM      3  C   UNL A   1      32.991  29.039  24.116  1.00  0.00     0.245 C 
ATOM      4  O   UNL A   1      33.684  29.343  23.140  1.00  0.00    -0.272 OA
ATOM      5  H   UNL A   1      33.465  30.761  25.004  1.00  0.00     0.163 HD
BRANCH   3   6
ATOM      6  C   UNL A   1      32.283  27.636  24.230  1.00  0.00     0.120 C 
BRANCH   6   7
ATOM      7  C   UNL A   1      30.722  27.543  24.256  1.00  0.00     0.035 C 
ATOM      8  C   UNL A   1      29.975  27.920  22.988  1.00  0.00     0.007 C 
ENDBRANCH   6   7
BRANCH   6   9
ATOM      9  C   UNL A   1      32.769  27.085  25.626  1.00  0.00     0.035 C 
ATOM     10  C   UNL A   1      31.712  26.580  26.602  1.00  0.00     0.007 C 
ENDBRANCH   6   9
BRANCH   6  11
ATOM     11  N   UNL A   1      32.770  26.843  23.073  1.00  0.00    -0.323 N 
ATOM     12  C   UNL A   1      32.837  25.519  22.768  1.00  0.00     0.318 C 
ATOM     13  H   UNL A   1      33.132  27.412  22.356  1.00  0.00     0.166 HD
ATOM     14  O   UNL A   1      33.321  25.268  21.659  1.00  0.00    -0.249 OA
BRANCH  12  15
ATOM     15  N   UNL A   1      32.258  24.528  23.536  1.00  0.00    -0.325 N 
ATOM     16  C   UNL A   1      30.885  24.063  23.450  1.00  0.00     0.149 C 
BRANCH  15  17
ATOM     17  C   UNL A   1      33.068  23.964  24.652  1.00  0.00     0.086 C 
ATOM     18  C   UNL A   1      32.579  22.605  25.184  1.00  0.00     0.025 C 
ATOM     19  C   UNL A   1      34.584  23.956  24.372  1.00  0.00     0.028 C 
ATOM     20  C   UNL A   1      33.137  21.379  24.463  1.00  0.00     0.002 C 
ATOM     21  C   UNL A   1      35.125  22.727  23.629  1.00  0.00    -0.012 C 
ATOM     22  C   UNL A   1      34.652  21.427  24.274  1.00  0.00     0.003 C 
ATOM     23  C   UNL A   1      36.653  22.794  23.557  1.00  0.00     0.008 C 
ENDBRANCH  15  17
ENDBRANCH  12  15
ENDBRANCH   6  11
ENDBRANCH   3   6
ENDBRANCH   1   2
BRANCH   1  24
ATOM     24  C   UNL A   1      31.492  31.681  26.500  1.00  0.00     0.042 C 
BRANCH  24  25
ATOM     25  C   UNL A   1      32.663  32.473  27.050  1.00  0.00     0.118 C 
BRANCH  25  26
ATOM     26  N   UNL A   1      32.341  33.803  27.526  1.00  0.00    -0.352 N 
ATOM     27  C   UNL A   1      33.024  34.617  28.402  1.00  0.00     0.251 C 
ATOM     28  H   UNL A   1      31.507  34.184  27.167  1.00  0.00     0.163 HD
ATOM     29  O   UNL A   1      32.597  35.740  28.638  1.00  0.00    -0.269 OA
BRANCH  27  30
ATOM     30  C   UNL A   1      34.228  34.131  29.121  1.00  0.00     0.039 A 
ATOM     31  C   UNL A   1      34.027  33.264  30.201  1.00  0.00     0.014 A 
ATOM     32  C   UNL A   1      35.529  34.501  28.767  1.00  0.00     0.014 A 
ATOM     33  C   UNL A   1      35.120  32.702  30.863  1.00  0.00     0.010 A 
ATOM     34  C   UNL A   1      36.624  33.890  29.389  1.00  0.00     0.010 A 
ATOM     35  C   UNL A   1      36.428  32.973  30.433  1.00  0.00    -0.014 A 
BRANCH  35  36
ATOM     36  C   UNL A   1      37.578  32.262  31.053  1.00  0.00     0.031 A 
ATOM     37  C   UNL A   1      38.046  32.606  32.438  1.00  0.00     0.074 A 
ATOM     38  C   UNL A   1      38.216  31.305  30.351  1.00  0.00     0.049 A 
ATOM     39  N   UNL A   1      39.012  32.067  33.140  1.00  0.00    -0.248 NA
ATOM     40  C   UNL A   1      37.350  33.707  33.118  1.00  0.00     0.031 C 
ATOM     41  C   UNL A   1      37.889  30.906  28.981  1.00  0.00     0.029 A 
ATOM     42  N   UNL A   1      39.270  30.493  30.690  1.00  0.00    -0.354 N 
ATOM     43  C   UNL A   1      39.037  32.759  34.343  1.00  0.00     0.074 A 
ATOM     44  C   UNL A   1      38.023  33.789  34.257  1.00  0.00     0.031 C 
ATOM     45  C   UNL A   1      38.707  29.909  28.607  1.00  0.00     0.029 A 
ATOM     46  C   UNL A   1      39.635  29.618  29.695  1.00  0.00     0.049 A 
ATOM     47  H   UNL A   1      39.722  30.534  31.563  1.00  0.00     0.167 HD
ATOM     48  C   UNL A   1      39.819  32.542  35.428  1.00  0.00     0.037 A 
ATOM     49  C   UNL A   1      40.608  28.687  29.661  1.00  0.00     0.037 A 
ATOM     50  C   UNL A   1      40.820  31.510  35.520  1.00  0.00     0.049 A 
ATOM     51  C   UNL A   1      41.476  28.482  30.873  1.00  0.00     0.074 A 
ATOM     52  C   UNL A   1      41.617  31.175  36.602  1.00  0.00     0.029 A 
ATOM     53  N   UNL A   1      41.171  30.654  34.487  1.00  0.00    -0.354 N 
ATOM     54  N   UNL A   1      41.435  29.089  32.033  1.00  0.00    -0.248 NA
ATOM     55  C   UNL A   1      42.525  27.456  30.770  1.00  0.00     0.031 C 
ATOM     56  C   UNL A   1      42.481  30.148  36.210  1.00  0.00     0.029 A 
ATOM     57  C   UNL A   1      42.193  29.811  34.897  1.00  0.00     0.049 A 
ATOM     58  H   UNL A   1      40.755  30.645  33.595  1.00  0.00     0.167 HD
ATOM     59  C   UNL A   1      42.434  28.508  32.803  1.00  0.00     0.074 A 
ATOM     60  C   UNL A   1      43.052  27.486  31.985  1.00  0.00     0.031 C 
ATOM     61  C   UNL A   1      42.805  28.800  34.074  1.00  0.00     0.037 A 
BRANCH  48  62
ATOM     62  C   UNL A   1      39.623  33.439  36.615  1.00  0.00     0.064 A 
ATOM     63  C   UNL A   1      38.755  33.089  37.661  1.00  0.00     0.173 A 
ATOM     64  C   UNL A   1      40.345  34.636  36.732  1.00  0.00     0.173 A 
ATOM     65  F   UNL A   1      38.036  31.960  37.594  1.00  0.00    -0.203 F 
ATOM     66  C   UNL A   1      38.599  33.919  38.769  1.00  0.00     0.198 A 
ATOM     67  C   UNL A   1      40.207  35.449  37.853  1.00  0.00     0.198 A 
ATOM     68  F   UNL A   1      41.193  35.011  35.763  1.00  0.00    -0.203 F 
ATOM     69  F   UNL A   1      37.734  33.586  39.737  1.00  0.00    -0.200 F 
ATOM     70  C   UNL A   1      39.330  35.094  38.868  1.00  0.00     0.200 A 
ATOM     71  F   UNL A   1      40.921  36.578  37.953  1.00  0.00    -0.200 F 
ATOM     72  F   UNL A   1      39.184  35.887  39.937  1.00  0.00    -0.200 F 
ENDBRANCH  48  62
BRANCH  49  73
ATOM     73  C   UNL A   1      40.803  27.863  28.442  1.00  0.00     0.064 A 
ATOM     74  C   UNL A   1      41.646  28.292  27.408  1.00  0.00     0.173 A 
ATOM     75  C   UNL A   1      40.146  26.634  28.282  1.00  0.00     0.173 A 
ATOM     76  F   UNL A   1      42.276  29.472  27.505  1.00  0.00    -0.203 F 
ATOM     77  C   UNL A   1      41.812  27.533  26.252  1.00  0.00     0.198 A 
ATOM     78  C   UNL A   1      40.334  25.862  27.137  1.00  0.00     0.198 A 
ATOM     79  F   UNL A   1      39.330  26.179  29.243  1.00  0.00    -0.203 F 
ATOM     80  F   UNL A   1      42.589  27.987  25.260  1.00  0.00    -0.200 F 
ATOM     81  C   UNL A   1      41.160  26.315  26.120  1.00  0.00     0.200 A 
ATOM     82  F   UNL A   1      39.711  24.681  27.018  1.00  0.00    -0.200 F 
ATOM     83  F   UNL A   1      41.322  25.584  25.009  1.00  0.00    -0.200 F 
ENDBRANCH  49  73
BRANCH  61  84
ATOM     84  C   UNL A   1      43.925  27.994  34.664  1.00  0.00     0.064 A 
ATOM     85  C   UNL A   1      45.255  28.435  34.607  1.00  0.00     0.173 A 
ATOM     86  C   UNL A   1      43.662  26.782  35.322  1.00  0.00     0.173 A 
ATOM     87  F   UNL A   1      45.561  29.578  33.974  1.00  0.00    -0.203 F 
ATOM     88  C   UNL A   1      46.284  27.682  35.167  1.00  0.00     0.198 A 
ATOM     89  C   UNL A   1      44.690  26.045  35.905  1.00  0.00     0.198 A 
ATOM     90  F   UNL A   1      42.406  26.317  35.408  1.00  0.00    -0.203 F 
ATOM     91  F   UNL A   1      47.552  28.101  35.062  1.00  0.00    -0.200 F 
ATOM     92  C   UNL A   1      46.000  26.493  35.822  1.00  0.00     0.200 A 
ATOM     93  F   UNL A   1      44.412  24.902  36.547  1.00  0.00    -0.200 F 
ATOM     94  F   UNL A   1      46.991  25.772  36.366  1.00  0.00    -0.200 F 
ENDBRANCH  61  84
ENDBRANCH  35  36
ENDBRANCH  27  30
ENDBRANCH  25  26
ENDBRANCH  24  25
ENDBRANCH   1  24
TORSDOF 15
ENDMDL
MODEL 3
REMARK VINA RESULT:     -11.8      1.240      7.509
REMARK SMILES CCC(CC)(NC(=O)N(C)[C@H]1CCC[C@H](C)C1)C(=O)NCCCNC(=O)c1ccc(-c2c3nc(c(-c4c(F)c(F)c(F)c(F)c4F)c4ccc([nH]4)c(-c4c(F)c(F)c(F)c(F)c4F)c4nc(c(-c5c(F)c(F)c(F)c(F)c5F)c5ccc2[nH]5)C=C4)C=C3)cc1
REMARK SMILES IDX 21 1 20 2 18 3 19 4 3 6 2 7 1 8 4 9 5 10 6 11 7 12 8 14 9 15
REMARK SMILES IDX 10 16 11 17 12 18 17 19 13 20 15 21 14 22 16 23 22 24 23 25
REMARK SMILES IDX 24 26 25 27 26 29 27 30 28 31 89 32 29 33 88 34 30 35 31 36
REMARK SMILES IDX 32 37 82 38 33 39 87 40 81 41 83 42 34 43 86 44 80 45 79 46
REMARK SMILES IDX 35 48 67 49 47 50 66 51 48 52 51 53 65 54 84 55 49 56 50 57
REMARK SMILES IDX 64 59 85 60 52 61 36 62 37 63 45 64 38 65 39 66 43 67 46 68
REMARK SMILES IDX 40 69 41 70 44 71 42 72 68 73 69 74 77 75 70 76 71 77 75 78
REMARK SMILES IDX 78 79 72 80 73 81 76 82 74 83 53 84 54 85 62 86 55 87 56 88
REMARK SMILES IDX 60 89 63 90 57 91 58 92 61 93 59 94
REMARK H PARENT 20 5 6 13 24 28 83 47 51 58
REMARK Flexibility Score: inf
ROOT
ATOM      1  C   UNL A   1      31.824  30.048  26.004  1.00  0.00     0.117 C 
ENDROOT
BRANCH   1   2
ATOM      2  N   UNL A   1      32.847  29.914  24.971  1.00  0.00    -0.354 N 
ATOM      3  C   UNL A   1      33.056  28.959  23.996  1.00  0.00     0.245 C 
ATOM      4  O   UNL A   1      33.739  29.324  23.032  1.00  0.00    -0.272 OA
ATOM      5  H   UNL A   1      33.512  30.640  24.969  1.00  0.00     0.163 HD
BRANCH   3   6
ATOM      6  C   UNL A   1      32.369  27.542  24.040  1.00  0.00     0.120 C 
BRANCH   6   7
ATOM      7  C   UNL A   1      30.824  27.425  24.253  1.00  0.00     0.035 C 
ATOM      8  C   UNL A   1      29.928  28.298  23.390  1.00  0.00     0.007 C 
ENDBRANCH   6   7
BRANCH   6   9
ATOM      9  C   UNL A   1      33.029  26.846  25.294  1.00  0.00     0.035 C 
ATOM     10  C   UNL A   1      32.132  26.515  26.481  1.00  0.00     0.007 C 
ENDBRANCH   6   9
BRANCH   6  11
ATOM     11  N   UNL A   1      32.705  26.890  22.750  1.00  0.00    -0.323 N 
ATOM     12  C   UNL A   1      33.113  25.648  22.371  1.00  0.00     0.318 C 
ATOM     13  H   UNL A   1      32.610  27.502  21.985  1.00  0.00     0.166 HD
ATOM     14  O   UNL A   1      33.279  25.508  21.155  1.00  0.00    -0.249 OA
BRANCH  12  15
ATOM     15  N   UNL A   1      33.173  24.570  23.231  1.00  0.00    -0.325 N 
ATOM     16  C   UNL A   1      34.287  24.215  24.093  1.00  0.00     0.149 C 
BRANCH  15  17
ATOM     17  C   UNL A   1      32.048  23.593  23.186  1.00  0.00     0.086 C 
ATOM     18  C   UNL A   1      32.467  22.133  22.938  1.00  0.00     0.025 C 
ATOM     19  C   UNL A   1      31.079  23.714  24.379  1.00  0.00     0.028 C 
ATOM     20  C   UNL A   1      32.816  21.328  24.189  1.00  0.00     0.002 C 
ATOM     21  C   UNL A   1      31.453  22.916  25.635  1.00  0.00    -0.012 C 
ATOM     22  C   UNL A   1      31.776  21.462  25.301  1.00  0.00     0.003 C 
ATOM     23  C   UNL A   1      30.330  23.017  26.670  1.00  0.00     0.008 C 
ENDBRANCH  15  17
ENDBRANCH  12  15
ENDBRANCH   6  11
ENDBRANCH   3   6
ENDBRANCH   1   2
BRANCH   1  24
ATOM     24  C   UNL A   1      31.509  31.456  26.495  1.00  0.00     0.042 C 
BRANCH  24  25
ATOM     25  C   UNL A   1      32.669  32.292  27.005  1.00  0.00     0.118 C 
BRANCH  25  26
ATOM     26  N   UNL A   1      32.314  33.610  27.492  1.00  0.00    -0.352 N 
ATOM     27  C   UNL A   1      32.981  34.435  28.369  1.00  0.00     0.251 C 
ATOM     28  H   UNL A   1      31.468  33.970  27.141  1.00  0.00     0.163 HD
ATOM     29  O   UNL A   1      32.525  35.545  28.616  1.00  0.00    -0.269 OA
BRANCH  27  30
ATOM     30  C   UNL A   1      34.203  33.978  29.076  1.00  0.00     0.039 A 
ATOM     31  C   UNL A   1      34.029  33.142  30.185  1.00  0.00     0.014 A 
ATOM     32  C   UNL A   1      35.493  34.343  28.684  1.00  0.00     0.014 A 
ATOM     33  C   UNL A   1      35.139  32.605  30.840  1.00  0.00     0.010 A 
ATOM     34  C   UNL A   1      36.605  33.757  29.301  1.00  0.00     0.010 A 
ATOM     35  C   UNL A   1      36.436  32.870  30.375  1.00  0.00    -0.014 A 
BRANCH  35  36
ATOM     36  C   UNL A   1      37.603  32.184  30.991  1.00  0.00     0.031 A 
ATOM     37  C   UNL A   1      38.084  32.556  32.364  1.00  0.00     0.074 A 
ATOM     38  C   UNL A   1      38.245  31.224  30.295  1.00  0.00     0.049 A 
ATOM     39  N   UNL A   1      39.065  32.040  33.062  1.00  0.00    -0.248 NA
ATOM     40  C   UNL A   1      37.382  33.658  33.036  1.00  0.00     0.031 C 
ATOM     41  C   UNL A   1      37.906  30.800  28.936  1.00  0.00     0.029 A 
ATOM     42  N   UNL A   1      39.314  30.432  30.633  1.00  0.00    -0.354 N 
ATOM     43  C   UNL A   1      39.096  32.751  34.254  1.00  0.00     0.074 A 
ATOM     44  C   UNL A   1      38.068  33.766  34.166  1.00  0.00     0.031 C 
ATOM     45  C   UNL A   1      38.733  29.809  28.567  1.00  0.00     0.029 A 
ATOM     46  C   UNL A   1      39.678  29.546  29.647  1.00  0.00     0.049 A 
ATOM     47  H   UNL A   1      39.776  30.492  31.500  1.00  0.00     0.167 HD
ATOM     48  C   UNL A   1      39.895  32.561  35.333  1.00  0.00     0.037 A 
ATOM     49  C   UNL A   1      40.663  28.628  29.616  1.00  0.00     0.037 A 
ATOM     50  C   UNL A   1      40.910  31.544  35.427  1.00  0.00     0.049 A 
ATOM     51  C   UNL A   1      41.549  28.453  30.819  1.00  0.00     0.074 A 
ATOM     52  C   UNL A   1      41.725  31.236  36.504  1.00  0.00     0.029 A 
ATOM     53  N   UNL A   1      41.260  30.676  34.403  1.00  0.00    -0.354 N 
ATOM     54  N   UNL A   1      41.514  29.077  31.971  1.00  0.00    -0.248 NA
ATOM     55  C   UNL A   1      42.610  27.440  30.719  1.00  0.00     0.031 C 
ATOM     56  C   UNL A   1      42.598  30.214  36.117  1.00  0.00     0.029 A 
ATOM     57  C   UNL A   1      42.298  29.854  34.813  1.00  0.00     0.049 A 
ATOM     58  H   UNL A   1      40.833  30.649  33.516  1.00  0.00     0.167 HD
ATOM     59  C   UNL A   1      42.530  28.522  32.737  1.00  0.00     0.074 A 
ATOM     60  C   UNL A   1      43.152  27.495  31.927  1.00  0.00     0.031 C 
ATOM     61  C   UNL A   1      42.913  28.838  33.998  1.00  0.00     0.037 A 
BRANCH  48  62
ATOM     62  C   UNL A   1      39.701  33.474  36.508  1.00  0.00     0.064 A 
ATOM     63  C   UNL A   1      40.342  34.720  36.580  1.00  0.00     0.173 A 
ATOM     64  C   UNL A   1      38.830  33.121  37.549  1.00  0.00     0.173 A 
ATOM     65  F   UNL A   1      41.191  35.101  35.614  1.00  0.00    -0.203 F 
ATOM     66  C   UNL A   1      40.135  35.569  37.665  1.00  0.00     0.198 A 
ATOM     67  C   UNL A   1      38.606  33.983  38.619  1.00  0.00     0.198 A 
ATOM     68  F   UNL A   1      38.188  31.944  37.524  1.00  0.00    -0.203 F 
ATOM     69  F   UNL A   1      40.789  36.737  37.734  1.00  0.00    -0.200 F 
ATOM     70  C   UNL A   1      39.263  35.204  38.679  1.00  0.00     0.200 A 
ATOM     71  F   UNL A   1      37.754  33.634  39.592  1.00  0.00    -0.200 F 
ATOM     72  F   UNL A   1      39.060  36.024  39.718  1.00  0.00    -0.200 F 
ENDBRANCH  48  62
BRANCH  49  73
ATOM     73  C   UNL A   1      40.853  27.787  28.406  1.00  0.00     0.064 A 
ATOM     74  C   UNL A   1      41.672  28.215  27.353  1.00  0.00     0.173 A 
ATOM     75  C   UNL A   1      40.216  26.545  28.277  1.00  0.00     0.173 A 
ATOM     76  F   UNL A   1      42.283  29.407  27.421  1.00  0.00    -0.203 F 
ATOM     77  C   UNL A   1      41.834  27.440  26.206  1.00  0.00     0.198 A 
ATOM     78  C   UNL A   1      40.400  25.758  27.142  1.00  0.00     0.198 A 
ATOM     79  F   UNL A   1      39.423  26.092  29.257  1.00  0.00    -0.203 F 
ATOM     80  F   UNL A   1      42.587  27.892  25.195  1.00  0.00    -0.200 F 
ATOM     81  C   UNL A   1      41.202  26.209  26.104  1.00  0.00     0.200 A 
ATOM     82  F   UNL A   1      39.796  24.565  27.051  1.00  0.00    -0.200 F 
ATOM     83  F   UNL A   1      41.360  25.463  25.003  1.00  0.00    -0.200 F 
ENDBRANCH  49  73
BRANCH  61  84
ATOM     84  C   UNL A   1      44.051  28.056  34.586  1.00  0.00     0.064 A 
ATOM     85  C   UNL A   1      43.839  26.837  35.247  1.00  0.00     0.173 A 
ATOM     86  C   UNL A   1      45.372  28.513  34.458  1.00  0.00     0.173 A 
ATOM     87  F   UNL A   1      42.593  26.365  35.410  1.00  0.00    -0.203 F 
ATOM     88  C   UNL A   1      44.905  26.116  35.779  1.00  0.00     0.198 A 
ATOM     89  C   UNL A   1      46.438  27.776  34.968  1.00  0.00     0.198 A 
ATOM     90  F   UNL A   1      45.629  29.671  33.831  1.00  0.00    -0.203 F 
ATOM     91  F   UNL A   1      44.675  24.977  36.446  1.00  0.00    -0.200 F 
ATOM     92  C   UNL A   1      46.203  26.582  35.633  1.00  0.00     0.200 A 
ATOM     93  F   UNL A   1      47.692  28.222  34.815  1.00  0.00    -0.200 F 
ATOM     94  F   UNL A   1      47.229  25.884  36.140  1.00  0.00    -0.200 F 
ENDBRANCH  61  84
ENDBRANCH  35  36
ENDBRANCH  27  30
ENDBRANCH  25  26
ENDBRANCH  24  25
ENDBRANCH   1  24
TORSDOF 15
ENDMDL
