MODEL 1
REMARK VINA RESULT:     -12.7      0.000      0.000
REMARK SMILES C[C@@H](Oc1ccccc1Cl)C(=O)N1CC[C@H](C(=O)NCCCNC(=O)c2ccc(-c3c4nc(c(-c5c(F)c(F)c(F)c(F)c5F)c5ccc([nH]5)c(-c5c(F)c(F)c(F)c(F)c5F)c5nc(c(-c6c(F)c(F)c(F)c(F)c6F)c6ccc3[nH]6)C=C5)C=C4)cc2)[C@@H]1C
REMARK SMILES IDX 20 1 19 2 17 3 18 4 16 6 13 7 14 8 89 9 15 10 90 11 11 12
REMARK SMILES IDX 12 13 2 14 1 15 3 16 4 17 5 18 9 19 6 20 8 21 10 22 7 23
REMARK SMILES IDX 21 24 22 25 23 26 24 27 25 29 26 30 27 31 88 32 28 33 87 34
REMARK SMILES IDX 29 35 30 36 31 37 81 38 32 39 86 40 80 41 82 42 33 43 85 44
REMARK SMILES IDX 79 45 78 46 34 48 66 49 46 50 65 51 47 52 50 53 64 54 83 55
REMARK SMILES IDX 48 56 49 57 63 59 84 60 51 61 35 62 36 63 44 64 37 65 38 66
REMARK SMILES IDX 42 67 45 68 39 69 40 70 43 71 41 72 67 73 68 74 76 75 69 76
REMARK SMILES IDX 70 77 74 78 77 79 71 80 72 81 75 82 73 83 52 84 53 85 61 86
REMARK SMILES IDX 54 87 55 88 59 89 62 90 56 91 57 92 60 93 58 94
REMARK H PARENT 19 5 23 28 82 47 50 58
REMARK Flexibility Score: inf
ROOT
ATOM      1  C   UNL A   1      31.411  30.909  26.070  1.00  0.00     0.117 C 
ENDROOT
BRANCH   1   2
ATOM      2  N   UNL A   1      30.728  30.657  24.816  1.00  0.00    -0.356 N 
ATOM      3  C   UNL A   1      30.633  29.597  23.981  1.00  0.00     0.225 C 
ATOM      4  O   UNL A   1      30.143  29.846  22.872  1.00  0.00    -0.275 OA
ATOM      5  H   UNL A   1      30.217  31.436  24.498  1.00  0.00     0.163 HD
BRANCH   3   6
ATOM      6  C   UNL A   1      30.992  28.150  24.314  1.00  0.00     0.102 C 
ATOM      7  N   UNL A   1      32.424  26.699  23.049  1.00  0.00    -0.336 N 
ATOM      8  C   UNL A   1      31.095  26.586  22.504  1.00  0.00     0.121 C 
ATOM      9  C   UNL A   1      32.482  27.777  24.053  1.00  0.00     0.094 C 
ATOM     10  C   UNL A   1      30.217  27.005  23.674  1.00  0.00     0.037 C 
ATOM     11  C   UNL A   1      33.360  28.934  23.572  1.00  0.00     0.032 C 
BRANCH   7  12
ATOM     12  C   UNL A   1      33.341  25.722  22.728  1.00  0.00     0.263 C 
ATOM     13  O   UNL A   1      33.717  25.572  21.559  1.00  0.00    -0.271 OA
BRANCH  12  14
ATOM     14  C   UNL A   1      33.785  24.719  23.798  1.00  0.00     0.259 C 
ATOM     15  C   UNL A   1      32.823  24.591  24.964  1.00  0.00     0.064 C 
BRANCH  14  16
ATOM     16  O   UNL A   1      33.965  23.455  23.141  1.00  0.00    -0.479 OA
BRANCH  16  17
ATOM     17  C   UNL A   1      34.880  22.655  23.765  1.00  0.00     0.139 A 
ATOM     18  C   UNL A   1      36.238  22.980  23.711  1.00  0.00     0.048 A 
ATOM     19  C   UNL A   1      34.462  21.468  24.372  1.00  0.00     0.083 A 
ATOM     20  C   UNL A   1      37.173  22.142  24.319  1.00  0.00     0.004 A 
ATOM     21  C   UNL A   1      35.399  20.637  24.986  1.00  0.00     0.024 A 
ATOM     22  Cl  UNL A   1      32.802  20.998  24.381  1.00  0.00    -0.080 Cl
ATOM     23  C   UNL A   1      36.752  20.977  24.964  1.00  0.00     0.002 A 
ENDBRANCH  16  17
ENDBRANCH  14  16
ENDBRANCH  12  14
ENDBRANCH   7  12
ENDBRANCH   3   6
ENDBRANCH   1   2
BRANCH   1  24
ATOM     24  C   UNL A   1      31.314  32.373  26.476  1.00  0.00     0.042 C 
BRANCH  24  25
ATOM     25  C   UNL A   1      32.558  32.860  27.204  1.00  0.00     0.118 C 
BRANCH  25  26
ATOM     26  N   UNL A   1      32.429  34.251  27.625  1.00  0.00    -0.352 N 
ATOM     27  C   UNL A   1      33.022  34.914  28.665  1.00  0.00     0.251 C 
ATOM     28  H   UNL A   1      31.821  34.796  27.077  1.00  0.00     0.163 HD
ATOM     29  O   UNL A   1      32.587  36.014  29.017  1.00  0.00    -0.269 OA
BRANCH  27  30
ATOM     30  C   UNL A   1      34.177  34.325  29.368  1.00  0.00     0.039 A 
ATOM     31  C   UNL A   1      33.959  33.564  30.521  1.00  0.00     0.014 A 
ATOM     32  C   UNL A   1      35.478  34.555  28.915  1.00  0.00     0.014 A 
ATOM     33  C   UNL A   1      35.044  32.992  31.187  1.00  0.00     0.010 A 
ATOM     34  C   UNL A   1      36.548  33.912  29.524  1.00  0.00     0.010 A 
ATOM     35  C   UNL A   1      36.342  33.140  30.676  1.00  0.00    -0.014 A 
BRANCH  35  36
ATOM     36  C   UNL A   1      37.513  32.525  31.345  1.00  0.00     0.031 A 
ATOM     37  C   UNL A   1      38.266  31.417  30.663  1.00  0.00     0.074 A 
ATOM     38  C   UNL A   1      37.848  32.911  32.589  1.00  0.00     0.049 A 
ATOM     39  N   UNL A   1      39.260  30.692  31.109  1.00  0.00    -0.248 NA
ATOM     40  C   UNL A   1      37.820  31.056  29.308  1.00  0.00     0.031 C 
ATOM     41  C   UNL A   1      37.167  33.948  33.365  1.00  0.00     0.029 A 
ATOM     42  N   UNL A   1      38.847  32.473  33.421  1.00  0.00    -0.354 N 
ATOM     43  C   UNL A   1      39.542  29.780  30.101  1.00  0.00     0.074 A 
ATOM     44  C   UNL A   1      38.577  30.001  29.048  1.00  0.00     0.031 C 
ATOM     45  C   UNL A   1      37.787  34.090  34.547  1.00  0.00     0.029 A 
ATOM     46  C   UNL A   1      38.883  33.129  34.626  1.00  0.00     0.049 A 
ATOM     47  H   UNL A   1      39.475  31.756  33.177  1.00  0.00     0.167 HD
ATOM     48  C   UNL A   1      40.535  28.859  30.047  1.00  0.00     0.037 A 
ATOM     49  C   UNL A   1      39.711  32.969  35.675  1.00  0.00     0.037 A 
ATOM     50  C   UNL A   1      41.506  28.662  31.090  1.00  0.00     0.049 A 
ATOM     51  C   UNL A   1      40.793  31.928  35.600  1.00  0.00     0.074 A 
ATOM     52  C   UNL A   1      42.585  27.797  31.117  1.00  0.00     0.029 A 
ATOM     53  N   UNL A   1      41.513  29.347  32.298  1.00  0.00    -0.354 N 
ATOM     54  N   UNL A   1      41.089  31.110  34.621  1.00  0.00    -0.248 NA
ATOM     55  C   UNL A   1      41.658  31.791  36.780  1.00  0.00     0.031 C 
ATOM     56  C   UNL A   1      43.219  27.928  32.356  1.00  0.00     0.029 A 
ATOM     57  C   UNL A   1      42.565  28.908  33.085  1.00  0.00     0.049 A 
ATOM     58  H   UNL A   1      40.864  30.042  32.557  1.00  0.00     0.167 HD
ATOM     59  C   UNL A   1      42.191  30.383  35.049  1.00  0.00     0.074 A 
ATOM     60  C   UNL A   1      42.515  30.864  36.378  1.00  0.00     0.031 C 
ATOM     61  C   UNL A   1      42.874  29.407  34.403  1.00  0.00     0.037 A 
BRANCH  48  62
ATOM     62  C   UNL A   1      40.607  28.001  28.818  1.00  0.00     0.064 A 
ATOM     63  C   UNL A   1      41.380  28.373  27.705  1.00  0.00     0.173 A 
ATOM     64  C   UNL A   1      39.893  26.796  28.744  1.00  0.00     0.173 A 
ATOM     65  F   UNL A   1      42.070  29.522  27.717  1.00  0.00    -0.203 F 
ATOM     66  C   UNL A   1      41.396  27.594  26.550  1.00  0.00     0.198 A 
ATOM     67  C   UNL A   1      39.939  26.003  27.600  1.00  0.00     0.198 A 
ATOM     68  F   UNL A   1      39.143  26.389  29.779  1.00  0.00    -0.203 F 
ATOM     69  F   UNL A   1      42.086  28.005  25.478  1.00  0.00    -0.200 F 
ATOM     70  C   UNL A   1      40.680  26.408  26.500  1.00  0.00     0.200 A 
ATOM     71  F   UNL A   1      39.256  24.851  27.558  1.00  0.00    -0.200 F 
ATOM     72  F   UNL A   1      40.694  25.662  25.387  1.00  0.00    -0.200 F 
ENDBRANCH  48  62
BRANCH  49  73
ATOM     73  C   UNL A   1      39.580  33.854  36.860  1.00  0.00     0.064 A 
ATOM     74  C   UNL A   1      40.222  35.100  36.891  1.00  0.00     0.173 A 
ATOM     75  C   UNL A   1      38.802  33.491  37.969  1.00  0.00     0.173 A 
ATOM     76  F   UNL A   1      40.990  35.481  35.861  1.00  0.00    -0.203 F 
ATOM     77  C   UNL A   1      40.100  35.945  37.991  1.00  0.00     0.198 A 
ATOM     78  C   UNL A   1      38.661  34.348  39.059  1.00  0.00     0.198 A 
ATOM     79  F   UNL A   1      38.162  32.312  37.985  1.00  0.00    -0.203 F 
ATOM     80  F   UNL A   1      40.751  37.117  38.008  1.00  0.00    -0.200 F 
ATOM     81  C   UNL A   1      39.315  35.572  39.071  1.00  0.00     0.200 A 
ATOM     82  F   UNL A   1      37.890  33.991  40.094  1.00  0.00    -0.200 F 
ATOM     83  F   UNL A   1      39.191  36.389  40.126  1.00  0.00    -0.200 F 
ENDBRANCH  49  73
BRANCH  61  84
ATOM     84  C   UNL A   1      44.063  28.822  35.106  1.00  0.00     0.064 A 
ATOM     85  C   UNL A   1      43.949  27.689  35.925  1.00  0.00     0.173 A 
ATOM     86  C   UNL A   1      45.337  29.382  34.929  1.00  0.00     0.173 A 
ATOM     87  F   UNL A   1      42.749  27.128  36.139  1.00  0.00    -0.203 F 
ATOM     88  C   UNL A   1      45.066  27.153  36.560  1.00  0.00     0.198 A 
ATOM     89  C   UNL A   1      46.455  28.826  35.543  1.00  0.00     0.198 A 
ATOM     90  F   UNL A   1      45.498  30.463  34.152  1.00  0.00    -0.203 F 
ATOM     91  F   UNL A   1      44.928  26.099  37.376  1.00  0.00    -0.200 F 
ATOM     92  C   UNL A   1      46.317  27.717  36.364  1.00  0.00     0.200 A 
ATOM     93  F   UNL A   1      47.666  29.364  35.342  1.00  0.00    -0.200 F 
ATOM     94  F   UNL A   1      47.391  27.195  36.972  1.00  0.00    -0.200 F 
ENDBRANCH  61  84
ENDBRANCH  35  36
ENDBRANCH  27  30
ENDBRANCH  25  26
ENDBRANCH  24  25
ENDBRANCH   1  24
TORSDOF 14
ENDMDL
MODEL 2
REMARK VINA RESULT:     -12.7      0.195      1.136
REMARK SMILES C[C@@H](Oc1ccccc1Cl)C(=O)N1CC[C@H](C(=O)NCCCNC(=O)c2ccc(-c3c4nc(c(-c5c(F)c(F)c(F)c(F)c5F)c5ccc([nH]5)c(-c5c(F)c(F)c(F)c(F)c5F)c5nc(c(-c6c(F)c(F)c(F)c(F)c6F)c6ccc3[nH]6)C=C5)C=C4)cc2)[C@@H]1C
REMARK SMILES IDX 20 1 19 2 17 3 18 4 16 6 13 7 14 8 89 9 15 10 90 11 11 12
REMARK SMILES IDX 12 13 2 14 1 15 3 16 4 17 5 18 9 19 6 20 8 21 10 22 7 23
REMARK SMILES IDX 21 24 22 25 23 26 24 27 25 29 26 30 27 31 88 32 28 33 87 34
REMARK SMILES IDX 29 35 30 36 31 37 81 38 32 39 86 40 80 41 82 42 33 43 85 44
REMARK SMILES IDX 79 45 78 46 34 48 66 49 46 50 65 51 47 52 50 53 64 54 83 55
REMARK SMILES IDX 48 56 49 57 63 59 84 60 51 61 35 62 36 63 44 64 37 65 38 66
REMARK SMILES IDX 42 67 45 68 39 69 40 70 43 71 41 72 67 73 68 74 76 75 69 76
REMARK SMILES IDX 70 77 74 78 77 79 71 80 72 81 75 82 73 83 52 84 53 85 61 86
REMARK SMILES IDX 54 87 55 88 59 89 62 90 56 91 57 92 60 93 58 94
REMARK H PARENT 19 5 23 28 82 47 50 58
REMARK Flexibility Score: inf
ROOT
ATOM      1  C   UNL A   1      31.518  30.861  26.071  1.00  0.00     0.117 C 
ENDROOT
BRANCH   1   2
ATOM      2  N   UNL A   1      30.744  30.596  24.872  1.00  0.00    -0.356 N 
ATOM      3  C   UNL A   1      30.623  29.543  24.033  1.00  0.00     0.225 C 
ATOM      4  O   UNL A   1      30.034  29.784  22.972  1.00  0.00    -0.275 OA
ATOM      5  H   UNL A   1      30.179  31.358  24.609  1.00  0.00     0.163 HD
BRANCH   3   6
ATOM      6  C   UNL A   1      31.064  28.108  24.315  1.00  0.00     0.102 C 
ATOM      7  N   UNL A   1      32.409  26.716  22.897  1.00  0.00    -0.336 N 
ATOM      8  C   UNL A   1      31.036  26.558  22.490  1.00  0.00     0.121 C 
ATOM      9  C   UNL A   1      32.531  27.790  23.900  1.00  0.00     0.094 C 
ATOM     10  C   UNL A   1      30.268  26.939  23.747  1.00  0.00     0.037 C 
ATOM     11  C   UNL A   1      33.315  28.980  23.343  1.00  0.00     0.032 C 
BRANCH   7  12
ATOM     12  C   UNL A   1      33.322  25.774  22.476  1.00  0.00     0.263 C 
ATOM     13  O   UNL A   1      33.509  25.574  21.270  1.00  0.00    -0.271 OA
BRANCH  12  14
ATOM     14  C   UNL A   1      34.002  24.864  23.505  1.00  0.00     0.259 C 
ATOM     15  C   UNL A   1      33.335  24.864  24.868  1.00  0.00     0.064 C 
BRANCH  14  16
ATOM     16  O   UNL A   1      34.026  23.541  22.946  1.00  0.00    -0.479 OA
BRANCH  16  17
ATOM     17  C   UNL A   1      34.823  22.681  23.646  1.00  0.00     0.139 A 
ATOM     18  C   UNL A   1      36.211  22.840  23.616  1.00  0.00     0.048 A 
ATOM     19  C   UNL A   1      34.252  21.592  24.310  1.00  0.00     0.083 A 
ATOM     20  C   UNL A   1      37.024  21.938  24.302  1.00  0.00     0.004 A 
ATOM     21  C   UNL A   1      35.067  20.698  25.003  1.00  0.00     0.024 A 
ATOM     22  Cl  UNL A   1      32.548  21.322  24.295  1.00  0.00    -0.080 Cl
ATOM     23  C   UNL A   1      36.452  20.874  25.003  1.00  0.00     0.002 A 
ENDBRANCH  16  17
ENDBRANCH  14  16
ENDBRANCH  12  14
ENDBRANCH   7  12
ENDBRANCH   3   6
ENDBRANCH   1   2
BRANCH   1  24
ATOM     24  C   UNL A   1      31.403  32.318  26.499  1.00  0.00     0.042 C 
BRANCH  24  25
ATOM     25  C   UNL A   1      32.641  32.808  27.235  1.00  0.00     0.118 C 
BRANCH  25  26
ATOM     26  N   UNL A   1      32.507  34.199  27.653  1.00  0.00    -0.352 N 
ATOM     27  C   UNL A   1      33.089  34.864  28.698  1.00  0.00     0.251 C 
ATOM     28  H   UNL A   1      31.905  34.744  27.097  1.00  0.00     0.163 HD
ATOM     29  O   UNL A   1      32.650  35.965  29.043  1.00  0.00    -0.269 OA
BRANCH  27  30
ATOM     30  C   UNL A   1      34.236  34.277  29.415  1.00  0.00     0.039 A 
ATOM     31  C   UNL A   1      34.009  33.555  30.590  1.00  0.00     0.014 A 
ATOM     32  C   UNL A   1      35.538  34.470  28.950  1.00  0.00     0.014 A 
ATOM     33  C   UNL A   1      35.086  32.985  31.270  1.00  0.00     0.010 A 
ATOM     34  C   UNL A   1      36.600  33.828  29.576  1.00  0.00     0.010 A 
ATOM     35  C   UNL A   1      36.385  33.095  30.751  1.00  0.00    -0.014 A 
BRANCH  35  36
ATOM     36  C   UNL A   1      37.547  32.479  31.435  1.00  0.00     0.031 A 
ATOM     37  C   UNL A   1      38.305  31.367  30.765  1.00  0.00     0.074 A 
ATOM     38  C   UNL A   1      37.871  32.871  32.681  1.00  0.00     0.049 A 
ATOM     39  N   UNL A   1      39.292  30.642  31.225  1.00  0.00    -0.248 NA
ATOM     40  C   UNL A   1      37.872  31.001  29.408  1.00  0.00     0.031 C 
ATOM     41  C   UNL A   1      37.184  33.912  33.445  1.00  0.00     0.029 A 
ATOM     42  N   UNL A   1      38.860  32.433  33.525  1.00  0.00    -0.354 N 
ATOM     43  C   UNL A   1      39.582  29.724  30.224  1.00  0.00     0.074 A 
ATOM     44  C   UNL A   1      38.628  29.943  29.159  1.00  0.00     0.031 C 
ATOM     45  C   UNL A   1      37.793  34.058  34.632  1.00  0.00     0.029 A 
ATOM     46  C   UNL A   1      38.885  33.095  34.727  1.00  0.00     0.049 A 
ATOM     47  H   UNL A   1      39.489  31.714  33.290  1.00  0.00     0.167 HD
ATOM     48  C   UNL A   1      40.573  28.801  30.184  1.00  0.00     0.037 A 
ATOM     49  C   UNL A   1      39.702  32.938  35.784  1.00  0.00     0.037 A 
ATOM     50  C   UNL A   1      41.534  28.607  31.237  1.00  0.00     0.049 A 
ATOM     51  C   UNL A   1      40.783  31.894  35.726  1.00  0.00     0.074 A 
ATOM     52  C   UNL A   1      42.610  27.739  31.278  1.00  0.00     0.029 A 
ATOM     53  N   UNL A   1      41.530  29.297  32.442  1.00  0.00    -0.354 N 
ATOM     54  N   UNL A   1      41.087  31.071  34.753  1.00  0.00    -0.248 NA
ATOM     55  C   UNL A   1      41.635  31.760  36.915  1.00  0.00     0.031 C 
ATOM     56  C   UNL A   1      43.232  27.874  32.524  1.00  0.00     0.029 A 
ATOM     57  C   UNL A   1      42.573  28.859  33.242  1.00  0.00     0.049 A 
ATOM     58  H   UNL A   1      40.880  29.994  32.691  1.00  0.00     0.167 HD
ATOM     59  C   UNL A   1      42.182  30.343  35.196  1.00  0.00     0.074 A 
ATOM     60  C   UNL A   1      42.495  30.830  36.525  1.00  0.00     0.031 C 
ATOM     61  C   UNL A   1      42.870  29.362  34.560  1.00  0.00     0.037 A 
BRANCH  48  62
ATOM     62  C   UNL A   1      40.656  27.937  28.959  1.00  0.00     0.064 A 
ATOM     63  C   UNL A   1      41.468  28.284  27.867  1.00  0.00     0.173 A 
ATOM     64  C   UNL A   1      39.912  26.751  28.868  1.00  0.00     0.173 A 
ATOM     65  F   UNL A   1      42.190  29.415  27.894  1.00  0.00    -0.203 F 
ATOM     66  C   UNL A   1      41.496  27.502  26.715  1.00  0.00     0.198 A 
ATOM     67  C   UNL A   1      39.968  25.954  27.728  1.00  0.00     0.198 A 
ATOM     68  F   UNL A   1      39.124  26.368  29.884  1.00  0.00    -0.203 F 
ATOM     69  F   UNL A   1      42.225  27.891  25.661  1.00  0.00    -0.200 F 
ATOM     70  C   UNL A   1      40.750  26.335  26.648  1.00  0.00     0.200 A 
ATOM     71  F   UNL A   1      39.255  24.821  27.670  1.00  0.00    -0.200 F 
ATOM     72  F   UNL A   1      40.774  25.585  25.537  1.00  0.00    -0.200 F 
ENDBRANCH  48  62
BRANCH  49  73
ATOM     73  C   UNL A   1      39.561  33.829  36.964  1.00  0.00     0.064 A 
ATOM     74  C   UNL A   1      40.182  35.085  36.984  1.00  0.00     0.173 A 
ATOM     75  C   UNL A   1      38.796  33.460  38.079  1.00  0.00     0.173 A 
ATOM     76  F   UNL A   1      40.939  35.473  35.948  1.00  0.00    -0.203 F 
ATOM     77  C   UNL A   1      40.050  35.936  38.079  1.00  0.00     0.198 A 
ATOM     78  C   UNL A   1      38.645  34.322  39.164  1.00  0.00     0.198 A 
ATOM     79  F   UNL A   1      38.176  32.270  38.106  1.00  0.00    -0.203 F 
ATOM     80  F   UNL A   1      40.681  37.118  38.085  1.00  0.00    -0.200 F 
ATOM     81  C   UNL A   1      39.277  35.556  39.165  1.00  0.00     0.200 A 
ATOM     82  F   UNL A   1      37.885  33.957  40.206  1.00  0.00    -0.200 F 
ATOM     83  F   UNL A   1      39.143  36.378  40.215  1.00  0.00    -0.200 F 
ENDBRANCH  49  73
BRANCH  61  84
ATOM     84  C   UNL A   1      44.050  28.778  35.278  1.00  0.00     0.064 A 
ATOM     85  C   UNL A   1      45.338  29.313  35.133  1.00  0.00     0.173 A 
ATOM     86  C   UNL A   1      43.882  27.691  36.149  1.00  0.00     0.173 A 
ATOM     87  F   UNL A   1      45.552  30.342  34.299  1.00  0.00    -0.203 F 
ATOM     88  C   UNL A   1      46.420  28.765  35.816  1.00  0.00     0.198 A 
ATOM     89  C   UNL A   1      44.961  27.163  36.852  1.00  0.00     0.198 A 
ATOM     90  F   UNL A   1      42.669  27.147  36.325  1.00  0.00    -0.203 F 
ATOM     91  F   UNL A   1      47.650  29.261  35.627  1.00  0.00    -0.200 F 
ATOM     92  C   UNL A   1      46.230  27.696  36.680  1.00  0.00     0.200 A 
ATOM     93  F   UNL A   1      44.774  26.139  37.696  1.00  0.00    -0.200 F 
ATOM     94  F   UNL A   1      47.271  27.174  37.341  1.00  0.00    -0.200 F 
ENDBRANCH  61  84
ENDBRANCH  35  36
ENDBRANCH  27  30
ENDBRANCH  25  26
ENDBRANCH  24  25
ENDBRANCH   1  24
TORSDOF 14
ENDMDL
MODEL 3
REMARK VINA RESULT:     -12.7      0.766      1.864
REMARK SMILES C[C@@H](Oc1ccccc1Cl)C(=O)N1CC[C@H](C(=O)NCCCNC(=O)c2ccc(-c3c4nc(c(-c5c(F)c(F)c(F)c(F)c5F)c5ccc([nH]5)c(-c5c(F)c(F)c(F)c(F)c5F)c5nc(c(-c6c(F)c(F)c(F)c(F)c6F)c6ccc3[nH]6)C=C5)C=C4)cc2)[C@@H]1C
REMARK SMILES IDX 20 1 19 2 17 3 18 4 16 6 13 7 14 8 89 9 15 10 90 11 11 12
REMARK SMILES IDX 12 13 2 14 1 15 3 16 4 17 5 18 9 19 6 20 8 21 10 22 7 23
REMARK SMILES IDX 21 24 22 25 23 26 24 27 25 29 26 30 27 31 88 32 28 33 87 34
REMARK SMILES IDX 29 35 30 36 31 37 81 38 32 39 86 40 80 41 82 42 33 43 85 44
REMARK SMILES IDX 79 45 78 46 34 48 66 49 46 50 65 51 47 52 50 53 64 54 83 55
REMARK SMILES IDX 48 56 49 57 63 59 84 60 51 61 35 62 36 63 44 64 37 65 38 66
REMARK SMILES IDX 42 67 45 68 39 69 40 70 43 71 41 72 67 73 68 74 76 75 69 76
REMARK SMILES IDX 70 77 74 78 77 79 71 80 72 81 75 82 73 83 52 84 53 85 61 86
REMARK SMILES IDX 54 87 55 88 59 89 62 90 56 91 57 92 60 93 58 94
REMARK H PARENT 19 5 23 28 82 47 50 58
REMARK Flexibility Score: inf
ROOT
ATOM      1  C   UNL A   1      31.500  30.889  26.049  1.00  0.00     0.117 C 
ENDROOT
BRANCH   1   2
ATOM      2  N   UNL A   1      30.724  30.654  24.847  1.00  0.00    -0.356 N 
ATOM      3  C   UNL A   1      30.584  29.614  23.993  1.00  0.00     0.225 C 
ATOM      4  O   UNL A   1      30.001  29.881  22.934  1.00  0.00    -0.275 OA
ATOM      5  H   UNL A   1      30.173  31.430  24.593  1.00  0.00     0.163 HD
BRANCH   3   6
ATOM      6  C   UNL A   1      30.998  28.168  24.256  1.00  0.00     0.102 C 
ATOM      7  N   UNL A   1      32.232  26.738  22.777  1.00  0.00    -0.336 N 
ATOM      8  C   UNL A   1      30.838  26.618  22.438  1.00  0.00     0.121 C 
ATOM      9  C   UNL A   1      32.434  27.809  23.770  1.00  0.00     0.094 C 
ATOM     10  C   UNL A   1      30.144  27.022  23.731  1.00  0.00     0.037 C 
ATOM     11  C   UNL A   1      33.222  28.976  23.173  1.00  0.00     0.032 C 
BRANCH   7  12
ATOM     12  C   UNL A   1      33.097  25.770  22.313  1.00  0.00     0.263 C 
ATOM     13  O   UNL A   1      33.674  25.910  21.228  1.00  0.00    -0.271 OA
BRANCH  12  14
ATOM     14  C   UNL A   1      33.231  24.447  23.074  1.00  0.00     0.259 C 
ATOM     15  C   UNL A   1      33.305  23.222  22.181  1.00  0.00     0.064 C 
BRANCH  14  16
ATOM     16  O   UNL A   1      34.403  24.552  23.898  1.00  0.00    -0.479 OA
BRANCH  16  17
ATOM     17  C   UNL A   1      34.410  23.661  24.933  1.00  0.00     0.139 A 
ATOM     18  C   UNL A   1      33.476  23.788  25.965  1.00  0.00     0.048 A 
ATOM     19  C   UNL A   1      35.409  22.687  25.002  1.00  0.00     0.083 A 
ATOM     20  C   UNL A   1      33.508  22.898  27.039  1.00  0.00     0.004 A 
ATOM     21  C   UNL A   1      35.432  21.793  26.072  1.00  0.00     0.024 A 
ATOM     22  Cl  UNL A   1      36.626  22.558  23.786  1.00  0.00    -0.080 Cl
ATOM     23  C   UNL A   1      34.479  21.896  27.087  1.00  0.00     0.002 A 
ENDBRANCH  16  17
ENDBRANCH  14  16
ENDBRANCH  12  14
ENDBRANCH   7  12
ENDBRANCH   3   6
ENDBRANCH   1   2
BRANCH   1  24
ATOM     24  C   UNL A   1      31.352  32.323  26.539  1.00  0.00     0.042 C 
BRANCH  24  25
ATOM     25  C   UNL A   1      32.610  32.838  27.222  1.00  0.00     0.118 C 
BRANCH  25  26
ATOM     26  N   UNL A   1      32.471  34.231  27.634  1.00  0.00    -0.352 N 
ATOM     27  C   UNL A   1      33.047  34.901  28.679  1.00  0.00     0.251 C 
ATOM     28  H   UNL A   1      31.869  34.771  27.075  1.00  0.00     0.163 HD
ATOM     29  O   UNL A   1      32.604  36.002  29.018  1.00  0.00    -0.269 OA
BRANCH  27  30
ATOM     30  C   UNL A   1      34.194  34.320  29.402  1.00  0.00     0.039 A 
ATOM     31  C   UNL A   1      33.965  33.603  30.580  1.00  0.00     0.014 A 
ATOM     32  C   UNL A   1      35.497  34.514  28.940  1.00  0.00     0.014 A 
ATOM     33  C   UNL A   1      35.042  33.038  31.265  1.00  0.00     0.010 A 
ATOM     34  C   UNL A   1      36.558  33.877  29.571  1.00  0.00     0.010 A 
ATOM     35  C   UNL A   1      36.342  33.149  30.749  1.00  0.00    -0.014 A 
BRANCH  35  36
ATOM     36  C   UNL A   1      37.504  32.540  31.439  1.00  0.00     0.031 A 
ATOM     37  C   UNL A   1      38.254  31.413  30.786  1.00  0.00     0.074 A 
ATOM     38  C   UNL A   1      37.834  32.950  32.677  1.00  0.00     0.049 A 
ATOM     39  N   UNL A   1      39.239  30.690  31.254  1.00  0.00    -0.248 NA
ATOM     40  C   UNL A   1      37.814  31.026  29.436  1.00  0.00     0.031 C 
ATOM     41  C   UNL A   1      37.155  34.008  33.426  1.00  0.00     0.029 A 
ATOM     42  N   UNL A   1      38.824  32.522  33.525  1.00  0.00    -0.354 N 
ATOM     43  C   UNL A   1      39.521  29.754  30.267  1.00  0.00     0.074 A 
ATOM     44  C   UNL A   1      38.564  29.960  29.203  1.00  0.00     0.031 C 
ATOM     45  C   UNL A   1      37.769  34.171  34.608  1.00  0.00     0.029 A 
ATOM     46  C   UNL A   1      38.857  33.204  34.715  1.00  0.00     0.049 A 
ATOM     47  H   UNL A   1      39.449  31.796  33.300  1.00  0.00     0.167 HD
ATOM     48  C   UNL A   1      40.507  28.826  30.239  1.00  0.00     0.037 A 
ATOM     49  C   UNL A   1      39.677  33.060  35.772  1.00  0.00     0.037 A 
ATOM     50  C   UNL A   1      41.471  28.644  31.292  1.00  0.00     0.049 A 
ATOM     51  C   UNL A   1      40.752  32.011  35.727  1.00  0.00     0.074 A 
ATOM     52  C   UNL A   1      42.543  27.772  31.344  1.00  0.00     0.029 A 
ATOM     53  N   UNL A   1      41.474  29.355  32.485  1.00  0.00    -0.354 N 
ATOM     54  N   UNL A   1      41.049  31.170  34.767  1.00  0.00    -0.248 NA
ATOM     55  C   UNL A   1      41.608  31.893  36.915  1.00  0.00     0.031 C 
ATOM     56  C   UNL A   1      43.170  27.925  32.585  1.00  0.00     0.029 A 
ATOM     57  C   UNL A   1      42.519  28.925  33.289  1.00  0.00     0.049 A 
ATOM     58  H   UNL A   1      40.829  30.059  32.725  1.00  0.00     0.167 HD
ATOM     59  C   UNL A   1      42.142  30.444  35.218  1.00  0.00     0.074 A 
ATOM     60  C   UNL A   1      42.462  30.952  36.539  1.00  0.00     0.031 C 
ATOM     61  C   UNL A   1      42.823  29.449  34.597  1.00  0.00     0.037 A 
BRANCH  48  62
ATOM     62  C   UNL A   1      40.581  27.941  29.029  1.00  0.00     0.064 A 
ATOM     63  C   UNL A   1      41.407  28.256  27.936  1.00  0.00     0.173 A 
ATOM     64  C   UNL A   1      39.816  26.768  28.952  1.00  0.00     0.173 A 
ATOM     65  F   UNL A   1      42.148  29.373  27.951  1.00  0.00    -0.203 F 
ATOM     66  C   UNL A   1      41.426  27.455  26.797  1.00  0.00     0.198 A 
ATOM     67  C   UNL A   1      39.864  25.952  27.826  1.00  0.00     0.198 A 
ATOM     68  F   UNL A   1      39.015  26.416  29.969  1.00  0.00    -0.203 F 
ATOM     69  F   UNL A   1      42.169  27.813  25.741  1.00  0.00    -0.200 F 
ATOM     70  C   UNL A   1      40.659  26.301  26.744  1.00  0.00     0.200 A 
ATOM     71  F   UNL A   1      39.131  24.831  27.781  1.00  0.00    -0.200 F 
ATOM     72  F   UNL A   1      40.676  25.533  25.646  1.00  0.00    -0.200 F 
ENDBRANCH  48  62
BRANCH  49  73
ATOM     73  C   UNL A   1      39.545  33.972  36.938  1.00  0.00     0.064 A 
ATOM     74  C   UNL A   1      38.791  33.591  38.056  1.00  0.00     0.173 A 
ATOM     75  C   UNL A   1      40.178  35.222  36.971  1.00  0.00     0.173 A 
ATOM     76  F   UNL A   1      38.153  32.412  38.061  1.00  0.00    -0.203 F 
ATOM     77  C   UNL A   1      38.666  34.431  39.160  1.00  0.00     0.198 A 
ATOM     78  C   UNL A   1      40.072  36.052  38.086  1.00  0.00     0.198 A 
ATOM     79  F   UNL A   1      40.916  35.630  35.927  1.00  0.00    -0.203 F 
ATOM     80  F   UNL A   1      37.912  34.055  40.202  1.00  0.00    -0.200 F 
ATOM     81  C   UNL A   1      39.312  35.658  39.177  1.00  0.00     0.200 A 
ATOM     82  F   UNL A   1      40.709  37.230  38.104  1.00  0.00    -0.200 F 
ATOM     83  F   UNL A   1      39.199  36.462  40.242  1.00  0.00    -0.200 F 
ENDBRANCH  49  73
BRANCH  61  84
ATOM     84  C   UNL A   1      44.003  28.871  35.321  1.00  0.00     0.064 A 
ATOM     85  C   UNL A   1      45.294  29.393  35.156  1.00  0.00     0.173 A 
ATOM     86  C   UNL A   1      43.832  27.805  36.215  1.00  0.00     0.173 A 
ATOM     87  F   UNL A   1      45.511  30.402  34.299  1.00  0.00    -0.203 F 
ATOM     88  C   UNL A   1      46.376  28.851  35.845  1.00  0.00     0.198 A 
ATOM     89  C   UNL A   1      44.911  27.284  36.924  1.00  0.00     0.198 A 
ATOM     90  F   UNL A   1      42.616  27.274  36.411  1.00  0.00    -0.203 F 
ATOM     91  F   UNL A   1      47.609  29.333  35.638  1.00  0.00    -0.200 F 
ATOM     92  C   UNL A   1      46.182  27.803  36.732  1.00  0.00     0.200 A 
ATOM     93  F   UNL A   1      44.721  26.280  37.790  1.00  0.00    -0.200 F 
ATOM     94  F   UNL A   1      47.224  27.287  37.399  1.00  0.00    -0.200 F 
ENDBRANCH  61  84
ENDBRANCH  35  36
ENDBRANCH  27  30
ENDBRANCH  25  26
ENDBRANCH  24  25
ENDBRANCH   1  24
TORSDOF 14
ENDMDL
