MODEL 1
REMARK VINA RESULT:     -13.3      0.000      0.000
REMARK SMILES CCS(=O)(=O)Nc1ccc(N2CC[NH+](C)CC2)cc1C(=O)NCCCNC(=O)c1ccc(-c2c3nc(c(-c4c(F)c(F)c(F)c(F)c4F)c4ccc([nH]4)c(-c4c(F)c(F)c(F)c(F)c4F)c4nc(c(-c5c(F)c(F)c(F)c(F)c5F)c5ccc2[nH]5)C=C4)C=C3)cc1
REMARK SMILES IDX 23 1 22 2 20 3 21 4 19 6 7 7 8 8 9 9 18 10 10 11 6 12 3 14
REMARK SMILES IDX 4 15 5 16 2 17 1 18 11 19 12 20 17 21 13 22 16 23 14 24
REMARK SMILES IDX 15 25 24 27 25 28 26 29 27 30 28 32 29 33 30 34 91 35 31 36
REMARK SMILES IDX 90 37 32 38 33 39 34 40 84 41 35 42 89 43 83 44 85 45 36 46
REMARK SMILES IDX 88 47 82 48 81 49 37 51 69 52 49 53 68 54 50 55 53 56 67 57
REMARK SMILES IDX 86 58 51 59 52 60 66 62 87 63 54 64 38 65 39 66 47 67 40 68
REMARK SMILES IDX 41 69 45 70 48 71 42 72 43 73 46 74 44 75 70 76 71 77 79 78
REMARK SMILES IDX 72 79 73 80 77 81 80 82 74 83 75 84 78 85 76 86 55 87 56 88
REMARK SMILES IDX 64 89 57 90 58 91 62 92 65 93 59 94 60 95 63 96 61 97
REMARK H PARENT 22 5 6 13 14 26 26 31 85 50 53 61
REMARK Flexibility Score: inf
ROOT
ATOM      1  C   UNL A   1      32.061  30.215  26.559  1.00  0.00     0.118 C 
ENDROOT
BRANCH   1   2
ATOM      2  N   UNL A   1      32.870  30.018  25.371  1.00  0.00    -0.352 N 
ATOM      3  C   UNL A   1      32.642  29.300  24.235  1.00  0.00     0.253 C 
ATOM      4  O   UNL A   1      33.519  29.299  23.371  1.00  0.00    -0.269 OA
ATOM      5  H   UNL A   1      33.735  30.486  25.388  1.00  0.00     0.163 HD
BRANCH   3   6
ATOM      6  C   UNL A   1      31.438  28.459  24.039  1.00  0.00     0.066 A 
ATOM      7  C   UNL A   1      30.282  28.805  23.336  1.00  0.00     0.061 A 
ATOM      8  C   UNL A   1      29.192  27.933  23.387  1.00  0.00     0.030 A 
ATOM      9  C   UNL A   1      29.309  26.669  23.963  1.00  0.00     0.028 A 
ATOM     10  C   UNL A   1      31.551  27.148  24.571  1.00  0.00     0.042 A 
ATOM     11  C   UNL A   1      30.521  26.206  24.483  1.00  0.00     0.038 A 
BRANCH   7  12
ATOM     12  N   UNL A   1      30.063  29.962  22.529  1.00  0.00    -0.283 N 
ATOM     13  H   UNL A   1      30.843  30.363  22.081  1.00  0.00     0.180 HD
BRANCH  12  14
ATOM     14  S   UNL A   1      28.572  30.682  22.293  1.00  0.00     0.232 S 
ATOM     15  O   UNL A   1      27.803  30.565  23.512  1.00  0.00    -0.207 OA
ATOM     16  O   UNL A   1      28.097  30.031  21.085  1.00  0.00    -0.207 OA
BRANCH  14  17
ATOM     17  C   UNL A   1      28.835  32.411  21.877  1.00  0.00     0.156 C 
ATOM     18  C   UNL A   1      28.952  33.344  23.063  1.00  0.00     0.023 C 
ENDBRANCH  14  17
ENDBRANCH  12  14
ENDBRANCH   7  12
BRANCH  11  19
ATOM     19  N   UNL A   1      30.696  24.879  24.809  1.00  0.00    -0.360 N 
ATOM     20  C   UNL A   1      30.611  24.339  26.177  1.00  0.00     0.178 C 
ATOM     21  C   UNL A   1      30.813  23.854  23.755  1.00  0.00     0.178 C 
ATOM     22  C   UNL A   1      31.726  23.292  26.436  1.00  0.00     0.283 C 
ATOM     23  C   UNL A   1      31.952  22.867  24.079  1.00  0.00     0.283 C 
ATOM     24  N   UNL A   1      31.789  22.233  25.401  1.00  0.00    -0.334 N 
ATOM     25  C   UNL A   1      32.900  21.317  25.660  1.00  0.00     0.332 C 
ATOM     26  H   UNL A   1      30.927  21.690  25.424  1.00  0.00     0.347 HD
ENDBRANCH  11  19
ENDBRANCH   3   6
ENDBRANCH   1   2
BRANCH   1  27
ATOM     27  C   UNL A   1      31.659  31.666  26.757  1.00  0.00     0.042 C 
BRANCH  27  28
ATOM     28  C   UNL A   1      32.780  32.557  27.288  1.00  0.00     0.118 C 
BRANCH  28  29
ATOM     29  N   UNL A   1      32.397  33.929  27.599  1.00  0.00    -0.352 N 
ATOM     30  C   UNL A   1      32.948  34.840  28.475  1.00  0.00     0.251 C 
ATOM     31  H   UNL A   1      31.615  34.260  27.101  1.00  0.00     0.163 HD
ATOM     32  O   UNL A   1      32.461  35.956  28.623  1.00  0.00    -0.269 OA
BRANCH  30  33
ATOM     33  C   UNL A   1      34.106  34.446  29.309  1.00  0.00     0.039 A 
ATOM     34  C   UNL A   1      33.875  33.860  30.557  1.00  0.00     0.014 A 
ATOM     35  C   UNL A   1      35.408  34.575  28.836  1.00  0.00     0.014 A 
ATOM     36  C   UNL A   1      34.935  33.266  31.248  1.00  0.00     0.010 A 
ATOM     37  C   UNL A   1      36.430  33.863  29.449  1.00  0.00     0.010 A 
ATOM     38  C   UNL A   1      36.205  33.183  30.656  1.00  0.00    -0.014 A 
BRANCH  38  39
ATOM     39  C   UNL A   1      37.309  32.383  31.255  1.00  0.00     0.031 A 
ATOM     40  C   UNL A   1      37.805  32.703  32.640  1.00  0.00     0.074 A 
ATOM     41  C   UNL A   1      37.947  31.452  30.515  1.00  0.00     0.049 A 
ATOM     42  N   UNL A   1      38.861  32.252  33.270  1.00  0.00    -0.248 NA
ATOM     43  C   UNL A   1      37.040  33.704  33.401  1.00  0.00     0.031 C 
ATOM     44  C   UNL A   1      37.622  31.091  29.133  1.00  0.00     0.029 A 
ATOM     45  N   UNL A   1      39.017  30.644  30.820  1.00  0.00    -0.354 N 
ATOM     46  C   UNL A   1      38.911  32.950  34.470  1.00  0.00     0.074 A 
ATOM     47  C   UNL A   1      37.814  33.893  34.457  1.00  0.00     0.031 C 
ATOM     48  C   UNL A   1      38.446  30.113  28.725  1.00  0.00     0.029 A 
ATOM     49  C   UNL A   1      39.389  29.809  29.795  1.00  0.00     0.049 A 
ATOM     50  H   UNL A   1      39.474  30.663  31.692  1.00  0.00     0.167 HD
ATOM     51  C   UNL A   1      39.773  32.799  35.504  1.00  0.00     0.037 A 
ATOM     52  C   UNL A   1      40.384  28.903  29.722  1.00  0.00     0.037 A 
ATOM     53  C   UNL A   1      40.816  31.810  35.548  1.00  0.00     0.049 A 
ATOM     54  C   UNL A   1      41.291  28.712  30.908  1.00  0.00     0.074 A 
ATOM     55  C   UNL A   1      41.688  31.521  36.582  1.00  0.00     0.029 A 
ATOM     56  N   UNL A   1      41.116  30.937  34.513  1.00  0.00    -0.354 N 
ATOM     57  N   UNL A   1      41.291  29.339  32.057  1.00  0.00    -0.248 NA
ATOM     58  C   UNL A   1      42.333  27.683  30.785  1.00  0.00     0.031 C 
ATOM     59  C   UNL A   1      42.533  30.487  36.164  1.00  0.00     0.029 A 
ATOM     60  C   UNL A   1      42.162  30.109  34.883  1.00  0.00     0.049 A 
ATOM     61  H   UNL A   1      40.653  30.909  33.644  1.00  0.00     0.167 HD
ATOM     62  C   UNL A   1      42.309  28.763  32.805  1.00  0.00     0.074 A 
ATOM     63  C   UNL A   1      42.898  27.728  31.983  1.00  0.00     0.031 C 
ATOM     64  C   UNL A   1      42.720  29.068  34.060  1.00  0.00     0.037 A 
BRANCH  51  65
ATOM     65  C   UNL A   1      39.606  33.714  36.683  1.00  0.00     0.064 A 
ATOM     66  C   UNL A   1      40.230  34.969  36.733  1.00  0.00     0.173 A 
ATOM     67  C   UNL A   1      38.795  33.341  37.765  1.00  0.00     0.173 A 
ATOM     68  F   UNL A   1      41.026  35.368  35.729  1.00  0.00    -0.203 F 
ATOM     69  C   UNL A   1      40.081  35.801  37.840  1.00  0.00     0.198 A 
ATOM     70  C   UNL A   1      38.621  34.189  38.855  1.00  0.00     0.198 A 
ATOM     71  F   UNL A   1      38.168  32.155  37.765  1.00  0.00    -0.203 F 
ATOM     72  F   UNL A   1      40.735  36.969  37.890  1.00  0.00    -0.200 F 
ATOM     73  C   UNL A   1      39.272  35.413  38.896  1.00  0.00     0.200 A 
ATOM     74  F   UNL A   1      37.828  33.819  39.871  1.00  0.00    -0.200 F 
ATOM     75  F   UNL A   1      39.126  36.216  39.959  1.00  0.00    -0.200 F 
ENDBRANCH  51  65
BRANCH  52  76
ATOM     76  C   UNL A   1      40.556  28.079  28.496  1.00  0.00     0.064 A 
ATOM     77  C   UNL A   1      39.945  26.821  28.391  1.00  0.00     0.173 A 
ATOM     78  C   UNL A   1      41.332  28.520  27.416  1.00  0.00     0.173 A 
ATOM     79  F   UNL A   1      39.210  26.348  29.407  1.00  0.00    -0.203 F 
ATOM     80  C   UNL A   1      40.123  26.026  27.261  1.00  0.00     0.198 A 
ATOM     81  C   UNL A   1      41.488  27.734  26.275  1.00  0.00     0.198 A 
ATOM     82  F   UNL A   1      41.934  29.717  27.464  1.00  0.00    -0.203 F 
ATOM     83  F   UNL A   1      39.566  24.808  27.207  1.00  0.00    -0.200 F 
ATOM     84  C   UNL A   1      40.891  26.484  26.202  1.00  0.00     0.200 A 
ATOM     85  F   UNL A   1      42.221  28.186  25.248  1.00  0.00    -0.200 F 
ATOM     86  F   UNL A   1      41.062  25.719  25.115  1.00  0.00    -0.200 F 
ENDBRANCH  52  76
BRANCH  64  87
ATOM     87  C   UNL A   1      43.829  28.243  34.640  1.00  0.00     0.064 A 
ATOM     88  C   UNL A   1      45.168  28.650  34.559  1.00  0.00     0.173 A 
ATOM     89  C   UNL A   1      43.540  27.055  35.329  1.00  0.00     0.173 A 
ATOM     90  F   UNL A   1      45.494  29.770  33.897  1.00  0.00    -0.203 F 
ATOM     91  C   UNL A   1      46.182  27.885  35.131  1.00  0.00     0.198 A 
ATOM     92  C   UNL A   1      44.553  26.308  35.923  1.00  0.00     0.198 A 
ATOM     93  F   UNL A   1      42.273  26.628  35.438  1.00  0.00    -0.203 F 
ATOM     94  F   UNL A   1      47.459  28.272  35.009  1.00  0.00    -0.200 F 
ATOM     95  C   UNL A   1      45.873  26.721  35.818  1.00  0.00     0.200 A 
ATOM     96  F   UNL A   1      44.251  25.189  36.595  1.00  0.00    -0.200 F 
ATOM     97  F   UNL A   1      46.849  25.992  36.376  1.00  0.00    -0.200 F 
ENDBRANCH  64  87
ENDBRANCH  38  39
ENDBRANCH  30  33
ENDBRANCH  28  29
ENDBRANCH  27  28
ENDBRANCH   1  27
TORSDOF 14
ENDMDL
MODEL 2
REMARK VINA RESULT:     -13.1      5.955     11.550
REMARK SMILES CCS(=O)(=O)Nc1ccc(N2CC[NH+](C)CC2)cc1C(=O)NCCCNC(=O)c1ccc(-c2c3nc(c(-c4c(F)c(F)c(F)c(F)c4F)c4ccc([nH]4)c(-c4c(F)c(F)c(F)c(F)c4F)c4nc(c(-c5c(F)c(F)c(F)c(F)c5F)c5ccc2[nH]5)C=C4)C=C3)cc1
REMARK SMILES IDX 23 1 22 2 20 3 21 4 19 6 7 7 8 8 9 9 18 10 10 11 6 12 3 14
REMARK SMILES IDX 4 15 5 16 2 17 1 18 11 19 12 20 17 21 13 22 16 23 14 24
REMARK SMILES IDX 15 25 24 27 25 28 26 29 27 30 28 32 29 33 30 34 91 35 31 36
REMARK SMILES IDX 90 37 32 38 33 39 34 40 84 41 35 42 89 43 83 44 85 45 36 46
REMARK SMILES IDX 88 47 82 48 81 49 37 51 69 52 49 53 68 54 50 55 53 56 67 57
REMARK SMILES IDX 86 58 51 59 52 60 66 62 87 63 54 64 38 65 39 66 47 67 40 68
REMARK SMILES IDX 41 69 45 70 48 71 42 72 43 73 46 74 44 75 70 76 71 77 79 78
REMARK SMILES IDX 72 79 73 80 77 81 80 82 74 83 75 84 78 85 76 86 55 87 56 88
REMARK SMILES IDX 64 89 57 90 58 91 62 92 65 93 59 94 60 95 63 96 61 97
REMARK H PARENT 22 5 6 13 14 26 26 31 85 50 53 61
REMARK Flexibility Score: inf
ROOT
ATOM      1  C   UNL A   1      37.006  21.264  24.963  1.00  0.00     0.118 C 
ENDROOT
BRANCH   1   2
ATOM      2  N   UNL A   1      36.103  21.281  26.099  1.00  0.00    -0.352 N 
ATOM      3  C   UNL A   1      34.751  21.434  26.172  1.00  0.00     0.253 C 
ATOM      4  O   UNL A   1      34.230  21.416  27.288  1.00  0.00    -0.269 OA
ATOM      5  H   UNL A   1      36.545  21.161  26.970  1.00  0.00     0.163 HD
BRANCH   3   6
ATOM      6  C   UNL A   1      33.903  21.706  24.989  1.00  0.00     0.066 A 
ATOM      7  C   UNL A   1      33.004  20.826  24.383  1.00  0.00     0.061 A 
ATOM      8  C   UNL A   1      32.403  21.216  23.183  1.00  0.00     0.030 A 
ATOM      9  C   UNL A   1      32.548  22.514  22.696  1.00  0.00     0.028 A 
ATOM     10  C   UNL A   1      33.992  23.037  24.503  1.00  0.00     0.042 A 
ATOM     11  C   UNL A   1      33.267  23.487  23.395  1.00  0.00     0.038 A 
BRANCH   7  12
ATOM     12  N   UNL A   1      32.586  19.544  24.852  1.00  0.00    -0.283 N 
ATOM     13  H   UNL A   1      31.808  19.506  25.454  1.00  0.00     0.180 HD
BRANCH  12  14
ATOM     14  S   UNL A   1      33.331  18.101  24.450  1.00  0.00     0.232 S 
ATOM     15  O   UNL A   1      34.763  18.299  24.465  1.00  0.00    -0.207 OA
ATOM     16  O   UNL A   1      32.674  17.747  23.204  1.00  0.00    -0.207 OA
BRANCH  14  17
ATOM     17  C   UNL A   1      32.852  16.858  25.655  1.00  0.00     0.156 C 
ATOM     18  C   UNL A   1      33.149  15.429  25.253  1.00  0.00     0.023 C 
ENDBRANCH  14  17
ENDBRANCH  12  14
ENDBRANCH   7  12
BRANCH  11  19
ATOM     19  N   UNL A   1      33.188  24.818  23.047  1.00  0.00    -0.360 N 
ATOM     20  C   UNL A   1      33.799  25.916  23.817  1.00  0.00     0.178 C 
ATOM     21  C   UNL A   1      32.619  25.226  21.749  1.00  0.00     0.178 C 
ATOM     22  C   UNL A   1      32.846  27.138  23.901  1.00  0.00     0.283 C 
ATOM     23  C   UNL A   1      31.673  26.429  21.924  1.00  0.00     0.283 C 
ATOM     24  N   UNL A   1      32.331  27.574  22.582  1.00  0.00    -0.334 N 
ATOM     25  C   UNL A   1      31.386  28.681  22.730  1.00  0.00     0.332 C 
ATOM     26  H   UNL A   1      33.109  27.903  22.012  1.00  0.00     0.347 HD
ENDBRANCH  11  19
ENDBRANCH   3   6
ENDBRANCH   1   2
BRANCH   1  27
ATOM     27  C   UNL A   1      37.953  20.078  24.990  1.00  0.00     0.042 C 
BRANCH  27  28
ATOM     28  C   UNL A   1      39.252  20.334  25.752  1.00  0.00     0.118 C 
BRANCH  28  29
ATOM     29  N   UNL A   1      40.177  19.208  25.812  1.00  0.00    -0.352 N 
ATOM     30  C   UNL A   1      41.521  19.163  26.115  1.00  0.00     0.251 C 
ATOM     31  H   UNL A   1      39.775  18.335  25.600  1.00  0.00     0.163 HD
ATOM     32  O   UNL A   1      42.146  18.108  26.085  1.00  0.00    -0.269 OA
BRANCH  30  33
ATOM     33  C   UNL A   1      42.246  20.419  26.414  1.00  0.00     0.039 A 
ATOM     34  C   UNL A   1      42.839  21.126  25.364  1.00  0.00     0.014 A 
ATOM     35  C   UNL A   1      42.275  20.941  27.703  1.00  0.00     0.014 A 
ATOM     36  C   UNL A   1      43.315  22.421  25.586  1.00  0.00     0.010 A 
ATOM     37  C   UNL A   1      42.612  22.275  27.891  1.00  0.00     0.010 A 
ATOM     38  C   UNL A   1      43.122  23.040  26.832  1.00  0.00    -0.014 A 
BRANCH  38  39
ATOM     39  C   UNL A   1      43.420  24.483  27.055  1.00  0.00     0.031 A 
ATOM     40  C   UNL A   1      44.800  25.018  26.777  1.00  0.00     0.074 A 
ATOM     41  C   UNL A   1      42.493  25.284  27.620  1.00  0.00     0.049 A 
ATOM     42  N   UNL A   1      45.312  26.188  27.070  1.00  0.00    -0.248 NA
ATOM     43  C   UNL A   1      45.748  24.097  26.129  1.00  0.00     0.031 C 
ATOM     44  C   UNL A   1      41.140  24.880  28.011  1.00  0.00     0.029 A 
ATOM     45  N   UNL A   1      42.554  26.610  27.978  1.00  0.00    -0.354 N 
ATOM     46  C   UNL A   1      46.646  26.120  26.690  1.00  0.00     0.074 A 
ATOM     47  C   UNL A   1      46.880  24.780  26.198  1.00  0.00     0.031 C 
ATOM     48  C   UNL A   1      40.490  25.940  28.517  1.00  0.00     0.029 A 
ATOM     49  C   UNL A   1      41.391  27.087  28.533  1.00  0.00     0.049 A 
ATOM     50  H   UNL A   1      43.356  27.166  27.849  1.00  0.00     0.167 HD
ATOM     51  C   UNL A   1      47.587  27.094  26.718  1.00  0.00     0.037 A 
ATOM     52  C   UNL A   1      41.086  28.310  29.009  1.00  0.00     0.037 A 
ATOM     53  C   UNL A   1      47.335  28.447  27.136  1.00  0.00     0.049 A 
ATOM     54  C   UNL A   1      42.131  29.393  28.973  1.00  0.00     0.074 A 
ATOM     55  C   UNL A   1      48.198  29.529  27.124  1.00  0.00     0.029 A 
ATOM     56  N   UNL A   1      46.123  28.906  27.628  1.00  0.00    -0.354 N 
ATOM     57  N   UNL A   1      43.371  29.331  28.558  1.00  0.00    -0.248 NA
ATOM     58  C   UNL A   1      41.729  30.717  29.469  1.00  0.00     0.031 C 
ATOM     59  C   UNL A   1      47.513  30.638  27.631  1.00  0.00     0.029 A 
ATOM     60  C   UNL A   1      46.214  30.255  27.925  1.00  0.00     0.049 A 
ATOM     61  H   UNL A   1      45.316  28.354  27.748  1.00  0.00     0.167 HD
ATOM     62  C   UNL A   1      43.889  30.609  28.712  1.00  0.00     0.074 A 
ATOM     63  C   UNL A   1      42.825  31.430  29.250  1.00  0.00     0.031 C 
ATOM     64  C   UNL A   1      45.137  31.060  28.437  1.00  0.00     0.037 A 
BRANCH  51  65
ATOM     65  C   UNL A   1      48.971  26.733  26.261  1.00  0.00     0.064 A 
ATOM     66  C   UNL A   1      49.907  26.159  27.134  1.00  0.00     0.173 A 
ATOM     67  C   UNL A   1      49.359  26.944  24.929  1.00  0.00     0.173 A 
ATOM     68  F   UNL A   1      49.589  25.949  28.420  1.00  0.00    -0.203 F 
ATOM     69  C   UNL A   1      51.193  25.846  26.702  1.00  0.00     0.198 A 
ATOM     70  C   UNL A   1      50.635  26.598  24.492  1.00  0.00     0.198 A 
ATOM     71  F   UNL A   1      48.500  27.482  24.050  1.00  0.00    -0.203 F 
ATOM     72  F   UNL A   1      52.087  25.354  27.570  1.00  0.00    -0.200 F 
ATOM     73  C   UNL A   1      51.553  26.059  25.381  1.00  0.00     0.200 A 
ATOM     74  F   UNL A   1      50.979  26.791  23.211  1.00  0.00    -0.200 F 
ATOM     75  F   UNL A   1      52.790  25.752  24.965  1.00  0.00    -0.200 F 
ENDBRANCH  51  65
BRANCH  52  76
ATOM     76  C   UNL A   1      39.721  28.591  29.527  1.00  0.00     0.064 A 
ATOM     77  C   UNL A   1      38.726  29.095  28.678  1.00  0.00     0.173 A 
ATOM     78  C   UNL A   1      39.385  28.373  30.870  1.00  0.00     0.173 A 
ATOM     79  F   UNL A   1      39.007  29.339  27.390  1.00  0.00    -0.203 F 
ATOM     80  C   UNL A   1      37.452  29.392  29.158  1.00  0.00     0.198 A 
ATOM     81  C   UNL A   1      38.102  28.646  31.343  1.00  0.00     0.198 A 
ATOM     82  F   UNL A   1      40.299  27.888  31.723  1.00  0.00    -0.203 F 
ATOM     83  F   UNL A   1      36.534  29.917  28.334  1.00  0.00    -0.200 F 
ATOM     84  C   UNL A   1      37.139  29.164  30.488  1.00  0.00     0.200 A 
ATOM     85  F   UNL A   1      37.800  28.413  32.627  1.00  0.00    -0.200 F 
ATOM     86  F   UNL A   1      35.913  29.449  30.950  1.00  0.00    -0.200 F 
ENDBRANCH  52  76
BRANCH  64  87
ATOM     87  C   UNL A   1      45.407  32.517  28.667  1.00  0.00     0.064 A 
ATOM     88  C   UNL A   1      45.957  32.983  29.870  1.00  0.00     0.173 A 
ATOM     89  C   UNL A   1      45.159  33.451  27.649  1.00  0.00     0.173 A 
ATOM     90  F   UNL A   1      46.197  32.130  30.876  1.00  0.00    -0.203 F 
ATOM     91  C   UNL A   1      46.230  34.336  30.052  1.00  0.00     0.198 A 
ATOM     92  C   UNL A   1      45.458  34.798  27.826  1.00  0.00     0.198 A 
ATOM     93  F   UNL A   1      44.639  33.053  26.478  1.00  0.00    -0.203 F 
ATOM     94  F   UNL A   1      46.719  34.765  31.224  1.00  0.00    -0.200 F 
ATOM     95  C   UNL A   1      45.988  35.240  29.029  1.00  0.00     0.200 A 
ATOM     96  F   UNL A   1      45.234  35.668  26.832  1.00  0.00    -0.200 F 
ATOM     97  F   UNL A   1      46.261  36.540  29.204  1.00  0.00    -0.200 F 
ENDBRANCH  64  87
ENDBRANCH  38  39
ENDBRANCH  30  33
ENDBRANCH  28  29
ENDBRANCH  27  28
ENDBRANCH   1  27
TORSDOF 14
ENDMDL
MODEL 3
REMARK VINA RESULT:     -13.1      2.286      3.337
REMARK SMILES CCS(=O)(=O)Nc1ccc(N2CC[NH+](C)CC2)cc1C(=O)NCCCNC(=O)c1ccc(-c2c3nc(c(-c4c(F)c(F)c(F)c(F)c4F)c4ccc([nH]4)c(-c4c(F)c(F)c(F)c(F)c4F)c4nc(c(-c5c(F)c(F)c(F)c(F)c5F)c5ccc2[nH]5)C=C4)C=C3)cc1
REMARK SMILES IDX 23 1 22 2 20 3 21 4 19 6 7 7 8 8 9 9 18 10 10 11 6 12 3 14
REMARK SMILES IDX 4 15 5 16 2 17 1 18 11 19 12 20 17 21 13 22 16 23 14 24
REMARK SMILES IDX 15 25 24 27 25 28 26 29 27 30 28 32 29 33 30 34 91 35 31 36
REMARK SMILES IDX 90 37 32 38 33 39 34 40 84 41 35 42 89 43 83 44 85 45 36 46
REMARK SMILES IDX 88 47 82 48 81 49 37 51 69 52 49 53 68 54 50 55 53 56 67 57
REMARK SMILES IDX 86 58 51 59 52 60 66 62 87 63 54 64 38 65 39 66 47 67 40 68
REMARK SMILES IDX 41 69 45 70 48 71 42 72 43 73 46 74 44 75 70 76 71 77 79 78
REMARK SMILES IDX 72 79 73 80 77 81 80 82 74 83 75 84 78 85 76 86 55 87 56 88
REMARK SMILES IDX 64 89 57 90 58 91 62 92 65 93 59 94 60 95 63 96 61 97
REMARK H PARENT 22 5 6 13 14 26 26 31 85 50 53 61
REMARK Flexibility Score: inf
ROOT
ATOM      1  C   UNL A   1      32.198  27.625  26.823  1.00  0.00     0.118 C 
ENDROOT
BRANCH   1   2
ATOM      2  N   UNL A   1      31.085  26.698  26.909  1.00  0.00    -0.352 N 
ATOM      3  C   UNL A   1      30.872  25.489  26.317  1.00  0.00     0.253 C 
ATOM      4  O   UNL A   1      29.815  24.907  26.564  1.00  0.00    -0.269 OA
ATOM      5  H   UNL A   1      30.356  26.995  27.499  1.00  0.00     0.163 HD
BRANCH   3   6
ATOM      6  C   UNL A   1      31.806  24.895  25.334  1.00  0.00     0.066 A 
ATOM      7  C   UNL A   1      31.736  25.002  23.943  1.00  0.00     0.061 A 
ATOM      8  C   UNL A   1      32.626  24.247  23.176  1.00  0.00     0.030 A 
ATOM      9  C   UNL A   1      33.675  23.549  23.772  1.00  0.00     0.028 A 
ATOM     10  C   UNL A   1      32.913  24.222  25.914  1.00  0.00     0.042 A 
ATOM     11  C   UNL A   1      33.905  23.599  25.149  1.00  0.00     0.038 A 
BRANCH   7  12
ATOM     12  N   UNL A   1      30.858  25.824  23.173  1.00  0.00    -0.283 N 
ATOM     13  H   UNL A   1      30.139  25.380  22.668  1.00  0.00     0.180 HD
BRANCH  12  14
ATOM     14  S   UNL A   1      30.970  27.490  23.072  1.00  0.00     0.232 S 
ATOM     15  O   UNL A   1      30.099  28.074  24.067  1.00  0.00    -0.207 OA
ATOM     16  O   UNL A   1      30.709  27.736  21.664  1.00  0.00    -0.207 OA
BRANCH  14  17
ATOM     17  C   UNL A   1      32.677  27.964  23.369  1.00  0.00     0.156 C 
ATOM     18  C   UNL A   1      33.567  27.950  22.144  1.00  0.00     0.023 C 
ENDBRANCH  14  17
ENDBRANCH  12  14
ENDBRANCH   7  12
BRANCH  11  19
ATOM     19  N   UNL A   1      35.080  23.129  25.694  1.00  0.00    -0.360 N 
ATOM     20  C   UNL A   1      36.175  23.988  26.176  1.00  0.00     0.178 C 
ATOM     21  C   UNL A   1      35.249  21.696  26.000  1.00  0.00     0.178 C 
ATOM     22  C   UNL A   1      37.557  23.414  25.767  1.00  0.00     0.283 C 
ATOM     23  C   UNL A   1      36.636  21.203  25.546  1.00  0.00     0.283 C 
ATOM     24  N   UNL A   1      37.736  21.990  26.137  1.00  0.00    -0.334 N 
ATOM     25  C   UNL A   1      39.025  21.486  25.665  1.00  0.00     0.332 C 
ATOM     26  H   UNL A   1      37.720  21.904  27.152  1.00  0.00     0.347 HD
ENDBRANCH  11  19
ENDBRANCH   3   6
ENDBRANCH   1   2
BRANCH   1  27
ATOM     27  C   UNL A   1      31.786  29.059  27.105  1.00  0.00     0.042 C 
BRANCH  27  28
ATOM     28  C   UNL A   1      32.592  30.102  26.333  1.00  0.00     0.118 C 
BRANCH  28  29
ATOM     29  N   UNL A   1      32.525  31.461  26.858  1.00  0.00    -0.352 N 
ATOM     30  C   UNL A   1      33.463  32.210  27.537  1.00  0.00     0.251 C 
ATOM     31  H   UNL A   1      31.668  31.919  26.704  1.00  0.00     0.163 HD
ATOM     32  O   UNL A   1      33.209  33.343  27.932  1.00  0.00    -0.269 OA
BRANCH  30  33
ATOM     33  C   UNL A   1      34.778  31.614  27.864  1.00  0.00     0.039 A 
ATOM     34  C   UNL A   1      35.867  32.459  28.095  1.00  0.00     0.014 A 
ATOM     35  C   UNL A   1      34.923  30.239  28.022  1.00  0.00     0.014 A 
ATOM     36  C   UNL A   1      37.046  31.935  28.635  1.00  0.00     0.010 A 
ATOM     37  C   UNL A   1      36.035  29.743  28.690  1.00  0.00     0.010 A 
ATOM     38  C   UNL A   1      37.106  30.586  29.021  1.00  0.00    -0.014 A 
BRANCH  38  39
ATOM     39  C   UNL A   1      38.257  30.032  29.788  1.00  0.00     0.031 A 
ATOM     40  C   UNL A   1      38.495  30.469  31.209  1.00  0.00     0.074 A 
ATOM     41  C   UNL A   1      39.155  29.233  29.175  1.00  0.00     0.049 A 
ATOM     42  N   UNL A   1      39.527  30.248  31.985  1.00  0.00    -0.248 NA
ATOM     43  C   UNL A   1      37.456  31.312  31.824  1.00  0.00     0.031 C 
ATOM     44  C   UNL A   1      39.090  28.790  27.780  1.00  0.00     0.029 A 
ATOM     45  N   UNL A   1      40.312  28.660  29.646  1.00  0.00    -0.354 N 
ATOM     46  C   UNL A   1      39.283  30.964  33.150  1.00  0.00     0.074 A 
ATOM     47  C   UNL A   1      38.034  31.670  32.960  1.00  0.00     0.031 C 
ATOM     48  C   UNL A   1      40.135  27.988  27.521  1.00  0.00     0.029 A 
ATOM     49  C   UNL A   1      40.971  27.897  28.712  1.00  0.00     0.049 A 
ATOM     50  H   UNL A   1      40.639  28.785  30.566  1.00  0.00     0.167 HD
ATOM     51  C   UNL A   1      40.014  31.006  34.289  1.00  0.00     0.037 A 
ATOM     52  C   UNL A   1      42.124  27.206  28.803  1.00  0.00     0.037 A 
ATOM     53  C   UNL A   1      41.215  30.246  34.505  1.00  0.00     0.049 A 
ATOM     54  C   UNL A   1      42.887  27.220  30.100  1.00  0.00     0.074 A 
ATOM     55  C   UNL A   1      41.984  30.154  35.652  1.00  0.00     0.029 A 
ATOM     56  N   UNL A   1      41.812  29.431  33.556  1.00  0.00    -0.354 N 
ATOM     57  N   UNL A   1      42.615  27.855  31.212  1.00  0.00    -0.248 NA
ATOM     58  C   UNL A   1      44.117  26.417  30.153  1.00  0.00     0.031 C 
ATOM     59  C   UNL A   1      43.060  29.301  35.388  1.00  0.00     0.029 A 
ATOM     60  C   UNL A   1      42.941  28.834  34.089  1.00  0.00     0.049 A 
ATOM     61  H   UNL A   1      41.481  29.296  32.638  1.00  0.00     0.167 HD
ATOM     62  C   UNL A   1      43.618  27.507  32.106  1.00  0.00     0.074 A 
ATOM     63  C   UNL A   1      44.501  26.595  31.409  1.00  0.00     0.031 C 
ATOM     64  C   UNL A   1      43.794  27.910  33.388  1.00  0.00     0.037 A 
BRANCH  51  65
ATOM     65  C   UNL A   1      39.519  31.891  35.397  1.00  0.00     0.064 A 
ATOM     66  C   UNL A   1      39.937  33.225  35.514  1.00  0.00     0.173 A 
ATOM     67  C   UNL A   1      38.600  31.406  36.339  1.00  0.00     0.173 A 
ATOM     68  F   UNL A   1      40.825  33.733  34.646  1.00  0.00    -0.203 F 
ATOM     69  C   UNL A   1      39.484  34.029  36.557  1.00  0.00     0.198 A 
ATOM     70  C   UNL A   1      38.123  32.223  37.360  1.00  0.00     0.198 A 
ATOM     71  F   UNL A   1      38.161  30.140  36.268  1.00  0.00    -0.203 F 
ATOM     72  F   UNL A   1      39.944  35.281  36.682  1.00  0.00    -0.200 F 
ATOM     73  C   UNL A   1      38.573  33.530  37.474  1.00  0.00     0.200 A 
ATOM     74  F   UNL A   1      37.231  31.744  38.239  1.00  0.00    -0.200 F 
ATOM     75  F   UNL A   1      38.134  34.307  38.475  1.00  0.00    -0.200 F 
ENDBRANCH  51  65
BRANCH  52  76
ATOM     76  C   UNL A   1      42.612  26.411  27.646  1.00  0.00     0.064 A 
ATOM     77  C   UNL A   1      42.133  25.112  27.420  1.00  0.00     0.173 A 
ATOM     78  C   UNL A   1      43.564  26.920  26.752  1.00  0.00     0.173 A 
ATOM     79  F   UNL A   1      41.237  24.574  28.260  1.00  0.00    -0.203 F 
ATOM     80  C   UNL A   1      42.605  24.344  26.357  1.00  0.00     0.198 A 
ATOM     81  C   UNL A   1      44.015  26.161  25.673  1.00  0.00     0.198 A 
ATOM     82  F   UNL A   1      44.050  28.158  26.920  1.00  0.00    -0.203 F 
ATOM     83  F   UNL A   1      42.164  23.090  26.193  1.00  0.00    -0.200 F 
ATOM     84  C   UNL A   1      43.542  24.870  25.482  1.00  0.00     0.200 A 
ATOM     85  F   UNL A   1      44.912  26.677  24.822  1.00  0.00    -0.200 F 
ATOM     86  F   UNL A   1      43.996  24.132  24.459  1.00  0.00    -0.200 F 
ENDBRANCH  52  76
BRANCH  64  87
ATOM     87  C   UNL A   1      44.957  27.332  34.137  1.00  0.00     0.064 A 
ATOM     88  C   UNL A   1      46.202  27.977  34.174  1.00  0.00     0.173 A 
ATOM     89  C   UNL A   1      44.807  26.144  34.868  1.00  0.00     0.173 A 
ATOM     90  F   UNL A   1      46.398  29.106  33.478  1.00  0.00    -0.203 F 
ATOM     91  C   UNL A   1      47.261  27.440  34.901  1.00  0.00     0.198 A 
ATOM     92  C   UNL A   1      45.860  25.626  35.615  1.00  0.00     0.198 A 
ATOM     93  F   UNL A   1      43.633  25.495  34.868  1.00  0.00    -0.203 F 
ATOM     94  F   UNL A   1      48.454  28.051  34.891  1.00  0.00    -0.200 F 
ATOM     95  C   UNL A   1      47.087  26.272  35.626  1.00  0.00     0.200 A 
ATOM     96  F   UNL A   1      45.687  24.502  36.324  1.00  0.00    -0.200 F 
ATOM     97  F   UNL A   1      48.106  25.763  36.333  1.00  0.00    -0.200 F 
ENDBRANCH  64  87
ENDBRANCH  38  39
ENDBRANCH  30  33
ENDBRANCH  28  29
ENDBRANCH  27  28
ENDBRANCH   1  27
TORSDOF 14
ENDMDL
