MODEL 1
REMARK VINA RESULT:     -13.2      0.000      0.000
REMARK SMILES CC[C@@H](C)N1C(=O)/C(=C/Nc2cccc(C(=O)NCCCNC(=O)c3ccc(-c4c5nc(c(-c6c(F)c(F)c(F)c(F)c6F)c6ccc([nH]6)c(-c6c(F)c(F)c(F)c(F)c6F)c6nc(c(-c7c(F)c(F)c(F)c(F)c7F)c7ccc4[nH]7)C=C6)C=C5)cc3)c2)C(=O)NC1=S
REMARK SMILES IDX 19 1 18 2 16 3 17 4 15 6 11 7 12 8 88 9 13 10 14 11 10 12
REMARK SMILES IDX 9 14 5 15 6 16 92 17 7 18 8 19 91 20 93 21 89 22 90 24 3 25
REMARK SMILES IDX 4 26 2 27 1 28 20 29 21 30 22 31 23 32 24 34 25 35 26 36
REMARK SMILES IDX 87 37 27 38 86 39 28 40 29 41 30 42 80 43 31 44 85 45 79 46
REMARK SMILES IDX 81 47 32 48 84 49 78 50 77 51 33 53 65 54 45 55 64 56 46 57
REMARK SMILES IDX 49 58 63 59 82 60 47 61 48 62 62 64 83 65 50 66 34 67 35 68
REMARK SMILES IDX 43 69 36 70 37 71 41 72 44 73 38 74 39 75 42 76 40 77 66 78
REMARK SMILES IDX 67 79 75 80 68 81 69 82 73 83 76 84 70 85 71 86 74 87 72 88
REMARK SMILES IDX 51 89 52 90 60 91 53 92 54 93 58 94 61 95 55 96 56 97 59 98
REMARK SMILES IDX 57 99
REMARK H PARENT 18 5 10 13 91 23 22 33 81 52 49 63
REMARK Flexibility Score: inf
ROOT
ATOM      1  C   UNL A   1      31.471  30.714  26.426  1.00  0.00     0.118 C 
ENDROOT
BRANCH   1   2
ATOM      2  N   UNL A   1      32.125  30.325  25.184  1.00  0.00    -0.352 N 
ATOM      3  C   UNL A   1      32.023  29.216  24.374  1.00  0.00     0.251 C 
ATOM      4  O   UNL A   1      32.757  29.161  23.388  1.00  0.00    -0.269 OA
ATOM      5  H   UNL A   1      32.772  30.992  24.856  1.00  0.00     0.163 HD
BRANCH   3   6
ATOM      6  C   UNL A   1      31.126  28.068  24.675  1.00  0.00     0.041 A 
ATOM      7  C   UNL A   1      30.689  25.956  25.806  1.00  0.00     0.039 A 
ATOM      8  C   UNL A   1      29.586  25.758  24.969  1.00  0.00     0.026 A 
ATOM      9  C   UNL A   1      31.350  27.187  25.735  1.00  0.00     0.039 A 
ATOM     10  C   UNL A   1      29.230  26.718  24.016  1.00  0.00     0.003 A 
ATOM     11  C   UNL A   1      30.024  27.851  23.843  1.00  0.00     0.014 A 
BRANCH   7  12
ATOM     12  N   UNL A   1      31.107  24.920  26.668  1.00  0.00    -0.361 N 
ATOM     13  H   UNL A   1      30.480  24.658  27.379  1.00  0.00     0.166 HD
BRANCH  12  14
ATOM     14  C   UNL A   1      32.306  24.235  26.614  1.00  0.00     0.102 C 
ATOM     15  N   UNL A   1      34.202  21.418  25.360  1.00  0.00    -0.282 N 
ATOM     16  C   UNL A   1      33.937  22.464  26.259  1.00  0.00     0.267 C 
ATOM     17  C   UNL A   1      33.180  20.498  25.091  1.00  0.00     0.183 C 
ATOM     18  O   UNL A   1      34.759  22.978  27.016  1.00  0.00    -0.268 OA
ATOM     19  C   UNL A   1      32.537  22.944  26.315  1.00  0.00     0.121 C 
ATOM     20  N   UNL A   1      31.905  20.840  25.477  1.00  0.00    -0.298 N 
ATOM     21  S   UNL A   1      33.236  18.994  24.355  1.00  0.00    -0.040 S 
ATOM     22  C   UNL A   1      31.454  22.032  25.964  1.00  0.00     0.264 C 
ATOM     23  H   UNL A   1      31.228  20.131  25.390  1.00  0.00     0.172 HD
ATOM     24  O   UNL A   1      30.265  22.297  26.058  1.00  0.00    -0.269 OA
BRANCH  15  25
ATOM     25  C   UNL A   1      35.555  21.460  24.627  1.00  0.00     0.090 C 
ATOM     26  C   UNL A   1      36.756  20.822  25.343  1.00  0.00     0.031 C 
BRANCH  25  27
ATOM     27  C   UNL A   1      35.987  22.857  24.082  1.00  0.00     0.022 C 
ATOM     28  C   UNL A   1      37.206  23.498  24.744  1.00  0.00     0.006 C 
ENDBRANCH  25  27
ENDBRANCH  15  25
ENDBRANCH  12  14
ENDBRANCH   7  12
ENDBRANCH   3   6
ENDBRANCH   1   2
BRANCH   1  29
ATOM     29  C   UNL A   1      31.376  32.217  26.633  1.00  0.00     0.042 C 
BRANCH  29  30
ATOM     30  C   UNL A   1      32.645  32.867  27.156  1.00  0.00     0.118 C 
BRANCH  30  31
ATOM     31  N   UNL A   1      32.436  34.243  27.595  1.00  0.00    -0.352 N 
ATOM     32  C   UNL A   1      33.000  34.965  28.618  1.00  0.00     0.251 C 
ATOM     33  H   UNL A   1      31.774  34.741  27.064  1.00  0.00     0.163 HD
ATOM     34  O   UNL A   1      32.506  36.044  28.934  1.00  0.00    -0.269 OA
BRANCH  32  35
ATOM     35  C   UNL A   1      34.172  34.454  29.364  1.00  0.00     0.039 A 
ATOM     36  C   UNL A   1      33.966  33.815  30.592  1.00  0.00     0.014 A 
ATOM     37  C   UNL A   1      35.472  34.629  28.890  1.00  0.00     0.014 A 
ATOM     38  C   UNL A   1      35.052  33.282  31.293  1.00  0.00     0.010 A 
ATOM     39  C   UNL A   1      36.539  34.005  29.531  1.00  0.00     0.010 A 
ATOM     40  C   UNL A   1      36.343  33.331  30.745  1.00  0.00    -0.014 A 
BRANCH  40  41
ATOM     41  C   UNL A   1      37.505  32.697  31.422  1.00  0.00     0.031 A 
ATOM     42  C   UNL A   1      38.211  31.533  30.778  1.00  0.00     0.074 A 
ATOM     43  C   UNL A   1      37.872  33.116  32.649  1.00  0.00     0.049 A 
ATOM     44  N   UNL A   1      39.179  30.787  31.250  1.00  0.00    -0.248 NA
ATOM     45  C   UNL A   1      37.750  31.131  29.439  1.00  0.00     0.031 C 
ATOM     46  C   UNL A   1      37.235  34.201  33.400  1.00  0.00     0.029 A 
ATOM     47  N   UNL A   1      38.864  32.674  33.489  1.00  0.00    -0.354 N 
ATOM     48  C   UNL A   1      39.418  29.818  30.283  1.00  0.00     0.074 A 
ATOM     49  C   UNL A   1      38.465  30.038  29.218  1.00  0.00     0.031 C 
ATOM     50  C   UNL A   1      37.868  34.356  34.573  1.00  0.00     0.029 A 
ATOM     51  C   UNL A   1      38.924  33.355  34.682  1.00  0.00     0.049 A 
ATOM     52  H   UNL A   1      39.475  31.937  33.259  1.00  0.00     0.167 HD
ATOM     53  C   UNL A   1      40.362  28.848  30.274  1.00  0.00     0.037 A 
ATOM     54  C   UNL A   1      39.731  33.182  35.746  1.00  0.00     0.037 A 
ATOM     55  C   UNL A   1      41.339  28.664  31.314  1.00  0.00     0.049 A 
ATOM     56  C   UNL A   1      40.772  32.094  35.703  1.00  0.00     0.074 A 
ATOM     57  C   UNL A   1      42.392  27.766  31.358  1.00  0.00     0.029 A 
ATOM     58  N   UNL A   1      41.381  29.389  32.495  1.00  0.00    -0.354 N 
ATOM     59  N   UNL A   1      41.043  31.242  34.745  1.00  0.00    -0.248 NA
ATOM     60  C   UNL A   1      41.622  31.946  36.893  1.00  0.00     0.031 C 
ATOM     61  C   UNL A   1      43.037  27.910  32.589  1.00  0.00     0.029 A 
ATOM     62  C   UNL A   1      42.425  28.939  33.286  1.00  0.00     0.049 A 
ATOM     63  H   UNL A   1      40.763  30.116  32.735  1.00  0.00     0.167 HD
ATOM     64  C   UNL A   1      42.117  30.488  35.198  1.00  0.00     0.074 A 
ATOM     65  C   UNL A   1      42.458  30.992  36.510  1.00  0.00     0.031 C 
ATOM     66  C   UNL A   1      42.764  29.468  34.582  1.00  0.00     0.037 A 
BRANCH  53  67
ATOM     67  C   UNL A   1      40.398  27.907  29.104  1.00  0.00     0.064 A 
ATOM     68  C   UNL A   1      39.620  26.741  29.068  1.00  0.00     0.173 A 
ATOM     69  C   UNL A   1      41.170  28.215  27.972  1.00  0.00     0.173 A 
ATOM     70  F   UNL A   1      38.873  26.394  30.128  1.00  0.00    -0.203 F 
ATOM     71  C   UNL A   1      39.625  25.910  27.951  1.00  0.00     0.198 A 
ATOM     72  C   UNL A   1      41.149  27.398  26.846  1.00  0.00     0.198 A 
ATOM     73  F   UNL A   1      41.929  29.321  27.952  1.00  0.00    -0.203 F 
ATOM     74  F   UNL A   1      38.901  24.782  27.954  1.00  0.00    -0.200 F 
ATOM     75  C   UNL A   1      40.380  26.245  26.836  1.00  0.00     0.200 A 
ATOM     76  F   UNL A   1      41.867  27.732  25.764  1.00  0.00    -0.200 F 
ATOM     77  F   UNL A   1      40.369  25.453  25.755  1.00  0.00    -0.200 F 
ENDBRANCH  53  67
BRANCH  54  78
ATOM     78  C   UNL A   1      39.609  34.064  36.939  1.00  0.00     0.064 A 
ATOM     79  C   UNL A   1      40.297  35.284  37.004  1.00  0.00     0.173 A 
ATOM     80  C   UNL A   1      38.845  33.689  38.054  1.00  0.00     0.173 A 
ATOM     81  F   UNL A   1      41.057  35.680  35.972  1.00  0.00    -0.203 F 
ATOM     82  C   UNL A   1      40.257  36.076  38.150  1.00  0.00     0.198 A 
ATOM     83  C   UNL A   1      38.778  34.497  39.186  1.00  0.00     0.198 A 
ATOM     84  F   UNL A   1      38.162  32.534  38.043  1.00  0.00    -0.203 F 
ATOM     85  F   UNL A   1      40.978  37.203  38.208  1.00  0.00    -0.200 F 
ATOM     86  C   UNL A   1      39.495  35.683  39.239  1.00  0.00     0.200 A 
ATOM     87  F   UNL A   1      38.027  34.121  40.230  1.00  0.00    -0.200 F 
ATOM     88  F   UNL A   1      39.462  36.440  40.345  1.00  0.00    -0.200 F 
ENDBRANCH  54  78
BRANCH  66  89
ATOM     89  C   UNL A   1      43.940  28.866  35.295  1.00  0.00     0.064 A 
ATOM     90  C   UNL A   1      45.247  29.332  35.093  1.00  0.00     0.173 A 
ATOM     91  C   UNL A   1      43.748  27.832  36.226  1.00  0.00     0.173 A 
ATOM     92  F   UNL A   1      45.485  30.308  34.203  1.00  0.00    -0.203 F 
ATOM     93  C   UNL A   1      46.321  28.767  35.773  1.00  0.00     0.198 A 
ATOM     94  C   UNL A   1      44.819  27.294  36.931  1.00  0.00     0.198 A 
ATOM     95  F   UNL A   1      42.516  27.355  36.464  1.00  0.00    -0.203 F 
ATOM     96  F   UNL A   1      47.567  29.192  35.525  1.00  0.00    -0.200 F 
ATOM     97  C   UNL A   1      46.106  27.755  36.698  1.00  0.00     0.200 A 
ATOM     98  F   UNL A   1      44.608  26.329  37.836  1.00  0.00    -0.200 F 
ATOM     99  F   UNL A   1      47.141  27.219  37.359  1.00  0.00    -0.200 F 
ENDBRANCH  66  89
ENDBRANCH  40  41
ENDBRANCH  32  35
ENDBRANCH  30  31
ENDBRANCH  29  30
ENDBRANCH   1  29
TORSDOF 14
ENDMDL
MODEL 2
REMARK VINA RESULT:     -13.1      6.465     11.461
REMARK SMILES CC[C@@H](C)N1C(=O)/C(=C/Nc2cccc(C(=O)NCCCNC(=O)c3ccc(-c4c5nc(c(-c6c(F)c(F)c(F)c(F)c6F)c6ccc([nH]6)c(-c6c(F)c(F)c(F)c(F)c6F)c6nc(c(-c7c(F)c(F)c(F)c(F)c7F)c7ccc4[nH]7)C=C6)C=C5)cc3)c2)C(=O)NC1=S
REMARK SMILES IDX 19 1 18 2 16 3 17 4 15 6 11 7 12 8 88 9 13 10 14 11 10 12
REMARK SMILES IDX 9 14 5 15 6 16 92 17 7 18 8 19 91 20 93 21 89 22 90 24 3 25
REMARK SMILES IDX 4 26 2 27 1 28 20 29 21 30 22 31 23 32 24 34 25 35 26 36
REMARK SMILES IDX 87 37 27 38 86 39 28 40 29 41 30 42 80 43 31 44 85 45 79 46
REMARK SMILES IDX 81 47 32 48 84 49 78 50 77 51 33 53 65 54 45 55 64 56 46 57
REMARK SMILES IDX 49 58 63 59 82 60 47 61 48 62 62 64 83 65 50 66 34 67 35 68
REMARK SMILES IDX 43 69 36 70 37 71 41 72 44 73 38 74 39 75 42 76 40 77 66 78
REMARK SMILES IDX 67 79 75 80 68 81 69 82 73 83 76 84 70 85 71 86 74 87 72 88
REMARK SMILES IDX 51 89 52 90 60 91 53 92 54 93 58 94 61 95 55 96 56 97 59 98
REMARK SMILES IDX 57 99
REMARK H PARENT 18 5 10 13 91 23 22 33 81 52 49 63
REMARK Flexibility Score: inf
ROOT
ATOM      1  C   UNL A   1      41.644  19.570  27.623  1.00  0.00     0.118 C 
ENDROOT
BRANCH   1   2
ATOM      2  N   UNL A   1      42.411  20.731  28.054  1.00  0.00    -0.352 N 
ATOM      3  C   UNL A   1      42.120  22.075  28.129  1.00  0.00     0.251 C 
ATOM      4  O   UNL A   1      43.014  22.832  28.506  1.00  0.00    -0.269 OA
ATOM      5  H   UNL A   1      43.323  20.510  28.352  1.00  0.00     0.163 HD
BRANCH   3   6
ATOM      6  C   UNL A   1      40.812  22.650  27.713  1.00  0.00     0.041 A 
ATOM      7  C   UNL A   1      38.922  22.733  26.180  1.00  0.00     0.039 A 
ATOM      8  C   UNL A   1      38.540  23.953  26.748  1.00  0.00     0.026 A 
ATOM      9  C   UNL A   1      39.974  22.034  26.781  1.00  0.00     0.039 A 
ATOM     10  C   UNL A   1      39.261  24.504  27.812  1.00  0.00     0.003 A 
ATOM     11  C   UNL A   1      40.419  23.873  28.266  1.00  0.00     0.014 A 
BRANCH   7  12
ATOM     12  N   UNL A   1      38.261  22.261  25.027  1.00  0.00    -0.361 N 
ATOM     13  H   UNL A   1      38.809  21.772  24.372  1.00  0.00     0.166 HD
BRANCH  12  14
ATOM     14  C   UNL A   1      36.922  22.415  24.722  1.00  0.00     0.102 C 
ATOM     15  N   UNL A   1      33.548  21.114  24.874  1.00  0.00    -0.282 N 
ATOM     16  C   UNL A   1      34.570  21.918  24.343  1.00  0.00     0.267 C 
ATOM     17  C   UNL A   1      33.790  19.740  25.020  1.00  0.00     0.183 C 
ATOM     18  O   UNL A   1      34.401  22.919  23.650  1.00  0.00    -0.268 OA
ATOM     19  C   UNL A   1      35.958  21.482  24.618  1.00  0.00     0.121 C 
ATOM     20  N   UNL A   1      35.095  19.317  24.925  1.00  0.00    -0.298 N 
ATOM     21  S   UNL A   1      32.731  18.472  25.298  1.00  0.00    -0.040 S 
ATOM     22  C   UNL A   1      36.231  20.068  24.852  1.00  0.00     0.264 C 
ATOM     23  H   UNL A   1      35.226  18.341  24.907  1.00  0.00     0.172 HD
ATOM     24  O   UNL A   1      37.347  19.592  25.003  1.00  0.00    -0.269 OA
BRANCH  15  25
ATOM     25  C   UNL A   1      32.293  21.839  25.393  1.00  0.00     0.090 C 
ATOM     26  C   UNL A   1      31.483  22.650  24.370  1.00  0.00     0.031 C 
BRANCH  25  27
ATOM     27  C   UNL A   1      32.497  22.712  26.670  1.00  0.00     0.022 C 
ATOM     28  C   UNL A   1      33.517  22.204  27.687  1.00  0.00     0.006 C 
ENDBRANCH  25  27
ENDBRANCH  15  25
ENDBRANCH  12  14
ENDBRANCH   7  12
ENDBRANCH   3   6
ENDBRANCH   1   2
BRANCH   1  29
ATOM     29  C   UNL A   1      42.365  18.691  26.613  1.00  0.00     0.042 C 
BRANCH  29  30
ATOM     30  C   UNL A   1      42.570  19.329  25.249  1.00  0.00     0.118 C 
BRANCH  30  31
ATOM     31  N   UNL A   1      43.774  18.851  24.578  1.00  0.00    -0.352 N 
ATOM     32  C   UNL A   1      44.900  19.513  24.153  1.00  0.00     0.251 C 
ATOM     33  H   UNL A   1      43.780  17.884  24.397  1.00  0.00     0.163 HD
ATOM     34  O   UNL A   1      45.692  18.937  23.413  1.00  0.00    -0.269 OA
BRANCH  32  35
ATOM     35  C   UNL A   1      45.161  20.916  24.548  1.00  0.00     0.039 A 
ATOM     36  C   UNL A   1      44.909  21.937  23.624  1.00  0.00     0.014 A 
ATOM     37  C   UNL A   1      45.685  21.238  25.800  1.00  0.00     0.014 A 
ATOM     38  C   UNL A   1      45.102  23.272  23.988  1.00  0.00     0.010 A 
ATOM     39  C   UNL A   1      45.773  22.568  26.199  1.00  0.00     0.010 A 
ATOM     40  C   UNL A   1      45.491  23.602  25.295  1.00  0.00    -0.014 A 
BRANCH  40  41
ATOM     41  C   UNL A   1      45.620  25.015  25.741  1.00  0.00     0.031 A 
ATOM     42  C   UNL A   1      46.963  25.695  25.715  1.00  0.00     0.074 A 
ATOM     43  C   UNL A   1      44.545  25.656  26.241  1.00  0.00     0.049 A 
ATOM     44  N   UNL A   1      47.298  26.885  26.149  1.00  0.00    -0.248 NA
ATOM     45  C   UNL A   1      48.088  24.928  25.157  1.00  0.00     0.031 C 
ATOM     46  C   UNL A   1      43.200  25.089  26.366  1.00  0.00     0.029 A 
ATOM     47  N   UNL A   1      44.415  26.925  26.751  1.00  0.00    -0.354 N 
ATOM     48  C   UNL A   1      48.667  26.992  25.944  1.00  0.00     0.074 A 
ATOM     49  C   UNL A   1      49.114  25.733  25.391  1.00  0.00     0.031 C 
ATOM     50  C   UNL A   1      42.378  26.012  26.890  1.00  0.00     0.029 A 
ATOM     51  C   UNL A   1      43.143  27.220  27.183  1.00  0.00     0.049 A 
ATOM     52  H   UNL A   1      45.162  27.564  26.804  1.00  0.00     0.167 HD
ATOM     53  C   UNL A   1      49.476  28.054  26.175  1.00  0.00     0.037 A 
ATOM     54  C   UNL A   1      42.654  28.334  27.759  1.00  0.00     0.037 A 
ATOM     55  C   UNL A   1      49.018  29.321  26.680  1.00  0.00     0.049 A 
ATOM     56  C   UNL A   1      43.580  29.498  28.001  1.00  0.00     0.074 A 
ATOM     57  C   UNL A   1      49.742  30.486  26.865  1.00  0.00     0.029 A 
ATOM     58  N   UNL A   1      47.719  29.587  27.083  1.00  0.00    -0.354 N 
ATOM     59  N   UNL A   1      44.854  29.616  27.720  1.00  0.00    -0.248 NA
ATOM     60  C   UNL A   1      42.995  30.686  28.638  1.00  0.00     0.031 C 
ATOM     61  C   UNL A   1      48.894  31.441  27.433  1.00  0.00     0.029 A 
ATOM     62  C   UNL A   1      47.627  30.890  27.543  1.00  0.00     0.049 A 
ATOM     63  H   UNL A   1      46.972  28.947  27.046  1.00  0.00     0.167 HD
ATOM     64  C   UNL A   1      45.213  30.901  28.108  1.00  0.00     0.074 A 
ATOM     65  C   UNL A   1      44.018  31.528  28.629  1.00  0.00     0.031 C 
ATOM     66  C   UNL A   1      46.423  31.507  28.038  1.00  0.00     0.037 A 
BRANCH  53  67
ATOM     67  C   UNL A   1      50.940  27.905  25.880  1.00  0.00     0.064 A 
ATOM     68  C   UNL A   1      51.469  28.169  24.608  1.00  0.00     0.173 A 
ATOM     69  C   UNL A   1      51.837  27.562  26.904  1.00  0.00     0.173 A 
ATOM     70  F   UNL A   1      50.654  28.489  23.590  1.00  0.00    -0.203 F 
ATOM     71  C   UNL A   1      52.838  28.080  24.367  1.00  0.00     0.198 A 
ATOM     72  C   UNL A   1      53.208  27.504  26.667  1.00  0.00     0.198 A 
ATOM     73  F   UNL A   1      51.386  27.304  28.141  1.00  0.00    -0.203 F 
ATOM     74  F   UNL A   1      53.316  28.300  23.135  1.00  0.00    -0.200 F 
ATOM     75  C   UNL A   1      53.707  27.759  25.399  1.00  0.00     0.200 A 
ATOM     76  F   UNL A   1      54.048  27.209  27.670  1.00  0.00    -0.200 F 
ATOM     77  F   UNL A   1      55.026  27.691  25.171  1.00  0.00    -0.200 F 
ENDBRANCH  53  67
BRANCH  54  78
ATOM     78  C   UNL A   1      41.217  28.422  28.137  1.00  0.00     0.064 A 
ATOM     79  C   UNL A   1      40.272  28.959  27.251  1.00  0.00     0.173 A 
ATOM     80  C   UNL A   1      40.764  28.018  29.402  1.00  0.00     0.173 A 
ATOM     81  F   UNL A   1      40.658  29.378  26.036  1.00  0.00    -0.203 F 
ATOM     82  C   UNL A   1      38.941  29.124  27.626  1.00  0.00     0.198 A 
ATOM     83  C   UNL A   1      39.426  28.151  29.764  1.00  0.00     0.198 A 
ATOM     84  F   UNL A   1      41.624  27.492  30.288  1.00  0.00    -0.203 F 
ATOM     85  F   UNL A   1      38.076  29.702  26.783  1.00  0.00    -0.200 F 
ATOM     86  C   UNL A   1      38.518  28.716  28.882  1.00  0.00     0.200 A 
ATOM     87  F   UNL A   1      39.018  27.741  30.973  1.00  0.00    -0.200 F 
ATOM     88  F   UNL A   1      37.239  28.882  29.247  1.00  0.00    -0.200 F 
ENDBRANCH  54  78
BRANCH  66  89
ATOM     89  C   UNL A   1      46.505  32.937  28.486  1.00  0.00     0.064 A 
ATOM     90  C   UNL A   1      46.832  33.283  29.806  1.00  0.00     0.173 A 
ATOM     91  C   UNL A   1      46.295  33.979  27.568  1.00  0.00     0.173 A 
ATOM     92  F   UNL A   1      47.028  32.325  30.725  1.00  0.00    -0.203 F 
ATOM     93  C   UNL A   1      46.913  34.615  30.197  1.00  0.00     0.198 A 
ATOM     94  C   UNL A   1      46.412  35.309  27.954  1.00  0.00     0.198 A 
ATOM     95  F   UNL A   1      45.989  33.703  26.291  1.00  0.00    -0.203 F 
ATOM     96  F   UNL A   1      47.173  34.921  31.475  1.00  0.00    -0.200 F 
ATOM     97  C   UNL A   1      46.713  35.628  29.269  1.00  0.00     0.200 A 
ATOM     98  F   UNL A   1      46.236  36.285  27.053  1.00  0.00    -0.200 F 
ATOM     99  F   UNL A   1      46.802  36.910  29.647  1.00  0.00    -0.200 F 
ENDBRANCH  66  89
ENDBRANCH  40  41
ENDBRANCH  32  35
ENDBRANCH  30  31
ENDBRANCH  29  30
ENDBRANCH   1  29
TORSDOF 14
ENDMDL
MODEL 3
REMARK VINA RESULT:     -13.0      0.742      7.267
REMARK SMILES CC[C@@H](C)N1C(=O)/C(=C/Nc2cccc(C(=O)NCCCNC(=O)c3ccc(-c4c5nc(c(-c6c(F)c(F)c(F)c(F)c6F)c6ccc([nH]6)c(-c6c(F)c(F)c(F)c(F)c6F)c6nc(c(-c7c(F)c(F)c(F)c(F)c7F)c7ccc4[nH]7)C=C6)C=C5)cc3)c2)C(=O)NC1=S
REMARK SMILES IDX 19 1 18 2 16 3 17 4 15 6 11 7 12 8 88 9 13 10 14 11 10 12
REMARK SMILES IDX 9 14 5 15 6 16 92 17 7 18 8 19 91 20 93 21 89 22 90 24 3 25
REMARK SMILES IDX 4 26 2 27 1 28 20 29 21 30 22 31 23 32 24 34 25 35 26 36
REMARK SMILES IDX 87 37 27 38 86 39 28 40 29 41 30 42 80 43 31 44 85 45 79 46
REMARK SMILES IDX 81 47 32 48 84 49 78 50 77 51 33 53 65 54 45 55 64 56 46 57
REMARK SMILES IDX 49 58 63 59 82 60 47 61 48 62 62 64 83 65 50 66 34 67 35 68
REMARK SMILES IDX 43 69 36 70 37 71 41 72 44 73 38 74 39 75 42 76 40 77 66 78
REMARK SMILES IDX 67 79 75 80 68 81 69 82 73 83 76 84 70 85 71 86 74 87 72 88
REMARK SMILES IDX 51 89 52 90 60 91 53 92 54 93 58 94 61 95 55 96 56 97 59 98
REMARK SMILES IDX 57 99
REMARK H PARENT 18 5 10 13 91 23 22 33 81 52 49 63
REMARK Flexibility Score: inf
ROOT
ATOM      1  C   UNL A   1      31.209  30.875  26.222  1.00  0.00     0.118 C 
ENDROOT
BRANCH   1   2
ATOM      2  N   UNL A   1      31.978  30.450  25.060  1.00  0.00    -0.352 N 
ATOM      3  C   UNL A   1      32.004  29.286  24.323  1.00  0.00     0.251 C 
ATOM      4  O   UNL A   1      32.814  29.214  23.400  1.00  0.00    -0.269 OA
ATOM      5  H   UNL A   1      32.610  31.133  24.736  1.00  0.00     0.163 HD
BRANCH   3   6
ATOM      6  C   UNL A   1      31.154  28.106  24.636  1.00  0.00     0.041 A 
ATOM      7  C   UNL A   1      30.778  26.019  25.832  1.00  0.00     0.039 A 
ATOM      8  C   UNL A   1      29.719  25.734  24.962  1.00  0.00     0.026 A 
ATOM      9  C   UNL A   1      31.379  27.278  25.737  1.00  0.00     0.039 A 
ATOM     10  C   UNL A   1      29.354  26.638  23.960  1.00  0.00     0.003 A 
ATOM     11  C   UNL A   1      30.097  27.802  23.771  1.00  0.00     0.014 A 
BRANCH   7  12
ATOM     12  N   UNL A   1      31.212  25.039  26.749  1.00  0.00    -0.361 N 
ATOM     13  H   UNL A   1      30.629  24.869  27.523  1.00  0.00     0.166 HD
BRANCH  12  14
ATOM     14  C   UNL A   1      32.371  24.292  26.671  1.00  0.00     0.102 C 
ATOM     15  N   UNL A   1      34.097  21.391  25.362  1.00  0.00    -0.282 N 
ATOM     16  C   UNL A   1      33.901  22.441  26.275  1.00  0.00     0.267 C 
ATOM     17  C   UNL A   1      33.023  20.529  25.098  1.00  0.00     0.183 C 
ATOM     18  O   UNL A   1      34.759  22.902  27.024  1.00  0.00    -0.268 OA
ATOM     19  C   UNL A   1      32.529  22.993  26.356  1.00  0.00     0.121 C 
ATOM     20  N   UNL A   1      31.774  20.935  25.507  1.00  0.00    -0.298 N 
ATOM     21  S   UNL A   1      32.988  19.032  24.347  1.00  0.00    -0.040 S 
ATOM     22  C   UNL A   1      31.394  22.144  26.012  1.00  0.00     0.264 C 
ATOM     23  H   UNL A   1      31.059  20.264  25.423  1.00  0.00     0.172 HD
ATOM     24  O   UNL A   1      30.222  22.471  26.126  1.00  0.00    -0.269 OA
BRANCH  15  25
ATOM     25  C   UNL A   1      35.439  21.368  24.609  1.00  0.00     0.090 C 
ATOM     26  C   UNL A   1      36.659  20.834  25.375  1.00  0.00     0.031 C 
BRANCH  25  27
ATOM     27  C   UNL A   1      35.841  22.700  23.902  1.00  0.00     0.022 C 
ATOM     28  C   UNL A   1      37.043  23.443  24.483  1.00  0.00     0.006 C 
ENDBRANCH  25  27
ENDBRANCH  15  25
ENDBRANCH  12  14
ENDBRANCH   7  12
ENDBRANCH   3   6
ENDBRANCH   1   2
BRANCH   1  29
ATOM     29  C   UNL A   1      31.289  32.367  26.506  1.00  0.00     0.042 C 
BRANCH  29  30
ATOM     30  C   UNL A   1      32.589  32.821  27.147  1.00  0.00     0.118 C 
BRANCH  30  31
ATOM     31  N   UNL A   1      32.530  34.196  27.631  1.00  0.00    -0.352 N 
ATOM     32  C   UNL A   1      33.183  34.825  28.663  1.00  0.00     0.251 C 
ATOM     33  H   UNL A   1      31.913  34.776  27.129  1.00  0.00     0.163 HD
ATOM     34  O   UNL A   1      32.808  35.938  29.022  1.00  0.00    -0.269 OA
BRANCH  32  35
ATOM     35  C   UNL A   1      34.309  34.173  29.369  1.00  0.00     0.039 A 
ATOM     36  C   UNL A   1      34.029  33.226  30.361  1.00  0.00     0.014 A 
ATOM     37  C   UNL A   1      35.635  34.509  29.095  1.00  0.00     0.014 A 
ATOM     38  C   UNL A   1      35.076  32.563  31.009  1.00  0.00     0.010 A 
ATOM     39  C   UNL A   1      36.673  33.773  29.660  1.00  0.00     0.010 A 
ATOM     40  C   UNL A   1      36.406  32.796  30.630  1.00  0.00    -0.014 A 
BRANCH  40  41
ATOM     41  C   UNL A   1      37.536  32.044  31.236  1.00  0.00     0.031 A 
ATOM     42  C   UNL A   1      38.023  32.396  32.617  1.00  0.00     0.074 A 
ATOM     43  C   UNL A   1      38.173  31.101  30.514  1.00  0.00     0.049 A 
ATOM     44  N   UNL A   1      39.050  31.924  33.279  1.00  0.00    -0.248 NA
ATOM     45  C   UNL A   1      37.278  33.439  33.341  1.00  0.00     0.031 C 
ATOM     46  C   UNL A   1      37.828  30.704  29.146  1.00  0.00     0.029 A 
ATOM     47  N   UNL A   1      39.252  30.310  30.824  1.00  0.00    -0.354 N 
ATOM     48  C   UNL A   1      39.088  32.630  34.475  1.00  0.00     0.074 A 
ATOM     49  C   UNL A   1      38.013  33.596  34.432  1.00  0.00     0.031 C 
ATOM     50  C   UNL A   1      38.660  29.729  28.747  1.00  0.00     0.029 A 
ATOM     51  C   UNL A   1      39.627  29.462  29.808  1.00  0.00     0.049 A 
ATOM     52  H   UNL A   1      39.716  30.347  31.691  1.00  0.00     0.167 HD
ATOM     53  C   UNL A   1      39.930  32.472  35.523  1.00  0.00     0.037 A 
ATOM     54  C   UNL A   1      40.641  28.579  29.738  1.00  0.00     0.037 A 
ATOM     55  C   UNL A   1      40.968  31.476  35.581  1.00  0.00     0.049 A 
ATOM     56  C   UNL A   1      41.559  28.427  30.923  1.00  0.00     0.074 A 
ATOM     57  C   UNL A   1      41.816  31.177  36.633  1.00  0.00     0.029 A 
ATOM     58  N   UNL A   1      41.300  30.621  34.542  1.00  0.00    -0.354 N 
ATOM     59  N   UNL A   1      41.529  29.040  32.080  1.00  0.00    -0.248 NA
ATOM     60  C   UNL A   1      42.653  27.454  30.790  1.00  0.00     0.031 C 
ATOM     61  C   UNL A   1      42.699  30.179  36.211  1.00  0.00     0.029 A 
ATOM     62  C   UNL A   1      42.360  29.814  34.918  1.00  0.00     0.049 A 
ATOM     63  H   UNL A   1      40.849  30.591  33.667  1.00  0.00     0.167 HD
ATOM     64  C   UNL A   1      42.568  28.500  32.826  1.00  0.00     0.074 A 
ATOM     65  C   UNL A   1      43.202  27.499  31.995  1.00  0.00     0.031 C 
ATOM     66  C   UNL A   1      42.964  28.806  34.085  1.00  0.00     0.037 A 
BRANCH  53  67
ATOM     67  C   UNL A   1      39.769  33.385  36.704  1.00  0.00     0.064 A 
ATOM     68  C   UNL A   1      40.452  34.607  36.792  1.00  0.00     0.173 A 
ATOM     69  C   UNL A   1      38.863  33.065  37.728  1.00  0.00     0.173 A 
ATOM     70  F   UNL A   1      41.338  34.956  35.846  1.00  0.00    -0.203 F 
ATOM     71  C   UNL A   1      40.247  35.467  37.869  1.00  0.00     0.198 A 
ATOM     72  C   UNL A   1      38.638  33.941  38.786  1.00  0.00     0.198 A 
ATOM     73  F   UNL A   1      38.180  31.911  37.690  1.00  0.00    -0.203 F 
ATOM     74  F   UNL A   1      40.938  36.612  37.950  1.00  0.00    -0.200 F 
ATOM     75  C   UNL A   1      39.332  35.139  38.858  1.00  0.00     0.200 A 
ATOM     76  F   UNL A   1      37.742  33.629  39.734  1.00  0.00    -0.200 F 
ATOM     77  F   UNL A   1      39.123  35.976  39.884  1.00  0.00    -0.200 F 
ENDBRANCH  53  67
BRANCH  54  78
ATOM     78  C   UNL A   1      40.843  27.755  28.516  1.00  0.00     0.064 A 
ATOM     79  C   UNL A   1      41.664  28.206  27.471  1.00  0.00     0.173 A 
ATOM     80  C   UNL A   1      40.191  26.525  28.343  1.00  0.00     0.173 A 
ATOM     81  F   UNL A   1      42.296  29.385  27.579  1.00  0.00    -0.203 F 
ATOM     82  C   UNL A   1      41.792  27.482  26.288  1.00  0.00     0.198 A 
ATOM     83  C   UNL A   1      40.347  25.784  27.173  1.00  0.00     0.198 A 
ATOM     84  F   UNL A   1      39.399  26.042  29.312  1.00  0.00    -0.203 F 
ATOM     85  F   UNL A   1      42.528  27.972  25.282  1.00  0.00    -0.200 F 
ATOM     86  C   UNL A   1      41.136  26.269  26.142  1.00  0.00     0.200 A 
ATOM     87  F   UNL A   1      39.724  24.606  27.042  1.00  0.00    -0.200 F 
ATOM     88  F   UNL A   1      41.253  25.576  25.001  1.00  0.00    -0.200 F 
ENDBRANCH  54  78
BRANCH  66  89
ATOM     89  C   UNL A   1      44.100  28.012  34.664  1.00  0.00     0.064 A 
ATOM     90  C   UNL A   1      43.890  26.797  35.333  1.00  0.00     0.173 A 
ATOM     91  C   UNL A   1      45.423  28.456  34.509  1.00  0.00     0.173 A 
ATOM     92  F   UNL A   1      42.643  26.337  35.520  1.00  0.00    -0.203 F 
ATOM     93  C   UNL A   1      44.958  26.072  35.851  1.00  0.00     0.198 A 
ATOM     94  C   UNL A   1      46.491  27.711  34.997  1.00  0.00     0.198 A 
ATOM     95  F   UNL A   1      45.680  29.607  33.868  1.00  0.00    -0.203 F 
ATOM     96  F   UNL A   1      44.730  24.942  36.534  1.00  0.00    -0.200 F 
ATOM     97  C   UNL A   1      46.258  26.525  35.675  1.00  0.00     0.200 A 
ATOM     98  F   UNL A   1      47.747  28.140  34.811  1.00  0.00    -0.200 F 
ATOM     99  F   UNL A   1      47.286  25.819  36.167  1.00  0.00    -0.200 F 
ENDBRANCH  66  89
ENDBRANCH  40  41
ENDBRANCH  32  35
ENDBRANCH  30  31
ENDBRANCH  29  30
ENDBRANCH   1  29
TORSDOF 14
ENDMDL
