MODEL 1
REMARK VINA RESULT:     -12.2      0.000      0.000
REMARK SMILES Cc1nc(C(=O)NCCCNC(=O)c2ccc(-c3c4nc(c(-c5c(F)c(F)c(F)c(F)c5F)c5ccc([nH]5)c(-c5c(F)c(F)c(F)c(F)c5F)c5nc(c(-c6c(F)c(F)c(F)c(F)c6F)c6ccc3[nH]6)C=C5)C=C4)cc2)nn1-c1cccc(C(F)(F)F)c1
REMARK SMILES IDX 9 1 8 2 7 3 5 4 6 5 4 7 1 8 2 9 3 10 78 11 77 12 79 13 80 14
REMARK SMILES IDX 88 15 81 16 83 17 82 18 84 19 85 20 86 21 87 22 10 23 11 24
REMARK SMILES IDX 12 25 13 27 14 28 15 29 76 30 16 31 75 32 17 33 18 34 19 35
REMARK SMILES IDX 69 36 20 37 74 38 68 39 70 40 21 41 73 42 67 43 66 44 22 46
REMARK SMILES IDX 54 47 34 48 53 49 35 50 38 51 52 52 71 53 36 54 37 55 51 57
REMARK SMILES IDX 72 58 39 59 23 60 24 61 32 62 25 63 26 64 30 65 33 66 27 67
REMARK SMILES IDX 28 68 31 69 29 70 55 71 56 72 64 73 57 74 58 75 62 76 65 77
REMARK SMILES IDX 59 78 60 79 63 80 61 81 40 82 41 83 49 84 42 85 43 86 47 87
REMARK SMILES IDX 50 88 44 89 45 90 48 91 46 92
REMARK H PARENT 7 6 11 26 70 45 38 56
REMARK Flexibility Score: inf
ROOT
ATOM      1  C   UNL A   1      34.345  35.837  28.440  1.00  0.00     0.042 C 
ENDROOT
BRANCH   1   2
ATOM      2  C   UNL A   1      32.903  35.652  28.923  1.00  0.00     0.118 C 
BRANCH   2   3
ATOM      3  N   UNL A   1      32.615  36.387  30.149  1.00  0.00    -0.349 N 
ATOM      4  C   UNL A   1      33.086  36.229  31.444  1.00  0.00     0.290 C 
ATOM      5  O   UNL A   1      32.623  36.995  32.295  1.00  0.00    -0.266 OA
ATOM      6  H   UNL A   1      31.973  37.124  30.039  1.00  0.00     0.163 HD
BRANCH   4   7
ATOM      7  C   UNL A   1      34.068  35.174  31.779  1.00  0.00     0.239 A 
ATOM      8  C   UNL A   1      35.255  31.804  31.961  1.00  0.00     0.090 C 
ATOM      9  C   UNL A   1      35.020  33.264  31.846  1.00  0.00     0.130 A 
ATOM     10  N   UNL A   1      33.895  33.839  31.460  1.00  0.00    -0.207 NA
ATOM     11  N   UNL A   1      35.883  34.241  32.293  1.00  0.00    -0.217 N 
ATOM     12  N   UNL A   1      35.214  35.397  32.439  1.00  0.00    -0.140 NA
BRANCH  11  13
ATOM     13  C   UNL A   1      37.285  34.252  32.460  1.00  0.00     0.067 A 
ATOM     14  C   UNL A   1      37.807  34.464  33.744  1.00  0.00     0.028 A 
ATOM     15  C   UNL A   1      38.135  34.218  31.348  1.00  0.00     0.041 A 
ATOM     16  C   UNL A   1      39.181  34.597  33.924  1.00  0.00     0.003 A 
ATOM     17  C   UNL A   1      39.517  34.411  31.521  1.00  0.00     0.058 A 
ATOM     18  C   UNL A   1      40.030  34.574  32.819  1.00  0.00     0.013 A 
BRANCH  17  19
ATOM     19  C   UNL A   1      40.447  34.498  30.335  1.00  0.00     0.416 C 
ATOM     20  F   UNL A   1      41.650  35.047  30.660  1.00  0.00    -0.166 F 
ATOM     21  F   UNL A   1      40.720  33.280  29.796  1.00  0.00    -0.166 F 
ATOM     22  F   UNL A   1      39.955  35.260  29.318  1.00  0.00    -0.166 F 
ENDBRANCH  17  19
ENDBRANCH  11  13
ENDBRANCH   4   7
ENDBRANCH   2   3
ENDBRANCH   1   2
BRANCH   1  23
ATOM     23  C   UNL A   1      34.978  34.508  28.049  1.00  0.00     0.118 C 
BRANCH  23  24
ATOM     24  N   UNL A   1      34.052  33.380  28.185  1.00  0.00    -0.352 N 
ATOM     25  C   UNL A   1      34.315  32.029  28.095  1.00  0.00     0.251 C 
ATOM     26  H   UNL A   1      33.114  33.619  28.364  1.00  0.00     0.163 HD
ATOM     27  O   UNL A   1      33.402  31.223  27.925  1.00  0.00    -0.269 OA
BRANCH  25  28
ATOM     28  C   UNL A   1      35.707  31.562  28.178  1.00  0.00     0.039 A 
ATOM     29  C   UNL A   1      36.712  32.395  28.674  1.00  0.00     0.014 A 
ATOM     30  C   UNL A   1      35.995  30.254  27.801  1.00  0.00     0.014 A 
ATOM     31  C   UNL A   1      37.981  31.863  28.886  1.00  0.00     0.010 A 
ATOM     32  C   UNL A   1      37.196  29.689  28.158  1.00  0.00     0.010 A 
ATOM     33  C   UNL A   1      38.210  30.493  28.665  1.00  0.00    -0.014 A 
BRANCH  33  34
ATOM     34  C   UNL A   1      39.465  29.881  29.099  1.00  0.00     0.031 A 
ATOM     35  C   UNL A   1      39.687  29.896  30.571  1.00  0.00     0.074 A 
ATOM     36  C   UNL A   1      40.293  29.184  28.291  1.00  0.00     0.049 A 
ATOM     37  N   UNL A   1      40.627  30.509  31.210  1.00  0.00    -0.248 NA
ATOM     38  C   UNL A   1      38.691  29.257  31.447  1.00  0.00     0.031 C 
ATOM     39  C   UNL A   1      40.100  28.815  26.885  1.00  0.00     0.029 A 
ATOM     40  N   UNL A   1      41.457  28.547  28.604  1.00  0.00    -0.354 N 
ATOM     41  C   UNL A   1      40.461  30.184  32.552  1.00  0.00     0.074 A 
ATOM     42  C   UNL A   1      39.173  29.548  32.659  1.00  0.00     0.031 C 
ATOM     43  C   UNL A   1      40.963  27.830  26.553  1.00  0.00     0.029 A 
ATOM     44  C   UNL A   1      41.875  27.615  27.660  1.00  0.00     0.049 A 
ATOM     45  H   UNL A   1      41.961  28.733  29.429  1.00  0.00     0.167 HD
ATOM     46  C   UNL A   1      41.513  30.248  33.415  1.00  0.00     0.037 A 
ATOM     47  C   UNL A   1      42.877  26.710  27.790  1.00  0.00     0.037 A 
ATOM     48  C   UNL A   1      42.571  31.075  32.889  1.00  0.00     0.049 A 
ATOM     49  C   UNL A   1      43.773  27.194  28.869  1.00  0.00     0.074 A 
ATOM     50  C   UNL A   1      42.633  32.375  32.415  1.00  0.00     0.029 A 
ATOM     51  N   UNL A   1      43.711  30.469  32.417  1.00  0.00    -0.354 N 
ATOM     52  N   UNL A   1      44.536  28.245  28.761  1.00  0.00    -0.248 NA
ATOM     53  C   UNL A   1      43.476  26.775  30.231  1.00  0.00     0.031 C 
ATOM     54  C   UNL A   1      43.487  32.307  31.273  1.00  0.00     0.029 A 
ATOM     55  C   UNL A   1      43.960  31.000  31.178  1.00  0.00     0.049 A 
ATOM     56  H   UNL A   1      44.245  29.783  32.881  1.00  0.00     0.167 HD
ATOM     57  C   UNL A   1      44.420  28.881  29.986  1.00  0.00     0.074 A 
ATOM     58  C   UNL A   1      43.839  27.884  30.882  1.00  0.00     0.031 C 
ATOM     59  C   UNL A   1      44.525  30.238  30.091  1.00  0.00     0.037 A 
BRANCH  46  60
ATOM     60  C   UNL A   1      41.747  29.253  34.527  1.00  0.00     0.064 A 
ATOM     61  C   UNL A   1      42.410  29.679  35.696  1.00  0.00     0.173 A 
ATOM     62  C   UNL A   1      41.646  27.855  34.362  1.00  0.00     0.173 A 
ATOM     63  F   UNL A   1      42.580  30.985  35.948  1.00  0.00    -0.203 F 
ATOM     64  C   UNL A   1      43.013  28.773  36.574  1.00  0.00     0.198 A 
ATOM     65  C   UNL A   1      42.199  26.954  35.269  1.00  0.00     0.198 A 
ATOM     66  F   UNL A   1      41.120  27.300  33.264  1.00  0.00    -0.203 F 
ATOM     67  F   UNL A   1      43.756  29.229  37.591  1.00  0.00    -0.200 F 
ATOM     68  C   UNL A   1      42.914  27.412  36.355  1.00  0.00     0.200 A 
ATOM     69  F   UNL A   1      42.110  25.638  35.027  1.00  0.00    -0.200 F 
ATOM     70  F   UNL A   1      43.549  26.544  37.154  1.00  0.00    -0.200 F 
ENDBRANCH  46  60
BRANCH  47  71
ATOM     71  C   UNL A   1      42.985  25.345  27.218  1.00  0.00     0.064 A 
ATOM     72  C   UNL A   1      42.134  24.312  27.648  1.00  0.00     0.173 A 
ATOM     73  C   UNL A   1      43.726  25.092  26.047  1.00  0.00     0.173 A 
ATOM     74  F   UNL A   1      41.361  24.479  28.731  1.00  0.00    -0.203 F 
ATOM     75  C   UNL A   1      42.005  23.117  26.931  1.00  0.00     0.198 A 
ATOM     76  C   UNL A   1      43.606  23.895  25.338  1.00  0.00     0.198 A 
ATOM     77  F   UNL A   1      44.512  26.036  25.509  1.00  0.00    -0.203 F 
ATOM     78  F   UNL A   1      41.129  22.187  27.334  1.00  0.00    -0.200 F 
ATOM     79  C   UNL A   1      42.733  22.915  25.771  1.00  0.00     0.200 A 
ATOM     80  F   UNL A   1      44.291  23.726  24.198  1.00  0.00    -0.200 F 
ATOM     81  F   UNL A   1      42.561  21.800  25.047  1.00  0.00    -0.200 F 
ENDBRANCH  47  71
BRANCH  59  82
ATOM     82  C   UNL A   1      45.046  31.010  28.911  1.00  0.00     0.064 A 
ATOM     83  C   UNL A   1      44.267  31.409  27.809  1.00  0.00     0.173 A 
ATOM     84  C   UNL A   1      46.369  31.474  28.958  1.00  0.00     0.173 A 
ATOM     85  F   UNL A   1      42.964  31.110  27.734  1.00  0.00    -0.203 F 
ATOM     86  C   UNL A   1      44.807  32.180  26.780  1.00  0.00     0.198 A 
ATOM     87  C   UNL A   1      46.893  32.279  27.951  1.00  0.00     0.198 A 
ATOM     88  F   UNL A   1      47.149  31.176  30.010  1.00  0.00    -0.203 F 
ATOM     89  F   UNL A   1      44.049  32.524  25.728  1.00  0.00    -0.200 F 
ATOM     90  C   UNL A   1      46.118  32.618  26.855  1.00  0.00     0.200 A 
ATOM     91  F   UNL A   1      48.146  32.743  28.054  1.00  0.00    -0.200 F 
ATOM     92  F   UNL A   1      46.628  33.389  25.883  1.00  0.00    -0.200 F 
ENDBRANCH  59  82
ENDBRANCH  33  34
ENDBRANCH  25  28
ENDBRANCH  23  24
ENDBRANCH   1  23
TORSDOF 12
ENDMDL
MODEL 2
REMARK VINA RESULT:     -11.9      3.758     11.045
REMARK SMILES Cc1nc(C(=O)NCCCNC(=O)c2ccc(-c3c4nc(c(-c5c(F)c(F)c(F)c(F)c5F)c5ccc([nH]5)c(-c5c(F)c(F)c(F)c(F)c5F)c5nc(c(-c6c(F)c(F)c(F)c(F)c6F)c6ccc3[nH]6)C=C5)C=C4)cc2)nn1-c1cccc(C(F)(F)F)c1
REMARK SMILES IDX 9 1 8 2 7 3 5 4 6 5 4 7 1 8 2 9 3 10 78 11 77 12 79 13 80 14
REMARK SMILES IDX 88 15 81 16 83 17 82 18 84 19 85 20 86 21 87 22 10 23 11 24
REMARK SMILES IDX 12 25 13 27 14 28 15 29 76 30 16 31 75 32 17 33 18 34 19 35
REMARK SMILES IDX 69 36 20 37 74 38 68 39 70 40 21 41 73 42 67 43 66 44 22 46
REMARK SMILES IDX 54 47 34 48 53 49 35 50 38 51 52 52 71 53 36 54 37 55 51 57
REMARK SMILES IDX 72 58 39 59 23 60 24 61 32 62 25 63 26 64 30 65 33 66 27 67
REMARK SMILES IDX 28 68 31 69 29 70 55 71 56 72 64 73 57 74 58 75 62 76 65 77
REMARK SMILES IDX 59 78 60 79 63 80 61 81 40 82 41 83 49 84 42 85 43 86 47 87
REMARK SMILES IDX 50 88 44 89 45 90 48 91 46 92
REMARK H PARENT 7 6 11 26 70 45 38 56
REMARK Flexibility Score: inf
ROOT
ATOM      1  C   UNL A   1      42.523  19.323  27.306  1.00  0.00     0.042 C 
ENDROOT
BRANCH   1   2
ATOM      2  C   UNL A   1      42.496  18.908  25.831  1.00  0.00     0.118 C 
BRANCH   2   3
ATOM      3  N   UNL A   1      43.821  18.605  25.302  1.00  0.00    -0.349 N 
ATOM      4  C   UNL A   1      44.885  19.429  24.971  1.00  0.00     0.290 C 
ATOM      5  O   UNL A   1      45.884  18.875  24.501  1.00  0.00    -0.266 OA
ATOM      6  H   UNL A   1      43.988  17.647  25.151  1.00  0.00     0.163 HD
BRANCH   4   7
ATOM      7  C   UNL A   1      44.803  20.896  25.147  1.00  0.00     0.239 A 
ATOM      8  C   UNL A   1      43.387  24.139  24.626  1.00  0.00     0.090 C 
ATOM      9  C   UNL A   1      44.033  22.886  25.086  1.00  0.00     0.130 A 
ATOM     10  N   UNL A   1      43.782  21.673  24.630  1.00  0.00    -0.207 NA
ATOM     11  N   UNL A   1      45.118  22.822  25.934  1.00  0.00    -0.217 N 
ATOM     12  N   UNL A   1      45.714  21.624  25.808  1.00  0.00    -0.140 NA
BRANCH  11  13
ATOM     13  C   UNL A   1      45.572  23.694  26.948  1.00  0.00     0.067 A 
ATOM     14  C   UNL A   1      46.826  24.303  26.798  1.00  0.00     0.028 A 
ATOM     15  C   UNL A   1      44.864  23.820  28.149  1.00  0.00     0.041 A 
ATOM     16  C   UNL A   1      47.353  25.075  27.830  1.00  0.00     0.003 A 
ATOM     17  C   UNL A   1      45.421  24.549  29.213  1.00  0.00     0.058 A 
ATOM     18  C   UNL A   1      46.657  25.194  29.031  1.00  0.00     0.013 A 
BRANCH  17  19
ATOM     19  C   UNL A   1      44.742  24.607  30.560  1.00  0.00     0.416 C 
ATOM     20  F   UNL A   1      45.614  24.884  31.569  1.00  0.00    -0.166 F 
ATOM     21  F   UNL A   1      43.779  25.565  30.618  1.00  0.00    -0.166 F 
ATOM     22  F   UNL A   1      44.132  23.439  30.908  1.00  0.00    -0.166 F 
ENDBRANCH  17  19
ENDBRANCH  11  13
ENDBRANCH   4   7
ENDBRANCH   2   3
ENDBRANCH   1   2
BRANCH   1  23
ATOM     23  C   UNL A   1      41.842  20.668  27.520  1.00  0.00     0.118 C 
BRANCH  23  24
ATOM     24  N   UNL A   1      40.613  20.811  26.732  1.00  0.00    -0.352 N 
ATOM     25  C   UNL A   1      39.823  21.927  26.557  1.00  0.00     0.251 C 
ATOM     26  H   UNL A   1      40.312  19.999  26.265  1.00  0.00     0.163 HD
ATOM     27  O   UNL A   1      38.675  21.821  26.129  1.00  0.00    -0.269 OA
BRANCH  25  28
ATOM     28  C   UNL A   1      40.359  23.250  26.914  1.00  0.00     0.039 A 
ATOM     29  C   UNL A   1      39.943  24.396  26.234  1.00  0.00     0.014 A 
ATOM     30  C   UNL A   1      41.250  23.343  27.978  1.00  0.00     0.014 A 
ATOM     31  C   UNL A   1      40.350  25.641  26.706  1.00  0.00     0.010 A 
ATOM     32  C   UNL A   1      41.520  24.568  28.538  1.00  0.00     0.010 A 
ATOM     33  C   UNL A   1      41.107  25.726  27.888  1.00  0.00    -0.014 A 
BRANCH  33  34
ATOM     34  C   UNL A   1      41.342  27.026  28.515  1.00  0.00     0.031 A 
ATOM     35  C   UNL A   1      42.550  27.744  28.021  1.00  0.00     0.074 A 
ATOM     36  C   UNL A   1      40.467  27.647  29.336  1.00  0.00     0.049 A 
ATOM     37  N   UNL A   1      43.601  28.058  28.702  1.00  0.00    -0.248 NA
ATOM     38  C   UNL A   1      42.659  28.047  26.584  1.00  0.00     0.031 C 
ATOM     39  C   UNL A   1      39.110  27.234  29.705  1.00  0.00     0.029 A 
ATOM     40  N   UNL A   1      40.575  28.867  29.935  1.00  0.00    -0.354 N 
ATOM     41  C   UNL A   1      44.429  28.765  27.836  1.00  0.00     0.074 A 
ATOM     42  C   UNL A   1      43.877  28.591  26.517  1.00  0.00     0.031 C 
ATOM     43  C   UNL A   1      38.447  28.283  30.239  1.00  0.00     0.029 A 
ATOM     44  C   UNL A   1      39.373  29.386  30.404  1.00  0.00     0.049 A 
ATOM     45  H   UNL A   1      41.433  29.341  30.029  1.00  0.00     0.167 HD
ATOM     46  C   UNL A   1      45.355  29.637  28.323  1.00  0.00     0.037 A 
ATOM     47  C   UNL A   1      39.147  30.642  30.865  1.00  0.00     0.037 A 
ATOM     48  C   UNL A   1      45.644  29.372  29.711  1.00  0.00     0.049 A 
ATOM     49  C   UNL A   1      40.459  31.209  31.262  1.00  0.00     0.074 A 
ATOM     50  C   UNL A   1      46.048  28.250  30.416  1.00  0.00     0.029 A 
ATOM     51  N   UNL A   1      45.149  30.232  30.663  1.00  0.00    -0.354 N 
ATOM     52  N   UNL A   1      41.146  30.796  32.291  1.00  0.00    -0.248 NA
ATOM     53  C   UNL A   1      41.220  31.925  30.249  1.00  0.00     0.031 C 
ATOM     54  C   UNL A   1      45.287  28.282  31.622  1.00  0.00     0.029 A 
ATOM     55  C   UNL A   1      44.540  29.459  31.619  1.00  0.00     0.049 A 
ATOM     56  H   UNL A   1      45.219  31.214  30.659  1.00  0.00     0.167 HD
ATOM     57  C   UNL A   1      42.456  30.773  31.841  1.00  0.00     0.074 A 
ATOM     58  C   UNL A   1      42.454  31.570  30.616  1.00  0.00     0.031 C 
ATOM     59  C   UNL A   1      43.356  29.871  32.331  1.00  0.00     0.037 A 
BRANCH  46  60
ATOM     60  C   UNL A   1      45.691  30.956  27.669  1.00  0.00     0.064 A 
ATOM     61  C   UNL A   1      47.041  31.350  27.579  1.00  0.00     0.173 A 
ATOM     62  C   UNL A   1      44.744  31.975  27.431  1.00  0.00     0.173 A 
ATOM     63  F   UNL A   1      48.027  30.469  27.804  1.00  0.00    -0.203 F 
ATOM     64  C   UNL A   1      47.408  32.683  27.369  1.00  0.00     0.198 A 
ATOM     65  C   UNL A   1      45.115  33.291  27.165  1.00  0.00     0.198 A 
ATOM     66  F   UNL A   1      43.428  31.774  27.562  1.00  0.00    -0.203 F 
ATOM     67  F   UNL A   1      48.699  33.034  27.438  1.00  0.00    -0.200 F 
ATOM     68  C   UNL A   1      46.445  33.653  27.171  1.00  0.00     0.200 A 
ATOM     69  F   UNL A   1      44.164  34.221  26.996  1.00  0.00    -0.200 F 
ATOM     70  F   UNL A   1      46.790  34.941  27.041  1.00  0.00    -0.200 F 
ENDBRANCH  46  60
BRANCH  47  71
ATOM     71  C   UNL A   1      37.920  31.469  30.762  1.00  0.00     0.064 A 
ATOM     72  C   UNL A   1      37.381  31.811  29.510  1.00  0.00     0.173 A 
ATOM     73  C   UNL A   1      37.094  31.705  31.879  1.00  0.00     0.173 A 
ATOM     74  F   UNL A   1      38.081  31.585  28.388  1.00  0.00    -0.203 F 
ATOM     75  C   UNL A   1      36.084  32.321  29.380  1.00  0.00     0.198 A 
ATOM     76  C   UNL A   1      35.804  32.225  31.749  1.00  0.00     0.198 A 
ATOM     77  F   UNL A   1      37.480  31.348  33.111  1.00  0.00    -0.203 F 
ATOM     78  F   UNL A   1      35.581  32.565  28.162  1.00  0.00    -0.200 F 
ATOM     79  C   UNL A   1      35.294  32.517  30.499  1.00  0.00     0.200 A 
ATOM     80  F   UNL A   1      35.037  32.378  32.839  1.00  0.00    -0.200 F 
ATOM     81  F   UNL A   1      34.029  32.942  30.371  1.00  0.00    -0.200 F 
ENDBRANCH  47  71
BRANCH  59  82
ATOM     82  C   UNL A   1      42.990  29.090  33.563  1.00  0.00     0.064 A 
ATOM     83  C   UNL A   1      42.188  27.934  33.567  1.00  0.00     0.173 A 
ATOM     84  C   UNL A   1      43.581  29.462  34.779  1.00  0.00     0.173 A 
ATOM     85  F   UNL A   1      41.675  27.440  32.434  1.00  0.00    -0.203 F 
ATOM     86  C   UNL A   1      41.944  27.226  34.744  1.00  0.00     0.198 A 
ATOM     87  C   UNL A   1      43.371  28.729  35.943  1.00  0.00     0.198 A 
ATOM     88  F   UNL A   1      44.402  30.523  34.831  1.00  0.00    -0.203 F 
ATOM     89  F   UNL A   1      41.154  26.142  34.724  1.00  0.00    -0.200 F 
ATOM     90  C   UNL A   1      42.541  27.621  35.929  1.00  0.00     0.200 A 
ATOM     91  F   UNL A   1      43.992  29.086  37.076  1.00  0.00    -0.200 F 
ATOM     92  F   UNL A   1      42.335  26.920  37.053  1.00  0.00    -0.200 F 
ENDBRANCH  59  82
ENDBRANCH  33  34
ENDBRANCH  25  28
ENDBRANCH  23  24
ENDBRANCH   1  23
TORSDOF 12
ENDMDL
MODEL 3
REMARK VINA RESULT:     -11.6      0.968      2.283
REMARK SMILES Cc1nc(C(=O)NCCCNC(=O)c2ccc(-c3c4nc(c(-c5c(F)c(F)c(F)c(F)c5F)c5ccc([nH]5)c(-c5c(F)c(F)c(F)c(F)c5F)c5nc(c(-c6c(F)c(F)c(F)c(F)c6F)c6ccc3[nH]6)C=C5)C=C4)cc2)nn1-c1cccc(C(F)(F)F)c1
REMARK SMILES IDX 9 1 8 2 7 3 5 4 6 5 4 7 1 8 2 9 3 10 78 11 77 12 79 13 80 14
REMARK SMILES IDX 88 15 81 16 83 17 82 18 84 19 85 20 86 21 87 22 10 23 11 24
REMARK SMILES IDX 12 25 13 27 14 28 15 29 76 30 16 31 75 32 17 33 18 34 19 35
REMARK SMILES IDX 69 36 20 37 74 38 68 39 70 40 21 41 73 42 67 43 66 44 22 46
REMARK SMILES IDX 54 47 34 48 53 49 35 50 38 51 52 52 71 53 36 54 37 55 51 57
REMARK SMILES IDX 72 58 39 59 23 60 24 61 32 62 25 63 26 64 30 65 33 66 27 67
REMARK SMILES IDX 28 68 31 69 29 70 55 71 56 72 64 73 57 74 58 75 62 76 65 77
REMARK SMILES IDX 59 78 60 79 63 80 61 81 40 82 41 83 49 84 42 85 43 86 47 87
REMARK SMILES IDX 50 88 44 89 45 90 48 91 46 92
REMARK H PARENT 7 6 11 26 70 45 38 56
REMARK Flexibility Score: inf
ROOT
ATOM      1  C   UNL A   1      34.284  36.194  28.346  1.00  0.00     0.042 C 
ENDROOT
BRANCH   1   2
ATOM      2  C   UNL A   1      32.910  36.066  29.013  1.00  0.00     0.118 C 
BRANCH   2   3
ATOM      3  N   UNL A   1      32.755  36.942  30.169  1.00  0.00    -0.349 N 
ATOM      4  C   UNL A   1      33.218  36.831  31.471  1.00  0.00     0.290 C 
ATOM      5  O   UNL A   1      32.888  37.730  32.251  1.00  0.00    -0.266 OA
ATOM      6  H   UNL A   1      32.228  37.754  29.994  1.00  0.00     0.163 HD
BRANCH   4   7
ATOM      7  C   UNL A   1      34.037  35.674  31.897  1.00  0.00     0.239 A 
ATOM      8  C   UNL A   1      34.882  32.203  32.075  1.00  0.00     0.090 C 
ATOM      9  C   UNL A   1      34.796  33.681  32.006  1.00  0.00     0.130 A 
ATOM     10  N   UNL A   1      33.804  34.376  31.480  1.00  0.00    -0.207 NA
ATOM     11  N   UNL A   1      35.656  34.553  32.638  1.00  0.00    -0.217 N 
ATOM     12  N   UNL A   1      35.075  35.760  32.741  1.00  0.00    -0.140 NA
BRANCH  11  13
ATOM     13  C   UNL A   1      37.008  34.424  33.025  1.00  0.00     0.067 A 
ATOM     14  C   UNL A   1      37.996  34.436  32.030  1.00  0.00     0.028 A 
ATOM     15  C   UNL A   1      37.344  34.124  34.351  1.00  0.00     0.041 A 
ATOM     16  C   UNL A   1      39.325  34.194  32.365  1.00  0.00     0.003 A 
ATOM     17  C   UNL A   1      38.677  33.822  34.681  1.00  0.00     0.058 A 
ATOM     18  C   UNL A   1      39.663  33.886  33.681  1.00  0.00     0.013 A 
BRANCH  17  19
ATOM     19  C   UNL A   1      39.055  33.380  36.074  1.00  0.00     0.416 C 
ATOM     20  F   UNL A   1      40.005  32.404  36.068  1.00  0.00    -0.166 F 
ATOM     21  F   UNL A   1      39.561  34.395  36.823  1.00  0.00    -0.166 F 
ATOM     22  F   UNL A   1      38.007  32.873  36.783  1.00  0.00    -0.166 F 
ENDBRANCH  17  19
ENDBRANCH  11  13
ENDBRANCH   4   7
ENDBRANCH   2   3
ENDBRANCH   1   2
BRANCH   1  23
ATOM     23  C   UNL A   1      35.001  34.853  28.283  1.00  0.00     0.118 C 
BRANCH  23  24
ATOM     24  N   UNL A   1      34.076  33.715  28.326  1.00  0.00    -0.352 N 
ATOM     25  C   UNL A   1      34.348  32.373  28.169  1.00  0.00     0.251 C 
ATOM     26  H   UNL A   1      33.132  33.941  28.489  1.00  0.00     0.163 HD
ATOM     27  O   UNL A   1      33.446  31.575  27.925  1.00  0.00    -0.269 OA
BRANCH  25  28
ATOM     28  C   UNL A   1      35.740  31.905  28.270  1.00  0.00     0.039 A 
ATOM     29  C   UNL A   1      36.709  32.680  28.911  1.00  0.00     0.014 A 
ATOM     30  C   UNL A   1      36.061  30.652  27.758  1.00  0.00     0.014 A 
ATOM     31  C   UNL A   1      37.971  32.133  29.125  1.00  0.00     0.010 A 
ATOM     32  C   UNL A   1      37.248  30.055  28.109  1.00  0.00     0.010 A 
ATOM     33  C   UNL A   1      38.226  30.800  28.759  1.00  0.00    -0.014 A 
BRANCH  33  34
ATOM     34  C   UNL A   1      39.464  30.148  29.183  1.00  0.00     0.031 A 
ATOM     35  C   UNL A   1      39.687  30.138  30.655  1.00  0.00     0.074 A 
ATOM     36  C   UNL A   1      40.271  29.437  28.365  1.00  0.00     0.049 A 
ATOM     37  N   UNL A   1      40.645  30.717  31.300  1.00  0.00    -0.248 NA
ATOM     38  C   UNL A   1      38.675  29.517  31.525  1.00  0.00     0.031 C 
ATOM     39  C   UNL A   1      40.066  29.091  26.955  1.00  0.00     0.029 A 
ATOM     40  N   UNL A   1      41.417  28.764  28.669  1.00  0.00    -0.354 N 
ATOM     41  C   UNL A   1      40.471  30.380  32.639  1.00  0.00     0.074 A 
ATOM     42  C   UNL A   1      39.166  29.779  32.739  1.00  0.00     0.031 C 
ATOM     43  C   UNL A   1      40.901  28.087  26.610  1.00  0.00     0.029 A 
ATOM     44  C   UNL A   1      41.807  27.833  27.713  1.00  0.00     0.049 A 
ATOM     45  H   UNL A   1      41.927  28.925  29.496  1.00  0.00     0.167 HD
ATOM     46  C   UNL A   1      41.526  30.403  33.500  1.00  0.00     0.037 A 
ATOM     47  C   UNL A   1      42.784  26.898  27.831  1.00  0.00     0.037 A 
ATOM     48  C   UNL A   1      42.606  31.208  32.983  1.00  0.00     0.049 A 
ATOM     49  C   UNL A   1      43.694  27.344  28.915  1.00  0.00     0.074 A 
ATOM     50  C   UNL A   1      42.705  32.511  32.525  1.00  0.00     0.029 A 
ATOM     51  N   UNL A   1      43.728  30.575  32.502  1.00  0.00    -0.354 N 
ATOM     52  N   UNL A   1      44.487  28.374  28.818  1.00  0.00    -0.248 NA
ATOM     53  C   UNL A   1      43.387  26.916  30.271  1.00  0.00     0.031 C 
ATOM     54  C   UNL A   1      43.555  32.433  31.381  1.00  0.00     0.029 A 
ATOM     55  C   UNL A   1      43.991  31.114  31.269  1.00  0.00     0.049 A 
ATOM     56  H   UNL A   1      44.244  29.869  32.957  1.00  0.00     0.167 HD
ATOM     57  C   UNL A   1      44.390  28.998  30.051  1.00  0.00     0.074 A 
ATOM     58  C   UNL A   1      43.782  28.006  30.935  1.00  0.00     0.031 C 
ATOM     59  C   UNL A   1      44.533  30.350  30.172  1.00  0.00     0.037 A 
BRANCH  46  60
ATOM     60  C   UNL A   1      41.734  29.389  34.600  1.00  0.00     0.064 A 
ATOM     61  C   UNL A   1      42.423  29.778  35.767  1.00  0.00     0.173 A 
ATOM     62  C   UNL A   1      41.579  27.998  34.421  1.00  0.00     0.173 A 
ATOM     63  F   UNL A   1      42.644  31.074  36.031  1.00  0.00    -0.203 F 
ATOM     64  C   UNL A   1      42.999  28.841  36.630  1.00  0.00     0.198 A 
ATOM     65  C   UNL A   1      42.106  27.068  35.314  1.00  0.00     0.198 A 
ATOM     66  F   UNL A   1      41.022  27.474  33.323  1.00  0.00    -0.203 F 
ATOM     67  F   UNL A   1      43.768  29.258  37.644  1.00  0.00    -0.200 F 
ATOM     68  C   UNL A   1      42.847  27.487  36.398  1.00  0.00     0.200 A 
ATOM     69  F   UNL A   1      41.966  25.759  35.060  1.00  0.00    -0.200 F 
ATOM     70  F   UNL A   1      43.458  26.588  37.181  1.00  0.00    -0.200 F 
ENDBRANCH  46  60
BRANCH  47  71
ATOM     71  C   UNL A   1      42.852  25.538  27.242  1.00  0.00     0.064 A 
ATOM     72  C   UNL A   1      43.762  25.240  26.213  1.00  0.00     0.173 A 
ATOM     73  C   UNL A   1      42.231  24.434  27.859  1.00  0.00     0.173 A 
ATOM     74  F   UNL A   1      44.430  26.226  25.595  1.00  0.00    -0.203 F 
ATOM     75  C   UNL A   1      44.061  23.922  25.851  1.00  0.00     0.198 A 
ATOM     76  C   UNL A   1      42.520  23.119  27.490  1.00  0.00     0.198 A 
ATOM     77  F   UNL A   1      41.402  24.601  28.899  1.00  0.00    -0.203 F 
ATOM     78  F   UNL A   1      44.989  23.679  24.915  1.00  0.00    -0.200 F 
ATOM     79  C   UNL A   1      43.447  22.863  26.498  1.00  0.00     0.200 A 
ATOM     80  F   UNL A   1      41.944  22.102  28.147  1.00  0.00    -0.200 F 
ATOM     81  F   UNL A   1      43.781  21.600  26.198  1.00  0.00    -0.200 F 
ENDBRANCH  47  71
BRANCH  59  82
ATOM     82  C   UNL A   1      45.074  31.122  29.000  1.00  0.00     0.064 A 
ATOM     83  C   UNL A   1      46.442  31.330  28.743  1.00  0.00     0.173 A 
ATOM     84  C   UNL A   1      44.166  31.566  28.027  1.00  0.00     0.173 A 
ATOM     85  F   UNL A   1      47.384  30.841  29.559  1.00  0.00    -0.203 F 
ATOM     86  C   UNL A   1      46.869  32.003  27.599  1.00  0.00     0.198 A 
ATOM     87  C   UNL A   1      44.599  32.199  26.866  1.00  0.00     0.198 A 
ATOM     88  F   UNL A   1      42.851  31.349  28.186  1.00  0.00    -0.203 F 
ATOM     89  F   UNL A   1      48.179  32.210  27.392  1.00  0.00    -0.200 F 
ATOM     90  C   UNL A   1      45.948  32.431  26.659  1.00  0.00     0.200 A 
ATOM     91  F   UNL A   1      43.706  32.566  25.936  1.00  0.00    -0.200 F 
ATOM     92  F   UNL A   1      46.361  33.047  25.542  1.00  0.00    -0.200 F 
ENDBRANCH  59  82
ENDBRANCH  33  34
ENDBRANCH  25  28
ENDBRANCH  23  24
ENDBRANCH   1  23
TORSDOF 12
ENDMDL
