MODEL 1
REMARK VINA RESULT:     -12.2      0.000      0.000
REMARK SMILES Cc1nc(/C=C/C(=O)N2CCC[C@@H]2C(=O)NCCCNC(=O)c2ccc(-c3c4nc(c(-c5c(F)c(F)c(F)c(F)c5F)c5ccc([nH]5)c(-c5c(F)c(F)c(F)c(F)c5F)c5nc(c(-c6c(F)c(F)c(F)c(F)c6F)c6ccc3[nH]6)C=C5)C=C4)cc2)cs1
REMARK SMILES IDX 17 1 16 2 14 3 15 4 13 6 9 7 10 8 11 9 12 10 7 11 8 12 6 13
REMARK SMILES IDX 5 14 4 15 1 16 2 17 3 18 87 19 86 20 18 21 19 22 20 23 21 24
REMARK SMILES IDX 22 26 23 27 24 28 85 29 25 30 84 31 26 32 27 33 28 34 78 35
REMARK SMILES IDX 29 36 83 37 77 38 79 39 30 40 82 41 76 42 75 43 31 45 63 46
REMARK SMILES IDX 43 47 62 48 44 49 47 50 61 51 80 52 45 53 46 54 60 56 81 57
REMARK SMILES IDX 48 58 32 59 33 60 41 61 34 62 35 63 39 64 42 65 36 66 37 67
REMARK SMILES IDX 40 68 38 69 64 70 65 71 73 72 66 73 67 74 71 75 74 76 68 77
REMARK SMILES IDX 69 78 72 79 70 80 49 81 50 82 58 83 51 84 52 85 56 86 59 87
REMARK SMILES IDX 53 88 54 89 57 90 55 91
REMARK H PARENT 16 5 20 25 79 44 47 55
REMARK Flexibility Score: inf
ROOT
ATOM      1  C   UNL A   1      31.583  30.792  26.121  1.00  0.00     0.117 C 
ENDROOT
BRANCH   1   2
ATOM      2  N   UNL A   1      31.461  29.700  27.058  1.00  0.00    -0.354 N 
ATOM      3  C   UNL A   1      31.794  28.384  26.931  1.00  0.00     0.242 C 
ATOM      4  O   UNL A   1      31.381  27.628  27.818  1.00  0.00    -0.273 OA
ATOM      5  H   UNL A   1      31.077  29.946  27.931  1.00  0.00     0.163 HD
BRANCH   3   6
ATOM      6  C   UNL A   1      32.456  27.804  25.660  1.00  0.00     0.174 C 
ATOM      7  N   UNL A   1      31.709  26.798  24.903  1.00  0.00    -0.327 N 
ATOM      8  C   UNL A   1      32.591  25.724  24.478  1.00  0.00     0.121 C 
ATOM      9  C   UNL A   1      33.634  25.663  25.577  1.00  0.00     0.024 C 
ATOM     10  C   UNL A   1      33.789  27.119  26.017  1.00  0.00     0.037 C 
BRANCH   7  11
ATOM     11  C   UNL A   1      30.470  27.107  24.398  1.00  0.00     0.247 C 
ATOM     12  O   UNL A   1      29.505  26.354  24.506  1.00  0.00    -0.270 OA
BRANCH  11  13
ATOM     13  C   UNL A   1      30.293  28.337  23.580  1.00  0.00     0.073 C 
ATOM     14  C   UNL A   1      29.088  28.782  23.192  1.00  0.00     0.035 C 
BRANCH  14  15
ATOM     15  C   UNL A   1      28.762  30.041  22.617  1.00  0.00     0.074 A 
ATOM     16  C   UNL A   1      29.021  33.630  23.166  1.00  0.00     0.079 C 
ATOM     17  C   UNL A   1      28.799  32.244  22.673  1.00  0.00     0.090 A 
ATOM     18  N   UNL A   1      29.095  31.157  23.355  1.00  0.00    -0.242 NA
ATOM     19  S   UNL A   1      28.122  31.977  21.115  1.00  0.00    -0.127 S 
ATOM     20  C   UNL A   1      28.230  30.282  21.370  1.00  0.00     0.095 A 
ENDBRANCH  14  15
ENDBRANCH  11  13
ENDBRANCH   7  11
ENDBRANCH   3   6
ENDBRANCH   1   2
BRANCH   1  21
ATOM     21  C   UNL A   1      31.425  32.146  26.790  1.00  0.00     0.042 C 
BRANCH  21  22
ATOM     22  C   UNL A   1      32.738  32.890  26.952  1.00  0.00     0.118 C 
BRANCH  22  23
ATOM     23  N   UNL A   1      32.564  34.183  27.599  1.00  0.00    -0.352 N 
ATOM     24  C   UNL A   1      33.162  34.696  28.720  1.00  0.00     0.251 C 
ATOM     25  H   UNL A   1      31.914  34.782  27.163  1.00  0.00     0.163 HD
ATOM     26  O   UNL A   1      32.731  35.734  29.220  1.00  0.00    -0.269 OA
BRANCH  24  27
ATOM     27  C   UNL A   1      34.316  34.010  29.338  1.00  0.00     0.039 A 
ATOM     28  C   UNL A   1      35.607  34.374  28.945  1.00  0.00     0.014 A 
ATOM     29  C   UNL A   1      34.134  32.983  30.267  1.00  0.00     0.014 A 
ATOM     30  C   UNL A   1      36.711  33.734  29.509  1.00  0.00     0.010 A 
ATOM     31  C   UNL A   1      35.232  32.415  30.900  1.00  0.00     0.010 A 
ATOM     32  C   UNL A   1      36.532  32.763  30.507  1.00  0.00    -0.014 A 
BRANCH  32  33
ATOM     33  C   UNL A   1      37.684  32.049  31.106  1.00  0.00     0.031 A 
ATOM     34  C   UNL A   1      38.139  32.405  32.495  1.00  0.00     0.074 A 
ATOM     35  C   UNL A   1      38.354  31.130  30.386  1.00  0.00     0.049 A 
ATOM     36  N   UNL A   1      39.168  31.962  33.173  1.00  0.00    -0.248 NA
ATOM     37  C   UNL A   1      37.351  33.426  33.206  1.00  0.00     0.031 C 
ATOM     38  C   UNL A   1      38.039  30.736  29.013  1.00  0.00     0.029 A 
ATOM     39  N   UNL A   1      39.448  30.368  30.710  1.00  0.00    -0.354 N 
ATOM     40  C   UNL A   1      39.163  32.667  34.369  1.00  0.00     0.074 A 
ATOM     41  C   UNL A   1      38.067  33.607  34.304  1.00  0.00     0.031 C 
ATOM     42  C   UNL A   1      38.906  29.790  28.619  1.00  0.00     0.029 A 
ATOM     43  C   UNL A   1      39.855  29.534  29.699  1.00  0.00     0.049 A 
ATOM     44  H   UNL A   1      39.900  30.416  31.584  1.00  0.00     0.167 HD
ATOM     45  C   UNL A   1      39.983  32.524  35.438  1.00  0.00     0.037 A 
ATOM     46  C   UNL A   1      40.879  28.660  29.653  1.00  0.00     0.037 A 
ATOM     47  C   UNL A   1      41.047  31.559  35.513  1.00  0.00     0.049 A 
ATOM     48  C   UNL A   1      41.754  28.496  30.865  1.00  0.00     0.074 A 
ATOM     49  C   UNL A   1      41.900  31.292  36.567  1.00  0.00     0.029 A 
ATOM     50  N   UNL A   1      41.396  30.694  34.484  1.00  0.00    -0.354 N 
ATOM     51  N   UNL A   1      41.704  29.124  32.014  1.00  0.00    -0.248 NA
ATOM     52  C   UNL A   1      42.819  27.488  30.777  1.00  0.00     0.031 C 
ATOM     53  C   UNL A   1      42.790  30.289  36.166  1.00  0.00     0.029 A 
ATOM     54  C   UNL A   1      42.459  29.898  34.879  1.00  0.00     0.049 A 
ATOM     55  H   UNL A   1      40.954  30.653  33.606  1.00  0.00     0.167 HD
ATOM     56  C   UNL A   1      42.704  28.564  32.798  1.00  0.00     0.074 A 
ATOM     57  C   UNL A   1      43.338  27.539  31.996  1.00  0.00     0.031 C 
ATOM     58  C   UNL A   1      43.063  28.871  34.070  1.00  0.00     0.037 A 
BRANCH  45  59
ATOM     59  C   UNL A   1      39.754  33.433  36.611  1.00  0.00     0.064 A 
ATOM     60  C   UNL A   1      40.407  34.671  36.724  1.00  0.00     0.173 A 
ATOM     61  C   UNL A   1      38.863  33.068  37.631  1.00  0.00     0.173 A 
ATOM     62  F   UNL A   1      41.281  35.061  35.783  1.00  0.00    -0.203 F 
ATOM     63  C   UNL A   1      40.204  35.492  37.830  1.00  0.00     0.198 A 
ATOM     64  C   UNL A   1      38.637  33.907  38.720  1.00  0.00     0.198 A 
ATOM     65  F   UNL A   1      38.208  31.899  37.572  1.00  0.00    -0.203 F 
ATOM     66  F   UNL A   1      40.884  36.641  37.943  1.00  0.00    -0.200 F 
ATOM     67  C   UNL A   1      39.314  35.113  38.823  1.00  0.00     0.200 A 
ATOM     68  F   UNL A   1      37.767  33.545  39.674  1.00  0.00    -0.200 F 
ATOM     69  F   UNL A   1      39.117  35.906  39.886  1.00  0.00    -0.200 F 
ENDBRANCH  45  59
BRANCH  46  70
ATOM     70  C   UNL A   1      41.098  27.843  28.433  1.00  0.00     0.064 A 
ATOM     71  C   UNL A   1      40.454  26.608  28.271  1.00  0.00     0.173 A 
ATOM     72  C   UNL A   1      41.945  28.277  27.403  1.00  0.00     0.173 A 
ATOM     73  F   UNL A   1      39.648  26.143  29.236  1.00  0.00    -0.203 F 
ATOM     74  C   UNL A   1      40.666  25.829  27.135  1.00  0.00     0.198 A 
ATOM     75  C   UNL A   1      42.135  27.510  26.256  1.00  0.00     0.198 A 
ATOM     76  F   UNL A   1      42.578  29.456  27.505  1.00  0.00    -0.203 F 
ATOM     77  F   UNL A   1      40.070  24.634  27.026  1.00  0.00    -0.200 F 
ATOM     78  C   UNL A   1      41.501  26.283  26.126  1.00  0.00     0.200 A 
ATOM     79  F   UNL A   1      42.931  27.959  25.275  1.00  0.00    -0.200 F 
ATOM     80  F   UNL A   1      41.700  25.536  25.032  1.00  0.00    -0.200 F 
ENDBRANCH  46  70
BRANCH  58  81
ATOM     81  C   UNL A   1      44.156  28.051  34.690  1.00  0.00     0.064 A 
ATOM     82  C   UNL A   1      45.500  28.445  34.631  1.00  0.00     0.173 A 
ATOM     83  C   UNL A   1      43.846  26.869  35.381  1.00  0.00     0.173 A 
ATOM     84  F   UNL A   1      45.849  29.560  33.970  1.00  0.00    -0.203 F 
ATOM     85  C   UNL A   1      46.498  27.671  35.218  1.00  0.00     0.198 A 
ATOM     86  C   UNL A   1      44.842  26.114  35.993  1.00  0.00     0.198 A 
ATOM     87  F   UNL A   1      42.574  26.453  35.472  1.00  0.00    -0.203 F 
ATOM     88  F   UNL A   1      47.782  28.040  35.108  1.00  0.00    -0.200 F 
ATOM     89  C   UNL A   1      46.168  26.511  35.903  1.00  0.00     0.200 A 
ATOM     90  F   UNL A   1      44.520  25.001  36.664  1.00  0.00    -0.200 F 
ATOM     91  F   UNL A   1      47.129  25.769  36.471  1.00  0.00    -0.200 F 
ENDBRANCH  58  81
ENDBRANCH  32  33
ENDBRANCH  24  27
ENDBRANCH  22  23
ENDBRANCH  21  22
ENDBRANCH   1  21
TORSDOF 13
ENDMDL
MODEL 2
REMARK VINA RESULT:     -12.2      0.768      7.433
REMARK SMILES Cc1nc(/C=C/C(=O)N2CCC[C@@H]2C(=O)NCCCNC(=O)c2ccc(-c3c4nc(c(-c5c(F)c(F)c(F)c(F)c5F)c5ccc([nH]5)c(-c5c(F)c(F)c(F)c(F)c5F)c5nc(c(-c6c(F)c(F)c(F)c(F)c6F)c6ccc3[nH]6)C=C5)C=C4)cc2)cs1
REMARK SMILES IDX 17 1 16 2 14 3 15 4 13 6 9 7 10 8 11 9 12 10 7 11 8 12 6 13
REMARK SMILES IDX 5 14 4 15 1 16 2 17 3 18 87 19 86 20 18 21 19 22 20 23 21 24
REMARK SMILES IDX 22 26 23 27 24 28 85 29 25 30 84 31 26 32 27 33 28 34 78 35
REMARK SMILES IDX 29 36 83 37 77 38 79 39 30 40 82 41 76 42 75 43 31 45 63 46
REMARK SMILES IDX 43 47 62 48 44 49 47 50 61 51 80 52 45 53 46 54 60 56 81 57
REMARK SMILES IDX 48 58 32 59 33 60 41 61 34 62 35 63 39 64 42 65 36 66 37 67
REMARK SMILES IDX 40 68 38 69 64 70 65 71 73 72 66 73 67 74 71 75 74 76 68 77
REMARK SMILES IDX 69 78 72 79 70 80 49 81 50 82 58 83 51 84 52 85 56 86 59 87
REMARK SMILES IDX 53 88 54 89 57 90 55 91
REMARK H PARENT 16 5 20 25 79 44 47 55
REMARK Flexibility Score: inf
ROOT
ATOM      1  C   UNL A   1      31.601  30.866  25.935  1.00  0.00     0.117 C 
ENDROOT
BRANCH   1   2
ATOM      2  N   UNL A   1      31.414  29.808  26.900  1.00  0.00    -0.354 N 
ATOM      3  C   UNL A   1      31.691  28.475  26.817  1.00  0.00     0.242 C 
ATOM      4  O   UNL A   1      31.229  27.764  27.716  1.00  0.00    -0.273 OA
ATOM      5  H   UNL A   1      31.024  30.095  27.758  1.00  0.00     0.163 HD
BRANCH   3   6
ATOM      6  C   UNL A   1      32.352  27.831  25.576  1.00  0.00     0.174 C 
ATOM      7  N   UNL A   1      31.597  26.799  24.863  1.00  0.00    -0.327 N 
ATOM      8  C   UNL A   1      32.470  25.698  24.491  1.00  0.00     0.121 C 
ATOM      9  C   UNL A   1      33.508  25.677  25.596  1.00  0.00     0.024 C 
ATOM     10  C   UNL A   1      33.676  27.150  25.969  1.00  0.00     0.037 C 
BRANCH   7  11
ATOM     11  C   UNL A   1      30.363  27.097  24.340  1.00  0.00     0.247 C 
ATOM     12  O   UNL A   1      29.402  26.336  24.436  1.00  0.00    -0.270 OA
BRANCH  11  13
ATOM     13  C   UNL A   1      30.187  28.324  23.517  1.00  0.00     0.073 C 
ATOM     14  C   UNL A   1      28.980  28.815  23.196  1.00  0.00     0.035 C 
BRANCH  14  15
ATOM     15  C   UNL A   1      28.672  30.080  22.624  1.00  0.00     0.074 A 
ATOM     16  C   UNL A   1      29.080  33.662  23.127  1.00  0.00     0.079 C 
ATOM     17  C   UNL A   1      28.788  32.281  22.658  1.00  0.00     0.090 A 
ATOM     18  N   UNL A   1      29.076  31.190  23.336  1.00  0.00    -0.242 NA
ATOM     19  S   UNL A   1      28.032  32.025  21.135  1.00  0.00    -0.127 S 
ATOM     20  C   UNL A   1      28.093  30.329  21.401  1.00  0.00     0.095 A 
ENDBRANCH  14  15
ENDBRANCH  11  13
ENDBRANCH   7  11
ENDBRANCH   3   6
ENDBRANCH   1   2
BRANCH   1  21
ATOM     21  C   UNL A   1      31.398  32.243  26.543  1.00  0.00     0.042 C 
BRANCH  21  22
ATOM     22  C   UNL A   1      32.663  32.821  27.150  1.00  0.00     0.118 C 
BRANCH  22  23
ATOM     23  N   UNL A   1      32.475  34.186  27.623  1.00  0.00    -0.352 N 
ATOM     24  C   UNL A   1      33.051  34.839  28.681  1.00  0.00     0.251 C 
ATOM     25  H   UNL A   1      31.834  34.721  27.103  1.00  0.00     0.163 HD
ATOM     26  O   UNL A   1      32.609  35.931  29.037  1.00  0.00    -0.269 OA
BRANCH  24  27
ATOM     27  C   UNL A   1      34.194  34.242  29.404  1.00  0.00     0.039 A 
ATOM     28  C   UNL A   1      35.489  34.489  28.939  1.00  0.00     0.014 A 
ATOM     29  C   UNL A   1      33.995  33.406  30.505  1.00  0.00     0.014 A 
ATOM     30  C   UNL A   1      36.582  33.928  29.601  1.00  0.00     0.010 A 
ATOM     31  C   UNL A   1      35.086  32.929  31.221  1.00  0.00     0.010 A 
ATOM     32  C   UNL A   1      36.390  33.160  30.759  1.00  0.00    -0.014 A 
BRANCH  32  33
ATOM     33  C   UNL A   1      37.529  32.531  31.469  1.00  0.00     0.031 A 
ATOM     34  C   UNL A   1      38.264  31.385  30.828  1.00  0.00     0.074 A 
ATOM     35  C   UNL A   1      37.863  32.946  32.704  1.00  0.00     0.049 A 
ATOM     36  N   UNL A   1      39.231  30.645  31.307  1.00  0.00    -0.248 NA
ATOM     37  C   UNL A   1      37.826  30.994  29.477  1.00  0.00     0.031 C 
ATOM     38  C   UNL A   1      37.194  34.013  33.449  1.00  0.00     0.029 A 
ATOM     39  N   UNL A   1      38.846  32.510  33.557  1.00  0.00    -0.354 N 
ATOM     40  C   UNL A   1      39.495  29.692  30.332  1.00  0.00     0.074 A 
ATOM     41  C   UNL A   1      38.550  29.908  29.260  1.00  0.00     0.031 C 
ATOM     42  C   UNL A   1      37.799  34.164  34.638  1.00  0.00     0.029 A 
ATOM     43  C   UNL A   1      38.876  33.185  34.751  1.00  0.00     0.049 A 
ATOM     44  H   UNL A   1      39.469  31.781  33.333  1.00  0.00     0.167 HD
ATOM     45  C   UNL A   1      40.457  28.739  30.322  1.00  0.00     0.037 A 
ATOM     46  C   UNL A   1      39.687  33.030  35.816  1.00  0.00     0.037 A 
ATOM     47  C   UNL A   1      41.421  28.555  31.373  1.00  0.00     0.049 A 
ATOM     48  C   UNL A   1      40.769  31.988  35.764  1.00  0.00     0.074 A 
ATOM     49  C   UNL A   1      42.472  27.659  31.437  1.00  0.00     0.029 A 
ATOM     50  N   UNL A   1      41.452  29.295  32.548  1.00  0.00    -0.354 N 
ATOM     51  N   UNL A   1      41.050  31.131  34.813  1.00  0.00    -0.248 NA
ATOM     52  C   UNL A   1      41.659  31.902  36.930  1.00  0.00     0.031 C 
ATOM     53  C   UNL A   1      43.119  27.831  32.666  1.00  0.00     0.029 A 
ATOM     54  C   UNL A   1      42.500  28.867  33.346  1.00  0.00     0.049 A 
ATOM     55  H   UNL A   1      40.823  30.015  32.779  1.00  0.00     0.167 HD
ATOM     56  C   UNL A   1      42.167  30.430  35.248  1.00  0.00     0.074 A 
ATOM     57  C   UNL A   1      42.518  30.969  36.545  1.00  0.00     0.031 C 
ATOM     58  C   UNL A   1      42.843  29.431  34.627  1.00  0.00     0.037 A 
BRANCH  45  59
ATOM     59  C   UNL A   1      40.513  27.827  29.129  1.00  0.00     0.064 A 
ATOM     60  C   UNL A   1      39.717  26.673  29.045  1.00  0.00     0.173 A 
ATOM     61  C   UNL A   1      41.364  28.115  28.052  1.00  0.00     0.173 A 
ATOM     62  F   UNL A   1      38.897  26.344  30.055  1.00  0.00    -0.203 F 
ATOM     63  C   UNL A   1      39.797  25.824  27.945  1.00  0.00     0.198 A 
ATOM     64  C   UNL A   1      41.417  27.280  26.938  1.00  0.00     0.198 A 
ATOM     65  F   UNL A   1      42.143  29.206  28.077  1.00  0.00    -0.203 F 
ATOM     66  F   UNL A   1      39.071  24.698  27.916  1.00  0.00    -0.200 F 
ATOM     67  C   UNL A   1      40.642  26.131  26.890  1.00  0.00     0.200 A 
ATOM     68  F   UNL A   1      42.226  27.585  25.913  1.00  0.00    -0.200 F 
ATOM     69  F   UNL A   1      40.717  25.314  25.829  1.00  0.00    -0.200 F 
ENDBRANCH  45  59
BRANCH  46  70
ATOM     70  C   UNL A   1      39.532  33.916  36.997  1.00  0.00     0.064 A 
ATOM     71  C   UNL A   1      38.772  33.511  38.104  1.00  0.00     0.173 A 
ATOM     72  C   UNL A   1      40.141  35.178  37.050  1.00  0.00     0.173 A 
ATOM     73  F   UNL A   1      38.156  32.320  38.091  1.00  0.00    -0.203 F 
ATOM     74  C   UNL A   1      38.610  34.342  39.210  1.00  0.00     0.198 A 
ATOM     75  C   UNL A   1      40.001  35.998  38.169  1.00  0.00     0.198 A 
ATOM     76  F   UNL A   1      40.885  35.610  36.022  1.00  0.00    -0.203 F 
ATOM     77  F   UNL A   1      37.845  33.946  40.235  1.00  0.00    -0.200 F 
ATOM     78  C   UNL A   1      39.229  35.582  39.244  1.00  0.00     0.200 A 
ATOM     79  F   UNL A   1      40.613  37.189  38.205  1.00  0.00    -0.200 F 
ATOM     80  F   UNL A   1      39.078  36.379  40.310  1.00  0.00    -0.200 F 
ENDBRANCH  46  70
BRANCH  58  81
ATOM     81  C   UNL A   1      44.061  28.895  35.318  1.00  0.00     0.064 A 
ATOM     82  C   UNL A   1      45.333  29.448  35.111  1.00  0.00     0.173 A 
ATOM     83  C   UNL A   1      43.946  27.831  36.226  1.00  0.00     0.173 A 
ATOM     84  F   UNL A   1      45.497  30.458  34.242  1.00  0.00    -0.203 F 
ATOM     85  C   UNL A   1      46.450  28.938  35.768  1.00  0.00     0.198 A 
ATOM     86  C   UNL A   1      45.060  27.343  36.903  1.00  0.00     0.198 A 
ATOM     87  F   UNL A   1      42.750  27.272  36.464  1.00  0.00    -0.203 F 
ATOM     88  F   UNL A   1      47.664  29.449  35.519  1.00  0.00    -0.200 F 
ATOM     89  C   UNL A   1      46.311  27.891  36.667  1.00  0.00     0.200 A 
ATOM     90  F   UNL A   1      44.922  26.340  37.781  1.00  0.00    -0.200 F 
ATOM     91  F   UNL A   1      47.387  27.403  37.301  1.00  0.00    -0.200 F 
ENDBRANCH  58  81
ENDBRANCH  32  33
ENDBRANCH  24  27
ENDBRANCH  22  23
ENDBRANCH  21  22
ENDBRANCH   1  21
TORSDOF 13
ENDMDL
MODEL 3
REMARK VINA RESULT:     -12.1      0.172      2.046
REMARK SMILES Cc1nc(/C=C/C(=O)N2CCC[C@@H]2C(=O)NCCCNC(=O)c2ccc(-c3c4nc(c(-c5c(F)c(F)c(F)c(F)c5F)c5ccc([nH]5)c(-c5c(F)c(F)c(F)c(F)c5F)c5nc(c(-c6c(F)c(F)c(F)c(F)c6F)c6ccc3[nH]6)C=C5)C=C4)cc2)cs1
REMARK SMILES IDX 17 1 16 2 14 3 15 4 13 6 9 7 10 8 11 9 12 10 7 11 8 12 6 13
REMARK SMILES IDX 5 14 4 15 1 16 2 17 3 18 87 19 86 20 18 21 19 22 20 23 21 24
REMARK SMILES IDX 22 26 23 27 24 28 85 29 25 30 84 31 26 32 27 33 28 34 78 35
REMARK SMILES IDX 29 36 83 37 77 38 79 39 30 40 82 41 76 42 75 43 31 45 63 46
REMARK SMILES IDX 43 47 62 48 44 49 47 50 61 51 80 52 45 53 46 54 60 56 81 57
REMARK SMILES IDX 48 58 32 59 33 60 41 61 34 62 35 63 39 64 42 65 36 66 37 67
REMARK SMILES IDX 40 68 38 69 64 70 65 71 73 72 66 73 67 74 71 75 74 76 68 77
REMARK SMILES IDX 69 78 72 79 70 80 49 81 50 82 58 83 51 84 52 85 56 86 59 87
REMARK SMILES IDX 53 88 54 89 57 90 55 91
REMARK H PARENT 16 5 20 25 79 44 47 55
REMARK Flexibility Score: inf
ROOT
ATOM      1  C   UNL A   1      31.589  30.722  26.105  1.00  0.00     0.117 C 
ENDROOT
BRANCH   1   2
ATOM      2  N   UNL A   1      31.464  29.610  27.019  1.00  0.00    -0.354 N 
ATOM      3  C   UNL A   1      31.787  28.294  26.861  1.00  0.00     0.242 C 
ATOM      4  O   UNL A   1      31.371  27.522  27.732  1.00  0.00    -0.273 OA
ATOM      5  H   UNL A   1      31.085  29.839  27.898  1.00  0.00     0.163 HD
BRANCH   3   6
ATOM      6  C   UNL A   1      32.439  27.739  25.574  1.00  0.00     0.174 C 
ATOM      7  N   UNL A   1      31.687  26.747  24.804  1.00  0.00    -0.327 N 
ATOM      8  C   UNL A   1      32.566  25.681  24.352  1.00  0.00     0.121 C 
ATOM      9  C   UNL A   1      33.616  25.600  25.443  1.00  0.00     0.024 C 
ATOM     10  C   UNL A   1      33.774  27.047  25.908  1.00  0.00     0.037 C 
BRANCH   7  11
ATOM     11  C   UNL A   1      30.444  27.065  24.314  1.00  0.00     0.247 C 
ATOM     12  O   UNL A   1      29.474  26.319  24.435  1.00  0.00    -0.270 OA
BRANCH  11  13
ATOM     13  C   UNL A   1      30.266  28.296  23.497  1.00  0.00     0.073 C 
ATOM     14  C   UNL A   1      29.058  28.774  23.160  1.00  0.00     0.035 C 
BRANCH  14  15
ATOM     15  C   UNL A   1      28.743  30.039  22.592  1.00  0.00     0.074 A 
ATOM     16  C   UNL A   1      29.010  33.622  23.177  1.00  0.00     0.079 C 
ATOM     17  C   UNL A   1      28.788  32.241  22.669  1.00  0.00     0.090 A 
ATOM     18  N   UNL A   1      29.072  31.147  23.345  1.00  0.00    -0.242 NA
ATOM     19  S   UNL A   1      28.127  31.990  21.101  1.00  0.00    -0.127 S 
ATOM     20  C   UNL A   1      28.226  30.292  21.342  1.00  0.00     0.095 A 
ENDBRANCH  14  15
ENDBRANCH  11  13
ENDBRANCH   7  11
ENDBRANCH   3   6
ENDBRANCH   1   2
BRANCH   1  21
ATOM     21  C   UNL A   1      31.442  32.061  26.805  1.00  0.00     0.042 C 
BRANCH  21  22
ATOM     22  C   UNL A   1      32.744  32.837  26.893  1.00  0.00     0.118 C 
BRANCH  22  23
ATOM     23  N   UNL A   1      32.580  34.117  27.568  1.00  0.00    -0.352 N 
ATOM     24  C   UNL A   1      33.195  34.607  28.689  1.00  0.00     0.251 C 
ATOM     25  H   UNL A   1      31.925  34.724  27.153  1.00  0.00     0.163 HD
ATOM     26  O   UNL A   1      32.772  35.636  29.216  1.00  0.00    -0.269 OA
BRANCH  24  27
ATOM     27  C   UNL A   1      34.357  33.909  29.278  1.00  0.00     0.039 A 
ATOM     28  C   UNL A   1      34.131  32.830  30.138  1.00  0.00     0.014 A 
ATOM     29  C   UNL A   1      35.662  34.338  29.025  1.00  0.00     0.014 A 
ATOM     30  C   UNL A   1      35.213  32.162  30.712  1.00  0.00     0.010 A 
ATOM     31  C   UNL A   1      36.740  33.613  29.518  1.00  0.00     0.010 A 
ATOM     32  C   UNL A   1      36.527  32.536  30.390  1.00  0.00    -0.014 A 
BRANCH  32  33
ATOM     33  C   UNL A   1      37.695  31.861  31.003  1.00  0.00     0.031 A 
ATOM     34  C   UNL A   1      38.131  32.243  32.392  1.00  0.00     0.074 A 
ATOM     35  C   UNL A   1      38.396  30.956  30.296  1.00  0.00     0.049 A 
ATOM     36  N   UNL A   1      39.167  31.836  33.080  1.00  0.00    -0.248 NA
ATOM     37  C   UNL A   1      37.308  33.246  33.088  1.00  0.00     0.031 C 
ATOM     38  C   UNL A   1      38.102  30.541  28.924  1.00  0.00     0.029 A 
ATOM     39  N   UNL A   1      39.510  30.229  30.632  1.00  0.00    -0.354 N 
ATOM     40  C   UNL A   1      39.134  32.551  34.270  1.00  0.00     0.074 A 
ATOM     41  C   UNL A   1      38.011  33.458  34.189  1.00  0.00     0.031 C 
ATOM     42  C   UNL A   1      38.998  29.617  28.543  1.00  0.00     0.029 A 
ATOM     43  C   UNL A   1      39.948  29.399  29.631  1.00  0.00     0.049 A 
ATOM     44  H   UNL A   1      39.954  30.298  31.509  1.00  0.00     0.167 HD
ATOM     45  C   UNL A   1      39.951  32.441  35.344  1.00  0.00     0.037 A 
ATOM     46  C   UNL A   1      40.996  28.555  29.600  1.00  0.00     0.037 A 
ATOM     47  C   UNL A   1      41.042  31.508  35.434  1.00  0.00     0.049 A 
ATOM     48  C   UNL A   1      41.868  28.426  30.818  1.00  0.00     0.074 A 
ATOM     49  C   UNL A   1      41.896  31.275  36.497  1.00  0.00     0.029 A 
ATOM     50  N   UNL A   1      41.423  30.644  34.416  1.00  0.00    -0.354 N 
ATOM     51  N   UNL A   1      41.792  29.062  31.962  1.00  0.00    -0.248 NA
ATOM     52  C   UNL A   1      42.962  27.449  30.747  1.00  0.00     0.031 C 
ATOM     53  C   UNL A   1      42.817  30.295  36.110  1.00  0.00     0.029 A 
ATOM     54  C   UNL A   1      42.506  29.883  34.824  1.00  0.00     0.049 A 
ATOM     55  H   UNL A   1      40.988  30.583  33.536  1.00  0.00     0.167 HD
ATOM     56  C   UNL A   1      42.803  28.539  32.757  1.00  0.00     0.074 A 
ATOM     57  C   UNL A   1      43.472  27.526  31.968  1.00  0.00     0.031 C 
ATOM     58  C   UNL A   1      43.144  28.867  34.028  1.00  0.00     0.037 A 
BRANCH  45  59
ATOM     59  C   UNL A   1      39.688  33.353  36.509  1.00  0.00     0.064 A 
ATOM     60  C   UNL A   1      38.820  32.988  37.550  1.00  0.00     0.173 A 
ATOM     61  C   UNL A   1      40.319  34.603  36.590  1.00  0.00     0.173 A 
ATOM     62  F   UNL A   1      38.180  31.809  37.513  1.00  0.00    -0.203 F 
ATOM     63  C   UNL A   1      38.567  33.854  38.610  1.00  0.00     0.198 A 
ATOM     64  C   UNL A   1      40.089  35.453  37.670  1.00  0.00     0.198 A 
ATOM     65  F   UNL A   1      41.162  35.001  35.626  1.00  0.00    -0.203 F 
ATOM     66  F   UNL A   1      37.689  33.506  39.561  1.00  0.00    -0.200 F 
ATOM     67  C   UNL A   1      39.206  35.082  38.673  1.00  0.00     0.200 A 
ATOM     68  F   UNL A   1      40.717  36.636  37.735  1.00  0.00    -0.200 F 
ATOM     69  F   UNL A   1      38.964  35.914  39.696  1.00  0.00    -0.200 F 
ENDBRANCH  45  59
BRANCH  46  70
ATOM     70  C   UNL A   1      41.247  27.733  28.388  1.00  0.00     0.064 A 
ATOM     71  C   UNL A   1      42.133  28.173  27.394  1.00  0.00     0.173 A 
ATOM     72  C   UNL A   1      40.617  26.495  28.200  1.00  0.00     0.173 A 
ATOM     73  F   UNL A   1      42.746  29.359  27.521  1.00  0.00    -0.203 F 
ATOM     74  C   UNL A   1      42.363  27.415  26.248  1.00  0.00     0.198 A 
ATOM     75  C   UNL A   1      40.868  25.725  27.066  1.00  0.00     0.198 A 
ATOM     76  F   UNL A   1      39.768  26.025  29.126  1.00  0.00    -0.203 F 
ATOM     77  F   UNL A   1      43.182  27.879  25.295  1.00  0.00    -0.200 F 
ATOM     78  C   UNL A   1      41.735  26.189  26.088  1.00  0.00     0.200 A 
ATOM     79  F   UNL A   1      40.272  24.534  26.921  1.00  0.00    -0.200 F 
ATOM     80  F   UNL A   1      41.961  25.458  24.988  1.00  0.00    -0.200 F 
ENDBRANCH  46  70
BRANCH  58  81
ATOM     81  C   UNL A   1      44.257  28.085  34.663  1.00  0.00     0.064 A 
ATOM     82  C   UNL A   1      44.023  26.875  35.332  1.00  0.00     0.173 A 
ATOM     83  C   UNL A   1      45.581  28.540  34.569  1.00  0.00     0.173 A 
ATOM     84  F   UNL A   1      42.772  26.405  35.461  1.00  0.00    -0.203 F 
ATOM     85  C   UNL A   1      45.071  26.163  35.909  1.00  0.00     0.198 A 
ATOM     86  C   UNL A   1      46.630  27.810  35.121  1.00  0.00     0.198 A 
ATOM     87  F   UNL A   1      45.859  29.688  33.933  1.00  0.00    -0.203 F 
ATOM     88  F   UNL A   1      44.819  25.034  36.587  1.00  0.00    -0.200 F 
ATOM     89  C   UNL A   1      46.373  26.628  35.798  1.00  0.00     0.200 A 
ATOM     90  F   UNL A   1      47.889  28.253  35.001  1.00  0.00    -0.200 F 
ATOM     91  F   UNL A   1      47.382  25.939  36.350  1.00  0.00    -0.200 F 
ENDBRANCH  58  81
ENDBRANCH  32  33
ENDBRANCH  24  27
ENDBRANCH  22  23
ENDBRANCH  21  22
ENDBRANCH   1  21
TORSDOF 13
ENDMDL
