MODEL 1
REMARK VINA RESULT:     -12.4      0.000      0.000
REMARK SMILES COc1cc(NS(=O)(=O)c2cc(C)c(C(=O)NCCCNC(=O)c3ccc(-c4c5nc(c(-c6c(F)c(F)c(F)c(F)c6F)c6ccc([nH]6)c(-c6c(F)c(F)c(F)c(F)c6F)c6nc(c(-c7c(F)c(F)c(F)c(F)c7F)c7ccc4[nH]7)C=C6)C=C5)cc3)s2)cc(OC)c1
REMARK SMILES IDX 18 1 17 2 15 3 16 4 14 6 10 7 11 8 87 9 12 10 13 11 7 12
REMARK SMILES IDX 8 13 9 14 6 15 5 17 3 18 4 19 92 20 89 21 88 22 2 23 1 24
REMARK SMILES IDX 90 25 91 26 19 27 20 28 21 29 22 30 23 32 24 33 25 34 86 35
REMARK SMILES IDX 26 36 85 37 27 38 28 39 29 40 79 41 30 42 84 43 78 44 80 45
REMARK SMILES IDX 31 46 83 47 77 48 76 49 32 51 64 52 44 53 63 54 45 55 48 56
REMARK SMILES IDX 62 57 81 58 46 59 47 60 61 62 82 63 49 64 33 65 34 66 42 67
REMARK SMILES IDX 35 68 36 69 40 70 43 71 37 72 38 73 41 74 39 75 65 76 66 77
REMARK SMILES IDX 74 78 67 79 68 80 72 81 75 82 69 83 70 84 73 85 71 86 50 87
REMARK SMILES IDX 51 88 59 89 52 90 53 91 57 92 60 93 54 94 55 95 58 96 56 97
REMARK H PARENT 17 5 6 16 21 31 80 50 48 61
REMARK Flexibility Score: inf
ROOT
ATOM      1  C   UNL A   1      36.545  20.098  25.002  1.00  0.00     0.118 C 
ENDROOT
BRANCH   1   2
ATOM      2  N   UNL A   1      36.403  21.454  24.528  1.00  0.00    -0.351 N 
ATOM      3  C   UNL A   1      35.397  22.382  24.582  1.00  0.00     0.261 C 
ATOM      4  O   UNL A   1      35.734  23.472  24.099  1.00  0.00    -0.268 OA
ATOM      5  H   UNL A   1      37.207  21.786  24.065  1.00  0.00     0.163 HD
BRANCH   3   6
ATOM      6  C   UNL A   1      34.049  22.151  25.112  1.00  0.00     0.096 A 
ATOM      7  C   UNL A   1      31.915  22.988  26.065  1.00  0.00     0.141 A 
ATOM      8  C   UNL A   1      31.768  21.745  25.499  1.00  0.00     0.038 A 
ATOM      9  S   UNL A   1      33.559  23.318  26.335  1.00  0.00    -0.116 S 
ATOM     10  C   UNL A   1      32.968  21.309  24.824  1.00  0.00    -0.026 A 
ATOM     11  C   UNL A   1      32.851  20.207  23.827  1.00  0.00     0.046 C 
BRANCH   7  12
ATOM     12  S   UNL A   1      30.737  24.260  26.411  1.00  0.00     0.271 S 
ATOM     13  O   UNL A   1      31.506  25.402  26.861  1.00  0.00    -0.200 OA
ATOM     14  O   UNL A   1      29.769  23.626  27.298  1.00  0.00    -0.200 OA
BRANCH  12  15
ATOM     15  N   UNL A   1      29.910  24.731  25.014  1.00  0.00    -0.279 N 
ATOM     16  H   UNL A   1      29.081  24.258  24.776  1.00  0.00     0.180 HD
BRANCH  15  17
ATOM     17  C   UNL A   1      30.367  25.795  24.156  1.00  0.00     0.056 A 
ATOM     18  C   UNL A   1      29.934  27.817  22.889  1.00  0.00     0.124 A 
ATOM     19  C   UNL A   1      29.641  26.964  23.950  1.00  0.00     0.073 A 
ATOM     20  C   UNL A   1      31.014  27.575  22.054  1.00  0.00     0.093 A 
ATOM     21  C   UNL A   1      31.779  26.428  22.258  1.00  0.00     0.124 A 
ATOM     22  C   UNL A   1      31.434  25.534  23.288  1.00  0.00     0.073 A 
BRANCH  18  23
ATOM     23  O   UNL A   1      29.115  28.898  22.686  1.00  0.00    -0.497 OA
ATOM     24  C   UNL A   1      29.574  30.008  23.465  1.00  0.00     0.278 C 
ENDBRANCH  18  23
BRANCH  21  25
ATOM     25  O   UNL A   1      32.857  26.054  21.503  1.00  0.00    -0.497 OA
ATOM     26  C   UNL A   1      32.575  25.480  20.231  1.00  0.00     0.278 C 
ENDBRANCH  21  25
ENDBRANCH  15  17
ENDBRANCH  12  15
ENDBRANCH   7  12
ENDBRANCH   3   6
ENDBRANCH   1   2
BRANCH   1  27
ATOM     27  C   UNL A   1      37.962  19.575  24.757  1.00  0.00     0.042 C 
BRANCH  27  28
ATOM     28  C   UNL A   1      38.999  20.075  25.760  1.00  0.00     0.118 C 
BRANCH  28  29
ATOM     29  N   UNL A   1      40.101  19.140  25.912  1.00  0.00    -0.352 N 
ATOM     30  C   UNL A   1      41.448  19.359  26.058  1.00  0.00     0.251 C 
ATOM     31  H   UNL A   1      39.837  18.191  25.911  1.00  0.00     0.163 HD
ATOM     32  O   UNL A   1      42.219  18.410  25.929  1.00  0.00    -0.269 OA
BRANCH  30  33
ATOM     33  C   UNL A   1      42.000  20.701  26.364  1.00  0.00     0.039 A 
ATOM     34  C   UNL A   1      42.189  21.051  27.708  1.00  0.00     0.014 A 
ATOM     35  C   UNL A   1      42.240  21.651  25.368  1.00  0.00     0.014 A 
ATOM     36  C   UNL A   1      42.649  22.328  28.047  1.00  0.00     0.010 A 
ATOM     37  C   UNL A   1      42.757  22.905  25.703  1.00  0.00     0.010 A 
ATOM     38  C   UNL A   1      42.953  23.262  27.045  1.00  0.00    -0.014 A 
BRANCH  38  39
ATOM     39  C   UNL A   1      43.445  24.623  27.385  1.00  0.00     0.031 A 
ATOM     40  C   UNL A   1      42.505  25.645  27.965  1.00  0.00     0.074 A 
ATOM     41  C   UNL A   1      44.721  24.962  27.120  1.00  0.00     0.049 A 
ATOM     42  N   UNL A   1      42.718  26.908  28.237  1.00  0.00    -0.248 NA
ATOM     43  C   UNL A   1      41.138  25.190  28.260  1.00  0.00     0.031 C 
ATOM     44  C   UNL A   1      45.725  24.077  26.529  1.00  0.00     0.029 A 
ATOM     45  N   UNL A   1      45.387  26.148  27.301  1.00  0.00    -0.354 N 
ATOM     46  C   UNL A   1      41.507  27.404  28.703  1.00  0.00     0.074 A 
ATOM     47  C   UNL A   1      40.556  26.314  28.652  1.00  0.00     0.031 C 
ATOM     48  C   UNL A   1      46.883  24.746  26.407  1.00  0.00     0.029 A 
ATOM     49  C   UNL A   1      46.695  26.115  26.881  1.00  0.00     0.049 A 
ATOM     50  H   UNL A   1      44.968  26.948  27.694  1.00  0.00     0.167 HD
ATOM     51  C   UNL A   1      41.218  28.651  29.147  1.00  0.00     0.037 A 
ATOM     52  C   UNL A   1      47.633  27.080  26.870  1.00  0.00     0.037 A 
ATOM     53  C   UNL A   1      42.172  29.725  29.241  1.00  0.00     0.049 A 
ATOM     54  C   UNL A   1      47.294  28.448  27.395  1.00  0.00     0.074 A 
ATOM     55  C   UNL A   1      41.987  31.004  29.736  1.00  0.00     0.029 A 
ATOM     56  N   UNL A   1      43.496  29.640  28.838  1.00  0.00    -0.354 N 
ATOM     57  N   UNL A   1      46.157  28.893  27.870  1.00  0.00    -0.248 NA
ATOM     58  C   UNL A   1      48.373  29.448  27.385  1.00  0.00     0.031 C 
ATOM     59  C   UNL A   1      43.193  31.703  29.608  1.00  0.00     0.029 A 
ATOM     60  C   UNL A   1      44.137  30.847  29.063  1.00  0.00     0.049 A 
ATOM     61  H   UNL A   1      43.919  28.839  28.450  1.00  0.00     0.167 HD
ATOM     62  C   UNL A   1      46.386  30.212  28.234  1.00  0.00     0.074 A 
ATOM     63  C   UNL A   1      47.775  30.495  27.935  1.00  0.00     0.031 C 
ATOM     64  C   UNL A   1      45.522  31.109  28.768  1.00  0.00     0.037 A 
BRANCH  51  65
ATOM     65  C   UNL A   1      39.805  28.925  29.569  1.00  0.00     0.064 A 
ATOM     66  C   UNL A   1      39.383  28.727  30.892  1.00  0.00     0.173 A 
ATOM     67  C   UNL A   1      38.872  29.424  28.648  1.00  0.00     0.173 A 
ATOM     68  F   UNL A   1      40.235  28.239  31.806  1.00  0.00    -0.203 F 
ATOM     69  C   UNL A   1      38.070  28.994  31.271  1.00  0.00     0.198 A 
ATOM     70  C   UNL A   1      37.567  29.714  29.037  1.00  0.00     0.198 A 
ATOM     71  F   UNL A   1      39.228  29.636  27.372  1.00  0.00    -0.203 F 
ATOM     72  F   UNL A   1      37.676  28.757  32.530  1.00  0.00    -0.200 F 
ATOM     73  C   UNL A   1      37.165  29.492  30.345  1.00  0.00     0.200 A 
ATOM     74  F   UNL A   1      36.696  30.204  28.144  1.00  0.00    -0.200 F 
ATOM     75  F   UNL A   1      35.903  29.753  30.713  1.00  0.00    -0.200 F 
ENDBRANCH  51  65
BRANCH  52  76
ATOM     76  C   UNL A   1      48.995  26.777  26.366  1.00  0.00     0.064 A 
ATOM     77  C   UNL A   1      49.977  26.261  27.223  1.00  0.00     0.173 A 
ATOM     78  C   UNL A   1      49.340  26.988  25.025  1.00  0.00     0.173 A 
ATOM     79  F   UNL A   1      49.697  26.064  28.519  1.00  0.00    -0.203 F 
ATOM     80  C   UNL A   1      51.259  25.977  26.758  1.00  0.00     0.198 A 
ATOM     81  C   UNL A   1      50.617  26.684  24.555  1.00  0.00     0.198 A 
ATOM     82  F   UNL A   1      48.433  27.478  24.167  1.00  0.00    -0.203 F 
ATOM     83  F   UNL A   1      52.190  25.516  27.603  1.00  0.00    -0.200 F 
ATOM     84  C   UNL A   1      51.576  26.184  25.423  1.00  0.00     0.200 A 
ATOM     85  F   UNL A   1      50.916  26.875  23.263  1.00  0.00    -0.200 F 
ATOM     86  F   UNL A   1      52.807  25.905  24.974  1.00  0.00    -0.200 F 
ENDBRANCH  52  76
BRANCH  64  87
ATOM     87  C   UNL A   1      46.059  32.470  29.088  1.00  0.00     0.064 A 
ATOM     88  C   UNL A   1      45.984  33.522  28.163  1.00  0.00     0.173 A 
ATOM     89  C   UNL A   1      46.618  32.735  30.346  1.00  0.00     0.173 A 
ATOM     90  F   UNL A   1      45.471  33.311  26.942  1.00  0.00    -0.203 F 
ATOM     91  C   UNL A   1      46.467  34.788  28.482  1.00  0.00     0.198 A 
ATOM     92  C   UNL A   1      47.082  34.008  30.669  1.00  0.00     0.198 A 
ATOM     93  F   UNL A   1      46.708  31.762  31.264  1.00  0.00    -0.203 F 
ATOM     94  F   UNL A   1      46.419  35.770  27.571  1.00  0.00    -0.200 F 
ATOM     95  C   UNL A   1      47.010  35.031  29.735  1.00  0.00     0.200 A 
ATOM     96  F   UNL A   1      47.599  34.243  31.883  1.00  0.00    -0.200 F 
ATOM     97  F   UNL A   1      47.472  36.252  30.041  1.00  0.00    -0.200 F 
ENDBRANCH  64  87
ENDBRANCH  38  39
ENDBRANCH  30  33
ENDBRANCH  28  29
ENDBRANCH  27  28
ENDBRANCH   1  27
TORSDOF 15
ENDMDL
MODEL 2
REMARK VINA RESULT:     -12.4      5.423     11.070
REMARK SMILES COc1cc(NS(=O)(=O)c2cc(C)c(C(=O)NCCCNC(=O)c3ccc(-c4c5nc(c(-c6c(F)c(F)c(F)c(F)c6F)c6ccc([nH]6)c(-c6c(F)c(F)c(F)c(F)c6F)c6nc(c(-c7c(F)c(F)c(F)c(F)c7F)c7ccc4[nH]7)C=C6)C=C5)cc3)s2)cc(OC)c1
REMARK SMILES IDX 18 1 17 2 15 3 16 4 14 6 10 7 11 8 87 9 12 10 13 11 7 12
REMARK SMILES IDX 8 13 9 14 6 15 5 17 3 18 4 19 92 20 89 21 88 22 2 23 1 24
REMARK SMILES IDX 90 25 91 26 19 27 20 28 21 29 22 30 23 32 24 33 25 34 86 35
REMARK SMILES IDX 26 36 85 37 27 38 28 39 29 40 79 41 30 42 84 43 78 44 80 45
REMARK SMILES IDX 31 46 83 47 77 48 76 49 32 51 64 52 44 53 63 54 45 55 48 56
REMARK SMILES IDX 62 57 81 58 46 59 47 60 61 62 82 63 49 64 33 65 34 66 42 67
REMARK SMILES IDX 35 68 36 69 40 70 43 71 37 72 38 73 41 74 39 75 65 76 66 77
REMARK SMILES IDX 74 78 67 79 68 80 72 81 75 82 69 83 70 84 73 85 71 86 50 87
REMARK SMILES IDX 51 88 59 89 52 90 53 91 57 92 60 93 54 94 55 95 58 96 56 97
REMARK H PARENT 17 5 6 16 21 31 80 50 48 61
REMARK Flexibility Score: inf
ROOT
ATOM      1  C   UNL A   1      31.515  30.717  26.175  1.00  0.00     0.118 C 
ENDROOT
BRANCH   1   2
ATOM      2  N   UNL A   1      30.903  30.496  24.886  1.00  0.00    -0.351 N 
ATOM      3  C   UNL A   1      30.936  29.470  23.979  1.00  0.00     0.261 C 
ATOM      4  O   UNL A   1      30.189  29.671  23.012  1.00  0.00    -0.268 OA
ATOM      5  H   UNL A   1      30.337  31.248  24.594  1.00  0.00     0.163 HD
BRANCH   3   6
ATOM      6  C   UNL A   1      31.767  28.265  24.081  1.00  0.00     0.096 A 
ATOM      7  C   UNL A   1      32.013  25.798  24.185  1.00  0.00     0.141 A 
ATOM      8  C   UNL A   1      33.174  26.409  23.777  1.00  0.00     0.038 A 
ATOM      9  S   UNL A   1      30.980  26.931  24.914  1.00  0.00    -0.116 S 
ATOM     10  C   UNL A   1      33.001  27.830  23.584  1.00  0.00    -0.026 A 
ATOM     11  C   UNL A   1      34.012  28.554  22.762  1.00  0.00     0.046 C 
BRANCH   7  12
ATOM     12  S   UNL A   1      31.424  24.146  23.963  1.00  0.00     0.271 S 
ATOM     13  O   UNL A   1      30.221  24.257  23.163  1.00  0.00    -0.200 OA
ATOM     14  O   UNL A   1      31.365  23.597  25.312  1.00  0.00    -0.200 OA
BRANCH  12  15
ATOM     15  N   UNL A   1      32.525  23.211  23.085  1.00  0.00    -0.279 N 
ATOM     16  H   UNL A   1      32.780  23.509  22.182  1.00  0.00     0.180 HD
BRANCH  15  17
ATOM     17  C   UNL A   1      33.106  21.997  23.601  1.00  0.00     0.056 A 
ATOM     18  C   UNL A   1      32.863  19.755  24.492  1.00  0.00     0.124 A 
ATOM     19  C   UNL A   1      32.396  20.806  23.705  1.00  0.00     0.073 A 
ATOM     20  C   UNL A   1      34.093  19.830  25.127  1.00  0.00     0.093 A 
ATOM     21  C   UNL A   1      34.840  21.000  25.013  1.00  0.00     0.124 A 
ATOM     22  C   UNL A   1      34.331  22.084  24.275  1.00  0.00     0.073 A 
BRANCH  18  23
ATOM     23  O   UNL A   1      32.064  18.649  24.630  1.00  0.00    -0.497 OA
ATOM     24  C   UNL A   1      32.876  17.481  24.793  1.00  0.00     0.278 C 
ENDBRANCH  18  23
BRANCH  21  25
ATOM     25  O   UNL A   1      36.057  21.220  25.599  1.00  0.00    -0.497 OA
ATOM     26  C   UNL A   1      37.200  20.767  24.880  1.00  0.00     0.278 C 
ENDBRANCH  21  25
ENDBRANCH  15  17
ENDBRANCH  12  15
ENDBRANCH   7  12
ENDBRANCH   3   6
ENDBRANCH   1   2
BRANCH   1  27
ATOM     27  C   UNL A   1      31.424  32.189  26.581  1.00  0.00     0.042 C 
BRANCH  27  28
ATOM     28  C   UNL A   1      32.729  32.777  27.114  1.00  0.00     0.118 C 
BRANCH  28  29
ATOM     29  N   UNL A   1      32.556  34.139  27.591  1.00  0.00    -0.352 N 
ATOM     30  C   UNL A   1      33.101  34.786  28.671  1.00  0.00     0.251 C 
ATOM     31  H   UNL A   1      31.947  34.690  27.046  1.00  0.00     0.163 HD
ATOM     32  O   UNL A   1      32.625  35.866  29.016  1.00  0.00    -0.269 OA
BRANCH  30  33
ATOM     33  C   UNL A   1      34.242  34.224  29.434  1.00  0.00     0.039 A 
ATOM     34  C   UNL A   1      35.540  34.471  28.967  1.00  0.00     0.014 A 
ATOM     35  C   UNL A   1      34.059  33.382  30.534  1.00  0.00     0.014 A 
ATOM     36  C   UNL A   1      36.644  33.910  29.618  1.00  0.00     0.010 A 
ATOM     37  C   UNL A   1      35.163  32.872  31.220  1.00  0.00     0.010 A 
ATOM     38  C   UNL A   1      36.465  33.118  30.761  1.00  0.00    -0.014 A 
BRANCH  38  39
ATOM     39  C   UNL A   1      37.625  32.515  31.469  1.00  0.00     0.031 A 
ATOM     40  C   UNL A   1      38.381  31.373  30.846  1.00  0.00     0.074 A 
ATOM     41  C   UNL A   1      37.966  32.953  32.696  1.00  0.00     0.049 A 
ATOM     42  N   UNL A   1      39.355  30.652  31.345  1.00  0.00    -0.248 NA
ATOM     43  C   UNL A   1      37.973  30.973  29.491  1.00  0.00     0.031 C 
ATOM     44  C   UNL A   1      37.296  34.030  33.425  1.00  0.00     0.029 A 
ATOM     45  N   UNL A   1      38.954  32.535  33.552  1.00  0.00    -0.354 N 
ATOM     46  C   UNL A   1      39.653  29.699  30.379  1.00  0.00     0.074 A 
ATOM     47  C   UNL A   1      38.740  29.914  29.277  1.00  0.00     0.031 C 
ATOM     48  C   UNL A   1      37.899  34.196  34.613  1.00  0.00     0.029 A 
ATOM     49  C   UNL A   1      38.976  33.219  34.743  1.00  0.00     0.049 A 
ATOM     50  H   UNL A   1      39.587  31.813  33.334  1.00  0.00     0.167 HD
ATOM     51  C   UNL A   1      40.611  28.741  30.403  1.00  0.00     0.037 A 
ATOM     52  C   UNL A   1      39.768  33.069  35.821  1.00  0.00     0.037 A 
ATOM     53  C   UNL A   1      41.550  28.553  31.478  1.00  0.00     0.049 A 
ATOM     54  C   UNL A   1      40.842  32.017  35.811  1.00  0.00     0.074 A 
ATOM     55  C   UNL A   1      42.595  27.650  31.565  1.00  0.00     0.029 A 
ATOM     56  N   UNL A   1      41.561  29.290  32.652  1.00  0.00    -0.354 N 
ATOM     57  N   UNL A   1      41.140  31.149  34.876  1.00  0.00    -0.248 NA
ATOM     58  C   UNL A   1      41.693  31.927  37.007  1.00  0.00     0.031 C 
ATOM     59  C   UNL A   1      43.223  27.822  32.803  1.00  0.00     0.029 A 
ATOM     60  C   UNL A   1      42.588  28.855  33.474  1.00  0.00     0.049 A 
ATOM     61  H   UNL A   1      40.932  30.017  32.870  1.00  0.00     0.167 HD
ATOM     62  C   UNL A   1      42.221  30.426  35.358  1.00  0.00     0.074 A 
ATOM     63  C   UNL A   1      42.537  30.962  36.665  1.00  0.00     0.031 C 
ATOM     64  C   UNL A   1      42.893  29.407  34.768  1.00  0.00     0.037 A 
BRANCH  51  65
ATOM     65  C   UNL A   1      40.695  27.817  29.225  1.00  0.00     0.064 A 
ATOM     66  C   UNL A   1      41.633  28.015  28.202  1.00  0.00     0.173 A 
ATOM     67  C   UNL A   1      39.849  26.701  29.135  1.00  0.00     0.173 A 
ATOM     68  F   UNL A   1      42.454  29.075  28.236  1.00  0.00    -0.203 F 
ATOM     69  C   UNL A   1      41.705  27.143  27.118  1.00  0.00     0.198 A 
ATOM     70  C   UNL A   1      39.941  25.817  28.064  1.00  0.00     0.198 A 
ATOM     71  F   UNL A   1      38.938  26.464  30.091  1.00  0.00    -0.203 F 
ATOM     72  F   UNL A   1      42.581  27.375  26.130  1.00  0.00    -0.200 F 
ATOM     73  C   UNL A   1      40.863  26.042  27.053  1.00  0.00     0.200 A 
ATOM     74  F   UNL A   1      39.133  24.749  28.006  1.00  0.00    -0.200 F 
ATOM     75  F   UNL A   1      40.936  25.202  26.012  1.00  0.00    -0.200 F 
ENDBRANCH  51  65
BRANCH  52  76
ATOM     76  C   UNL A   1      39.590  33.959  36.995  1.00  0.00     0.064 A 
ATOM     77  C   UNL A   1      38.805  33.559  38.085  1.00  0.00     0.173 A 
ATOM     78  C   UNL A   1      40.201  35.218  37.055  1.00  0.00     0.173 A 
ATOM     79  F   UNL A   1      38.182  32.371  38.060  1.00  0.00    -0.203 F 
ATOM     80  C   UNL A   1      38.629  34.390  39.188  1.00  0.00     0.198 A 
ATOM     81  C   UNL A   1      40.043  36.041  38.169  1.00  0.00     0.198 A 
ATOM     82  F   UNL A   1      40.964  35.644  36.037  1.00  0.00    -0.203 F 
ATOM     83  F   UNL A   1      37.847  33.999  40.202  1.00  0.00    -0.200 F 
ATOM     84  C   UNL A   1      39.253  35.628  39.232  1.00  0.00     0.200 A 
ATOM     85  F   UNL A   1      40.655  37.232  38.212  1.00  0.00    -0.200 F 
ATOM     86  F   UNL A   1      39.089  36.426  40.295  1.00  0.00    -0.200 F 
ENDBRANCH  52  76
BRANCH  64  87
ATOM     87  C   UNL A   1      44.050  28.824  35.520  1.00  0.00     0.064 A 
ATOM     88  C   UNL A   1      45.354  29.309  35.347  1.00  0.00     0.173 A 
ATOM     89  C   UNL A   1      43.846  27.796  36.453  1.00  0.00     0.173 A 
ATOM     90  F   UNL A   1      45.600  30.280  34.456  1.00  0.00    -0.203 F 
ATOM     91  C   UNL A   1      46.417  28.773  36.069  1.00  0.00     0.198 A 
ATOM     92  C   UNL A   1      44.907  27.276  37.188  1.00  0.00     0.198 A 
ATOM     93  F   UNL A   1      42.615  27.302  36.655  1.00  0.00    -0.203 F 
ATOM     94  F   UNL A   1      47.661  29.226  35.863  1.00  0.00    -0.200 F 
ATOM     95  C   UNL A   1      46.192  27.762  36.993  1.00  0.00     0.200 A 
ATOM     96  F   UNL A   1      44.688  26.305  38.085  1.00  0.00    -0.200 F 
ATOM     97  F   UNL A   1      47.216  27.249  37.689  1.00  0.00    -0.200 F 
ENDBRANCH  64  87
ENDBRANCH  38  39
ENDBRANCH  30  33
ENDBRANCH  28  29
ENDBRANCH  27  28
ENDBRANCH   1  27
TORSDOF 15
ENDMDL
MODEL 3
REMARK VINA RESULT:     -12.4      5.373     11.029
REMARK SMILES COc1cc(NS(=O)(=O)c2cc(C)c(C(=O)NCCCNC(=O)c3ccc(-c4c5nc(c(-c6c(F)c(F)c(F)c(F)c6F)c6ccc([nH]6)c(-c6c(F)c(F)c(F)c(F)c6F)c6nc(c(-c7c(F)c(F)c(F)c(F)c7F)c7ccc4[nH]7)C=C6)C=C5)cc3)s2)cc(OC)c1
REMARK SMILES IDX 18 1 17 2 15 3 16 4 14 6 10 7 11 8 87 9 12 10 13 11 7 12
REMARK SMILES IDX 8 13 9 14 6 15 5 17 3 18 4 19 92 20 89 21 88 22 2 23 1 24
REMARK SMILES IDX 90 25 91 26 19 27 20 28 21 29 22 30 23 32 24 33 25 34 86 35
REMARK SMILES IDX 26 36 85 37 27 38 28 39 29 40 79 41 30 42 84 43 78 44 80 45
REMARK SMILES IDX 31 46 83 47 77 48 76 49 32 51 64 52 44 53 63 54 45 55 48 56
REMARK SMILES IDX 62 57 81 58 46 59 47 60 61 62 82 63 49 64 33 65 34 66 42 67
REMARK SMILES IDX 35 68 36 69 40 70 43 71 37 72 38 73 41 74 39 75 65 76 66 77
REMARK SMILES IDX 74 78 67 79 68 80 72 81 75 82 69 83 70 84 73 85 71 86 50 87
REMARK SMILES IDX 51 88 59 89 52 90 53 91 57 92 60 93 54 94 55 95 58 96 56 97
REMARK H PARENT 17 5 6 16 21 31 80 50 48 61
REMARK Flexibility Score: inf
ROOT
ATOM      1  C   UNL A   1      31.650  30.806  26.580  1.00  0.00     0.118 C 
ENDROOT
BRANCH   1   2
ATOM      2  N   UNL A   1      31.378  30.417  25.216  1.00  0.00    -0.351 N 
ATOM      3  C   UNL A   1      31.283  29.212  24.571  1.00  0.00     0.261 C 
ATOM      4  O   UNL A   1      30.955  29.339  23.383  1.00  0.00    -0.268 OA
ATOM      5  H   UNL A   1      31.226  31.186  24.619  1.00  0.00     0.163 HD
BRANCH   3   6
ATOM      6  C   UNL A   1      31.558  27.900  25.165  1.00  0.00     0.096 A 
ATOM      7  C   UNL A   1      31.432  25.422  25.115  1.00  0.00     0.141 A 
ATOM      8  C   UNL A   1      32.438  25.864  25.939  1.00  0.00     0.038 A 
ATOM      9  S   UNL A   1      30.343  26.684  24.789  1.00  0.00    -0.116 S 
ATOM     10  C   UNL A   1      32.606  27.297  25.870  1.00  0.00    -0.026 A 
ATOM     11  C   UNL A   1      33.889  27.876  26.361  1.00  0.00     0.046 C 
BRANCH   7  12
ATOM     12  S   UNL A   1      31.190  23.874  24.295  1.00  0.00     0.271 S 
ATOM     13  O   UNL A   1      30.222  24.126  23.247  1.00  0.00    -0.200 OA
ATOM     14  O   UNL A   1      30.886  22.938  25.371  1.00  0.00    -0.200 OA
BRANCH  12  15
ATOM     15  N   UNL A   1      32.610  23.343  23.549  1.00  0.00    -0.279 N 
ATOM     16  H   UNL A   1      33.046  23.933  22.893  1.00  0.00     0.180 HD
BRANCH  15  17
ATOM     17  C   UNL A   1      33.210  22.063  23.831  1.00  0.00     0.056 A 
ATOM     18  C   UNL A   1      33.005  19.681  24.241  1.00  0.00     0.124 A 
ATOM     19  C   UNL A   1      32.533  20.859  23.666  1.00  0.00     0.073 A 
ATOM     20  C   UNL A   1      34.211  19.653  24.924  1.00  0.00     0.093 A 
ATOM     21  C   UNL A   1      34.926  20.839  25.076  1.00  0.00     0.124 A 
ATOM     22  C   UNL A   1      34.409  22.038  24.554  1.00  0.00     0.073 A 
BRANCH  18  23
ATOM     23  O   UNL A   1      32.235  18.553  24.123  1.00  0.00    -0.497 OA
ATOM     24  C   UNL A   1      33.023  17.481  23.592  1.00  0.00     0.278 C 
ENDBRANCH  18  23
BRANCH  21  25
ATOM     25  O   UNL A   1      36.117  20.963  25.740  1.00  0.00    -0.497 OA
ATOM     26  C   UNL A   1      37.277  21.152  24.935  1.00  0.00     0.278 C 
ENDBRANCH  21  25
ENDBRANCH  15  17
ENDBRANCH  12  15
ENDBRANCH   7  12
ENDBRANCH   3   6
ENDBRANCH   1   2
BRANCH   1  27
ATOM     27  C   UNL A   1      31.478  32.316  26.765  1.00  0.00     0.042 C 
BRANCH  27  28
ATOM     28  C   UNL A   1      32.782  33.071  27.016  1.00  0.00     0.118 C 
BRANCH  28  29
ATOM     29  N   UNL A   1      32.547  34.369  27.626  1.00  0.00    -0.352 N 
ATOM     30  C   UNL A   1      33.048  34.922  28.778  1.00  0.00     0.251 C 
ATOM     31  H   UNL A   1      31.926  34.950  27.129  1.00  0.00     0.163 HD
ATOM     32  O   UNL A   1      32.525  35.942  29.222  1.00  0.00    -0.269 OA
BRANCH  30  33
ATOM     33  C   UNL A   1      34.199  34.327  29.501  1.00  0.00     0.039 A 
ATOM     34  C   UNL A   1      35.488  34.553  29.000  1.00  0.00     0.014 A 
ATOM     35  C   UNL A   1      34.029  33.477  30.597  1.00  0.00     0.014 A 
ATOM     36  C   UNL A   1      36.598  33.961  29.614  1.00  0.00     0.010 A 
ATOM     37  C   UNL A   1      35.141  32.935  31.246  1.00  0.00     0.010 A 
ATOM     38  C   UNL A   1      36.435  33.160  30.753  1.00  0.00    -0.014 A 
BRANCH  38  39
ATOM     39  C   UNL A   1      37.601  32.525  31.421  1.00  0.00     0.031 A 
ATOM     40  C   UNL A   1      38.345  31.406  30.743  1.00  0.00     0.074 A 
ATOM     41  C   UNL A   1      37.959  32.911  32.660  1.00  0.00     0.049 A 
ATOM     42  N   UNL A   1      39.322  30.663  31.199  1.00  0.00    -0.248 NA
ATOM     43  C   UNL A   1      37.919  31.064  29.378  1.00  0.00     0.031 C 
ATOM     44  C   UNL A   1      37.303  33.960  33.441  1.00  0.00     0.029 A 
ATOM     45  N   UNL A   1      38.957  32.456  33.486  1.00  0.00    -0.354 N 
ATOM     46  C   UNL A   1      39.605  29.749  30.192  1.00  0.00     0.074 A 
ATOM     47  C   UNL A   1      38.678  30.011  29.111  1.00  0.00     0.031 C 
ATOM     48  C   UNL A   1      37.921  34.077  34.627  1.00  0.00     0.029 A 
ATOM     49  C   UNL A   1      38.996  33.091  34.704  1.00  0.00     0.049 A 
ATOM     50  H   UNL A   1      39.584  31.742  33.231  1.00  0.00     0.167 HD
ATOM     51  C   UNL A   1      40.559  28.788  30.165  1.00  0.00     0.037 A 
ATOM     52  C   UNL A   1      39.801  32.895  35.765  1.00  0.00     0.037 A 
ATOM     53  C   UNL A   1      41.511  28.553  31.219  1.00  0.00     0.049 A 
ATOM     54  C   UNL A   1      40.871  31.841  35.698  1.00  0.00     0.074 A 
ATOM     55  C   UNL A   1      42.553  27.643  31.256  1.00  0.00     0.029 A 
ATOM     56  N   UNL A   1      41.540  29.242  32.422  1.00  0.00    -0.354 N 
ATOM     57  N   UNL A   1      41.154  31.010  34.725  1.00  0.00    -0.248 NA
ATOM     58  C   UNL A   1      41.737  31.699  36.878  1.00  0.00     0.031 C 
ATOM     59  C   UNL A   1      43.197  27.764  32.493  1.00  0.00     0.029 A 
ATOM     60  C   UNL A   1      42.575  28.771  33.212  1.00  0.00     0.049 A 
ATOM     61  H   UNL A   1      40.916  29.961  32.677  1.00  0.00     0.167 HD
ATOM     62  C   UNL A   1      42.238  30.265  35.163  1.00  0.00     0.074 A 
ATOM     63  C   UNL A   1      42.572  30.747  36.487  1.00  0.00     0.031 C 
ATOM     64  C   UNL A   1      42.898  29.268  34.524  1.00  0.00     0.037 A 
BRANCH  51  65
ATOM     65  C   UNL A   1      40.624  27.912  28.949  1.00  0.00     0.064 A 
ATOM     66  C   UNL A   1      39.861  26.740  28.846  1.00  0.00     0.173 A 
ATOM     67  C   UNL A   1      41.433  28.268  27.859  1.00  0.00     0.173 A 
ATOM     68  F   UNL A   1      39.082  26.351  29.867  1.00  0.00    -0.203 F 
ATOM     69  C   UNL A   1      39.924  25.942  27.707  1.00  0.00     0.198 A 
ATOM     70  C   UNL A   1      41.476  27.481  26.712  1.00  0.00     0.198 A 
ATOM     71  F   UNL A   1      42.179  29.382  27.906  1.00  0.00    -0.203 F 
ATOM     72  F   UNL A   1      39.219  24.804  27.647  1.00  0.00    -0.200 F 
ATOM     73  C   UNL A   1      40.727  26.316  26.639  1.00  0.00     0.200 A 
ATOM     74  F   UNL A   1      42.244  27.847  25.677  1.00  0.00    -0.200 F 
ATOM     75  F   UNL A   1      40.784  25.549  25.541  1.00  0.00    -0.200 F 
ENDBRANCH  51  65
BRANCH  52  76
ATOM     76  C   UNL A   1      39.641  33.738  36.975  1.00  0.00     0.064 A 
ATOM     77  C   UNL A   1      40.356  34.935  37.114  1.00  0.00     0.173 A 
ATOM     78  C   UNL A   1      38.770  33.371  38.009  1.00  0.00     0.173 A 
ATOM     79  F   UNL A   1      41.218  35.314  36.159  1.00  0.00    -0.203 F 
ATOM     80  C   UNL A   1      40.214  35.729  38.249  1.00  0.00     0.198 A 
ATOM     81  C   UNL A   1      38.612  34.177  39.135  1.00  0.00     0.198 A 
ATOM     82  F   UNL A   1      38.062  32.234  37.920  1.00  0.00    -0.203 F 
ATOM     83  F   UNL A   1      40.933  36.852  38.374  1.00  0.00    -0.200 F 
ATOM     84  C   UNL A   1      39.337  35.352  39.256  1.00  0.00     0.200 A 
ATOM     85  F   UNL A   1      37.757  33.814  40.101  1.00  0.00    -0.200 F 
ATOM     86  F   UNL A   1      39.196  36.119  40.345  1.00  0.00    -0.200 F 
ENDBRANCH  52  76
BRANCH  64  87
ATOM     87  C   UNL A   1      44.063  28.652  35.237  1.00  0.00     0.064 A 
ATOM     88  C   UNL A   1      43.904  27.531  36.064  1.00  0.00     0.173 A 
ATOM     89  C   UNL A   1      45.356  29.164  35.060  1.00  0.00     0.173 A 
ATOM     90  F   UNL A   1      42.684  27.016  36.276  1.00  0.00    -0.203 F 
ATOM     91  C   UNL A   1      44.998  26.955  36.704  1.00  0.00     0.198 A 
ATOM     92  C   UNL A   1      46.452  28.573  35.684  1.00  0.00     0.198 A 
ATOM     93  F   UNL A   1      45.558  30.233  34.275  1.00  0.00    -0.203 F 
ATOM     94  F   UNL A   1      44.821  25.906  37.519  1.00  0.00    -0.200 F 
ATOM     95  C   UNL A   1      46.271  27.472  36.508  1.00  0.00     0.200 A 
ATOM     96  F   UNL A   1      47.681  29.070  35.489  1.00  0.00    -0.200 F 
ATOM     97  F   UNL A   1      47.324  26.915  37.122  1.00  0.00    -0.200 F 
ENDBRANCH  64  87
ENDBRANCH  38  39
ENDBRANCH  30  33
ENDBRANCH  28  29
ENDBRANCH  27  28
ENDBRANCH   1  27
TORSDOF 15
ENDMDL
