MODEL 1
REMARK VINA RESULT:     -14.2      0.000      0.000
REMARK SMILES Cc1nn2c(nnc3c(=O)n(CCCC(=O)NCCCNC(=O)c4ccc(-c5c6nc(c(-c7c(F)c(F)c(F)c(F)c7F)c7ccc([nH]7)c(-c7c(F)c(F)c(F)c(F)c7F)c7nc(c(-c8c(F)c(F)c(F)c(F)c8F)c8ccc5[nH]8)C=C7)C=C6)cc4)ccc32)c1-c1ccc(F)cc1
REMARK SMILES IDX 18 1 17 2 15 3 16 4 14 6 13 7 12 8 11 9 1 10 2 11 3 12 90 13
REMARK SMILES IDX 4 14 5 15 89 16 6 17 8 18 88 19 7 20 9 21 87 22 10 23 91 24
REMARK SMILES IDX 92 25 97 26 93 27 96 28 94 29 95 30 19 31 20 32 21 33 22 34
REMARK SMILES IDX 23 36 24 37 25 38 86 39 26 40 85 41 27 42 28 43 29 44 79 45
REMARK SMILES IDX 30 46 84 47 78 48 80 49 31 50 83 51 77 52 76 53 32 55 64 56
REMARK SMILES IDX 44 57 63 58 45 59 48 60 62 61 81 62 46 63 47 64 61 66 82 67
REMARK SMILES IDX 49 68 33 69 34 70 42 71 35 72 36 73 40 74 43 75 37 76 38 77
REMARK SMILES IDX 41 78 39 79 65 80 66 81 74 82 67 83 68 84 72 85 75 86 69 87
REMARK SMILES IDX 70 88 73 89 71 90 50 91 51 92 59 93 52 94 53 95 57 96 60 97
REMARK SMILES IDX 54 98 55 99 58 100 56 101
REMARK H PARENT 17 5 21 35 80 54 48 65
REMARK Flexibility Score: inf
ROOT
ATOM      1  C   UNL A   1      37.985  23.180  26.234  1.00  0.00     0.117 C 
ENDROOT
BRANCH   1   2
ATOM      2  N   UNL A   1      36.670  22.687  26.581  1.00  0.00    -0.356 N 
ATOM      3  C   UNL A   1      35.644  22.174  25.864  1.00  0.00     0.220 C 
ATOM      4  O   UNL A   1      34.702  21.740  26.542  1.00  0.00    -0.275 OA
ATOM      5  H   UNL A   1      36.480  22.736  27.547  1.00  0.00     0.163 HD
BRANCH   3   6
ATOM      6  C   UNL A   1      35.599  21.992  24.354  1.00  0.00     0.102 C 
BRANCH   6   7
ATOM      7  C   UNL A   1      35.134  23.046  23.343  1.00  0.00     0.032 C 
BRANCH   7   8
ATOM      8  C   UNL A   1      33.863  22.977  22.489  1.00  0.00     0.126 C 
BRANCH   8   9
ATOM      9  N   UNL A   1      32.732  23.922  22.596  1.00  0.00    -0.313 N 
ATOM     10  C   UNL A   1      26.265  27.691  23.971  1.00  0.00     0.069 C 
ATOM     11  C   UNL A   1      27.709  27.568  23.653  1.00  0.00     0.070 A 
ATOM     12  N   UNL A   1      28.359  26.418  23.889  1.00  0.00    -0.170 NA
ATOM     13  C   UNL A   1      28.548  28.543  23.067  1.00  0.00     0.051 A 
ATOM     14  N   UNL A   1      29.598  26.608  23.355  1.00  0.00    -0.210 N 
ATOM     15  C   UNL A   1      29.751  27.906  22.886  1.00  0.00     0.186 A 
ATOM     16  C   UNL A   1      30.632  25.691  23.165  1.00  0.00     0.102 A 
ATOM     17  N   UNL A   1      30.924  28.312  22.325  1.00  0.00    -0.129 NA
ATOM     18  C   UNL A   1      31.689  26.154  22.477  1.00  0.00     0.177 A 
ATOM     19  C   UNL A   1      30.611  24.324  23.631  1.00  0.00     0.049 A 
ATOM     20  N   UNL A   1      31.826  27.473  22.091  1.00  0.00    -0.141 NA
ATOM     21  C   UNL A   1      32.765  25.211  22.063  1.00  0.00     0.280 A 
ATOM     22  C   UNL A   1      31.645  23.513  23.371  1.00  0.00     0.091 A 
ATOM     23  O   UNL A   1      33.629  25.638  21.311  1.00  0.00    -0.267 OA
BRANCH  13  24
ATOM     24  C   UNL A   1      28.328  29.909  22.647  1.00  0.00    -0.012 A 
ATOM     25  C   UNL A   1      28.473  30.955  23.565  1.00  0.00     0.012 A 
ATOM     26  C   UNL A   1      28.055  30.196  21.300  1.00  0.00     0.012 A 
ATOM     27  C   UNL A   1      28.357  32.279  23.134  1.00  0.00     0.040 A 
ATOM     28  C   UNL A   1      27.936  31.518  20.874  1.00  0.00     0.040 A 
ATOM     29  C   UNL A   1      28.091  32.548  21.795  1.00  0.00     0.123 A 
ATOM     30  F   UNL A   1      27.993  33.818  21.384  1.00  0.00    -0.207 F 
ENDBRANCH  13  24
ENDBRANCH   8   9
ENDBRANCH   7   8
ENDBRANCH   6   7
ENDBRANCH   3   6
ENDBRANCH   1   2
BRANCH   1  31
ATOM     31  C   UNL A   1      38.936  22.055  25.813  1.00  0.00     0.042 C 
BRANCH  31  32
ATOM     32  C   UNL A   1      40.060  21.847  26.799  1.00  0.00     0.118 C 
BRANCH  32  33
ATOM     33  N   UNL A   1      41.379  21.903  26.170  1.00  0.00    -0.352 N 
ATOM     34  C   UNL A   1      42.164  23.027  25.969  1.00  0.00     0.251 C 
ATOM     35  H   UNL A   1      41.751  21.048  25.855  1.00  0.00     0.163 HD
ATOM     36  O   UNL A   1      43.051  23.040  25.136  1.00  0.00    -0.269 OA
BRANCH  34  37
ATOM     37  C   UNL A   1      41.887  24.211  26.799  1.00  0.00     0.039 A 
ATOM     38  C   UNL A   1      42.453  24.360  28.067  1.00  0.00     0.014 A 
ATOM     39  C   UNL A   1      41.078  25.204  26.252  1.00  0.00     0.014 A 
ATOM     40  C   UNL A   1      42.245  25.557  28.742  1.00  0.00     0.010 A 
ATOM     41  C   UNL A   1      41.043  26.446  26.822  1.00  0.00     0.010 A 
ATOM     42  C   UNL A   1      41.556  26.599  28.098  1.00  0.00    -0.014 A 
BRANCH  42  43
ATOM     43  C   UNL A   1      41.429  27.904  28.716  1.00  0.00     0.031 A 
ATOM     44  C   UNL A   1      42.501  28.852  28.340  1.00  0.00     0.074 A 
ATOM     45  C   UNL A   1      40.352  28.276  29.437  1.00  0.00     0.049 A 
ATOM     46  N   UNL A   1      43.494  29.208  29.081  1.00  0.00    -0.248 NA
ATOM     47  C   UNL A   1      42.597  29.317  26.949  1.00  0.00     0.031 C 
ATOM     48  C   UNL A   1      39.087  27.565  29.643  1.00  0.00     0.029 A 
ATOM     49  N   UNL A   1      40.144  29.447  30.094  1.00  0.00    -0.354 N 
ATOM     50  C   UNL A   1      44.220  30.124  28.333  1.00  0.00     0.074 A 
ATOM     51  C   UNL A   1      43.749  29.993  26.979  1.00  0.00     0.031 C 
ATOM     52  C   UNL A   1      38.173  28.409  30.173  1.00  0.00     0.029 A 
ATOM     53  C   UNL A   1      38.831  29.661  30.494  1.00  0.00     0.049 A 
ATOM     54  H   UNL A   1      40.866  30.091  30.273  1.00  0.00     0.167 HD
ATOM     55  C   UNL A   1      44.945  31.089  28.966  1.00  0.00     0.037 A 
ATOM     56  C   UNL A   1      38.330  30.811  31.014  1.00  0.00     0.037 A 
ATOM     57  C   UNL A   1      45.116  30.758  30.364  1.00  0.00     0.049 A 
ATOM     58  C   UNL A   1      39.484  31.567  31.577  1.00  0.00     0.074 A 
ATOM     59  C   UNL A   1      45.644  29.674  31.042  1.00  0.00     0.029 A 
ATOM     60  N   UNL A   1      44.333  31.420  31.282  1.00  0.00    -0.354 N 
ATOM     61  N   UNL A   1      40.173  31.158  32.609  1.00  0.00    -0.248 NA
ATOM     62  C   UNL A   1      40.182  32.483  30.684  1.00  0.00     0.031 C 
ATOM     63  C   UNL A   1      44.755  29.460  32.138  1.00  0.00     0.029 A 
ATOM     64  C   UNL A   1      43.801  30.477  32.123  1.00  0.00     0.049 A 
ATOM     65  H   UNL A   1      44.182  32.391  31.326  1.00  0.00     0.167 HD
ATOM     66  C   UNL A   1      41.496  31.391  32.263  1.00  0.00     0.074 A 
ATOM     67  C   UNL A   1      41.436  32.268  31.093  1.00  0.00     0.031 C 
ATOM     68  C   UNL A   1      42.508  30.614  32.752  1.00  0.00     0.037 A 
BRANCH  55  69
ATOM     69  C   UNL A   1      45.123  32.503  28.463  1.00  0.00     0.064 A 
ATOM     70  C   UNL A   1      43.968  33.273  28.211  1.00  0.00     0.173 A 
ATOM     71  C   UNL A   1      46.318  33.009  27.909  1.00  0.00     0.173 A 
ATOM     72  F   UNL A   1      42.775  32.894  28.696  1.00  0.00    -0.203 F 
ATOM     73  C   UNL A   1      43.987  34.380  27.363  1.00  0.00     0.198 A 
ATOM     74  C   UNL A   1      46.342  34.148  27.106  1.00  0.00     0.198 A 
ATOM     75  F   UNL A   1      47.490  32.378  28.022  1.00  0.00    -0.203 F 
ATOM     76  F   UNL A   1      42.837  34.981  27.030  1.00  0.00    -0.200 F 
ATOM     77  C   UNL A   1      45.172  34.808  26.799  1.00  0.00     0.200 A 
ATOM     78  F   UNL A   1      47.501  34.541  26.560  1.00  0.00    -0.200 F 
ATOM     79  F   UNL A   1      45.184  35.822  25.924  1.00  0.00    -0.200 F 
ENDBRANCH  55  69
BRANCH  56  80
ATOM     80  C   UNL A   1      37.010  31.430  30.727  1.00  0.00     0.064 A 
ATOM     81  C   UNL A   1      36.111  31.743  31.760  1.00  0.00     0.173 A 
ATOM     82  C   UNL A   1      36.709  31.973  29.461  1.00  0.00     0.173 A 
ATOM     83  F   UNL A   1      36.343  31.314  33.010  1.00  0.00    -0.203 F 
ATOM     84  C   UNL A   1      34.996  32.563  31.544  1.00  0.00     0.198 A 
ATOM     85  C   UNL A   1      35.594  32.785  29.244  1.00  0.00     0.198 A 
ATOM     86  F   UNL A   1      37.542  31.808  28.423  1.00  0.00    -0.203 F 
ATOM     87  F   UNL A   1      34.195  32.888  32.570  1.00  0.00    -0.200 F 
ATOM     88  C   UNL A   1      34.743  33.090  30.288  1.00  0.00     0.200 A 
ATOM     89  F   UNL A   1      35.386  33.318  28.032  1.00  0.00    -0.200 F 
ATOM     90  F   UNL A   1      33.711  33.921  30.094  1.00  0.00    -0.200 F 
ENDBRANCH  56  80
BRANCH  68  91
ATOM     91  C   UNL A   1      42.216  29.655  33.872  1.00  0.00     0.064 A 
ATOM     92  C   UNL A   1      41.723  28.350  33.689  1.00  0.00     0.173 A 
ATOM     93  C   UNL A   1      42.656  30.000  35.158  1.00  0.00     0.173 A 
ATOM     94  F   UNL A   1      41.370  27.908  32.477  1.00  0.00    -0.203 F 
ATOM     95  C   UNL A   1      41.659  27.447  34.750  1.00  0.00     0.198 A 
ATOM     96  C   UNL A   1      42.626  29.085  36.206  1.00  0.00     0.198 A 
ATOM     97  F   UNL A   1      43.184  31.215  35.382  1.00  0.00    -0.203 F 
ATOM     98  F   UNL A   1      41.192  26.206  34.550  1.00  0.00    -0.200 F 
ATOM     99  C   UNL A   1      42.122  27.811  36.004  1.00  0.00     0.200 A 
ATOM    100  F   UNL A   1      43.124  29.427  37.402  1.00  0.00    -0.200 F 
ATOM    101  F   UNL A   1      42.116  26.925  37.010  1.00  0.00    -0.200 F 
ENDBRANCH  68  91
ENDBRANCH  42  43
ENDBRANCH  34  37
ENDBRANCH  32  33
ENDBRANCH  31  32
ENDBRANCH   1  31
TORSDOF 14
ENDMDL
MODEL 2
REMARK VINA RESULT:     -14.0      3.850      9.489
REMARK SMILES Cc1nn2c(nnc3c(=O)n(CCCC(=O)NCCCNC(=O)c4ccc(-c5c6nc(c(-c7c(F)c(F)c(F)c(F)c7F)c7ccc([nH]7)c(-c7c(F)c(F)c(F)c(F)c7F)c7nc(c(-c8c(F)c(F)c(F)c(F)c8F)c8ccc5[nH]8)C=C7)C=C6)cc4)ccc32)c1-c1ccc(F)cc1
REMARK SMILES IDX 18 1 17 2 15 3 16 4 14 6 13 7 12 8 11 9 1 10 2 11 3 12 90 13
REMARK SMILES IDX 4 14 5 15 89 16 6 17 8 18 88 19 7 20 9 21 87 22 10 23 91 24
REMARK SMILES IDX 92 25 97 26 93 27 96 28 94 29 95 30 19 31 20 32 21 33 22 34
REMARK SMILES IDX 23 36 24 37 25 38 86 39 26 40 85 41 27 42 28 43 29 44 79 45
REMARK SMILES IDX 30 46 84 47 78 48 80 49 31 50 83 51 77 52 76 53 32 55 64 56
REMARK SMILES IDX 44 57 63 58 45 59 48 60 62 61 81 62 46 63 47 64 61 66 82 67
REMARK SMILES IDX 49 68 33 69 34 70 42 71 35 72 36 73 40 74 43 75 37 76 38 77
REMARK SMILES IDX 41 78 39 79 65 80 66 81 74 82 67 83 68 84 72 85 75 86 69 87
REMARK SMILES IDX 70 88 73 89 71 90 50 91 51 92 59 93 52 94 53 95 57 96 60 97
REMARK SMILES IDX 54 98 55 99 58 100 56 101
REMARK H PARENT 17 5 21 35 80 54 48 65
REMARK Flexibility Score: inf
ROOT
ATOM      1  C   UNL A   1      34.298  29.285  27.116  1.00  0.00     0.117 C 
ENDROOT
BRANCH   1   2
ATOM      2  N   UNL A   1      33.200  28.381  27.384  1.00  0.00    -0.356 N 
ATOM      3  C   UNL A   1      32.017  28.140  26.773  1.00  0.00     0.220 C 
ATOM      4  O   UNL A   1      31.379  27.184  27.237  1.00  0.00    -0.275 OA
ATOM      5  H   UNL A   1      33.344  27.822  28.182  1.00  0.00     0.163 HD
BRANCH   3   6
ATOM      6  C   UNL A   1      31.474  28.850  25.542  1.00  0.00     0.102 C 
BRANCH   6   7
ATOM      7  C   UNL A   1      31.797  28.488  24.089  1.00  0.00     0.032 C 
BRANCH   7   8
ATOM      8  C   UNL A   1      31.448  27.171  23.388  1.00  0.00     0.126 C 
BRANCH   8   9
ATOM      9  N   UNL A   1      32.157  25.893  23.609  1.00  0.00    -0.313 N 
ATOM     10  C   UNL A   1      37.006  20.201  25.024  1.00  0.00     0.069 C 
ATOM     11  C   UNL A   1      35.671  20.841  24.940  1.00  0.00     0.070 A 
ATOM     12  N   UNL A   1      35.561  22.177  24.884  1.00  0.00    -0.170 NA
ATOM     13  C   UNL A   1      34.412  20.201  24.873  1.00  0.00     0.051 A 
ATOM     14  N   UNL A   1      34.236  22.405  24.670  1.00  0.00    -0.210 N 
ATOM     15  C   UNL A   1      33.509  21.222  24.700  1.00  0.00     0.186 A 
ATOM     16  C   UNL A   1      33.578  23.597  24.366  1.00  0.00     0.102 A 
ATOM     17  N   UNL A   1      32.159  21.227  24.523  1.00  0.00    -0.129 NA
ATOM     18  C   UNL A   1      32.274  23.472  24.069  1.00  0.00     0.177 A 
ATOM     19  C   UNL A   1      34.210  24.896  24.332  1.00  0.00     0.049 A 
ATOM     20  N   UNL A   1      31.578  22.284  24.181  1.00  0.00    -0.141 NA
ATOM     21  C   UNL A   1      31.523  24.652  23.556  1.00  0.00     0.280 A 
ATOM     22  C   UNL A   1      33.495  25.979  23.998  1.00  0.00     0.091 A 
ATOM     23  O   UNL A   1      30.383  24.462  23.155  1.00  0.00    -0.267 OA
BRANCH  13  24
ATOM     24  C   UNL A   1      34.008  18.813  24.907  1.00  0.00    -0.012 A 
ATOM     25  C   UNL A   1      32.883  18.429  25.646  1.00  0.00     0.012 A 
ATOM     26  C   UNL A   1      34.690  17.863  24.130  1.00  0.00     0.012 A 
ATOM     27  C   UNL A   1      32.439  17.106  25.597  1.00  0.00     0.040 A 
ATOM     28  C   UNL A   1      34.246  16.542  24.086  1.00  0.00     0.040 A 
ATOM     29  C   UNL A   1      33.123  16.176  24.819  1.00  0.00     0.123 A 
ATOM     30  F   UNL A   1      32.685  14.912  24.766  1.00  0.00    -0.207 F 
ENDBRANCH  13  24
ENDBRANCH   8   9
ENDBRANCH   7   8
ENDBRANCH   6   7
ENDBRANCH   3   6
ENDBRANCH   1   2
BRANCH   1  31
ATOM     31  C   UNL A   1      33.963  30.734  27.482  1.00  0.00     0.042 C 
BRANCH  31  32
ATOM     32  C   UNL A   1      35.196  31.573  27.711  1.00  0.00     0.118 C 
BRANCH  32  33
ATOM     33  N   UNL A   1      35.026  32.541  28.794  1.00  0.00    -0.352 N 
ATOM     34  C   UNL A   1      35.559  32.472  30.070  1.00  0.00     0.251 C 
ATOM     35  H   UNL A   1      34.471  33.330  28.593  1.00  0.00     0.163 HD
ATOM     36  O   UNL A   1      35.083  33.108  30.992  1.00  0.00    -0.269 OA
BRANCH  34  37
ATOM     37  C   UNL A   1      36.726  31.598  30.277  1.00  0.00     0.039 A 
ATOM     38  C   UNL A   1      36.577  30.233  30.531  1.00  0.00     0.014 A 
ATOM     39  C   UNL A   1      37.989  32.173  30.160  1.00  0.00     0.014 A 
ATOM     40  C   UNL A   1      37.722  29.447  30.594  1.00  0.00     0.010 A 
ATOM     41  C   UNL A   1      39.090  31.377  30.021  1.00  0.00     0.010 A 
ATOM     42  C   UNL A   1      38.970  30.030  30.317  1.00  0.00    -0.014 A 
BRANCH  42  43
ATOM     43  C   UNL A   1      40.172  29.222  30.246  1.00  0.00     0.031 A 
ATOM     44  C   UNL A   1      40.811  28.983  31.560  1.00  0.00     0.074 A 
ATOM     45  C   UNL A   1      40.582  28.609  29.117  1.00  0.00     0.049 A 
ATOM     46  N   UNL A   1      41.882  29.551  31.997  1.00  0.00    -0.248 NA
ATOM     47  C   UNL A   1      40.107  28.177  32.567  1.00  0.00     0.031 C 
ATOM     48  C   UNL A   1      39.901  28.501  27.824  1.00  0.00     0.029 A 
ATOM     49  N   UNL A   1      41.705  27.870  28.923  1.00  0.00    -0.354 N 
ATOM     50  C   UNL A   1      42.121  29.003  33.250  1.00  0.00     0.074 A 
ATOM     51  C   UNL A   1      40.904  28.334  33.629  1.00  0.00     0.031 C 
ATOM     52  C   UNL A   1      40.510  27.561  27.067  1.00  0.00     0.029 A 
ATOM     53  C   UNL A   1      41.712  27.123  27.752  1.00  0.00     0.049 A 
ATOM     54  H   UNL A   1      42.455  27.865  29.560  1.00  0.00     0.167 HD
ATOM     55  C   UNL A   1      43.397  28.931  33.722  1.00  0.00     0.037 A 
ATOM     56  C   UNL A   1      42.630  26.184  27.406  1.00  0.00     0.037 A 
ATOM     57  C   UNL A   1      44.271  29.791  32.954  1.00  0.00     0.049 A 
ATOM     58  C   UNL A   1      43.863  26.480  28.187  1.00  0.00     0.074 A 
ATOM     59  C   UNL A   1      44.276  31.140  32.651  1.00  0.00     0.029 A 
ATOM     60  N   UNL A   1      45.094  29.202  32.021  1.00  0.00    -0.354 N 
ATOM     61  N   UNL A   1      44.587  27.552  28.001  1.00  0.00    -0.248 NA
ATOM     62  C   UNL A   1      43.987  25.864  29.501  1.00  0.00     0.031 C 
ATOM     63  C   UNL A   1      44.665  31.207  31.280  1.00  0.00     0.029 A 
ATOM     64  C   UNL A   1      44.968  29.913  30.856  1.00  0.00     0.049 A 
ATOM     65  H   UNL A   1      45.666  28.415  32.164  1.00  0.00     0.167 HD
ATOM     66  C   UNL A   1      44.895  27.995  29.279  1.00  0.00     0.074 A 
ATOM     67  C   UNL A   1      44.553  26.879  30.162  1.00  0.00     0.031 C 
ATOM     68  C   UNL A   1      45.100  29.318  29.546  1.00  0.00     0.037 A 
BRANCH  55  69
ATOM     69  C   UNL A   1      43.943  27.798  34.561  1.00  0.00     0.064 A 
ATOM     70  C   UNL A   1      43.791  26.480  34.082  1.00  0.00     0.173 A 
ATOM     71  C   UNL A   1      44.291  27.909  35.924  1.00  0.00     0.173 A 
ATOM     72  F   UNL A   1      43.469  26.251  32.799  1.00  0.00    -0.203 F 
ATOM     73  C   UNL A   1      43.850  25.374  34.930  1.00  0.00     0.198 A 
ATOM     74  C   UNL A   1      44.403  26.797  36.756  1.00  0.00     0.198 A 
ATOM     75  F   UNL A   1      44.433  29.086  36.539  1.00  0.00    -0.203 F 
ATOM     76  F   UNL A   1      43.541  24.159  34.458  1.00  0.00    -0.200 F 
ATOM     77  C   UNL A   1      44.140  25.534  36.270  1.00  0.00     0.200 A 
ATOM     78  F   UNL A   1      44.676  26.975  38.056  1.00  0.00    -0.200 F 
ATOM     79  F   UNL A   1      44.122  24.485  37.102  1.00  0.00    -0.200 F 
ENDBRANCH  55  69
BRANCH  56  80
ATOM     80  C   UNL A   1      42.376  24.878  26.743  1.00  0.00     0.064 A 
ATOM     81  C   UNL A   1      43.117  24.477  25.618  1.00  0.00     0.173 A 
ATOM     82  C   UNL A   1      41.590  23.880  27.353  1.00  0.00     0.173 A 
ATOM     83  F   UNL A   1      43.933  25.345  25.003  1.00  0.00    -0.203 F 
ATOM     84  C   UNL A   1      43.087  23.157  25.148  1.00  0.00     0.198 A 
ATOM     85  C   UNL A   1      41.556  22.566  26.881  1.00  0.00     0.198 A 
ATOM     86  F   UNL A   1      40.910  24.130  28.481  1.00  0.00    -0.203 F 
ATOM     87  F   UNL A   1      43.854  22.799  24.108  1.00  0.00    -0.200 F 
ATOM     88  C   UNL A   1      42.313  22.202  25.785  1.00  0.00     0.200 A 
ATOM     89  F   UNL A   1      40.833  21.645  27.533  1.00  0.00    -0.200 F 
ATOM     90  F   UNL A   1      42.330  20.927  25.373  1.00  0.00    -0.200 F 
ENDBRANCH  56  80
BRANCH  68  91
ATOM     91  C   UNL A   1      45.245  30.280  28.399  1.00  0.00     0.064 A 
ATOM     92  C   UNL A   1      44.183  31.021  27.849  1.00  0.00     0.173 A 
ATOM     93  C   UNL A   1      46.542  30.617  27.989  1.00  0.00     0.173 A 
ATOM     94  F   UNL A   1      42.922  30.829  28.254  1.00  0.00    -0.203 F 
ATOM     95  C   UNL A   1      44.416  32.037  26.921  1.00  0.00     0.198 A 
ATOM     96  C   UNL A   1      46.775  31.654  27.091  1.00  0.00     0.198 A 
ATOM     97  F   UNL A   1      47.599  29.978  28.518  1.00  0.00    -0.203 F 
ATOM     98  F   UNL A   1      43.388  32.735  26.417  1.00  0.00    -0.200 F 
ATOM     99  C   UNL A   1      45.711  32.360  26.553  1.00  0.00     0.200 A 
ATOM    100  F   UNL A   1      48.032  31.997  26.781  1.00  0.00    -0.200 F 
ATOM    101  F   UNL A   1      45.939  33.374  25.706  1.00  0.00    -0.200 F 
ENDBRANCH  68  91
ENDBRANCH  42  43
ENDBRANCH  34  37
ENDBRANCH  32  33
ENDBRANCH  31  32
ENDBRANCH   1  31
TORSDOF 14
ENDMDL
MODEL 3
REMARK VINA RESULT:     -13.4      3.925      9.306
REMARK SMILES Cc1nn2c(nnc3c(=O)n(CCCC(=O)NCCCNC(=O)c4ccc(-c5c6nc(c(-c7c(F)c(F)c(F)c(F)c7F)c7ccc([nH]7)c(-c7c(F)c(F)c(F)c(F)c7F)c7nc(c(-c8c(F)c(F)c(F)c(F)c8F)c8ccc5[nH]8)C=C7)C=C6)cc4)ccc32)c1-c1ccc(F)cc1
REMARK SMILES IDX 18 1 17 2 15 3 16 4 14 6 13 7 12 8 11 9 1 10 2 11 3 12 90 13
REMARK SMILES IDX 4 14 5 15 89 16 6 17 8 18 88 19 7 20 9 21 87 22 10 23 91 24
REMARK SMILES IDX 92 25 97 26 93 27 96 28 94 29 95 30 19 31 20 32 21 33 22 34
REMARK SMILES IDX 23 36 24 37 25 38 86 39 26 40 85 41 27 42 28 43 29 44 79 45
REMARK SMILES IDX 30 46 84 47 78 48 80 49 31 50 83 51 77 52 76 53 32 55 64 56
REMARK SMILES IDX 44 57 63 58 45 59 48 60 62 61 81 62 46 63 47 64 61 66 82 67
REMARK SMILES IDX 49 68 33 69 34 70 42 71 35 72 36 73 40 74 43 75 37 76 38 77
REMARK SMILES IDX 41 78 39 79 65 80 66 81 74 82 67 83 68 84 72 85 75 86 69 87
REMARK SMILES IDX 70 88 73 89 71 90 50 91 51 92 59 93 52 94 53 95 57 96 60 97
REMARK SMILES IDX 54 98 55 99 58 100 56 101
REMARK H PARENT 17 5 21 35 80 54 48 65
REMARK Flexibility Score: inf
ROOT
ATOM      1  C   UNL A   1      33.488  35.327  28.957  1.00  0.00     0.117 C 
ENDROOT
BRANCH   1   2
ATOM      2  N   UNL A   1      34.901  35.018  28.959  1.00  0.00    -0.356 N 
ATOM      3  C   UNL A   1      35.605  33.863  28.977  1.00  0.00     0.220 C 
ATOM      4  O   UNL A   1      36.830  34.000  28.846  1.00  0.00    -0.275 OA
ATOM      5  H   UNL A   1      35.473  35.820  28.945  1.00  0.00     0.163 HD
BRANCH   3   6
ATOM      6  C   UNL A   1      35.032  32.455  29.033  1.00  0.00     0.102 C 
BRANCH   6   7
ATOM      7  C   UNL A   1      34.861  31.513  27.837  1.00  0.00     0.032 C 
BRANCH   7   8
ATOM      8  C   UNL A   1      33.530  31.024  27.256  1.00  0.00     0.126 C 
BRANCH   8   9
ATOM      9  N   UNL A   1      33.145  29.602  27.128  1.00  0.00    -0.313 N 
ATOM     10  C   UNL A   1      29.803  22.769  26.916  1.00  0.00     0.069 C 
ATOM     11  C   UNL A   1      30.810  23.786  26.528  1.00  0.00     0.070 A 
ATOM     12  N   UNL A   1      30.595  25.086  26.786  1.00  0.00    -0.170 NA
ATOM     13  C   UNL A   1      32.064  23.566  25.913  1.00  0.00     0.051 A 
ATOM     14  N   UNL A   1      31.758  25.702  26.437  1.00  0.00    -0.210 N 
ATOM     15  C   UNL A   1      32.652  24.807  25.865  1.00  0.00     0.186 A 
ATOM     16  C   UNL A   1      32.160  27.022  26.645  1.00  0.00     0.102 A 
ATOM     17  N   UNL A   1      33.875  25.221  25.431  1.00  0.00    -0.129 NA
ATOM     18  C   UNL A   1      33.433  27.293  26.310  1.00  0.00     0.177 A 
ATOM     19  C   UNL A   1      31.318  28.057  27.200  1.00  0.00     0.049 A 
ATOM     20  N   UNL A   1      34.263  26.387  25.680  1.00  0.00    -0.141 NA
ATOM     21  C   UNL A   1      34.015  28.619  26.658  1.00  0.00     0.280 A 
ATOM     22  C   UNL A   1      31.810  29.289  27.388  1.00  0.00     0.091 A 
ATOM     23  O   UNL A   1      35.216  28.772  26.475  1.00  0.00    -0.267 OA
BRANCH  13  24
ATOM     24  C   UNL A   1      32.735  22.376  25.441  1.00  0.00    -0.012 A 
ATOM     25  C   UNL A   1      33.868  21.899  26.109  1.00  0.00     0.012 A 
ATOM     26  C   UNL A   1      32.201  21.647  24.366  1.00  0.00     0.012 A 
ATOM     27  C   UNL A   1      34.455  20.696  25.711  1.00  0.00     0.040 A 
ATOM     28  C   UNL A   1      32.792  20.448  23.968  1.00  0.00     0.040 A 
ATOM     29  C   UNL A   1      33.912  19.983  24.646  1.00  0.00     0.123 A 
ATOM     30  F   UNL A   1      34.471  18.824  24.276  1.00  0.00    -0.207 F 
ENDBRANCH  13  24
ENDBRANCH   8   9
ENDBRANCH   7   8
ENDBRANCH   6   7
ENDBRANCH   3   6
ENDBRANCH   1   2
BRANCH   1  31
ATOM     31  C   UNL A   1      32.992  35.795  30.329  1.00  0.00     0.042 C 
BRANCH  31  32
ATOM     32  C   UNL A   1      33.320  34.815  31.429  1.00  0.00     0.118 C 
BRANCH  32  33
ATOM     33  N   UNL A   1      33.692  35.474  32.680  1.00  0.00    -0.352 N 
ATOM     34  C   UNL A   1      34.717  35.120  33.541  1.00  0.00     0.251 C 
ATOM     35  H   UNL A   1      33.155  36.258  32.938  1.00  0.00     0.163 HD
ATOM     36  O   UNL A   1      34.724  35.482  34.702  1.00  0.00    -0.269 OA
BRANCH  34  37
ATOM     37  C   UNL A   1      35.804  34.284  33.002  1.00  0.00     0.039 A 
ATOM     38  C   UNL A   1      36.980  34.849  32.505  1.00  0.00     0.014 A 
ATOM     39  C   UNL A   1      35.636  32.902  33.052  1.00  0.00     0.014 A 
ATOM     40  C   UNL A   1      38.010  33.997  32.126  1.00  0.00     0.010 A 
ATOM     41  C   UNL A   1      36.712  32.078  32.872  1.00  0.00     0.010 A 
ATOM     42  C   UNL A   1      37.869  32.614  32.335  1.00  0.00    -0.014 A 
BRANCH  42  43
ATOM     43  C   UNL A   1      38.967  31.704  32.073  1.00  0.00     0.031 A 
ATOM     44  C   UNL A   1      39.684  31.265  33.290  1.00  0.00     0.074 A 
ATOM     45  C   UNL A   1      39.212  31.178  30.856  1.00  0.00     0.049 A 
ATOM     46  N   UNL A   1      40.843  31.675  33.678  1.00  0.00    -0.248 NA
ATOM     47  C   UNL A   1      38.985  30.429  34.276  1.00  0.00     0.031 C 
ATOM     48  C   UNL A   1      38.417  31.276  29.628  1.00  0.00     0.029 A 
ATOM     49  N   UNL A   1      40.229  30.357  30.485  1.00  0.00    -0.354 N 
ATOM     50  C   UNL A   1      41.127  30.976  34.843  1.00  0.00     0.074 A 
ATOM     51  C   UNL A   1      39.881  30.392  35.268  1.00  0.00     0.031 C 
ATOM     52  C   UNL A   1      38.856  30.367  28.729  1.00  0.00     0.029 A 
ATOM     53  C   UNL A   1      40.056  29.742  29.251  1.00  0.00     0.049 A 
ATOM     54  H   UNL A   1      41.024  30.210  31.045  1.00  0.00     0.167 HD
ATOM     55  C   UNL A   1      42.422  30.728  35.183  1.00  0.00     0.037 A 
ATOM     56  C   UNL A   1      40.836  28.759  28.731  1.00  0.00     0.037 A 
ATOM     57  C   UNL A   1      43.316  31.574  34.422  1.00  0.00     0.049 A 
ATOM     58  C   UNL A   1      42.155  28.848  29.416  1.00  0.00     0.074 A 
ATOM     59  C   UNL A   1      43.441  32.941  34.253  1.00  0.00     0.029 A 
ATOM     60  N   UNL A   1      43.989  31.010  33.363  1.00  0.00    -0.354 N 
ATOM     61  N   UNL A   1      42.972  29.857  29.268  1.00  0.00    -0.248 NA
ATOM     62  C   UNL A   1      42.322  28.085  30.646  1.00  0.00     0.031 C 
ATOM     63  C   UNL A   1      43.718  33.115  32.864  1.00  0.00     0.029 A 
ATOM     64  C   UNL A   1      43.844  31.850  32.289  1.00  0.00     0.049 A 
ATOM     65  H   UNL A   1      44.484  30.160  33.374  1.00  0.00     0.167 HD
ATOM     66  C   UNL A   1      43.432  30.128  30.548  1.00  0.00     0.074 A 
ATOM     67  C   UNL A   1      43.047  28.963  31.347  1.00  0.00     0.031 C 
ATOM     68  C   UNL A   1      43.801  31.389  30.921  1.00  0.00     0.037 A 
BRANCH  55  69
ATOM     69  C   UNL A   1      42.912  29.464  35.852  1.00  0.00     0.064 A 
ATOM     70  C   UNL A   1      43.848  29.584  36.901  1.00  0.00     0.173 A 
ATOM     71  C   UNL A   1      42.776  28.169  35.309  1.00  0.00     0.173 A 
ATOM     72  F   UNL A   1      44.055  30.767  37.500  1.00  0.00    -0.203 F 
ATOM     73  C   UNL A   1      44.673  28.526  37.281  1.00  0.00     0.198 A 
ATOM     74  C   UNL A   1      43.566  27.100  35.729  1.00  0.00     0.198 A 
ATOM     75  F   UNL A   1      41.963  27.897  34.285  1.00  0.00    -0.203 F 
ATOM     76  F   UNL A   1      45.653  28.734  38.170  1.00  0.00    -0.200 F 
ATOM     77  C   UNL A   1      44.542  27.288  36.683  1.00  0.00     0.200 A 
ATOM     78  F   UNL A   1      43.430  25.909  35.130  1.00  0.00    -0.200 F 
ATOM     79  F   UNL A   1      45.383  26.291  36.989  1.00  0.00    -0.200 F 
ENDBRANCH  55  69
BRANCH  56  80
ATOM     80  C   UNL A   1      40.388  27.563  27.970  1.00  0.00     0.064 A 
ATOM     81  C   UNL A   1      40.983  27.214  26.746  1.00  0.00     0.173 A 
ATOM     82  C   UNL A   1      39.554  26.587  28.553  1.00  0.00     0.173 A 
ATOM     83  F   UNL A   1      41.833  28.058  26.143  1.00  0.00    -0.203 F 
ATOM     84  C   UNL A   1      40.772  25.961  26.155  1.00  0.00     0.198 A 
ATOM     85  C   UNL A   1      39.339  25.341  27.960  1.00  0.00     0.198 A 
ATOM     86  F   UNL A   1      39.003  26.781  29.759  1.00  0.00    -0.203 F 
ATOM     87  F   UNL A   1      41.406  25.643  25.016  1.00  0.00    -0.200 F 
ATOM     88  C   UNL A   1      39.957  25.023  26.767  1.00  0.00     0.200 A 
ATOM     89  F   UNL A   1      38.579  24.431  28.585  1.00  0.00    -0.200 F 
ATOM     90  F   UNL A   1      39.802  23.804  26.232  1.00  0.00    -0.200 F 
ENDBRANCH  56  80
BRANCH  68  91
ATOM     91  C   UNL A   1      43.950  32.449  29.865  1.00  0.00     0.064 A 
ATOM     92  C   UNL A   1      42.925  33.329  29.476  1.00  0.00     0.173 A 
ATOM     93  C   UNL A   1      45.241  32.716  29.388  1.00  0.00     0.173 A 
ATOM     94  F   UNL A   1      41.684  33.202  29.960  1.00  0.00    -0.203 F 
ATOM     95  C   UNL A   1      43.183  34.411  28.635  1.00  0.00     0.198 A 
ATOM     96  C   UNL A   1      45.503  33.818  28.579  1.00  0.00     0.198 A 
ATOM     97  F   UNL A   1      46.270  31.939  29.767  1.00  0.00    -0.203 F 
ATOM     98  F   UNL A   1      42.190  35.242  28.284  1.00  0.00    -0.200 F 
ATOM     99  C   UNL A   1      44.474  34.662  28.198  1.00  0.00     0.200 A 
ATOM    100  F   UNL A   1      46.762  34.084  28.205  1.00  0.00    -0.200 F 
ATOM    101  F   UNL A   1      44.732  35.735  27.438  1.00  0.00    -0.200 F 
ENDBRANCH  68  91
ENDBRANCH  42  43
ENDBRANCH  34  37
ENDBRANCH  32  33
ENDBRANCH  31  32
ENDBRANCH   1  31
TORSDOF 14
ENDMDL
