MODEL 1
REMARK VINA RESULT:     -11.8      0.000      0.000
REMARK SMILES O=C(Cn1nc(C2CC2)c2c(C(F)F)cc(-c3ccc(Cl)cc3)nc21)NCCCNC(=O)c1ccc(-c2c3nc(c(-c4c(F)c(F)c(F)c(F)c4F)c4ccc([nH]4)c(-c4c(F)c(F)c(F)c(F)c4F)c4nc(c(-c5c(F)c(F)c(F)c(F)c5F)c5ccc2[nH]5)C=C4)C=C3)cc1
REMARK SMILES IDX 28 1 27 2 26 3 1 4 2 5 3 7 4 8 5 9 25 10 6 11 10 12 24 13
REMARK SMILES IDX 11 14 16 15 15 16 7 17 8 18 9 19 12 20 13 21 14 22 17 23
REMARK SMILES IDX 18 24 23 25 19 26 22 27 20 28 21 29 29 30 30 31 31 32 32 34
REMARK SMILES IDX 33 35 34 36 95 37 35 38 94 39 36 40 37 41 38 42 88 43 39 44
REMARK SMILES IDX 93 45 87 46 89 47 40 48 92 49 86 50 85 51 41 53 73 54 53 55
REMARK SMILES IDX 72 56 54 57 57 58 71 59 90 60 55 61 56 62 70 64 91 65 58 66
REMARK SMILES IDX 42 67 43 68 51 69 44 70 45 71 49 72 52 73 46 74 47 75 50 76
REMARK SMILES IDX 48 77 74 78 75 79 83 80 76 81 77 82 81 83 84 84 78 85 79 86
REMARK SMILES IDX 82 87 80 88 59 89 60 90 68 91 61 92 62 93 66 94 69 95 63 96
REMARK SMILES IDX 64 97 67 98 65 99
REMARK H PARENT 26 6 30 33 89 52 57 63
REMARK Flexibility Score: inf
ROOT
ATOM      1  C   UNL A   1      34.958  33.860  31.206  1.00  0.00     0.042 C 
ENDROOT
BRANCH   1   2
ATOM      2  C   UNL A   1      34.778  32.499  31.887  1.00  0.00     0.117 C 
BRANCH   2   3
ATOM      3  N   UNL A   1      35.878  32.102  32.759  1.00  0.00    -0.354 N 
ATOM      4  O   UNL A   1      36.282  30.076  31.768  1.00  0.00    -0.273 OA
ATOM      5  C   UNL A   1      36.605  30.936  32.588  1.00  0.00     0.241 C 
ATOM      6  H   UNL A   1      36.115  32.694  33.509  1.00  0.00     0.163 HD
BRANCH   5   7
ATOM      7  C   UNL A   1      37.770  30.714  33.550  1.00  0.00     0.246 C 
BRANCH   7   8
ATOM      8  N   UNL A   1      38.051  31.842  34.425  1.00  0.00    -0.237 N 
ATOM      9  N   UNL A   1      37.536  31.861  35.667  1.00  0.00    -0.175 NA
ATOM     10  C   UNL A   1      38.937  32.867  34.197  1.00  0.00     0.159 A 
ATOM     11  C   UNL A   1      37.927  33.040  36.171  1.00  0.00     0.076 A 
ATOM     12  C   UNL A   1      38.879  33.706  35.326  1.00  0.00     0.051 A 
ATOM     13  N   UNL A   1      39.705  33.001  33.089  1.00  0.00    -0.228 NA
ATOM     14  C   UNL A   1      39.721  34.853  35.292  1.00  0.00     0.033 A 
ATOM     15  C   UNL A   1      40.523  34.069  33.114  1.00  0.00     0.073 A 
ATOM     16  C   UNL A   1      40.546  34.988  34.155  1.00  0.00     0.039 A 
BRANCH  11  17
ATOM     17  C   UNL A   1      37.266  33.399  37.500  1.00  0.00     0.041 C 
ATOM     18  C   UNL A   1      37.025  32.475  38.655  1.00  0.00     0.011 C 
ATOM     19  C   UNL A   1      38.130  33.476  38.737  1.00  0.00     0.011 C 
ENDBRANCH  11  17
BRANCH  14  20
ATOM     20  C   UNL A   1      39.928  35.905  36.353  1.00  0.00     0.373 C 
ATOM     21  F   UNL A   1      40.416  35.428  37.524  1.00  0.00    -0.205 F 
ATOM     22  F   UNL A   1      40.748  36.908  35.943  1.00  0.00    -0.205 F 
ENDBRANCH  14  20
BRANCH  15  23
ATOM     23  C   UNL A   1      41.442  34.277  31.983  1.00  0.00     0.000 A 
ATOM     24  C   UNL A   1      41.137  33.796  30.700  1.00  0.00     0.012 A 
ATOM     25  C   UNL A   1      42.569  35.112  32.130  1.00  0.00     0.012 A 
ATOM     26  C   UNL A   1      41.899  34.186  29.590  1.00  0.00     0.021 A 
ATOM     27  C   UNL A   1      43.333  35.499  31.025  1.00  0.00     0.021 A 
ATOM     28  C   UNL A   1      42.982  35.046  29.757  1.00  0.00     0.041 A 
ATOM     29  Cl  UNL A   1      43.876  35.579  28.386  1.00  0.00    -0.084 Cl
ENDBRANCH  15  23
ENDBRANCH   7   8
ENDBRANCH   5   7
ENDBRANCH   2   3
ENDBRANCH   1   2
BRANCH   1  30
ATOM     30  C   UNL A   1      35.409  33.766  29.757  1.00  0.00     0.118 C 
BRANCH  30  31
ATOM     31  N   UNL A   1      34.586  32.885  28.925  1.00  0.00    -0.352 N 
ATOM     32  C   UNL A   1      34.985  31.815  28.140  1.00  0.00     0.251 C 
ATOM     33  H   UNL A   1      33.621  33.080  28.923  1.00  0.00     0.163 HD
ATOM     34  O   UNL A   1      34.255  31.379  27.263  1.00  0.00    -0.269 OA
BRANCH  32  35
ATOM     35  C   UNL A   1      36.310  31.202  28.370  1.00  0.00     0.039 A 
ATOM     36  C   UNL A   1      37.359  31.931  28.939  1.00  0.00     0.014 A 
ATOM     37  C   UNL A   1      36.509  29.881  27.981  1.00  0.00     0.014 A 
ATOM     38  C   UNL A   1      38.580  31.295  29.162  1.00  0.00     0.010 A 
ATOM     39  C   UNL A   1      37.636  29.206  28.365  1.00  0.00     0.010 A 
ATOM     40  C   UNL A   1      38.702  29.926  28.878  1.00  0.00    -0.014 A 
BRANCH  40  41
ATOM     41  C   UNL A   1      39.942  29.210  29.133  1.00  0.00     0.031 A 
ATOM     42  C   UNL A   1      40.237  28.941  30.561  1.00  0.00     0.074 A 
ATOM     43  C   UNL A   1      40.681  28.658  28.148  1.00  0.00     0.049 A 
ATOM     44  N   UNL A   1      41.195  29.440  31.267  1.00  0.00    -0.248 NA
ATOM     45  C   UNL A   1      39.303  28.104  31.327  1.00  0.00     0.031 C 
ATOM     46  C   UNL A   1      40.376  28.546  26.717  1.00  0.00     0.029 A 
ATOM     47  N   UNL A   1      41.856  27.984  28.256  1.00  0.00    -0.354 N 
ATOM     48  C   UNL A   1      41.096  28.859  32.526  1.00  0.00     0.074 A 
ATOM     49  C   UNL A   1      39.833  28.169  32.551  1.00  0.00     0.031 C 
ATOM     50  C   UNL A   1      41.223  27.664  26.141  1.00  0.00     0.029 A 
ATOM     51  C   UNL A   1      42.227  27.287  27.117  1.00  0.00     0.049 A 
ATOM     52  H   UNL A   1      42.399  27.988  29.077  1.00  0.00     0.167 HD
ATOM     53  C   UNL A   1      42.173  28.825  33.362  1.00  0.00     0.037 A 
ATOM     54  C   UNL A   1      43.275  26.437  27.000  1.00  0.00     0.037 A 
ATOM     55  C   UNL A   1      43.188  29.754  32.930  1.00  0.00     0.049 A 
ATOM     56  C   UNL A   1      44.233  26.780  28.084  1.00  0.00     0.074 A 
ATOM     57  C   UNL A   1      43.231  31.122  32.742  1.00  0.00     0.029 A 
ATOM     58  N   UNL A   1      44.273  29.255  32.248  1.00  0.00    -0.354 N 
ATOM     59  N   UNL A   1      44.893  27.905  28.138  1.00  0.00    -0.248 NA
ATOM     60  C   UNL A   1      44.105  26.068  29.347  1.00  0.00     0.031 C 
ATOM     61  C   UNL A   1      44.017  31.306  31.566  1.00  0.00     0.029 A 
ATOM     62  C   UNL A   1      44.462  30.051  31.148  1.00  0.00     0.049 A 
ATOM     63  H   UNL A   1      44.813  28.472  32.502  1.00  0.00     0.167 HD
ATOM     64  C   UNL A   1      44.880  28.254  29.480  1.00  0.00     0.074 A 
ATOM     65  C   UNL A   1      44.461  27.045  30.185  1.00  0.00     0.031 C 
ATOM     66  C   UNL A   1      44.932  29.562  29.873  1.00  0.00     0.037 A 
BRANCH  53  67
ATOM     67  C   UNL A   1      42.478  27.718  34.343  1.00  0.00     0.064 A 
ATOM     68  C   UNL A   1      43.004  26.504  33.853  1.00  0.00     0.173 A 
ATOM     69  C   UNL A   1      41.992  27.677  35.667  1.00  0.00     0.173 A 
ATOM     70  F   UNL A   1      43.497  26.423  32.608  1.00  0.00    -0.203 F 
ATOM     71  C   UNL A   1      42.942  25.319  34.590  1.00  0.00     0.198 A 
ATOM     72  C   UNL A   1      41.982  26.503  36.420  1.00  0.00     0.198 A 
ATOM     73  F   UNL A   1      41.406  28.729  36.248  1.00  0.00    -0.203 F 
ATOM     74  F   UNL A   1      43.320  24.165  34.025  1.00  0.00    -0.200 F 
ATOM     75  C   UNL A   1      42.419  25.318  35.869  1.00  0.00     0.200 A 
ATOM     76  F   UNL A   1      41.460  26.520  37.654  1.00  0.00    -0.200 F 
ATOM     77  F   UNL A   1      42.290  24.173  36.552  1.00  0.00    -0.200 F 
ENDBRANCH  53  67
BRANCH  54  78
ATOM     78  C   UNL A   1      43.329  25.163  26.244  1.00  0.00     0.064 A 
ATOM     79  C   UNL A   1      44.316  24.940  25.270  1.00  0.00     0.173 A 
ATOM     80  C   UNL A   1      42.589  24.035  26.653  1.00  0.00     0.173 A 
ATOM     81  F   UNL A   1      45.095  25.950  24.857  1.00  0.00    -0.203 F 
ATOM     82  C   UNL A   1      44.569  23.661  24.762  1.00  0.00     0.198 A 
ATOM     83  C   UNL A   1      42.838  22.761  26.139  1.00  0.00     0.198 A 
ATOM     84  F   UNL A   1      41.676  24.127  27.630  1.00  0.00    -0.203 F 
ATOM     85  F   UNL A   1      45.564  23.477  23.882  1.00  0.00    -0.200 F 
ATOM     86  C   UNL A   1      43.837  22.572  25.204  1.00  0.00     0.200 A 
ATOM     87  F   UNL A   1      42.146  21.711  26.603  1.00  0.00    -0.200 F 
ATOM     88  F   UNL A   1      44.121  21.338  24.764  1.00  0.00    -0.200 F 
ENDBRANCH  54  78
BRANCH  66  89
ATOM     89  C   UNL A   1      45.257  30.607  28.843  1.00  0.00     0.064 A 
ATOM     90  C   UNL A   1      44.294  31.262  28.056  1.00  0.00     0.173 A 
ATOM     91  C   UNL A   1      46.568  31.100  28.797  1.00  0.00     0.173 A 
ATOM     92  F   UNL A   1      43.004  30.912  28.110  1.00  0.00    -0.203 F 
ATOM     93  C   UNL A   1      44.634  32.347  27.249  1.00  0.00     0.198 A 
ATOM     94  C   UNL A   1      46.899  32.206  28.017  1.00  0.00     0.198 A 
ATOM     95  F   UNL A   1      47.521  30.548  29.565  1.00  0.00    -0.203 F 
ATOM     96  F   UNL A   1      43.694  32.959  26.514  1.00  0.00    -0.200 F 
ATOM     97  C   UNL A   1      45.933  32.826  27.241  1.00  0.00     0.200 A 
ATOM     98  F   UNL A   1      48.146  32.694  28.051  1.00  0.00    -0.200 F 
ATOM     99  F   UNL A   1      46.250  33.903  26.510  1.00  0.00    -0.200 F 
ENDBRANCH  66  89
ENDBRANCH  40  41
ENDBRANCH  32  35
ENDBRANCH  30  31
ENDBRANCH   1  30
TORSDOF 14
ENDMDL
MODEL 2
REMARK VINA RESULT:     -11.8      5.019     11.199
REMARK SMILES O=C(Cn1nc(C2CC2)c2c(C(F)F)cc(-c3ccc(Cl)cc3)nc21)NCCCNC(=O)c1ccc(-c2c3nc(c(-c4c(F)c(F)c(F)c(F)c4F)c4ccc([nH]4)c(-c4c(F)c(F)c(F)c(F)c4F)c4nc(c(-c5c(F)c(F)c(F)c(F)c5F)c5ccc2[nH]5)C=C4)C=C3)cc1
REMARK SMILES IDX 28 1 27 2 26 3 1 4 2 5 3 7 4 8 5 9 25 10 6 11 10 12 24 13
REMARK SMILES IDX 11 14 16 15 15 16 7 17 8 18 9 19 12 20 13 21 14 22 17 23
REMARK SMILES IDX 18 24 23 25 19 26 22 27 20 28 21 29 29 30 30 31 31 32 32 34
REMARK SMILES IDX 33 35 34 36 95 37 35 38 94 39 36 40 37 41 38 42 88 43 39 44
REMARK SMILES IDX 93 45 87 46 89 47 40 48 92 49 86 50 85 51 41 53 73 54 53 55
REMARK SMILES IDX 72 56 54 57 57 58 71 59 90 60 55 61 56 62 70 64 91 65 58 66
REMARK SMILES IDX 42 67 43 68 51 69 44 70 45 71 49 72 52 73 46 74 47 75 50 76
REMARK SMILES IDX 48 77 74 78 75 79 83 80 76 81 77 82 81 83 84 84 78 85 79 86
REMARK SMILES IDX 82 87 80 88 59 89 60 90 68 91 61 92 62 93 66 94 69 95 63 96
REMARK SMILES IDX 64 97 67 98 65 99
REMARK H PARENT 26 6 30 33 89 52 57 63
REMARK Flexibility Score: inf
ROOT
ATOM      1  C   UNL A   1      40.541  20.223  26.152  1.00  0.00     0.042 C 
ENDROOT
BRANCH   1   2
ATOM      2  C   UNL A   1      39.893  21.535  26.609  1.00  0.00     0.117 C 
BRANCH   2   3
ATOM      3  N   UNL A   1      38.869  22.056  25.709  1.00  0.00    -0.354 N 
ATOM      4  O   UNL A   1      38.390  23.941  26.918  1.00  0.00    -0.273 OA
ATOM      5  C   UNL A   1      38.235  23.273  25.897  1.00  0.00     0.241 C 
ATOM      6  H   UNL A   1      38.615  21.514  24.927  1.00  0.00     0.163 HD
BRANCH   5   7
ATOM      7  C   UNL A   1      37.242  23.695  24.817  1.00  0.00     0.246 C 
BRANCH   7   8
ATOM      8  N   UNL A   1      35.908  23.135  24.974  1.00  0.00    -0.237 N 
ATOM      9  N   UNL A   1      35.759  21.804  25.089  1.00  0.00    -0.175 NA
ATOM     10  C   UNL A   1      34.739  23.824  25.184  1.00  0.00     0.159 A 
ATOM     11  C   UNL A   1      34.433  21.622  25.155  1.00  0.00     0.076 A 
ATOM     12  C   UNL A   1      33.719  22.861  25.293  1.00  0.00     0.051 A 
ATOM     13  N   UNL A   1      34.635  25.172  25.272  1.00  0.00    -0.228 NA
ATOM     14  C   UNL A   1      32.405  23.366  25.502  1.00  0.00     0.033 A 
ATOM     15  C   UNL A   1      33.386  25.611  25.519  1.00  0.00     0.073 A 
ATOM     16  C   UNL A   1      32.288  24.768  25.623  1.00  0.00     0.039 A 
BRANCH  11  17
ATOM     17  C   UNL A   1      33.998  20.162  25.053  1.00  0.00     0.041 C 
ATOM     18  C   UNL A   1      32.697  19.583  25.520  1.00  0.00     0.011 C 
ATOM     19  C   UNL A   1      32.918  19.799  24.059  1.00  0.00     0.011 C 
ENDBRANCH  11  17
BRANCH  14  20
ATOM     20  C   UNL A   1      31.121  22.604  25.710  1.00  0.00     0.373 C 
ATOM     21  F   UNL A   1      30.181  23.277  26.417  1.00  0.00    -0.205 F 
ATOM     22  F   UNL A   1      30.551  22.207  24.541  1.00  0.00    -0.205 F 
ENDBRANCH  14  20
BRANCH  15  23
ATOM     23  C   UNL A   1      33.171  27.058  25.690  1.00  0.00     0.000 A 
ATOM     24  C   UNL A   1      32.194  27.740  24.949  1.00  0.00     0.012 A 
ATOM     25  C   UNL A   1      33.829  27.754  26.725  1.00  0.00     0.012 A 
ATOM     26  C   UNL A   1      31.843  29.058  25.272  1.00  0.00     0.021 A 
ATOM     27  C   UNL A   1      33.483  29.070  27.046  1.00  0.00     0.021 A 
ATOM     28  C   UNL A   1      32.477  29.709  26.327  1.00  0.00     0.041 A 
ATOM     29  Cl  UNL A   1      31.998  31.303  26.767  1.00  0.00    -0.084 Cl
ENDBRANCH  15  23
ENDBRANCH   7   8
ENDBRANCH   5   7
ENDBRANCH   2   3
ENDBRANCH   1   2
BRANCH   1  30
ATOM     30  C   UNL A   1      41.810  19.869  26.911  1.00  0.00     0.118 C 
BRANCH  30  31
ATOM     31  N   UNL A   1      43.008  19.777  26.075  1.00  0.00    -0.352 N 
ATOM     32  C   UNL A   1      43.725  20.800  25.475  1.00  0.00     0.251 C 
ATOM     33  H   UNL A   1      43.349  18.867  25.919  1.00  0.00     0.163 HD
ATOM     34  O   UNL A   1      44.498  20.565  24.559  1.00  0.00    -0.269 OA
BRANCH  32  35
ATOM     35  C   UNL A   1      43.545  22.187  25.951  1.00  0.00     0.039 A 
ATOM     36  C   UNL A   1      42.756  23.102  25.245  1.00  0.00     0.014 A 
ATOM     37  C   UNL A   1      44.203  22.584  27.111  1.00  0.00     0.014 A 
ATOM     38  C   UNL A   1      42.594  24.389  25.755  1.00  0.00     0.010 A 
ATOM     39  C   UNL A   1      43.901  23.778  27.708  1.00  0.00     0.010 A 
ATOM     40  C   UNL A   1      43.166  24.713  26.996  1.00  0.00    -0.014 A 
BRANCH  40  41
ATOM     41  C   UNL A   1      42.991  26.029  27.588  1.00  0.00     0.031 A 
ATOM     42  C   UNL A   1      43.945  27.065  27.126  1.00  0.00     0.074 A 
ATOM     43  C   UNL A   1      41.927  26.347  28.355  1.00  0.00     0.049 A 
ATOM     44  N   UNL A   1      44.866  27.643  27.822  1.00  0.00    -0.248 NA
ATOM     45  C   UNL A   1      43.952  27.430  25.703  1.00  0.00     0.031 C 
ATOM     46  C   UNL A   1      40.730  25.551  28.649  1.00  0.00     0.029 A 
ATOM     47  N   UNL A   1      41.660  27.527  28.973  1.00  0.00    -0.354 N 
ATOM     48  C   UNL A   1      45.469  28.570  26.978  1.00  0.00     0.074 A 
ATOM     49  C   UNL A   1      44.974  28.289  25.656  1.00  0.00     0.031 C 
ATOM     50  C   UNL A   1      39.781  26.344  29.195  1.00  0.00     0.029 A 
ATOM     51  C   UNL A   1      40.362  27.650  29.445  1.00  0.00     0.049 A 
ATOM     52  H   UNL A   1      42.332  28.238  29.076  1.00  0.00     0.167 HD
ATOM     53  C   UNL A   1      46.162  29.627  27.490  1.00  0.00     0.037 A 
ATOM     54  C   UNL A   1      39.802  28.761  29.979  1.00  0.00     0.037 A 
ATOM     55  C   UNL A   1      46.476  29.409  28.881  1.00  0.00     0.049 A 
ATOM     56  C   UNL A   1      40.917  29.623  30.453  1.00  0.00     0.074 A 
ATOM     57  C   UNL A   1      47.195  28.453  29.573  1.00  0.00     0.029 A 
ATOM     58  N   UNL A   1      45.702  30.042  29.825  1.00  0.00    -0.354 N 
ATOM     59  N   UNL A   1      41.709  29.304  31.440  1.00  0.00    -0.248 NA
ATOM     60  C   UNL A   1      41.439  30.619  29.529  1.00  0.00     0.031 C 
ATOM     61  C   UNL A   1      46.451  28.229  30.768  1.00  0.00     0.029 A 
ATOM     62  C   UNL A   1      45.364  29.105  30.766  1.00  0.00     0.049 A 
ATOM     63  H   UNL A   1      45.440  30.991  29.825  1.00  0.00     0.167 HD
ATOM     64  C   UNL A   1      42.968  29.716  31.027  1.00  0.00     0.074 A 
ATOM     65  C   UNL A   1      42.725  30.596  29.886  1.00  0.00     0.031 C 
ATOM     66  C   UNL A   1      44.098  29.084  31.462  1.00  0.00     0.037 A 
BRANCH  53  67
ATOM     67  C   UNL A   1      46.244  30.999  26.864  1.00  0.00     0.064 A 
ATOM     68  C   UNL A   1      47.497  31.645  26.810  1.00  0.00     0.173 A 
ATOM     69  C   UNL A   1      45.127  31.822  26.613  1.00  0.00     0.173 A 
ATOM     70  F   UNL A   1      48.631  30.962  27.030  1.00  0.00    -0.203 F 
ATOM     71  C   UNL A   1      47.611  33.025  26.631  1.00  0.00     0.198 A 
ATOM     72  C   UNL A   1      45.249  33.191  26.381  1.00  0.00     0.198 A 
ATOM     73  F   UNL A   1      43.871  31.370  26.693  1.00  0.00    -0.203 F 
ATOM     74  F   UNL A   1      48.811  33.612  26.734  1.00  0.00    -0.200 F 
ATOM     75  C   UNL A   1      46.485  33.799  26.429  1.00  0.00     0.200 A 
ATOM     76  F   UNL A   1      44.143  33.927  26.198  1.00  0.00    -0.200 F 
ATOM     77  F   UNL A   1      46.581  35.132  26.331  1.00  0.00    -0.200 F 
ENDBRANCH  53  67
BRANCH  54  78
ATOM     78  C   UNL A   1      38.417  29.257  29.793  1.00  0.00     0.064 A 
ATOM     79  C   UNL A   1      37.630  29.636  30.891  1.00  0.00     0.173 A 
ATOM     80  C   UNL A   1      37.938  29.633  28.522  1.00  0.00     0.173 A 
ATOM     81  F   UNL A   1      38.036  29.357  32.139  1.00  0.00    -0.203 F 
ATOM     82  C   UNL A   1      36.451  30.373  30.730  1.00  0.00     0.198 A 
ATOM     83  C   UNL A   1      36.758  30.361  28.362  1.00  0.00     0.198 A 
ATOM     84  F   UNL A   1      38.652  29.385  27.414  1.00  0.00    -0.203 F 
ATOM     85  F   UNL A   1      35.760  30.772  31.808  1.00  0.00    -0.200 F 
ATOM     86  C   UNL A   1      36.022  30.744  29.467  1.00  0.00     0.200 A 
ATOM     87  F   UNL A   1      36.374  30.744  27.136  1.00  0.00    -0.200 F 
ATOM     88  F   UNL A   1      34.928  31.502  29.316  1.00  0.00    -0.200 F 
ENDBRANCH  54  78
BRANCH  66  89
ATOM     89  C   UNL A   1      43.980  28.099  32.590  1.00  0.00     0.064 A 
ATOM     90  C   UNL A   1      43.842  26.711  32.411  1.00  0.00     0.173 A 
ATOM     91  C   UNL A   1      44.215  28.559  33.894  1.00  0.00     0.173 A 
ATOM     92  F   UNL A   1      43.705  26.183  31.190  1.00  0.00    -0.203 F 
ATOM     93  C   UNL A   1      43.919  25.831  33.490  1.00  0.00     0.198 A 
ATOM     94  C   UNL A   1      44.326  27.675  34.964  1.00  0.00     0.198 A 
ATOM     95  F   UNL A   1      44.405  29.869  34.119  1.00  0.00    -0.203 F 
ATOM     96  F   UNL A   1      43.791  24.511  33.290  1.00  0.00    -0.200 F 
ATOM     97  C   UNL A   1      44.173  26.313  34.762  1.00  0.00     0.200 A 
ATOM     98  F   UNL A   1      44.621  28.142  36.184  1.00  0.00    -0.200 F 
ATOM     99  F   UNL A   1      44.304  25.464  35.791  1.00  0.00    -0.200 F 
ENDBRANCH  66  89
ENDBRANCH  40  41
ENDBRANCH  32  35
ENDBRANCH  30  31
ENDBRANCH   1  30
TORSDOF 14
ENDMDL
MODEL 3
REMARK VINA RESULT:     -11.6      3.662     11.042
REMARK SMILES O=C(Cn1nc(C2CC2)c2c(C(F)F)cc(-c3ccc(Cl)cc3)nc21)NCCCNC(=O)c1ccc(-c2c3nc(c(-c4c(F)c(F)c(F)c(F)c4F)c4ccc([nH]4)c(-c4c(F)c(F)c(F)c(F)c4F)c4nc(c(-c5c(F)c(F)c(F)c(F)c5F)c5ccc2[nH]5)C=C4)C=C3)cc1
REMARK SMILES IDX 28 1 27 2 26 3 1 4 2 5 3 7 4 8 5 9 25 10 6 11 10 12 24 13
REMARK SMILES IDX 11 14 16 15 15 16 7 17 8 18 9 19 12 20 13 21 14 22 17 23
REMARK SMILES IDX 18 24 23 25 19 26 22 27 20 28 21 29 29 30 30 31 31 32 32 34
REMARK SMILES IDX 33 35 34 36 95 37 35 38 94 39 36 40 37 41 38 42 88 43 39 44
REMARK SMILES IDX 93 45 87 46 89 47 40 48 92 49 86 50 85 51 41 53 73 54 53 55
REMARK SMILES IDX 72 56 54 57 57 58 71 59 90 60 55 61 56 62 70 64 91 65 58 66
REMARK SMILES IDX 42 67 43 68 51 69 44 70 45 71 49 72 52 73 46 74 47 75 50 76
REMARK SMILES IDX 48 77 74 78 75 79 83 80 76 81 77 82 81 83 84 84 78 85 79 86
REMARK SMILES IDX 82 87 80 88 59 89 60 90 68 91 61 92 62 93 66 94 69 95 63 96
REMARK SMILES IDX 64 97 67 98 65 99
REMARK H PARENT 26 6 30 33 89 52 57 63
REMARK Flexibility Score: inf
ROOT
ATOM      1  C   UNL A   1      44.066  22.146  25.806  1.00  0.00     0.042 C 
ENDROOT
BRANCH   1   2
ATOM      2  C   UNL A   1      43.681  23.114  24.682  1.00  0.00     0.117 C 
BRANCH   2   3
ATOM      3  N   UNL A   1      44.330  24.418  24.750  1.00  0.00    -0.354 N 
ATOM      4  O   UNL A   1      42.431  25.638  25.139  1.00  0.00    -0.273 OA
ATOM      5  C   UNL A   1      43.658  25.592  25.048  1.00  0.00     0.241 C 
ATOM      6  H   UNL A   1      45.298  24.467  24.574  1.00  0.00     0.163 HD
BRANCH   5   7
ATOM      7  C   UNL A   1      44.508  26.856  25.148  1.00  0.00     0.246 C 
BRANCH   7   8
ATOM      8  N   UNL A   1      45.934  26.611  25.305  1.00  0.00    -0.237 N 
ATOM      9  N   UNL A   1      46.763  26.843  24.272  1.00  0.00    -0.175 NA
ATOM     10  C   UNL A   1      46.599  26.305  26.466  1.00  0.00     0.159 A 
ATOM     11  C   UNL A   1      47.968  26.465  24.721  1.00  0.00     0.076 A 
ATOM     12  C   UNL A   1      47.960  26.178  26.129  1.00  0.00     0.051 A 
ATOM     13  N   UNL A   1      46.020  26.169  27.684  1.00  0.00    -0.228 NA
ATOM     14  C   UNL A   1      48.839  25.846  27.198  1.00  0.00     0.033 A 
ATOM     15  C   UNL A   1      46.887  25.904  28.679  1.00  0.00     0.073 A 
ATOM     16  C   UNL A   1      48.250  25.729  28.476  1.00  0.00     0.039 A 
BRANCH  11  17
ATOM     17  C   UNL A   1      49.047  26.414  23.642  1.00  0.00     0.041 C 
ATOM     18  C   UNL A   1      49.283  27.432  22.568  1.00  0.00     0.011 C 
ATOM     19  C   UNL A   1      50.209  27.376  23.739  1.00  0.00     0.011 C 
ENDBRANCH  11  17
BRANCH  14  20
ATOM     20  C   UNL A   1      50.338  25.693  27.176  1.00  0.00     0.373 C 
ATOM     21  F   UNL A   1      50.800  24.864  26.208  1.00  0.00    -0.205 F 
ATOM     22  F   UNL A   1      50.985  26.881  27.042  1.00  0.00    -0.205 F 
ENDBRANCH  14  20
BRANCH  15  23
ATOM     23  C   UNL A   1      46.369  25.793  30.052  1.00  0.00     0.000 A 
ATOM     24  C   UNL A   1      47.210  25.958  31.163  1.00  0.00     0.012 A 
ATOM     25  C   UNL A   1      44.981  25.688  30.278  1.00  0.00     0.012 A 
ATOM     26  C   UNL A   1      46.677  26.073  32.453  1.00  0.00     0.021 A 
ATOM     27  C   UNL A   1      44.447  25.799  31.565  1.00  0.00     0.021 A 
ATOM     28  C   UNL A   1      45.298  26.009  32.645  1.00  0.00     0.041 A 
ATOM     29  Cl  UNL A   1      44.639  26.220  34.221  1.00  0.00    -0.084 Cl
ENDBRANCH  15  23
ENDBRANCH   7   8
ENDBRANCH   5   7
ENDBRANCH   2   3
ENDBRANCH   1   2
BRANCH   1  30
ATOM     30  C   UNL A   1      42.998  21.992  26.877  1.00  0.00     0.118 C 
BRANCH  30  31
ATOM     31  N   UNL A   1      41.648  21.772  26.356  1.00  0.00    -0.352 N 
ATOM     32  C   UNL A   1      40.483  22.462  26.650  1.00  0.00     0.251 C 
ATOM     33  H   UNL A   1      41.556  21.035  25.710  1.00  0.00     0.163 HD
ATOM     34  O   UNL A   1      39.391  21.978  26.397  1.00  0.00    -0.269 OA
BRANCH  32  35
ATOM     35  C   UNL A   1      40.571  23.796  27.281  1.00  0.00     0.039 A 
ATOM     36  C   UNL A   1      41.593  24.108  28.183  1.00  0.00     0.014 A 
ATOM     37  C   UNL A   1      39.594  24.740  26.981  1.00  0.00     0.014 A 
ATOM     38  C   UNL A   1      41.647  25.391  28.726  1.00  0.00     0.010 A 
ATOM     39  C   UNL A   1      39.747  26.045  27.364  1.00  0.00     0.010 A 
ATOM     40  C   UNL A   1      40.721  26.355  28.299  1.00  0.00    -0.014 A 
BRANCH  40  41
ATOM     41  C   UNL A   1      40.763  27.718  28.804  1.00  0.00     0.031 A 
ATOM     42  C   UNL A   1      41.854  28.562  28.262  1.00  0.00     0.074 A 
ATOM     43  C   UNL A   1      39.780  28.245  29.563  1.00  0.00     0.049 A 
ATOM     44  N   UNL A   1      42.869  29.034  28.904  1.00  0.00    -0.248 NA
ATOM     45  C   UNL A   1      41.883  28.830  26.817  1.00  0.00     0.031 C 
ATOM     46  C   UNL A   1      38.482  27.665  29.926  1.00  0.00     0.029 A 
ATOM     47  N   UNL A   1      39.711  29.490  30.105  1.00  0.00    -0.354 N 
ATOM     48  C   UNL A   1      43.587  29.801  27.992  1.00  0.00     0.074 A 
ATOM     49  C   UNL A   1      43.023  29.516  26.699  1.00  0.00     0.031 C 
ATOM     50  C   UNL A   1      37.679  28.628  30.431  1.00  0.00     0.029 A 
ATOM     51  C   UNL A   1      38.459  29.841  30.585  1.00  0.00     0.049 A 
ATOM     52  H   UNL A   1      40.487  30.093  30.151  1.00  0.00     0.167 HD
ATOM     53  C   UNL A   1      44.445  30.769  28.423  1.00  0.00     0.037 A 
ATOM     54  C   UNL A   1      38.090  31.058  31.051  1.00  0.00     0.037 A 
ATOM     55  C   UNL A   1      44.756  30.595  29.821  1.00  0.00     0.049 A 
ATOM     56  C   UNL A   1      39.334  31.765  31.451  1.00  0.00     0.074 A 
ATOM     57  C   UNL A   1      45.336  29.585  30.565  1.00  0.00     0.029 A 
ATOM     58  N   UNL A   1      44.111  31.399  30.731  1.00  0.00    -0.354 N 
ATOM     59  N   UNL A   1      40.091  31.391  32.447  1.00  0.00    -0.248 NA
ATOM     60  C   UNL A   1      39.980  32.608  30.456  1.00  0.00     0.031 C 
ATOM     61  C   UNL A   1      44.594  29.555  31.783  1.00  0.00     0.029 A 
ATOM     62  C   UNL A   1      43.655  30.587  31.737  1.00  0.00     0.049 A 
ATOM     63  H   UNL A   1      43.997  32.374  30.672  1.00  0.00     0.167 HD
ATOM     64  C   UNL A   1      41.388  31.577  31.990  1.00  0.00     0.074 A 
ATOM     65  C   UNL A   1      41.257  32.409  30.796  1.00  0.00     0.031 C 
ATOM     66  C   UNL A   1      42.418  30.807  32.450  1.00  0.00     0.037 A 
BRANCH  53  67
ATOM     67  C   UNL A   1      44.722  32.069  27.706  1.00  0.00     0.064 A 
ATOM     68  C   UNL A   1      45.926  32.202  26.984  1.00  0.00     0.173 A 
ATOM     69  C   UNL A   1      44.029  33.272  27.953  1.00  0.00     0.173 A 
ATOM     70  F   UNL A   1      46.671  31.125  26.688  1.00  0.00    -0.203 F 
ATOM     71  C   UNL A   1      46.449  33.450  26.637  1.00  0.00     0.198 A 
ATOM     72  C   UNL A   1      44.527  34.513  27.558  1.00  0.00     0.198 A 
ATOM     73  F   UNL A   1      42.907  33.317  28.680  1.00  0.00    -0.203 F 
ATOM     74  F   UNL A   1      47.666  33.530  26.083  1.00  0.00    -0.200 F 
ATOM     75  C   UNL A   1      45.754  34.605  26.936  1.00  0.00     0.200 A 
ATOM     76  F   UNL A   1      43.843  35.623  27.867  1.00  0.00    -0.200 F 
ATOM     77  F   UNL A   1      46.283  35.807  26.673  1.00  0.00    -0.200 F 
ENDBRANCH  53  67
BRANCH  54  78
ATOM     78  C   UNL A   1      36.793  31.749  30.851  1.00  0.00     0.064 A 
ATOM     79  C   UNL A   1      35.944  32.023  31.935  1.00  0.00     0.173 A 
ATOM     80  C   UNL A   1      36.489  32.400  29.639  1.00  0.00     0.173 A 
ATOM     81  F   UNL A   1      36.189  31.480  33.136  1.00  0.00    -0.203 F 
ATOM     82  C   UNL A   1      34.875  32.920  31.821  1.00  0.00     0.198 A 
ATOM     83  C   UNL A   1      35.418  33.288  29.525  1.00  0.00     0.198 A 
ATOM     84  F   UNL A   1      37.281  32.264  28.565  1.00  0.00    -0.203 F 
ATOM     85  F   UNL A   1      34.126  33.206  32.896  1.00  0.00    -0.200 F 
ATOM     86  C   UNL A   1      34.619  33.559  30.620  1.00  0.00     0.200 A 
ATOM     87  F   UNL A   1      35.204  33.927  28.366  1.00  0.00    -0.200 F 
ATOM     88  F   UNL A   1      33.636  34.464  30.527  1.00  0.00    -0.200 F 
ENDBRANCH  54  78
BRANCH  66  89
ATOM     89  C   UNL A   1      42.177  29.926  33.644  1.00  0.00     0.064 A 
ATOM     90  C   UNL A   1      41.703  28.605  33.563  1.00  0.00     0.173 A 
ATOM     91  C   UNL A   1      42.631  30.371  34.893  1.00  0.00     0.173 A 
ATOM     92  F   UNL A   1      41.336  28.073  32.391  1.00  0.00    -0.203 F 
ATOM     93  C   UNL A   1      41.671  27.777  34.684  1.00  0.00     0.198 A 
ATOM     94  C   UNL A   1      42.630  29.531  36.004  1.00  0.00     0.198 A 
ATOM     95  F   UNL A   1      43.142  31.605  35.021  1.00  0.00    -0.203 F 
ATOM     96  F   UNL A   1      41.221  26.518  34.578  1.00  0.00    -0.200 F 
ATOM     97  C   UNL A   1      42.146  28.237  35.900  1.00  0.00     0.200 A 
ATOM     98  F   UNL A   1      43.137  29.965  37.166  1.00  0.00    -0.200 F 
ATOM     99  F   UNL A   1      42.169  27.425  36.966  1.00  0.00    -0.200 F 
ENDBRANCH  66  89
ENDBRANCH  40  41
ENDBRANCH  32  35
ENDBRANCH  30  31
ENDBRANCH   1  30
TORSDOF 14
ENDMDL
