MODEL 1
REMARK VINA RESULT:     -12.5      0.000      0.000
REMARK SMILES O=C(NCCCNC(=O)c1cccc(Br)c1O[C@@H]1CCOC2(CCC2)C1)c1ccc(-c2c3nc(c(-c4c(F)c(F)c(F)c(F)c4F)c4ccc([nH]4)c(-c4c(F)c(F)c(F)c(F)c4F)c4nc(c(-c5c(F)c(F)c(F)c(F)c5F)c5ccc2[nH]5)C=C4)C=C3)cc1
REMARK SMILES IDX 5 1 4 2 3 3 1 4 2 5 27 7 28 8 89 9 29 10 88 11 30 12 31 13
REMARK SMILES IDX 32 14 82 15 33 16 87 17 81 18 83 19 34 20 86 21 80 22 79 23
REMARK SMILES IDX 35 25 67 26 47 27 66 28 48 29 51 30 65 31 84 32 49 33 50 34
REMARK SMILES IDX 64 36 85 37 52 38 36 39 37 40 45 41 38 42 39 43 43 44 46 45
REMARK SMILES IDX 40 46 41 47 44 48 42 49 68 50 69 51 77 52 70 53 71 54 75 55
REMARK SMILES IDX 78 56 72 57 73 58 76 59 74 60 53 61 54 62 62 63 55 64 56 65
REMARK SMILES IDX 60 66 63 67 57 68 58 69 61 70 59 71 6 72 7 73 8 74 9 76
REMARK SMILES IDX 10 77 11 78 16 79 12 80 14 81 13 82 15 83 17 84 18 85 19 86
REMARK SMILES IDX 26 87 20 88 22 89 21 90 23 91 25 92 24 93
REMARK H PARENT 3 6 83 24 51 35 7 75
REMARK Flexibility Score: inf
ROOT
ATOM      1  C   UNL A   1      32.566  30.066  25.701  1.00  0.00     0.042 C 
ENDROOT
BRANCH   1   2
ATOM      2  C   UNL A   1      32.468  30.660  27.094  1.00  0.00     0.118 C 
BRANCH   2   3
ATOM      3  N   UNL A   1      32.488  32.119  27.111  1.00  0.00    -0.352 N 
ATOM      4  O   UNL A   1      33.194  34.192  27.658  1.00  0.00    -0.269 OA
ATOM      5  C   UNL A   1      33.417  32.986  27.641  1.00  0.00     0.251 C 
ATOM      6  H   UNL A   1      31.717  32.550  26.676  1.00  0.00     0.163 HD
BRANCH   5   7
ATOM      7  C   UNL A   1      34.670  32.459  28.223  1.00  0.00     0.039 A 
ATOM      8  C   UNL A   1      34.689  31.205  28.830  1.00  0.00     0.014 A 
ATOM      9  C   UNL A   1      35.834  33.232  28.188  1.00  0.00     0.014 A 
ATOM     10  C   UNL A   1      35.783  30.828  29.590  1.00  0.00     0.010 A 
ATOM     11  C   UNL A   1      36.991  32.779  28.832  1.00  0.00     0.010 A 
ATOM     12  C   UNL A   1      36.962  31.590  29.577  1.00  0.00    -0.014 A 
BRANCH  12  13
ATOM     13  C   UNL A   1      38.152  31.052  30.288  1.00  0.00     0.031 A 
ATOM     14  C   UNL A   1      38.444  31.397  31.721  1.00  0.00     0.074 A 
ATOM     15  C   UNL A   1      38.934  30.173  29.630  1.00  0.00     0.049 A 
ATOM     16  N   UNL A   1      39.399  30.945  32.497  1.00  0.00    -0.248 NA
ATOM     17  C   UNL A   1      37.563  32.379  32.371  1.00  0.00     0.031 C 
ATOM     18  C   UNL A   1      38.761  29.781  28.228  1.00  0.00     0.029 A 
ATOM     19  N   UNL A   1      40.000  29.422  30.051  1.00  0.00    -0.354 N 
ATOM     20  C   UNL A   1      39.237  31.585  33.719  1.00  0.00     0.074 A 
ATOM     21  C   UNL A   1      38.118  32.491  33.571  1.00  0.00     0.031 C 
ATOM     22  C   UNL A   1      39.638  28.815  27.927  1.00  0.00     0.029 A 
ATOM     23  C   UNL A   1      40.493  28.582  29.083  1.00  0.00     0.049 A 
ATOM     24  H   UNL A   1      40.378  29.479  30.959  1.00  0.00     0.167 HD
ATOM     25  C   UNL A   1      39.950  31.418  34.860  1.00  0.00     0.037 A 
ATOM     26  C   UNL A   1      41.534  27.731  29.108  1.00  0.00     0.037 A 
ATOM     27  C   UNL A   1      41.066  30.514  34.996  1.00  0.00     0.049 A 
ATOM     28  C   UNL A   1      42.322  27.595  30.378  1.00  0.00     0.074 A 
ATOM     29  C   UNL A   1      41.852  30.271  36.111  1.00  0.00     0.029 A 
ATOM     30  N   UNL A   1      41.561  29.706  33.981  1.00  0.00    -0.354 N 
ATOM     31  N   UNL A   1      42.138  28.186  31.533  1.00  0.00    -0.248 NA
ATOM     32  C   UNL A   1      43.461  26.670  30.347  1.00  0.00     0.031 C 
ATOM     33  C   UNL A   1      42.849  29.357  35.757  1.00  0.00     0.029 A 
ATOM     34  C   UNL A   1      42.650  28.980  34.439  1.00  0.00     0.049 A 
ATOM     35  H   UNL A   1      41.193  29.657  33.069  1.00  0.00     0.167 HD
ATOM     36  C   UNL A   1      43.129  27.697  32.371  1.00  0.00     0.074 A 
ATOM     37  C   UNL A   1      43.886  26.731  31.601  1.00  0.00     0.031 C 
ATOM     38  C   UNL A   1      43.396  28.024  33.659  1.00  0.00     0.037 A 
BRANCH  25  39
ATOM     39  C   UNL A   1      39.553  32.232  36.060  1.00  0.00     0.064 A 
ATOM     40  C   UNL A   1      40.155  33.469  36.343  1.00  0.00     0.173 A 
ATOM     41  C   UNL A   1      38.514  31.804  36.903  1.00  0.00     0.173 A 
ATOM     42  F   UNL A   1      41.159  33.921  35.576  1.00  0.00    -0.203 F 
ATOM     43  C   UNL A   1      39.746  34.234  37.432  1.00  0.00     0.198 A 
ATOM     44  C   UNL A   1      38.088  32.587  37.973  1.00  0.00     0.198 A 
ATOM     45  F   UNL A   1      37.897  30.635  36.677  1.00  0.00    -0.203 F 
ATOM     46  F   UNL A   1      40.364  35.392  37.704  1.00  0.00    -0.200 F 
ATOM     47  C   UNL A   1      38.707  33.798  38.241  1.00  0.00     0.200 A 
ATOM     48  F   UNL A   1      37.072  32.172  38.743  1.00  0.00    -0.200 F 
ATOM     49  F   UNL A   1      38.306  34.544  39.280  1.00  0.00    -0.200 F 
ENDBRANCH  25  39
BRANCH  26  50
ATOM     50  C   UNL A   1      41.904  26.975  27.882  1.00  0.00     0.064 A 
ATOM     51  C   UNL A   1      41.403  25.690  27.639  1.00  0.00     0.173 A 
ATOM     52  C   UNL A   1      42.779  27.524  26.932  1.00  0.00     0.173 A 
ATOM     53  F   UNL A   1      40.574  25.114  28.522  1.00  0.00    -0.203 F 
ATOM     54  C   UNL A   1      41.788  24.970  26.509  1.00  0.00     0.198 A 
ATOM     55  C   UNL A   1      43.130  26.822  25.783  1.00  0.00     0.198 A 
ATOM     56  F   UNL A   1      43.279  28.756  27.111  1.00  0.00    -0.203 F 
ATOM     57  F   UNL A   1      41.342  23.719  26.331  1.00  0.00    -0.200 F 
ATOM     58  C   UNL A   1      42.646  25.539  25.579  1.00  0.00     0.200 A 
ATOM     59  F   UNL A   1      43.940  27.387  24.877  1.00  0.00    -0.200 F 
ATOM     60  F   UNL A   1      43.013  24.849  24.491  1.00  0.00    -0.200 F 
ENDBRANCH  26  50
BRANCH  38  61
ATOM     61  C   UNL A   1      44.539  27.305  34.318  1.00  0.00     0.064 A 
ATOM     62  C   UNL A   1      45.842  27.827  34.310  1.00  0.00     0.173 A 
ATOM     63  C   UNL A   1      44.328  26.075  34.960  1.00  0.00     0.173 A 
ATOM     64  F   UNL A   1      46.100  28.990  33.693  1.00  0.00    -0.203 F 
ATOM     65  C   UNL A   1      46.898  27.122  34.881  1.00  0.00     0.198 A 
ATOM     66  C   UNL A   1      45.380  25.392  35.563  1.00  0.00     0.198 A 
ATOM     67  F   UNL A   1      43.101  25.536  35.003  1.00  0.00    -0.203 F 
ATOM     68  F   UNL A   1      48.146  27.605  34.796  1.00  0.00    -0.200 F 
ATOM     69  C   UNL A   1      46.666  25.909  35.510  1.00  0.00     0.200 A 
ATOM     70  F   UNL A   1      45.152  24.228  36.185  1.00  0.00    -0.200 F 
ATOM     71  F   UNL A   1      47.685  25.231  36.058  1.00  0.00    -0.200 F 
ENDBRANCH  38  61
ENDBRANCH  12  13
ENDBRANCH   5   7
ENDBRANCH   2   3
ENDBRANCH   1   2
BRANCH   1  72
ATOM     72  C   UNL A   1      33.503  28.878  25.606  1.00  0.00     0.118 C 
BRANCH  72  73
ATOM     73  N   UNL A   1      34.017  28.659  24.256  1.00  0.00    -0.352 N 
ATOM     74  C   UNL A   1      33.432  28.061  23.159  1.00  0.00     0.255 C 
ATOM     75  H   UNL A   1      34.930  28.994  24.104  1.00  0.00     0.163 HD
ATOM     76  O   UNL A   1      34.065  27.942  22.118  1.00  0.00    -0.269 OA
BRANCH  74  77
ATOM     77  C   UNL A   1      32.029  27.608  23.268  1.00  0.00     0.083 A 
ATOM     78  C   UNL A   1      31.094  28.248  22.460  1.00  0.00     0.018 A 
ATOM     79  C   UNL A   1      31.638  26.627  24.207  1.00  0.00     0.146 A 
ATOM     80  C   UNL A   1      29.756  28.051  22.694  1.00  0.00     0.002 A 
ATOM     81  C   UNL A   1      30.247  26.385  24.605  1.00  0.00     0.060 A 
ATOM     82  C   UNL A   1      29.346  27.202  23.736  1.00  0.00     0.019 A 
ATOM     83  Br  UNL A   1      29.616  24.685  26.454  1.00  0.00    -0.047 Br
BRANCH  79  84
ATOM     84  O   UNL A   1      32.623  25.841  24.717  1.00  0.00    -0.488 OA
BRANCH  84  85
ATOM     85  C   UNL A   1      32.745  25.068  23.568  1.00  0.00     0.178 C 
ATOM     86  C   UNL A   1      31.535  23.569  23.833  1.00  0.00     0.074 C 
ATOM     87  C   UNL A   1      34.660  24.815  23.549  1.00  0.00     0.080 C 
ATOM     88  C   UNL A   1      32.312  21.825  24.094  1.00  0.00     0.165 C 
ATOM     89  C   UNL A   1      35.306  23.080  23.979  1.00  0.00     0.072 C 
ATOM     90  O   UNL A   1      34.151  21.682  24.079  1.00  0.00    -0.375 OA
ATOM     91  C   UNL A   1      36.572  22.657  23.128  1.00  0.00     0.036 C 
ATOM     92  C   UNL A   1      36.355  23.269  25.147  1.00  0.00     0.036 C 
ATOM     93  C   UNL A   1      37.241  22.242  24.451  1.00  0.00     0.006 C 
ENDBRANCH  84  85
ENDBRANCH  79  84
ENDBRANCH  74  77
ENDBRANCH  72  73
ENDBRANCH   1  72
TORSDOF 12
ENDMDL
MODEL 2
REMARK VINA RESULT:     -12.5      1.740      3.593
REMARK SMILES O=C(NCCCNC(=O)c1cccc(Br)c1O[C@@H]1CCOC2(CCC2)C1)c1ccc(-c2c3nc(c(-c4c(F)c(F)c(F)c(F)c4F)c4ccc([nH]4)c(-c4c(F)c(F)c(F)c(F)c4F)c4nc(c(-c5c(F)c(F)c(F)c(F)c5F)c5ccc2[nH]5)C=C4)C=C3)cc1
REMARK SMILES IDX 5 1 4 2 3 3 1 4 2 5 27 7 28 8 89 9 29 10 88 11 30 12 31 13
REMARK SMILES IDX 32 14 82 15 33 16 87 17 81 18 83 19 34 20 86 21 80 22 79 23
REMARK SMILES IDX 35 25 67 26 47 27 66 28 48 29 51 30 65 31 84 32 49 33 50 34
REMARK SMILES IDX 64 36 85 37 52 38 36 39 37 40 45 41 38 42 39 43 43 44 46 45
REMARK SMILES IDX 40 46 41 47 44 48 42 49 68 50 69 51 77 52 70 53 71 54 75 55
REMARK SMILES IDX 78 56 72 57 73 58 76 59 74 60 53 61 54 62 62 63 55 64 56 65
REMARK SMILES IDX 60 66 63 67 57 68 58 69 61 70 59 71 6 72 7 73 8 74 9 76
REMARK SMILES IDX 10 77 11 78 16 79 12 80 14 81 13 82 15 83 17 84 18 85 19 86
REMARK SMILES IDX 26 87 20 88 22 89 21 90 23 91 25 92 24 93
REMARK H PARENT 3 6 83 24 51 35 7 75
REMARK Flexibility Score: inf
ROOT
ATOM      1  C   UNL A   1      31.897  31.463  26.876  1.00  0.00     0.042 C 
ENDROOT
BRANCH   1   2
ATOM      2  C   UNL A   1      33.002  32.503  26.876  1.00  0.00     0.118 C 
BRANCH   2   3
ATOM      3  N   UNL A   1      32.600  33.783  27.448  1.00  0.00    -0.352 N 
ATOM      4  O   UNL A   1      32.528  35.472  28.946  1.00  0.00    -0.269 OA
ATOM      5  C   UNL A   1      33.083  34.450  28.552  1.00  0.00     0.251 C 
ATOM      6  H   UNL A   1      31.871  34.242  26.971  1.00  0.00     0.163 HD
BRANCH   5   7
ATOM      7  C   UNL A   1      34.249  33.915  29.286  1.00  0.00     0.039 A 
ATOM      8  C   UNL A   1      35.533  34.367  28.990  1.00  0.00     0.014 A 
ATOM      9  C   UNL A   1      34.066  32.932  30.264  1.00  0.00     0.014 A 
ATOM     10  C   UNL A   1      36.631  33.689  29.491  1.00  0.00     0.010 A 
ATOM     11  C   UNL A   1      35.178  32.349  30.882  1.00  0.00     0.010 A 
ATOM     12  C   UNL A   1      36.474  32.693  30.469  1.00  0.00    -0.014 A 
BRANCH  12  13
ATOM     13  C   UNL A   1      37.698  32.112  31.080  1.00  0.00     0.031 A 
ATOM     14  C   UNL A   1      38.146  32.481  32.467  1.00  0.00     0.074 A 
ATOM     15  C   UNL A   1      38.366  31.173  30.380  1.00  0.00     0.049 A 
ATOM     16  N   UNL A   1      39.148  32.000  33.161  1.00  0.00    -0.248 NA
ATOM     17  C   UNL A   1      37.384  33.527  33.166  1.00  0.00     0.031 C 
ATOM     18  C   UNL A   1      38.037  30.752  29.015  1.00  0.00     0.029 A 
ATOM     19  N   UNL A   1      39.429  30.379  30.721  1.00  0.00    -0.354 N 
ATOM     20  C   UNL A   1      39.140  32.681  34.371  1.00  0.00     0.074 A 
ATOM     21  C   UNL A   1      38.060  33.642  34.302  1.00  0.00     0.031 C 
ATOM     22  C   UNL A   1      38.830  29.732  28.664  1.00  0.00     0.029 A 
ATOM     23  C   UNL A   1      39.780  29.486  29.738  1.00  0.00     0.049 A 
ATOM     24  H   UNL A   1      39.895  30.440  31.586  1.00  0.00     0.167 HD
ATOM     25  C   UNL A   1      39.952  32.509  35.443  1.00  0.00     0.037 A 
ATOM     26  C   UNL A   1      40.774  28.581  29.692  1.00  0.00     0.037 A 
ATOM     27  C   UNL A   1      41.028  31.550  35.501  1.00  0.00     0.049 A 
ATOM     28  C   UNL A   1      41.675  28.438  30.883  1.00  0.00     0.074 A 
ATOM     29  C   UNL A   1      41.906  31.297  36.543  1.00  0.00     0.029 A 
ATOM     30  N   UNL A   1      41.379  30.688  34.471  1.00  0.00    -0.354 N 
ATOM     31  N   UNL A   1      41.635  29.071  32.030  1.00  0.00    -0.248 NA
ATOM     32  C   UNL A   1      42.757  27.453  30.774  1.00  0.00     0.031 C 
ATOM     33  C   UNL A   1      42.816  30.320  36.125  1.00  0.00     0.029 A 
ATOM     34  C   UNL A   1      42.469  29.917  34.846  1.00  0.00     0.049 A 
ATOM     35  H   UNL A   1      40.922  30.633  33.601  1.00  0.00     0.167 HD
ATOM     36  C   UNL A   1      42.678  28.553  32.785  1.00  0.00     0.074 A 
ATOM     37  C   UNL A   1      43.305  27.526  31.978  1.00  0.00     0.031 C 
ATOM     38  C   UNL A   1      43.085  28.901  34.030  1.00  0.00     0.037 A 
BRANCH  25  39
ATOM     39  C   UNL A   1      39.716  33.376  36.648  1.00  0.00     0.064 A 
ATOM     40  C   UNL A   1      40.346  34.623  36.792  1.00  0.00     0.173 A 
ATOM     41  C   UNL A   1      38.801  32.990  37.641  1.00  0.00     0.173 A 
ATOM     42  F   UNL A   1      41.237  35.038  35.879  1.00  0.00    -0.203 F 
ATOM     43  C   UNL A   1      40.084  35.437  37.892  1.00  0.00     0.198 A 
ATOM     44  C   UNL A   1      38.519  33.821  38.722  1.00  0.00     0.198 A 
ATOM     45  F   UNL A   1      38.163  31.813  37.551  1.00  0.00    -0.203 F 
ATOM     46  F   UNL A   1      40.729  36.604  38.027  1.00  0.00    -0.200 F 
ATOM     47  C   UNL A   1      39.164  35.041  38.851  1.00  0.00     0.200 A 
ATOM     48  F   UNL A   1      37.617  33.443  39.639  1.00  0.00    -0.200 F 
ATOM     49  F   UNL A   1      38.904  35.833  39.900  1.00  0.00    -0.200 F 
ENDBRANCH  25  39
BRANCH  26  50
ATOM     50  C   UNL A   1      40.983  27.771  28.462  1.00  0.00     0.064 A 
ATOM     51  C   UNL A   1      41.826  28.210  27.433  1.00  0.00     0.173 A 
ATOM     52  C   UNL A   1      40.329  26.542  28.289  1.00  0.00     0.173 A 
ATOM     53  F   UNL A   1      42.464  29.385  27.543  1.00  0.00    -0.203 F 
ATOM     54  C   UNL A   1      41.982  27.466  26.265  1.00  0.00     0.198 A 
ATOM     55  C   UNL A   1      40.518  25.778  27.140  1.00  0.00     0.198 A 
ATOM     56  F   UNL A   1      39.518  26.070  29.248  1.00  0.00    -0.203 F 
ATOM     57  F   UNL A   1      42.747  27.938  25.271  1.00  0.00    -0.200 F 
ATOM     58  C   UNL A   1      41.333  26.248  26.122  1.00  0.00     0.200 A 
ATOM     59  F   UNL A   1      39.907  24.592  27.019  1.00  0.00    -0.200 F 
ATOM     60  F   UNL A   1      41.486  25.531  25.001  1.00  0.00    -0.200 F 
ENDBRANCH  26  50
BRANCH  38  61
ATOM     61  C   UNL A   1      44.249  28.140  34.599  1.00  0.00     0.064 A 
ATOM     62  C   UNL A   1      45.570  28.590  34.447  1.00  0.00     0.173 A 
ATOM     63  C   UNL A   1      44.040  26.942  35.299  1.00  0.00     0.173 A 
ATOM     64  F   UNL A   1      45.826  29.720  33.770  1.00  0.00    -0.203 F 
ATOM     65  C   UNL A   1      46.640  27.845  34.937  1.00  0.00     0.198 A 
ATOM     66  C   UNL A   1      45.110  26.221  35.821  1.00  0.00     0.198 A 
ATOM     67  F   UNL A   1      42.797  26.472  35.479  1.00  0.00    -0.203 F 
ATOM     68  F   UNL A   1      47.897  28.257  34.716  1.00  0.00    -0.200 F 
ATOM     69  C   UNL A   1      46.409  26.665  35.627  1.00  0.00     0.200 A 
ATOM     70  F   UNL A   1      44.884  25.089  36.501  1.00  0.00    -0.200 F 
ATOM     71  F   UNL A   1      47.440  25.949  36.096  1.00  0.00    -0.200 F 
ENDBRANCH  38  61
ENDBRANCH  12  13
ENDBRANCH   5   7
ENDBRANCH   2   3
ENDBRANCH   1   2
BRANCH   1  72
ATOM     72  C   UNL A   1      32.350  30.088  26.424  1.00  0.00     0.118 C 
BRANCH  72  73
ATOM     73  N   UNL A   1      32.884  30.078  25.065  1.00  0.00    -0.352 N 
ATOM     74  C   UNL A   1      33.305  29.029  24.273  1.00  0.00     0.255 C 
ATOM     75  H   UNL A   1      32.953  30.966  24.643  1.00  0.00     0.163 HD
ATOM     76  O   UNL A   1      33.765  29.251  23.160  1.00  0.00    -0.269 OA
BRANCH  74  77
ATOM     77  C   UNL A   1      33.154  27.652  24.789  1.00  0.00     0.083 A 
ATOM     78  C   UNL A   1      33.936  27.301  25.885  1.00  0.00     0.018 A 
ATOM     79  C   UNL A   1      32.317  26.709  24.151  1.00  0.00     0.146 A 
ATOM     80  C   UNL A   1      34.027  25.979  26.249  1.00  0.00     0.002 A 
ATOM     81  C   UNL A   1      32.382  25.264  24.391  1.00  0.00     0.060 A 
ATOM     82  C   UNL A   1      33.328  25.004  25.520  1.00  0.00     0.019 A 
ATOM     83  Br  UNL A   1      30.932  23.577  23.066  1.00  0.00    -0.047 Br
BRANCH  79  84
ATOM     84  O   UNL A   1      31.369  27.203  23.310  1.00  0.00    -0.488 OA
BRANCH  84  85
ATOM     85  C   UNL A   1      30.539  27.641  24.335  1.00  0.00     0.178 C 
ATOM     86  C   UNL A   1      29.106  26.328  24.426  1.00  0.00     0.074 C 
ATOM     87  C   UNL A   1      30.202  29.445  23.731  1.00  0.00     0.080 C 
ATOM     88  C   UNL A   1      27.345  26.883  23.876  1.00  0.00     0.165 C 
ATOM     89  C   UNL A   1      28.464  29.822  23.063  1.00  0.00     0.072 C 
ATOM     90  O   UNL A   1      27.123  28.620  23.296  1.00  0.00    -0.375 OA
ATOM     91  C   UNL A   1      27.948  31.268  23.450  1.00  0.00     0.036 C 
ATOM     92  C   UNL A   1      28.663  30.454  21.626  1.00  0.00     0.036 C 
ATOM     93  C   UNL A   1      27.567  31.456  21.969  1.00  0.00     0.006 C 
ENDBRANCH  84  85
ENDBRANCH  79  84
ENDBRANCH  74  77
ENDBRANCH  72  73
ENDBRANCH   1  72
TORSDOF 12
ENDMDL
MODEL 3
REMARK VINA RESULT:     -12.5      1.697      3.536
REMARK SMILES O=C(NCCCNC(=O)c1cccc(Br)c1O[C@@H]1CCOC2(CCC2)C1)c1ccc(-c2c3nc(c(-c4c(F)c(F)c(F)c(F)c4F)c4ccc([nH]4)c(-c4c(F)c(F)c(F)c(F)c4F)c4nc(c(-c5c(F)c(F)c(F)c(F)c5F)c5ccc2[nH]5)C=C4)C=C3)cc1
REMARK SMILES IDX 5 1 4 2 3 3 1 4 2 5 27 7 28 8 89 9 29 10 88 11 30 12 31 13
REMARK SMILES IDX 32 14 82 15 33 16 87 17 81 18 83 19 34 20 86 21 80 22 79 23
REMARK SMILES IDX 35 25 67 26 47 27 66 28 48 29 51 30 65 31 84 32 49 33 50 34
REMARK SMILES IDX 64 36 85 37 52 38 36 39 37 40 45 41 38 42 39 43 43 44 46 45
REMARK SMILES IDX 40 46 41 47 44 48 42 49 68 50 69 51 77 52 70 53 71 54 75 55
REMARK SMILES IDX 78 56 72 57 73 58 76 59 74 60 53 61 54 62 62 63 55 64 56 65
REMARK SMILES IDX 60 66 63 67 57 68 58 69 61 70 59 71 6 72 7 73 8 74 9 76
REMARK SMILES IDX 10 77 11 78 16 79 12 80 14 81 13 82 15 83 17 84 18 85 19 86
REMARK SMILES IDX 26 87 20 88 22 89 21 90 23 91 25 92 24 93
REMARK H PARENT 3 6 83 24 51 35 7 75
REMARK Flexibility Score: inf
ROOT
ATOM      1  C   UNL A   1      31.817  31.402  26.874  1.00  0.00     0.042 C 
ENDROOT
BRANCH   1   2
ATOM      2  C   UNL A   1      32.702  32.579  26.509  1.00  0.00     0.118 C 
BRANCH   2   3
ATOM      3  N   UNL A   1      32.393  33.796  27.250  1.00  0.00    -0.352 N 
ATOM      4  O   UNL A   1      32.527  35.324  28.907  1.00  0.00    -0.269 OA
ATOM      5  C   UNL A   1      33.014  34.346  28.349  1.00  0.00     0.251 C 
ATOM      6  H   UNL A   1      31.619  34.304  26.913  1.00  0.00     0.163 HD
BRANCH   5   7
ATOM      7  C   UNL A   1      34.251  33.733  28.880  1.00  0.00     0.039 A 
ATOM      8  C   UNL A   1      34.188  32.559  29.627  1.00  0.00     0.014 A 
ATOM      9  C   UNL A   1      35.486  34.348  28.654  1.00  0.00     0.014 A 
ATOM     10  C   UNL A   1      35.302  32.133  30.330  1.00  0.00     0.010 A 
ATOM     11  C   UNL A   1      36.642  33.828  29.246  1.00  0.00     0.010 A 
ATOM     12  C   UNL A   1      36.553  32.738  30.125  1.00  0.00    -0.014 A 
BRANCH  12  13
ATOM     13  C   UNL A   1      37.739  32.137  30.790  1.00  0.00     0.031 A 
ATOM     14  C   UNL A   1      38.141  32.512  32.189  1.00  0.00     0.074 A 
ATOM     15  C   UNL A   1      38.411  31.174  30.128  1.00  0.00     0.049 A 
ATOM     16  N   UNL A   1      39.103  32.016  32.928  1.00  0.00    -0.248 NA
ATOM     17  C   UNL A   1      37.377  33.584  32.845  1.00  0.00     0.031 C 
ATOM     18  C   UNL A   1      38.126  30.743  28.756  1.00  0.00     0.029 A 
ATOM     19  N   UNL A   1      39.441  30.359  30.520  1.00  0.00    -0.354 N 
ATOM     20  C   UNL A   1      39.064  32.713  34.128  1.00  0.00     0.074 A 
ATOM     21  C   UNL A   1      38.010  33.698  34.006  1.00  0.00     0.031 C 
ATOM     22  C   UNL A   1      38.908  29.702  28.447  1.00  0.00     0.029 A 
ATOM     23  C   UNL A   1      39.810  29.447  29.561  1.00  0.00     0.049 A 
ATOM     24  H   UNL A   1      39.875  30.421  31.401  1.00  0.00     0.167 HD
ATOM     25  C   UNL A   1      39.829  32.535  35.233  1.00  0.00     0.037 A 
ATOM     26  C   UNL A   1      40.783  28.519  29.564  1.00  0.00     0.037 A 
ATOM     27  C   UNL A   1      40.880  31.553  35.344  1.00  0.00     0.049 A 
ATOM     28  C   UNL A   1      41.633  28.370  30.792  1.00  0.00     0.074 A 
ATOM     29  C   UNL A   1      41.710  31.292  36.423  1.00  0.00     0.029 A 
ATOM     30  N   UNL A   1      41.250  30.671  34.339  1.00  0.00    -0.354 N 
ATOM     31  N   UNL A   1      41.564  29.017  31.929  1.00  0.00    -0.248 NA
ATOM     32  C   UNL A   1      42.695  27.359  30.736  1.00  0.00     0.031 C 
ATOM     33  C   UNL A   1      42.612  30.290  36.052  1.00  0.00     0.029 A 
ATOM     34  C   UNL A   1      42.307  29.879  34.765  1.00  0.00     0.049 A 
ATOM     35  H   UNL A   1      40.826  30.615  33.452  1.00  0.00     0.167 HD
ATOM     36  C   UNL A   1      42.563  28.485  32.730  1.00  0.00     0.074 A 
ATOM     37  C   UNL A   1      43.197  27.434  31.960  1.00  0.00     0.031 C 
ATOM     38  C   UNL A   1      42.930  28.839  33.986  1.00  0.00     0.037 A 
BRANCH  25  39
ATOM     39  C   UNL A   1      39.567  33.423  36.418  1.00  0.00     0.064 A 
ATOM     40  C   UNL A   1      38.720  33.023  37.465  1.00  0.00     0.173 A 
ATOM     41  C   UNL A   1      40.219  34.660  36.544  1.00  0.00     0.173 A 
ATOM     42  F   UNL A   1      38.064  31.855  37.393  1.00  0.00    -0.203 F 
ATOM     43  C   UNL A   1      38.522  33.836  38.579  1.00  0.00     0.198 A 
ATOM     44  C   UNL A   1      40.042  35.456  37.673  1.00  0.00     0.198 A 
ATOM     45  F   UNL A   1      41.046  35.090  35.579  1.00  0.00    -0.203 F 
ATOM     46  F   UNL A   1      37.677  33.450  39.545  1.00  0.00    -0.200 F 
ATOM     47  C   UNL A   1      39.190  35.046  38.687  1.00  0.00     0.200 A 
ATOM     48  F   UNL A   1      40.701  36.618  37.784  1.00  0.00    -0.200 F 
ATOM     49  F   UNL A   1      39.008  35.820  39.767  1.00  0.00    -0.200 F 
ENDBRANCH  25  39
BRANCH  26  50
ATOM     50  C   UNL A   1      41.020  27.689  28.353  1.00  0.00     0.064 A 
ATOM     51  C   UNL A   1      40.401  26.444  28.188  1.00  0.00     0.173 A 
ATOM     52  C   UNL A   1      41.885  28.126  27.338  1.00  0.00     0.173 A 
ATOM     53  F   UNL A   1      39.576  25.974  29.136  1.00  0.00    -0.203 F 
ATOM     54  C   UNL A   1      40.662  25.654  27.070  1.00  0.00     0.198 A 
ATOM     55  C   UNL A   1      42.113  27.356  26.201  1.00  0.00     0.198 A 
ATOM     56  F   UNL A   1      42.496  29.316  27.440  1.00  0.00    -0.203 F 
ATOM     57  F   UNL A   1      40.104  24.440  26.967  1.00  0.00    -0.200 F 
ATOM     58  C   UNL A   1      41.513  26.113  26.075  1.00  0.00     0.200 A 
ATOM     59  F   UNL A   1      42.917  27.816  25.233  1.00  0.00    -0.200 F 
ATOM     60  F   UNL A   1      41.761  25.355  24.999  1.00  0.00    -0.200 F 
ENDBRANCH  26  50
BRANCH  38  61
ATOM     61  C   UNL A   1      44.052  28.059  34.609  1.00  0.00     0.064 A 
ATOM     62  C   UNL A   1      45.389  28.476  34.503  1.00  0.00     0.173 A 
ATOM     63  C   UNL A   1      43.788  26.876  35.316  1.00  0.00     0.173 A 
ATOM     64  F   UNL A   1      45.698  29.590  33.822  1.00  0.00    -0.203 F 
ATOM     65  C   UNL A   1      46.421  27.713  35.043  1.00  0.00     0.198 A 
ATOM     66  C   UNL A   1      44.819  26.136  35.887  1.00  0.00     0.198 A 
ATOM     67  F   UNL A   1      42.528  26.437  35.453  1.00  0.00    -0.203 F 
ATOM     68  F   UNL A   1      47.695  28.092  34.866  1.00  0.00    -0.200 F 
ATOM     69  C   UNL A   1      46.135  26.548  35.738  1.00  0.00     0.200 A 
ATOM     70  F   UNL A   1      44.541  25.019  36.572  1.00  0.00    -0.200 F 
ATOM     71  F   UNL A   1      47.130  25.814  36.255  1.00  0.00    -0.200 F 
ENDBRANCH  38  61
ENDBRANCH  12  13
ENDBRANCH   5   7
ENDBRANCH   2   3
ENDBRANCH   1   2
BRANCH   1  72
ATOM     72  C   UNL A   1      32.365  30.060  26.427  1.00  0.00     0.118 C 
BRANCH  72  73
ATOM     73  N   UNL A   1      32.879  30.078  25.060  1.00  0.00    -0.352 N 
ATOM     74  C   UNL A   1      33.289  29.046  24.241  1.00  0.00     0.255 C 
ATOM     75  H   UNL A   1      32.941  30.974  24.655  1.00  0.00     0.163 HD
ATOM     76  O   UNL A   1      33.733  29.290  23.127  1.00  0.00    -0.269 OA
BRANCH  74  77
ATOM     77  C   UNL A   1      33.147  27.659  24.732  1.00  0.00     0.083 A 
ATOM     78  C   UNL A   1      33.940  27.288  25.813  1.00  0.00     0.018 A 
ATOM     79  C   UNL A   1      32.306  26.726  24.084  1.00  0.00     0.146 A 
ATOM     80  C   UNL A   1      34.039  25.960  26.150  1.00  0.00     0.002 A 
ATOM     81  C   UNL A   1      32.378  25.276  24.295  1.00  0.00     0.060 A 
ATOM     82  C   UNL A   1      33.335  24.997  25.409  1.00  0.00     0.019 A 
ATOM     83  Br  UNL A   1      30.918  23.612  22.952  1.00  0.00    -0.047 Br
BRANCH  79  84
ATOM     84  O   UNL A   1      31.349  27.233  23.262  1.00  0.00    -0.488 OA
BRANCH  84  85
ATOM     85  C   UNL A   1      30.529  27.652  24.304  1.00  0.00     0.178 C 
ATOM     86  C   UNL A   1      29.107  26.327  24.395  1.00  0.00     0.074 C 
ATOM     87  C   UNL A   1      30.172  29.461  23.728  1.00  0.00     0.080 C 
ATOM     88  C   UNL A   1      27.334  26.877  23.876  1.00  0.00     0.165 C 
ATOM     89  C   UNL A   1      28.422  29.835  23.088  1.00  0.00     0.072 C 
ATOM     90  O   UNL A   1      27.093  28.620  23.322  1.00  0.00    -0.375 OA
ATOM     91  C   UNL A   1      27.901  31.272  23.501  1.00  0.00     0.036 C 
ATOM     92  C   UNL A   1      28.598  30.486  21.657  1.00  0.00     0.036 C 
ATOM     93  C   UNL A   1      27.499  31.476  22.028  1.00  0.00     0.006 C 
ENDBRANCH  84  85
ENDBRANCH  79  84
ENDBRANCH  74  77
ENDBRANCH  72  73
ENDBRANCH   1  72
TORSDOF 12
ENDMDL
