MODEL 1
REMARK VINA RESULT:     -12.8      0.000      0.000
REMARK SMILES Cc1cnc(C)c(N2CCC[C@@](CC3CC3)(C(=O)NCCCNC(=O)c3ccc(-c4c5nc(c(-c6c(F)c(F)c(F)c(F)c6F)c6ccc([nH]6)c(-c6c(F)c(F)c(F)c(F)c6F)c6nc(c(-c7c(F)c(F)c(F)c(F)c7F)c7ccc4[nH]7)C=C6)C=C5)cc3)C2)n1
REMARK SMILES IDX 21 1 20 2 19 3 17 4 18 5 12 7 8 8 9 9 89 10 10 11 11 12 7 13
REMARK SMILES IDX 1 14 2 15 3 16 90 17 4 18 5 19 6 20 13 21 14 22 15 23 16 24
REMARK SMILES IDX 22 25 23 26 24 27 25 29 26 30 27 31 88 32 28 33 87 34 29 35
REMARK SMILES IDX 30 36 31 37 81 38 32 39 86 40 80 41 82 42 33 43 85 44 79 45
REMARK SMILES IDX 78 46 34 48 66 49 46 50 65 51 47 52 50 53 64 54 83 55 48 56
REMARK SMILES IDX 49 57 63 59 84 60 51 61 35 62 36 63 44 64 37 65 38 66 42 67
REMARK SMILES IDX 45 68 39 69 40 70 43 71 41 72 67 73 68 74 76 75 69 76 70 77
REMARK SMILES IDX 74 78 77 79 71 80 72 81 75 82 73 83 52 84 53 85 61 86 54 87
REMARK SMILES IDX 55 88 59 89 62 90 56 91 57 92 60 93 58 94
REMARK H PARENT 19 6 23 28 82 47 50 58
REMARK Flexibility Score: inf
ROOT
ATOM      1  C   UNL A   1      31.465  32.067  26.693  1.00  0.00     0.042 C 
ENDROOT
BRANCH   1   2
ATOM      2  C   UNL A   1      31.794  30.629  26.359  1.00  0.00     0.117 C 
BRANCH   2   3
ATOM      3  N   UNL A   1      32.936  30.087  27.024  1.00  0.00    -0.355 N 
ATOM      4  C   UNL A   1      33.609  28.957  26.671  1.00  0.00     0.228 C 
ATOM      5  O   UNL A   1      34.787  28.915  27.038  1.00  0.00    -0.274 OA
ATOM      6  H   UNL A   1      33.267  30.576  27.811  1.00  0.00     0.163 HD
BRANCH   4   7
ATOM      7  C   UNL A   1      32.940  27.800  25.862  1.00  0.00     0.067 C 
ATOM      8  N   UNL A   1      33.454  25.431  25.423  1.00  0.00    -0.354 N 
ATOM      9  C   UNL A   1      32.383  24.853  26.213  1.00  0.00     0.118 C 
ATOM     10  C   UNL A   1      34.020  26.664  25.961  1.00  0.00     0.135 C 
ATOM     11  C   UNL A   1      31.230  25.856  26.211  1.00  0.00     0.023 C 
ATOM     12  C   UNL A   1      31.676  27.273  26.599  1.00  0.00     0.020 C 
BRANCH   8  13
ATOM     13  C   UNL A   1      34.341  24.576  24.790  1.00  0.00     0.150 A 
ATOM     14  C   UNL A   1      37.623  23.069  25.494  1.00  0.00     0.068 C 
ATOM     15  C   UNL A   1      36.370  23.467  24.780  1.00  0.00     0.058 A 
ATOM     16  C   UNL A   1      36.176  23.118  23.452  1.00  0.00     0.135 A 
ATOM     17  N   UNL A   1      35.456  24.199  25.460  1.00  0.00    -0.233 NA
ATOM     18  N   UNL A   1      35.072  23.465  22.760  1.00  0.00    -0.256 NA
ATOM     19  C   UNL A   1      34.154  24.200  23.446  1.00  0.00     0.080 A 
ATOM     20  C   UNL A   1      33.012  24.728  22.627  1.00  0.00     0.071 C 
ENDBRANCH   8  13
BRANCH   7  21
ATOM     21  C   UNL A   1      32.829  28.164  24.340  1.00  0.00     0.022 C 
BRANCH  21  22
ATOM     22  C   UNL A   1      31.609  27.973  23.455  1.00  0.00    -0.010 C 
ATOM     23  C   UNL A   1      30.136  28.308  23.594  1.00  0.00     0.004 C 
ATOM     24  C   UNL A   1      31.037  29.250  22.860  1.00  0.00     0.004 C 
ENDBRANCH  21  22
ENDBRANCH   7  21
ENDBRANCH   4   7
ENDBRANCH   2   3
ENDBRANCH   1   2
BRANCH   1  25
ATOM     25  C   UNL A   1      32.648  32.812  27.281  1.00  0.00     0.118 C 
BRANCH  25  26
ATOM     26  N   UNL A   1      32.346  34.194  27.649  1.00  0.00    -0.352 N 
ATOM     27  C   UNL A   1      32.937  35.033  28.558  1.00  0.00     0.251 C 
ATOM     28  H   UNL A   1      31.588  34.590  27.160  1.00  0.00     0.163 HD
ATOM     29  O   UNL A   1      32.462  36.150  28.750  1.00  0.00    -0.269 OA
BRANCH  27  30
ATOM     30  C   UNL A   1      34.101  34.582  29.343  1.00  0.00     0.039 A 
ATOM     31  C   UNL A   1      33.887  34.063  30.622  1.00  0.00     0.014 A 
ATOM     32  C   UNL A   1      35.392  34.632  28.817  1.00  0.00     0.014 A 
ATOM     33  C   UNL A   1      34.954  33.513  31.330  1.00  0.00     0.010 A 
ATOM     34  C   UNL A   1      36.424  33.968  29.462  1.00  0.00     0.010 A 
ATOM     35  C   UNL A   1      36.220  33.410  30.731  1.00  0.00    -0.014 A 
BRANCH  35  36
ATOM     36  C   UNL A   1      37.344  32.728  31.415  1.00  0.00     0.031 A 
ATOM     37  C   UNL A   1      38.036  31.569  30.751  1.00  0.00     0.074 A 
ATOM     38  C   UNL A   1      37.685  33.105  32.663  1.00  0.00     0.049 A 
ATOM     39  N   UNL A   1      38.992  30.803  31.212  1.00  0.00    -0.248 NA
ATOM     40  C   UNL A   1      37.563  31.188  29.409  1.00  0.00     0.031 C 
ATOM     41  C   UNL A   1      37.024  34.156  33.443  1.00  0.00     0.029 A 
ATOM     42  N   UNL A   1      38.667  32.644  33.501  1.00  0.00    -0.354 N 
ATOM     43  C   UNL A   1      39.209  29.842  30.233  1.00  0.00     0.074 A 
ATOM     44  C   UNL A   1      38.247  30.077  29.182  1.00  0.00     0.031 C 
ATOM     45  C   UNL A   1      37.644  34.283  34.627  1.00  0.00     0.029 A 
ATOM     46  C   UNL A   1      38.719  33.303  34.706  1.00  0.00     0.049 A 
ATOM     47  H   UNL A   1      39.279  31.910  33.262  1.00  0.00     0.167 HD
ATOM     48  C   UNL A   1      40.152  28.872  30.201  1.00  0.00     0.037 A 
ATOM     49  C   UNL A   1      39.547  33.131  35.753  1.00  0.00     0.037 A 
ATOM     50  C   UNL A   1      41.145  28.685  31.223  1.00  0.00     0.049 A 
ATOM     51  C   UNL A   1      40.624  32.086  35.662  1.00  0.00     0.074 A 
ATOM     52  C   UNL A   1      42.205  27.796  31.244  1.00  0.00     0.029 A 
ATOM     53  N   UNL A   1      41.203  29.409  32.405  1.00  0.00    -0.354 N 
ATOM     54  N   UNL A   1      40.881  31.245  34.689  1.00  0.00    -0.248 NA
ATOM     55  C   UNL A   1      41.537  31.975  36.806  1.00  0.00     0.031 C 
ATOM     56  C   UNL A   1      42.880  27.953  32.459  1.00  0.00     0.029 A 
ATOM     57  C   UNL A   1      42.270  28.974  33.171  1.00  0.00     0.049 A 
ATOM     58  H   UNL A   1      40.578  30.125  32.660  1.00  0.00     0.167 HD
ATOM     59  C   UNL A   1      41.993  30.523  35.092  1.00  0.00     0.074 A 
ATOM     60  C   UNL A   1      42.381  31.043  36.387  1.00  0.00     0.031 C 
ATOM     61  C   UNL A   1      42.636  29.513  34.456  1.00  0.00     0.037 A 
BRANCH  48  62
ATOM     62  C   UNL A   1      40.171  27.953  29.013  1.00  0.00     0.064 A 
ATOM     63  C   UNL A   1      40.902  28.261  27.855  1.00  0.00     0.173 A 
ATOM     64  C   UNL A   1      39.493  26.727  29.054  1.00  0.00     0.173 A 
ATOM     65  F   UNL A   1      41.556  29.429  27.759  1.00  0.00    -0.203 F 
ATOM     66  C   UNL A   1      40.933  27.385  26.774  1.00  0.00     0.198 A 
ATOM     67  C   UNL A   1      39.552  25.839  27.982  1.00  0.00     0.198 A 
ATOM     68  F   UNL A   1      38.780  26.382  30.137  1.00  0.00    -0.203 F 
ATOM     69  F   UNL A   1      41.601  27.721  25.662  1.00  0.00    -0.200 F 
ATOM     70  C   UNL A   1      40.268  26.170  26.842  1.00  0.00     0.200 A 
ATOM     71  F   UNL A   1      38.918  24.660  28.055  1.00  0.00    -0.200 F 
ATOM     72  F   UNL A   1      40.311  25.322  25.805  1.00  0.00    -0.200 F 
ENDBRANCH  48  62
BRANCH  49  73
ATOM     73  C   UNL A   1      39.412  33.987  36.963  1.00  0.00     0.064 A 
ATOM     74  C   UNL A   1      40.017  35.251  37.022  1.00  0.00     0.173 A 
ATOM     75  C   UNL A   1      38.695  33.555  38.087  1.00  0.00     0.173 A 
ATOM     76  F   UNL A   1      40.727  35.703  35.979  1.00  0.00    -0.203 F 
ATOM     77  C   UNL A   1      39.937  36.035  38.172  1.00  0.00     0.198 A 
ATOM     78  C   UNL A   1      38.589  34.354  39.225  1.00  0.00     0.198 A 
ATOM     79  F   UNL A   1      38.087  32.359  38.079  1.00  0.00    -0.203 F 
ATOM     80  F   UNL A   1      40.573  37.213  38.221  1.00  0.00    -0.200 F 
ATOM     81  C   UNL A   1      39.220  35.587  39.271  1.00  0.00     0.200 A 
ATOM     82  F   UNL A   1      37.882  33.925  40.278  1.00  0.00    -0.200 F 
ATOM     83  F   UNL A   1      39.145  36.340  40.377  1.00  0.00    -0.200 F 
ENDBRANCH  49  73
BRANCH  61  84
ATOM     84  C   UNL A   1      43.836  28.930  35.141  1.00  0.00     0.064 A 
ATOM     85  C   UNL A   1      45.129  29.413  34.894  1.00  0.00     0.173 A 
ATOM     86  C   UNL A   1      43.686  27.893  36.074  1.00  0.00     0.173 A 
ATOM     87  F   UNL A   1      45.324  30.394  33.999  1.00  0.00    -0.203 F 
ATOM     88  C   UNL A   1      46.234  28.856  35.533  1.00  0.00     0.198 A 
ATOM     89  C   UNL A   1      44.789  27.360  36.735  1.00  0.00     0.198 A 
ATOM     90  F   UNL A   1      42.469  27.402  36.352  1.00  0.00    -0.203 F 
ATOM     91  F   UNL A   1      47.466  29.294  35.239  1.00  0.00    -0.200 F 
ATOM     92  C   UNL A   1      46.062  27.835  36.456  1.00  0.00     0.200 A 
ATOM     93  F   UNL A   1      44.621  26.385  37.638  1.00  0.00    -0.200 F 
ATOM     94  F   UNL A   1      47.126  27.303  37.072  1.00  0.00    -0.200 F 
ENDBRANCH  61  84
ENDBRANCH  35  36
ENDBRANCH  27  30
ENDBRANCH  25  26
ENDBRANCH   1  25
TORSDOF 13
ENDMDL
MODEL 2
REMARK VINA RESULT:     -12.8      0.107      1.587
REMARK SMILES Cc1cnc(C)c(N2CCC[C@@](CC3CC3)(C(=O)NCCCNC(=O)c3ccc(-c4c5nc(c(-c6c(F)c(F)c(F)c(F)c6F)c6ccc([nH]6)c(-c6c(F)c(F)c(F)c(F)c6F)c6nc(c(-c7c(F)c(F)c(F)c(F)c7F)c7ccc4[nH]7)C=C6)C=C5)cc3)C2)n1
REMARK SMILES IDX 21 1 20 2 19 3 17 4 18 5 12 7 8 8 9 9 89 10 10 11 11 12 7 13
REMARK SMILES IDX 1 14 2 15 3 16 90 17 4 18 5 19 6 20 13 21 14 22 15 23 16 24
REMARK SMILES IDX 22 25 23 26 24 27 25 29 26 30 27 31 88 32 28 33 87 34 29 35
REMARK SMILES IDX 30 36 31 37 81 38 32 39 86 40 80 41 82 42 33 43 85 44 79 45
REMARK SMILES IDX 78 46 34 48 66 49 46 50 65 51 47 52 50 53 64 54 83 55 48 56
REMARK SMILES IDX 49 57 63 59 84 60 51 61 35 62 36 63 44 64 37 65 38 66 42 67
REMARK SMILES IDX 45 68 39 69 40 70 43 71 41 72 67 73 68 74 76 75 69 76 70 77
REMARK SMILES IDX 74 78 77 79 71 80 72 81 75 82 73 83 52 84 53 85 61 86 54 87
REMARK SMILES IDX 55 88 59 89 62 90 56 91 57 92 60 93 58 94
REMARK H PARENT 19 6 23 28 82 47 50 58
REMARK Flexibility Score: inf
ROOT
ATOM      1  C   UNL A   1      31.480  32.043  26.590  1.00  0.00     0.042 C 
ENDROOT
BRANCH   1   2
ATOM      2  C   UNL A   1      31.764  30.580  26.332  1.00  0.00     0.117 C 
BRANCH   2   3
ATOM      3  N   UNL A   1      32.911  30.048  26.998  1.00  0.00    -0.355 N 
ATOM      4  C   UNL A   1      33.588  28.919  26.649  1.00  0.00     0.228 C 
ATOM      5  O   UNL A   1      34.767  28.885  27.014  1.00  0.00    -0.274 OA
ATOM      6  H   UNL A   1      33.240  30.542  27.782  1.00  0.00     0.163 HD
BRANCH   4   7
ATOM      7  C   UNL A   1      32.923  27.754  25.848  1.00  0.00     0.067 C 
ATOM      8  N   UNL A   1      33.452  25.388  25.413  1.00  0.00    -0.354 N 
ATOM      9  C   UNL A   1      32.390  24.804  26.212  1.00  0.00     0.118 C 
ATOM     10  C   UNL A   1      34.013  26.626  25.944  1.00  0.00     0.135 C 
ATOM     11  C   UNL A   1      31.230  25.799  26.213  1.00  0.00     0.023 C 
ATOM     12  C   UNL A   1      31.668  27.220  26.594  1.00  0.00     0.020 C 
BRANCH   8  13
ATOM     13  C   UNL A   1      34.342  24.538  24.778  1.00  0.00     0.150 A 
ATOM     14  C   UNL A   1      37.621  23.027  25.485  1.00  0.00     0.068 C 
ATOM     15  C   UNL A   1      36.372  23.429  24.768  1.00  0.00     0.058 A 
ATOM     16  C   UNL A   1      36.182  23.089  23.437  1.00  0.00     0.135 A 
ATOM     17  N   UNL A   1      35.454  24.156  25.450  1.00  0.00    -0.233 NA
ATOM     18  N   UNL A   1      35.081  23.440  22.743  1.00  0.00    -0.256 NA
ATOM     19  C   UNL A   1      34.160  24.170  23.431  1.00  0.00     0.080 A 
ATOM     20  C   UNL A   1      33.021  24.704  22.612  1.00  0.00     0.071 C 
ENDBRANCH   8  13
BRANCH   7  21
ATOM     21  C   UNL A   1      32.801  28.113  24.326  1.00  0.00     0.022 C 
BRANCH  21  22
ATOM     22  C   UNL A   1      31.566  27.941  23.456  1.00  0.00    -0.010 C 
ATOM     23  C   UNL A   1      30.103  28.315  23.608  1.00  0.00     0.004 C 
ATOM     24  C   UNL A   1      31.018  29.225  22.852  1.00  0.00     0.004 C 
ENDBRANCH  21  22
ENDBRANCH   7  21
ENDBRANCH   4   7
ENDBRANCH   2   3
ENDBRANCH   1   2
BRANCH   1  25
ATOM     25  C   UNL A   1      32.617  32.736  27.319  1.00  0.00     0.118 C 
BRANCH  25  26
ATOM     26  N   UNL A   1      32.328  34.126  27.668  1.00  0.00    -0.352 N 
ATOM     27  C   UNL A   1      32.934  34.975  28.557  1.00  0.00     0.251 C 
ATOM     28  H   UNL A   1      31.569  34.520  27.180  1.00  0.00     0.163 HD
ATOM     29  O   UNL A   1      32.470  36.098  28.735  1.00  0.00    -0.269 OA
BRANCH  27  30
ATOM     30  C   UNL A   1      34.103  34.528  29.338  1.00  0.00     0.039 A 
ATOM     31  C   UNL A   1      33.891  33.964  30.598  1.00  0.00     0.014 A 
ATOM     32  C   UNL A   1      35.397  34.625  28.825  1.00  0.00     0.014 A 
ATOM     33  C   UNL A   1      34.966  33.418  31.298  1.00  0.00     0.010 A 
ATOM     34  C   UNL A   1      36.439  33.967  29.458  1.00  0.00     0.010 A 
ATOM     35  C   UNL A   1      36.238  33.365  30.707  1.00  0.00    -0.014 A 
BRANCH  35  36
ATOM     36  C   UNL A   1      37.373  32.688  31.380  1.00  0.00     0.031 A 
ATOM     37  C   UNL A   1      38.064  31.532  30.710  1.00  0.00     0.074 A 
ATOM     38  C   UNL A   1      37.726  33.069  32.623  1.00  0.00     0.049 A 
ATOM     39  N   UNL A   1      39.028  30.771  31.161  1.00  0.00    -0.248 NA
ATOM     40  C   UNL A   1      37.577  31.147  29.374  1.00  0.00     0.031 C 
ATOM     41  C   UNL A   1      37.069  34.118  33.409  1.00  0.00     0.029 A 
ATOM     42  N   UNL A   1      38.720  32.614  33.451  1.00  0.00    -0.354 N 
ATOM     43  C   UNL A   1      39.239  29.810  30.182  1.00  0.00     0.074 A 
ATOM     44  C   UNL A   1      38.264  30.039  29.141  1.00  0.00     0.031 C 
ATOM     45  C   UNL A   1      37.701  34.250  34.586  1.00  0.00     0.029 A 
ATOM     46  C   UNL A   1      38.782  33.275  34.654  1.00  0.00     0.049 A 
ATOM     47  H   UNL A   1      39.332  31.883  33.206  1.00  0.00     0.167 HD
ATOM     48  C   UNL A   1      40.187  28.844  30.140  1.00  0.00     0.037 A 
ATOM     49  C   UNL A   1      39.622  33.109  35.693  1.00  0.00     0.037 A 
ATOM     50  C   UNL A   1      41.191  28.664  31.152  1.00  0.00     0.049 A 
ATOM     51  C   UNL A   1      40.704  32.069  35.591  1.00  0.00     0.074 A 
ATOM     52  C   UNL A   1      42.256  27.780  31.162  1.00  0.00     0.029 A 
ATOM     53  N   UNL A   1      41.259  29.390  32.332  1.00  0.00    -0.354 N 
ATOM     54  N   UNL A   1      40.953  31.227  34.616  1.00  0.00    -0.248 NA
ATOM     55  C   UNL A   1      41.629  31.963  36.725  1.00  0.00     0.031 C 
ATOM     56  C   UNL A   1      42.943  27.942  32.369  1.00  0.00     0.029 A 
ATOM     57  C   UNL A   1      42.337  28.961  33.087  1.00  0.00     0.049 A 
ATOM     58  H   UNL A   1      40.633  30.104  32.593  1.00  0.00     0.167 HD
ATOM     59  C   UNL A   1      42.074  30.511  35.008  1.00  0.00     0.074 A 
ATOM     60  C   UNL A   1      42.473  31.035  36.298  1.00  0.00     0.031 C 
ATOM     61  C   UNL A   1      42.715  29.503  34.366  1.00  0.00     0.037 A 
BRANCH  48  62
ATOM     62  C   UNL A   1      40.197  27.925  28.954  1.00  0.00     0.064 A 
ATOM     63  C   UNL A   1      40.914  28.233  27.787  1.00  0.00     0.173 A 
ATOM     64  C   UNL A   1      39.524  26.695  29.003  1.00  0.00     0.173 A 
ATOM     65  F   UNL A   1      41.562  29.404  27.683  1.00  0.00    -0.203 F 
ATOM     66  C   UNL A   1      40.938  27.356  26.707  1.00  0.00     0.198 A 
ATOM     67  C   UNL A   1      39.575  25.806  27.931  1.00  0.00     0.198 A 
ATOM     68  F   UNL A   1      38.824  26.349  30.094  1.00  0.00    -0.203 F 
ATOM     69  F   UNL A   1      41.593  27.693  25.587  1.00  0.00    -0.200 F 
ATOM     70  C   UNL A   1      40.278  26.139  26.783  1.00  0.00     0.200 A 
ATOM     71  F   UNL A   1      38.947  24.625  28.012  1.00  0.00    -0.200 F 
ATOM     72  F   UNL A   1      40.314  25.289  25.748  1.00  0.00    -0.200 F 
ENDBRANCH  48  62
BRANCH  49  73
ATOM     73  C   UNL A   1      39.497  33.966  36.903  1.00  0.00     0.064 A 
ATOM     74  C   UNL A   1      38.765  33.535  38.019  1.00  0.00     0.173 A 
ATOM     75  C   UNL A   1      40.088  35.236  36.962  1.00  0.00     0.173 A 
ATOM     76  F   UNL A   1      38.168  32.334  38.005  1.00  0.00    -0.203 F 
ATOM     77  C   UNL A   1      38.602  34.355  39.134  1.00  0.00     0.198 A 
ATOM     78  C   UNL A   1      39.951  36.041  38.092  1.00  0.00     0.198 A 
ATOM     79  F   UNL A   1      40.808  35.691  35.927  1.00  0.00    -0.203 F 
ATOM     80  F   UNL A   1      37.850  33.939  40.162  1.00  0.00    -0.200 F 
ATOM     81  C   UNL A   1      39.198  35.606  39.171  1.00  0.00     0.200 A 
ATOM     82  F   UNL A   1      40.542  37.243  38.130  1.00  0.00    -0.200 F 
ATOM     83  F   UNL A   1      39.040  36.394  40.242  1.00  0.00    -0.200 F 
ENDBRANCH  49  73
BRANCH  61  84
ATOM     84  C   UNL A   1      43.924  28.927  35.039  1.00  0.00     0.064 A 
ATOM     85  C   UNL A   1      43.827  27.835  35.913  1.00  0.00     0.173 A 
ATOM     86  C   UNL A   1      45.198  29.457  34.785  1.00  0.00     0.173 A 
ATOM     87  F   UNL A   1      42.629  27.302  36.198  1.00  0.00    -0.203 F 
ATOM     88  C   UNL A   1      44.959  27.315  36.536  1.00  0.00     0.198 A 
ATOM     89  C   UNL A   1      46.331  28.915  35.385  1.00  0.00     0.198 A 
ATOM     90  F   UNL A   1      45.346  30.496  33.950  1.00  0.00    -0.203 F 
ATOM     91  F   UNL A   1      44.836  26.309  37.412  1.00  0.00    -0.200 F 
ATOM     92  C   UNL A   1      46.209  27.851  36.266  1.00  0.00     0.200 A 
ATOM     93  F   UNL A   1      47.540  29.423  35.112  1.00  0.00    -0.200 F 
ATOM     94  F   UNL A   1      47.297  27.348  36.865  1.00  0.00    -0.200 F 
ENDBRANCH  61  84
ENDBRANCH  35  36
ENDBRANCH  27  30
ENDBRANCH  25  26
ENDBRANCH   1  25
TORSDOF 13
ENDMDL
MODEL 3
REMARK VINA RESULT:     -12.7      0.684      7.309
REMARK SMILES Cc1cnc(C)c(N2CCC[C@@](CC3CC3)(C(=O)NCCCNC(=O)c3ccc(-c4c5nc(c(-c6c(F)c(F)c(F)c(F)c6F)c6ccc([nH]6)c(-c6c(F)c(F)c(F)c(F)c6F)c6nc(c(-c7c(F)c(F)c(F)c(F)c7F)c7ccc4[nH]7)C=C6)C=C5)cc3)C2)n1
REMARK SMILES IDX 21 1 20 2 19 3 17 4 18 5 12 7 8 8 9 9 89 10 10 11 11 12 7 13
REMARK SMILES IDX 1 14 2 15 3 16 90 17 4 18 5 19 6 20 13 21 14 22 15 23 16 24
REMARK SMILES IDX 22 25 23 26 24 27 25 29 26 30 27 31 88 32 28 33 87 34 29 35
REMARK SMILES IDX 30 36 31 37 81 38 32 39 86 40 80 41 82 42 33 43 85 44 79 45
REMARK SMILES IDX 78 46 34 48 66 49 46 50 65 51 47 52 50 53 64 54 83 55 48 56
REMARK SMILES IDX 49 57 63 59 84 60 51 61 35 62 36 63 44 64 37 65 38 66 42 67
REMARK SMILES IDX 45 68 39 69 40 70 43 71 41 72 67 73 68 74 76 75 69 76 70 77
REMARK SMILES IDX 74 78 77 79 71 80 72 81 75 82 73 83 52 84 53 85 61 86 54 87
REMARK SMILES IDX 55 88 59 89 62 90 56 91 57 92 60 93 58 94
REMARK H PARENT 19 6 23 28 82 47 50 58
REMARK Flexibility Score: inf
ROOT
ATOM      1  C   UNL A   1      31.437  32.155  26.543  1.00  0.00     0.042 C 
ENDROOT
BRANCH   1   2
ATOM      2  C   UNL A   1      31.670  30.682  26.289  1.00  0.00     0.117 C 
BRANCH   2   3
ATOM      3  N   UNL A   1      32.718  30.083  27.052  1.00  0.00    -0.355 N 
ATOM      4  C   UNL A   1      33.365  28.921  26.754  1.00  0.00     0.228 C 
ATOM      5  O   UNL A   1      34.501  28.820  27.228  1.00  0.00    -0.274 OA
ATOM      6  H   UNL A   1      32.998  30.552  27.870  1.00  0.00     0.163 HD
BRANCH   4   7
ATOM      7  C   UNL A   1      32.717  27.802  25.879  1.00  0.00     0.067 C 
ATOM      8  N   UNL A   1      33.220  25.441  25.383  1.00  0.00    -0.354 N 
ATOM      9  C   UNL A   1      32.109  24.852  26.106  1.00  0.00     0.118 C 
ATOM     10  C   UNL A   1      33.778  26.648  25.986  1.00  0.00     0.135 C 
ATOM     11  C   UNL A   1      30.970  25.871  26.087  1.00  0.00     0.023 C 
ATOM     12  C   UNL A   1      31.416  27.268  26.542  1.00  0.00     0.020 C 
BRANCH   8  13
ATOM     13  C   UNL A   1      34.124  24.596  24.761  1.00  0.00     0.150 A 
ATOM     14  C   UNL A   1      37.432  23.158  25.485  1.00  0.00     0.068 C 
ATOM     15  C   UNL A   1      36.173  23.524  24.765  1.00  0.00     0.058 A 
ATOM     16  C   UNL A   1      35.986  23.156  23.441  1.00  0.00     0.135 A 
ATOM     17  N   UNL A   1      35.245  24.247  25.436  1.00  0.00    -0.233 NA
ATOM     18  N   UNL A   1      34.877  23.473  22.744  1.00  0.00    -0.256 NA
ATOM     19  C   UNL A   1      33.944  24.199  23.422  1.00  0.00     0.080 A 
ATOM     20  C   UNL A   1      32.794  24.697  22.596  1.00  0.00     0.071 C 
ENDBRANCH   8  13
BRANCH   7  21
ATOM     21  C   UNL A   1      32.678  28.217  24.366  1.00  0.00     0.022 C 
BRANCH  21  22
ATOM     22  C   UNL A   1      31.523  28.002  23.403  1.00  0.00    -0.010 C 
ATOM     23  C   UNL A   1      30.052  28.373  23.412  1.00  0.00     0.004 C 
ATOM     24  C   UNL A   1      31.027  29.256  22.699  1.00  0.00     0.004 C 
ENDBRANCH  21  22
ENDBRANCH   7  21
ENDBRANCH   4   7
ENDBRANCH   2   3
ENDBRANCH   1   2
BRANCH   1  25
ATOM     25  C   UNL A   1      32.634  32.829  27.187  1.00  0.00     0.118 C 
BRANCH  25  26
ATOM     26  N   UNL A   1      32.356  34.182  27.667  1.00  0.00    -0.352 N 
ATOM     27  C   UNL A   1      32.978  34.945  28.621  1.00  0.00     0.251 C 
ATOM     28  H   UNL A   1      31.591  34.621  27.228  1.00  0.00     0.163 HD
ATOM     29  O   UNL A   1      32.521  36.048  28.909  1.00  0.00    -0.269 OA
BRANCH  27  30
ATOM     30  C   UNL A   1      34.157  34.425  29.340  1.00  0.00     0.039 A 
ATOM     31  C   UNL A   1      33.958  33.711  30.524  1.00  0.00     0.014 A 
ATOM     32  C   UNL A   1      35.447  34.602  28.839  1.00  0.00     0.014 A 
ATOM     33  C   UNL A   1      35.043  33.101  31.151  1.00  0.00     0.010 A 
ATOM     34  C   UNL A   1      36.501  33.887  29.386  1.00  0.00     0.010 A 
ATOM     35  C   UNL A   1      36.314  33.137  30.555  1.00  0.00    -0.014 A 
BRANCH  35  36
ATOM     36  C   UNL A   1      37.461  32.402  31.139  1.00  0.00     0.031 A 
ATOM     37  C   UNL A   1      37.965  32.760  32.510  1.00  0.00     0.074 A 
ATOM     38  C   UNL A   1      38.093  31.468  30.400  1.00  0.00     0.049 A 
ATOM     39  N   UNL A   1      38.992  32.282  33.164  1.00  0.00    -0.248 NA
ATOM     40  C   UNL A   1      37.249  33.831  33.225  1.00  0.00     0.031 C 
ATOM     41  C   UNL A   1      37.751  31.101  29.023  1.00  0.00     0.029 A 
ATOM     42  N   UNL A   1      39.161  30.662  30.699  1.00  0.00    -0.354 N 
ATOM     43  C   UNL A   1      39.059  33.009  34.345  1.00  0.00     0.074 A 
ATOM     44  C   UNL A   1      38.012  34.004  34.294  1.00  0.00     0.031 C 
ATOM     45  C   UNL A   1      38.567  30.117  28.612  1.00  0.00     0.029 A 
ATOM     46  C   UNL A   1      39.511  29.809  29.679  1.00  0.00     0.049 A 
ATOM     47  H   UNL A   1      39.632  30.690  31.562  1.00  0.00     0.167 HD
ATOM     48  C   UNL A   1      39.897  32.838  35.394  1.00  0.00     0.037 A 
ATOM     49  C   UNL A   1      40.485  28.883  29.619  1.00  0.00     0.037 A 
ATOM     50  C   UNL A   1      40.894  31.805  35.461  1.00  0.00     0.049 A 
ATOM     51  C   UNL A   1      41.361  28.673  30.824  1.00  0.00     0.074 A 
ATOM     52  C   UNL A   1      41.730  31.482  36.515  1.00  0.00     0.029 A 
ATOM     53  N   UNL A   1      41.183  30.922  34.432  1.00  0.00    -0.354 N 
ATOM     54  N   UNL A   1      41.352  29.305  31.973  1.00  0.00    -0.248 NA
ATOM     55  C   UNL A   1      42.373  27.614  30.730  1.00  0.00     0.031 C 
ATOM     56  C   UNL A   1      42.555  30.429  36.107  1.00  0.00     0.029 A 
ATOM     57  C   UNL A   1      42.198  30.064  34.819  1.00  0.00     0.049 A 
ATOM     58  H   UNL A   1      40.732  30.907  33.557  1.00  0.00     0.167 HD
ATOM     59  C   UNL A   1      42.336  28.706  32.745  1.00  0.00     0.074 A 
ATOM     60  C   UNL A   1      42.905  27.643  31.943  1.00  0.00     0.031 C 
ATOM     61  C   UNL A   1      42.743  29.011  34.002  1.00  0.00     0.037 A 
BRANCH  48  62
ATOM     62  C   UNL A   1      39.757  33.771  36.562  1.00  0.00     0.064 A 
ATOM     63  C   UNL A   1      40.388  35.024  36.584  1.00  0.00     0.173 A 
ATOM     64  C   UNL A   1      38.940  33.428  37.650  1.00  0.00     0.173 A 
ATOM     65  F   UNL A   1      41.192  35.393  35.576  1.00  0.00    -0.203 F 
ATOM     66  C   UNL A   1      40.224  35.890  37.662  1.00  0.00     0.198 A 
ATOM     67  C   UNL A   1      38.754  34.311  38.712  1.00  0.00     0.198 A 
ATOM     68  F   UNL A   1      38.312  32.243  37.679  1.00  0.00    -0.203 F 
ATOM     69  F   UNL A   1      40.872  37.063  37.680  1.00  0.00    -0.200 F 
ATOM     70  C   UNL A   1      39.399  35.538  38.720  1.00  0.00     0.200 A 
ATOM     71  F   UNL A   1      37.947  33.973  39.727  1.00  0.00    -0.200 F 
ATOM     72  F   UNL A   1      39.231  36.379  39.749  1.00  0.00    -0.200 F 
ENDBRANCH  48  62
BRANCH  49  73
ATOM     73  C   UNL A   1      40.665  28.062  28.391  1.00  0.00     0.064 A 
ATOM     74  C   UNL A   1      40.074  26.795  28.278  1.00  0.00     0.173 A 
ATOM     75  C   UNL A   1      41.441  28.517  27.316  1.00  0.00     0.173 A 
ATOM     76  F   UNL A   1      39.335  26.309  29.286  1.00  0.00    -0.203 F 
ATOM     77  C   UNL A   1      40.282  26.001  27.152  1.00  0.00     0.198 A 
ATOM     78  C   UNL A   1      41.621  27.734  26.176  1.00  0.00     0.198 A 
ATOM     79  F   UNL A   1      42.019  29.726  27.367  1.00  0.00    -0.203 F 
ATOM     80  F   UNL A   1      39.752  24.772  27.097  1.00  0.00    -0.200 F 
ATOM     81  C   UNL A   1      41.052  26.473  26.100  1.00  0.00     0.200 A 
ATOM     82  F   UNL A   1      42.352  28.201  25.155  1.00  0.00    -0.200 F 
ATOM     83  F   UNL A   1      41.252  25.709  25.018  1.00  0.00    -0.200 F 
ENDBRANCH  49  73
BRANCH  61  84
ATOM     84  C   UNL A   1      43.833  28.165  34.589  1.00  0.00     0.064 A 
ATOM     85  C   UNL A   1      45.182  28.536  34.493  1.00  0.00     0.173 A 
ATOM     86  C   UNL A   1      43.521  26.983  35.279  1.00  0.00     0.173 A 
ATOM     87  F   UNL A   1      45.530  29.650  33.830  1.00  0.00    -0.203 F 
ATOM     88  C   UNL A   1      46.184  27.736  35.037  1.00  0.00     0.198 A 
ATOM     89  C   UNL A   1      44.523  26.203  35.850  1.00  0.00     0.198 A 
ATOM     90  F   UNL A   1      42.246  26.590  35.407  1.00  0.00    -0.203 F 
ATOM     91  F   UNL A   1      47.469  28.080  34.883  1.00  0.00    -0.200 F 
ATOM     92  C   UNL A   1      45.852  26.575  35.720  1.00  0.00     0.200 A 
ATOM     93  F   UNL A   1      44.201  25.090  36.522  1.00  0.00    -0.200 F 
ATOM     94  F   UNL A   1      46.818  25.808  36.245  1.00  0.00    -0.200 F 
ENDBRANCH  61  84
ENDBRANCH  35  36
ENDBRANCH  27  30
ENDBRANCH  25  26
ENDBRANCH   1  25
TORSDOF 13
ENDMDL
