MODEL 1
REMARK VINA RESULT:     -12.7      0.000      0.000
REMARK SMILES O=C(CC1CCN(S(=O)(=O)c2cc[nH]c2)CC1)NCCCNC(=O)c1ccc(-c2c3nc(c(-c4c(F)c(F)c(F)c(F)c4F)c4ccc([nH]4)c(-c4c(F)c(F)c(F)c(F)c4F)c4nc(c(-c5c(F)c(F)c(F)c(F)c5F)c5ccc2[nH]5)C=C4)C=C3)cc1
REMARK SMILES IDX 19 1 18 2 1 3 2 4 3 6 4 7 5 8 17 9 6 10 16 11 7 12 8 13 9 14
REMARK SMILES IDX 10 15 11 16 12 17 15 18 13 19 14 20 20 22 21 23 22 24 23 25
REMARK SMILES IDX 24 27 25 28 26 29 87 30 27 31 86 32 28 33 29 34 30 35 80 36
REMARK SMILES IDX 31 37 85 38 79 39 81 40 32 41 84 42 78 43 77 44 33 46 65 47
REMARK SMILES IDX 45 48 64 49 46 50 49 51 63 52 82 53 47 54 48 55 62 57 83 58
REMARK SMILES IDX 50 59 34 60 35 61 43 62 36 63 37 64 41 65 44 66 38 67 39 68
REMARK SMILES IDX 42 69 40 70 66 71 67 72 75 73 68 74 69 75 73 76 76 77 70 78
REMARK SMILES IDX 71 79 74 80 72 81 51 82 52 83 60 84 53 85 54 86 58 87 61 88
REMARK SMILES IDX 55 89 56 90 59 91 57 92
REMARK H PARENT 18 5 14 21 22 26 81 45 49 56
REMARK Flexibility Score: inf
ROOT
ATOM      1  C   UNL A   1      33.608  27.748  24.852  1.00  0.00     0.117 C 
ENDROOT
BRANCH   1   2
ATOM      2  N   UNL A   1      34.105  26.451  25.279  1.00  0.00    -0.356 N 
ATOM      3  O   UNL A   1      32.037  25.512  25.584  1.00  0.00    -0.275 OA
ATOM      4  C   UNL A   1      33.260  25.414  25.603  1.00  0.00     0.220 C 
ATOM      5  H   UNL A   1      35.076  26.309  25.340  1.00  0.00     0.163 HD
BRANCH   4   6
ATOM      6  C   UNL A   1      33.943  24.147  26.094  1.00  0.00     0.103 C 
BRANCH   6   7
ATOM      7  C   UNL A   1      35.006  23.563  25.138  1.00  0.00     0.001 C 
ATOM      8  C   UNL A   1      34.448  23.308  23.730  1.00  0.00     0.021 C 
ATOM      9  C   UNL A   1      35.575  22.232  25.648  1.00  0.00     0.021 C 
ATOM     10  C   UNL A   1      33.406  22.193  23.704  1.00  0.00     0.103 C 
ATOM     11  C   UNL A   1      34.545  21.103  25.632  1.00  0.00     0.103 C 
ATOM     12  N   UNL A   1      33.943  20.922  24.285  1.00  0.00    -0.198 NA
BRANCH  12  13
ATOM     13  S   UNL A   1      32.719  19.697  24.242  1.00  0.00     0.244 S 
ATOM     14  O   UNL A   1      31.797  19.968  25.317  1.00  0.00    -0.207 OA
ATOM     15  O   UNL A   1      32.269  19.567  22.867  1.00  0.00    -0.207 OA
BRANCH  13  16
ATOM     16  C   UNL A   1      33.393  18.153  24.641  1.00  0.00     0.100 A 
ATOM     17  C   UNL A   1      32.703  17.097  25.298  1.00  0.00     0.041 A 
ATOM     18  C   UNL A   1      34.656  17.686  24.337  1.00  0.00     0.104 A 
ATOM     19  C   UNL A   1      33.579  16.041  25.409  1.00  0.00     0.083 A 
ATOM     20  N   UNL A   1      34.757  16.401  24.805  1.00  0.00    -0.366 N 
ATOM     21  H   UNL A   1      35.551  15.826  24.721  1.00  0.00     0.165 HD
ENDBRANCH  13  16
ENDBRANCH  12  13
ENDBRANCH   6   7
ENDBRANCH   4   6
ENDBRANCH   1   2
BRANCH   1  22
ATOM     22  C   UNL A   1      33.599  28.774  25.990  1.00  0.00     0.042 C 
BRANCH  22  23
ATOM     23  C   UNL A   1      34.925  28.845  26.743  1.00  0.00     0.118 C 
BRANCH  23  24
ATOM     24  N   UNL A   1      35.134  30.149  27.354  1.00  0.00    -0.352 N 
ATOM     25  C   UNL A   1      36.120  30.583  28.203  1.00  0.00     0.251 C 
ATOM     26  H   UNL A   1      34.460  30.827  27.122  1.00  0.00     0.163 HD
ATOM     27  O   UNL A   1      35.949  31.630  28.823  1.00  0.00    -0.269 OA
BRANCH  25  28
ATOM     28  C   UNL A   1      37.373  29.824  28.403  1.00  0.00     0.039 A 
ATOM     29  C   UNL A   1      38.323  29.853  27.373  1.00  0.00     0.014 A 
ATOM     30  C   UNL A   1      37.588  29.018  29.526  1.00  0.00     0.014 A 
ATOM     31  C   UNL A   1      39.503  29.128  27.492  1.00  0.00     0.010 A 
ATOM     32  C   UNL A   1      38.779  28.316  29.667  1.00  0.00     0.010 A 
ATOM     33  C   UNL A   1      39.739  28.381  28.653  1.00  0.00    -0.014 A 
BRANCH  33  34
ATOM     34  C   UNL A   1      41.075  27.778  28.850  1.00  0.00     0.031 A 
ATOM     35  C   UNL A   1      41.128  26.333  28.299  1.00  0.00     0.074 A 
ATOM     36  C   UNL A   1      41.998  28.561  29.487  1.00  0.00     0.049 A 
ATOM     37  N   UNL A   1      41.858  25.320  28.655  1.00  0.00    -0.248 NA
ATOM     38  C   UNL A   1      40.174  25.942  27.221  1.00  0.00     0.031 C 
ATOM     39  C   UNL A   1      41.774  29.968  29.891  1.00  0.00     0.029 A 
ATOM     40  N   UNL A   1      43.289  28.358  29.934  1.00  0.00    -0.354 N 
ATOM     41  C   UNL A   1      41.581  24.249  27.770  1.00  0.00     0.074 A 
ATOM     42  C   UNL A   1      40.469  24.664  26.972  1.00  0.00     0.031 C 
ATOM     43  C   UNL A   1      42.832  30.452  30.576  1.00  0.00     0.029 A 
ATOM     44  C   UNL A   1      43.845  29.424  30.696  1.00  0.00     0.049 A 
ATOM     45  H   UNL A   1      43.790  27.534  29.738  1.00  0.00     0.167 HD
ATOM     46  C   UNL A   1      42.366  23.131  27.676  1.00  0.00     0.037 A 
ATOM     47  C   UNL A   1      45.004  29.448  31.428  1.00  0.00     0.037 A 
ATOM     48  C   UNL A   1      43.413  23.203  28.634  1.00  0.00     0.049 A 
ATOM     49  C   UNL A   1      45.628  28.141  31.176  1.00  0.00     0.074 A 
ATOM     50  C   UNL A   1      43.447  23.006  29.987  1.00  0.00     0.029 A 
ATOM     51  N   UNL A   1      44.565  23.834  28.242  1.00  0.00    -0.354 N 
ATOM     52  N   UNL A   1      46.223  27.802  30.074  1.00  0.00    -0.248 NA
ATOM     53  C   UNL A   1      45.473  27.093  32.192  1.00  0.00     0.031 C 
ATOM     54  C   UNL A   1      44.404  23.942  30.431  1.00  0.00     0.029 A 
ATOM     55  C   UNL A   1      45.039  24.524  29.328  1.00  0.00     0.049 A 
ATOM     56  H   UNL A   1      44.975  23.799  27.348  1.00  0.00     0.167 HD
ATOM     57  C   UNL A   1      46.218  26.430  30.153  1.00  0.00     0.074 A 
ATOM     58  C   UNL A   1      46.053  26.089  31.546  1.00  0.00     0.031 C 
ATOM     59  C   UNL A   1      45.838  25.696  29.079  1.00  0.00     0.037 A 
BRANCH  46  60
ATOM     60  C   UNL A   1      42.470  22.021  26.661  1.00  0.00     0.064 A 
ATOM     61  C   UNL A   1      41.932  20.750  27.004  1.00  0.00     0.173 A 
ATOM     62  C   UNL A   1      43.375  22.035  25.594  1.00  0.00     0.173 A 
ATOM     63  F   UNL A   1      41.002  20.635  27.966  1.00  0.00    -0.203 F 
ATOM     64  C   UNL A   1      42.401  19.567  26.438  1.00  0.00     0.198 A 
ATOM     65  C   UNL A   1      43.803  20.846  24.990  1.00  0.00     0.198 A 
ATOM     66  F   UNL A   1      43.940  23.176  25.182  1.00  0.00    -0.203 F 
ATOM     67  F   UNL A   1      41.980  18.385  26.912  1.00  0.00    -0.200 F 
ATOM     68  C   UNL A   1      43.357  19.614  25.445  1.00  0.00     0.200 A 
ATOM     69  F   UNL A   1      44.720  20.893  24.013  1.00  0.00    -0.200 F 
ATOM     70  F   UNL A   1      43.872  18.480  24.952  1.00  0.00    -0.200 F 
ENDBRANCH  46  60
BRANCH  47  71
ATOM     71  C   UNL A   1      45.680  30.332  32.459  1.00  0.00     0.064 A 
ATOM     72  C   UNL A   1      46.903  30.995  32.309  1.00  0.00     0.173 A 
ATOM     73  C   UNL A   1      45.026  30.610  33.697  1.00  0.00     0.173 A 
ATOM     74  F   UNL A   1      47.714  30.725  31.281  1.00  0.00    -0.203 F 
ATOM     75  C   UNL A   1      47.356  31.954  33.240  1.00  0.00     0.198 A 
ATOM     76  C   UNL A   1      45.444  31.592  34.595  1.00  0.00     0.198 A 
ATOM     77  F   UNL A   1      43.939  29.930  34.089  1.00  0.00    -0.203 F 
ATOM     78  F   UNL A   1      48.528  32.572  33.041  1.00  0.00    -0.200 F 
ATOM     79  C   UNL A   1      46.604  32.284  34.355  1.00  0.00     0.200 A 
ATOM     80  F   UNL A   1      44.700  31.865  35.676  1.00  0.00    -0.200 F 
ATOM     81  F   UNL A   1      47.002  33.245  35.199  1.00  0.00    -0.200 F 
ENDBRANCH  47  71
BRANCH  59  82
ATOM     82  C   UNL A   1      45.978  26.422  27.757  1.00  0.00     0.064 A 
ATOM     83  C   UNL A   1      44.826  26.804  27.056  1.00  0.00     0.173 A 
ATOM     84  C   UNL A   1      47.204  26.643  27.105  1.00  0.00     0.173 A 
ATOM     85  F   UNL A   1      43.619  26.633  27.613  1.00  0.00    -0.203 F 
ATOM     86  C   UNL A   1      44.899  27.366  25.779  1.00  0.00     0.198 A 
ATOM     87  C   UNL A   1      47.281  27.212  25.832  1.00  0.00     0.198 A 
ATOM     88  F   UNL A   1      48.353  26.308  27.685  1.00  0.00    -0.203 F 
ATOM     89  F   UNL A   1      43.774  27.716  25.139  1.00  0.00    -0.200 F 
ATOM     90  C   UNL A   1      46.125  27.570  25.166  1.00  0.00     0.200 A 
ATOM     91  F   UNL A   1      48.476  27.415  25.256  1.00  0.00    -0.200 F 
ATOM     92  F   UNL A   1      46.194  28.116  23.944  1.00  0.00    -0.200 F 
ENDBRANCH  59  82
ENDBRANCH  33  34
ENDBRANCH  25  28
ENDBRANCH  23  24
ENDBRANCH  22  23
ENDBRANCH   1  22
TORSDOF 13
ENDMDL
MODEL 2
REMARK VINA RESULT:     -12.4      4.759      9.888
REMARK SMILES O=C(CC1CCN(S(=O)(=O)c2cc[nH]c2)CC1)NCCCNC(=O)c1ccc(-c2c3nc(c(-c4c(F)c(F)c(F)c(F)c4F)c4ccc([nH]4)c(-c4c(F)c(F)c(F)c(F)c4F)c4nc(c(-c5c(F)c(F)c(F)c(F)c5F)c5ccc2[nH]5)C=C4)C=C3)cc1
REMARK SMILES IDX 19 1 18 2 1 3 2 4 3 6 4 7 5 8 17 9 6 10 16 11 7 12 8 13 9 14
REMARK SMILES IDX 10 15 11 16 12 17 15 18 13 19 14 20 20 22 21 23 22 24 23 25
REMARK SMILES IDX 24 27 25 28 26 29 87 30 27 31 86 32 28 33 29 34 30 35 80 36
REMARK SMILES IDX 31 37 85 38 79 39 81 40 32 41 84 42 78 43 77 44 33 46 65 47
REMARK SMILES IDX 45 48 64 49 46 50 49 51 63 52 82 53 47 54 48 55 62 57 83 58
REMARK SMILES IDX 50 59 34 60 35 61 43 62 36 63 37 64 41 65 44 66 38 67 39 68
REMARK SMILES IDX 42 69 40 70 66 71 67 72 75 73 68 74 69 75 73 76 76 77 70 78
REMARK SMILES IDX 71 79 74 80 72 81 51 82 52 83 60 84 53 85 54 86 58 87 61 88
REMARK SMILES IDX 55 89 56 90 59 91 57 92
REMARK H PARENT 18 5 14 21 22 26 81 45 49 56
REMARK Flexibility Score: inf
ROOT
ATOM      1  C   UNL A   1      35.497  22.778  24.816  1.00  0.00     0.117 C 
ENDROOT
BRANCH   1   2
ATOM      2  N   UNL A   1      34.232  23.477  24.658  1.00  0.00    -0.356 N 
ATOM      3  O   UNL A   1      33.438  22.971  26.746  1.00  0.00    -0.275 OA
ATOM      4  C   UNL A   1      33.294  23.528  25.663  1.00  0.00     0.220 C 
ATOM      5  H   UNL A   1      34.041  23.927  23.804  1.00  0.00     0.163 HD
BRANCH   4   6
ATOM      6  C   UNL A   1      31.999  24.243  25.308  1.00  0.00     0.103 C 
BRANCH   6   7
ATOM      7  C   UNL A   1      31.624  25.418  26.237  1.00  0.00     0.001 C 
ATOM      8  C   UNL A   1      30.210  25.952  25.961  1.00  0.00     0.021 C 
ATOM      9  C   UNL A   1      32.591  26.602  26.094  1.00  0.00     0.021 C 
ATOM     10  C   UNL A   1      30.092  26.624  24.596  1.00  0.00     0.103 C 
ATOM     11  C   UNL A   1      32.489  27.288  24.732  1.00  0.00     0.103 C 
ATOM     12  N   UNL A   1      31.099  27.720  24.433  1.00  0.00    -0.198 NA
BRANCH  12  13
ATOM     13  S   UNL A   1      30.930  28.440  22.866  1.00  0.00     0.244 S 
ATOM     14  O   UNL A   1      32.108  29.238  22.627  1.00  0.00    -0.207 OA
ATOM     15  O   UNL A   1      30.514  27.399  21.942  1.00  0.00    -0.207 OA
BRANCH  13  16
ATOM     16  C   UNL A   1      29.633  29.586  22.862  1.00  0.00     0.100 A 
ATOM     17  C   UNL A   1      29.501  30.685  23.755  1.00  0.00     0.041 A 
ATOM     18  C   UNL A   1      28.577  29.655  21.975  1.00  0.00     0.104 A 
ATOM     19  C   UNL A   1      28.351  31.359  23.410  1.00  0.00     0.083 A 
ATOM     20  N   UNL A   1      27.807  30.737  22.314  1.00  0.00    -0.366 N 
ATOM     21  H   UNL A   1      26.991  31.023  21.846  1.00  0.00     0.165 HD
ENDBRANCH  13  16
ENDBRANCH  12  13
ENDBRANCH   6   7
ENDBRANCH   4   6
ENDBRANCH   1   2
BRANCH   1  22
ATOM     22  C   UNL A   1      36.696  23.732  24.807  1.00  0.00     0.042 C 
BRANCH  22  23
ATOM     23  C   UNL A   1      37.158  24.126  26.208  1.00  0.00     0.118 C 
BRANCH  23  24
ATOM     24  N   UNL A   1      38.390  23.449  26.585  1.00  0.00    -0.352 N 
ATOM     25  C   UNL A   1      39.555  23.950  27.106  1.00  0.00     0.251 C 
ATOM     26  H   UNL A   1      38.386  22.474  26.444  1.00  0.00     0.163 HD
ATOM     27  O   UNL A   1      40.564  23.250  27.082  1.00  0.00    -0.269 OA
BRANCH  25  28
ATOM     28  C   UNL A   1      39.635  25.310  27.680  1.00  0.00     0.039 A 
ATOM     29  C   UNL A   1      39.130  25.500  28.974  1.00  0.00     0.014 A 
ATOM     30  C   UNL A   1      40.103  26.406  26.948  1.00  0.00     0.014 A 
ATOM     31  C   UNL A   1      39.146  26.766  29.550  1.00  0.00     0.010 A 
ATOM     32  C   UNL A   1      40.152  27.668  27.528  1.00  0.00     0.010 A 
ATOM     33  C   UNL A   1      39.683  27.842  28.833  1.00  0.00    -0.014 A 
BRANCH  33  34
ATOM     34  C   UNL A   1      39.873  29.133  29.528  1.00  0.00     0.031 A 
ATOM     35  C   UNL A   1      38.638  30.051  29.363  1.00  0.00     0.074 A 
ATOM     36  C   UNL A   1      41.076  29.305  30.156  1.00  0.00     0.049 A 
ATOM     37  N   UNL A   1      38.541  31.345  29.367  1.00  0.00    -0.248 NA
ATOM     38  C   UNL A   1      37.312  29.424  29.091  1.00  0.00     0.031 C 
ATOM     39  C   UNL A   1      42.128  28.267  30.260  1.00  0.00     0.029 A 
ATOM     40  N   UNL A   1      41.675  30.357  30.821  1.00  0.00    -0.354 N 
ATOM     41  C   UNL A   1      37.169  31.682  29.264  1.00  0.00     0.074 A 
ATOM     42  C   UNL A   1      36.473  30.460  29.002  1.00  0.00     0.031 C 
ATOM     43  C   UNL A   1      43.235  28.754  30.859  1.00  0.00     0.029 A 
ATOM     44  C   UNL A   1      43.030  30.146  31.201  1.00  0.00     0.049 A 
ATOM     45  H   UNL A   1      41.197  31.194  31.019  1.00  0.00     0.167 HD
ATOM     46  C   UNL A   1      36.683  32.936  29.518  1.00  0.00     0.037 A 
ATOM     47  C   UNL A   1      43.939  31.049  31.690  1.00  0.00     0.037 A 
ATOM     48  C   UNL A   1      37.761  33.813  29.816  1.00  0.00     0.049 A 
ATOM     49  C   UNL A   1      43.178  32.296  31.842  1.00  0.00     0.074 A 
ATOM     50  C   UNL A   1      38.696  34.431  29.032  1.00  0.00     0.029 A 
ATOM     51  N   UNL A   1      38.152  33.887  31.127  1.00  0.00    -0.354 N 
ATOM     52  N   UNL A   1      42.308  32.526  32.779  1.00  0.00    -0.248 NA
ATOM     53  C   UNL A   1      43.312  33.321  30.800  1.00  0.00     0.031 C 
ATOM     54  C   UNL A   1      39.848  34.444  29.845  1.00  0.00     0.029 A 
ATOM     55  C   UNL A   1      39.518  34.015  31.135  1.00  0.00     0.049 A 
ATOM     56  H   UNL A   1      37.564  33.853  31.915  1.00  0.00     0.167 HD
ATOM     57  C   UNL A   1      41.582  33.566  32.249  1.00  0.00     0.074 A 
ATOM     58  C   UNL A   1      42.408  34.188  31.242  1.00  0.00     0.031 C 
ATOM     59  C   UNL A   1      40.228  33.530  32.290  1.00  0.00     0.037 A 
BRANCH  46  60
ATOM     60  C   UNL A   1      35.298  33.480  29.763  1.00  0.00     0.064 A 
ATOM     61  C   UNL A   1      34.725  34.319  28.769  1.00  0.00     0.173 A 
ATOM     62  C   UNL A   1      34.705  33.539  31.029  1.00  0.00     0.173 A 
ATOM     63  F   UNL A   1      35.171  34.287  27.502  1.00  0.00    -0.203 F 
ATOM     64  C   UNL A   1      33.753  35.271  29.069  1.00  0.00     0.198 A 
ATOM     65  C   UNL A   1      33.689  34.461  31.313  1.00  0.00     0.198 A 
ATOM     66  F   UNL A   1      35.159  32.789  32.041  1.00  0.00    -0.203 F 
ATOM     67  F   UNL A   1      33.364  36.149  28.133  1.00  0.00    -0.200 F 
ATOM     68  C   UNL A   1      33.251  35.358  30.351  1.00  0.00     0.200 A 
ATOM     69  F   UNL A   1      33.190  34.534  32.555  1.00  0.00    -0.200 F 
ATOM     70  F   UNL A   1      32.376  36.322  30.667  1.00  0.00    -0.200 F 
ENDBRANCH  46  60
BRANCH  47  71
ATOM     71  C   UNL A   1      45.432  31.132  31.950  1.00  0.00     0.064 A 
ATOM     72  C   UNL A   1      46.450  30.879  31.024  1.00  0.00     0.173 A 
ATOM     73  C   UNL A   1      45.909  31.572  33.221  1.00  0.00     0.173 A 
ATOM     74  F   UNL A   1      46.184  30.313  29.842  1.00  0.00    -0.203 F 
ATOM     75  C   UNL A   1      47.802  31.175  31.297  1.00  0.00     0.198 A 
ATOM     76  C   UNL A   1      47.237  31.913  33.478  1.00  0.00     0.198 A 
ATOM     77  F   UNL A   1      45.095  31.690  34.279  1.00  0.00    -0.203 F 
ATOM     78  F   UNL A   1      48.738  30.927  30.369  1.00  0.00    -0.200 F 
ATOM     79  C   UNL A   1      48.186  31.735  32.504  1.00  0.00     0.200 A 
ATOM     80  F   UNL A   1      47.573  32.431  34.669  1.00  0.00    -0.200 F 
ATOM     81  F   UNL A   1      49.460  32.081  32.733  1.00  0.00    -0.200 F 
ENDBRANCH  47  71
BRANCH  59  82
ATOM     82  C   UNL A   1      39.669  32.632  33.375  1.00  0.00     0.064 A 
ATOM     83  C   UNL A   1      39.825  32.998  34.720  1.00  0.00     0.173 A 
ATOM     84  C   UNL A   1      39.097  31.370  33.138  1.00  0.00     0.173 A 
ATOM     85  F   UNL A   1      40.356  34.189  35.029  1.00  0.00    -0.203 F 
ATOM     86  C   UNL A   1      39.437  32.149  35.759  1.00  0.00     0.198 A 
ATOM     87  C   UNL A   1      38.700  30.523  34.175  1.00  0.00     0.198 A 
ATOM     88  F   UNL A   1      38.914  30.930  31.897  1.00  0.00    -0.203 F 
ATOM     89  F   UNL A   1      39.604  32.534  37.032  1.00  0.00    -0.200 F 
ATOM     90  C   UNL A   1      38.875  30.911  35.488  1.00  0.00     0.200 A 
ATOM     91  F   UNL A   1      38.146  29.332  33.896  1.00  0.00    -0.200 F 
ATOM     92  F   UNL A   1      38.496  30.101  36.486  1.00  0.00    -0.200 F 
ENDBRANCH  59  82
ENDBRANCH  33  34
ENDBRANCH  25  28
ENDBRANCH  23  24
ENDBRANCH  22  23
ENDBRANCH   1  22
TORSDOF 13
ENDMDL
MODEL 3
REMARK VINA RESULT:     -12.4      2.794      8.791
REMARK SMILES O=C(CC1CCN(S(=O)(=O)c2cc[nH]c2)CC1)NCCCNC(=O)c1ccc(-c2c3nc(c(-c4c(F)c(F)c(F)c(F)c4F)c4ccc([nH]4)c(-c4c(F)c(F)c(F)c(F)c4F)c4nc(c(-c5c(F)c(F)c(F)c(F)c5F)c5ccc2[nH]5)C=C4)C=C3)cc1
REMARK SMILES IDX 19 1 18 2 1 3 2 4 3 6 4 7 5 8 17 9 6 10 16 11 7 12 8 13 9 14
REMARK SMILES IDX 10 15 11 16 12 17 15 18 13 19 14 20 20 22 21 23 22 24 23 25
REMARK SMILES IDX 24 27 25 28 26 29 87 30 27 31 86 32 28 33 29 34 30 35 80 36
REMARK SMILES IDX 31 37 85 38 79 39 81 40 32 41 84 42 78 43 77 44 33 46 65 47
REMARK SMILES IDX 45 48 64 49 46 50 49 51 63 52 82 53 47 54 48 55 62 57 83 58
REMARK SMILES IDX 50 59 34 60 35 61 43 62 36 63 37 64 41 65 44 66 38 67 39 68
REMARK SMILES IDX 42 69 40 70 66 71 67 72 75 73 68 74 69 75 73 76 76 77 70 78
REMARK SMILES IDX 71 79 74 80 72 81 51 82 52 83 60 84 53 85 54 86 58 87 61 88
REMARK SMILES IDX 55 89 56 90 59 91 57 92
REMARK H PARENT 18 5 14 21 22 26 81 45 49 56
REMARK Flexibility Score: inf
ROOT
ATOM      1  C   UNL A   1      31.161  27.395  26.278  1.00  0.00     0.117 C 
ENDROOT
BRANCH   1   2
ATOM      2  N   UNL A   1      32.060  26.552  25.507  1.00  0.00    -0.356 N 
ATOM      3  O   UNL A   1      31.277  27.211  23.457  1.00  0.00    -0.275 OA
ATOM      4  C   UNL A   1      32.053  26.540  24.131  1.00  0.00     0.220 C 
ATOM      5  H   UNL A   1      32.694  25.971  25.985  1.00  0.00     0.163 HD
BRANCH   4   6
ATOM      6  C   UNL A   1      33.011  25.552  23.484  1.00  0.00     0.103 C 
BRANCH   6   7
ATOM      7  C   UNL A   1      32.345  24.306  22.861  1.00  0.00     0.001 C 
ATOM      8  C   UNL A   1      31.618  23.448  23.908  1.00  0.00     0.021 C 
ATOM      9  C   UNL A   1      33.361  23.396  22.157  1.00  0.00     0.021 C 
ATOM     10  C   UNL A   1      32.576  22.790  24.896  1.00  0.00     0.103 C 
ATOM     11  C   UNL A   1      34.332  22.728  23.131  1.00  0.00     0.103 C 
ATOM     12  N   UNL A   1      33.617  21.975  24.194  1.00  0.00    -0.198 NA
BRANCH  12  13
ATOM     13  S   UNL A   1      34.683  21.261  25.358  1.00  0.00     0.244 S 
ATOM     14  O   UNL A   1      34.092  21.448  26.660  1.00  0.00    -0.207 OA
ATOM     15  O   UNL A   1      35.053  19.943  24.872  1.00  0.00    -0.207 OA
BRANCH  13  16
ATOM     16  C   UNL A   1      36.172  22.142  25.437  1.00  0.00     0.100 A 
ATOM     17  C   UNL A   1      36.340  23.423  26.031  1.00  0.00     0.041 A 
ATOM     18  C   UNL A   1      37.416  21.727  25.006  1.00  0.00     0.104 A 
ATOM     19  C   UNL A   1      37.669  23.763  25.904  1.00  0.00     0.083 A 
ATOM     20  N   UNL A   1      38.318  22.717  25.297  1.00  0.00    -0.366 N 
ATOM     21  H   UNL A   1      39.281  22.684  25.101  1.00  0.00     0.165 HD
ENDBRANCH  13  16
ENDBRANCH  12  13
ENDBRANCH   6   7
ENDBRANCH   4   6
ENDBRANCH   1   2
BRANCH   1  22
ATOM     22  C   UNL A   1      31.823  27.952  27.542  1.00  0.00     0.042 C 
BRANCH  22  23
ATOM     23  C   UNL A   1      33.211  28.534  27.285  1.00  0.00     0.118 C 
BRANCH  23  24
ATOM     24  N   UNL A   1      33.212  29.988  27.352  1.00  0.00    -0.352 N 
ATOM     25  C   UNL A   1      34.123  30.850  27.906  1.00  0.00     0.251 C 
ATOM     26  H   UNL A   1      32.435  30.422  26.932  1.00  0.00     0.163 HD
ATOM     27  O   UNL A   1      33.791  32.016  28.103  1.00  0.00    -0.269 OA
BRANCH  25  28
ATOM     28  C   UNL A   1      35.484  30.414  28.286  1.00  0.00     0.039 A 
ATOM     29  C   UNL A   1      36.467  30.408  27.287  1.00  0.00     0.014 A 
ATOM     30  C   UNL A   1      35.785  29.929  29.563  1.00  0.00     0.014 A 
ATOM     31  C   UNL A   1      37.755  29.974  27.580  1.00  0.00     0.010 A 
ATOM     32  C   UNL A   1      37.078  29.523  29.871  1.00  0.00     0.010 A 
ATOM     33  C   UNL A   1      38.063  29.556  28.880  1.00  0.00    -0.014 A 
BRANCH  33  34
ATOM     34  C   UNL A   1      39.476  29.286  29.223  1.00  0.00     0.031 A 
ATOM     35  C   UNL A   1      40.177  30.554  29.768  1.00  0.00     0.074 A 
ATOM     36  C   UNL A   1      39.919  28.014  28.983  1.00  0.00     0.049 A 
ATOM     37  N   UNL A   1      41.425  30.910  29.734  1.00  0.00    -0.248 NA
ATOM     38  C   UNL A   1      39.343  31.618  30.397  1.00  0.00     0.031 C 
ATOM     39  C   UNL A   1      39.066  26.901  28.508  1.00  0.00     0.029 A 
ATOM     40  N   UNL A   1      41.147  27.388  29.073  1.00  0.00    -0.354 N 
ATOM     41  C   UNL A   1      41.554  32.122  30.455  1.00  0.00     0.074 A 
ATOM     42  C   UNL A   1      40.224  32.555  30.756  1.00  0.00     0.031 C 
ATOM     43  C   UNL A   1      39.797  25.789  28.280  1.00  0.00     0.029 A 
ATOM     44  C   UNL A   1      41.190  26.057  28.573  1.00  0.00     0.049 A 
ATOM     45  H   UNL A   1      41.936  27.832  29.457  1.00  0.00     0.167 HD
ATOM     46  C   UNL A   1      42.759  32.631  30.858  1.00  0.00     0.037 A 
ATOM     47  C   UNL A   1      42.280  25.255  28.347  1.00  0.00     0.037 A 
ATOM     48  C   UNL A   1      43.810  31.802  30.379  1.00  0.00     0.049 A 
ATOM     49  C   UNL A   1      43.423  26.038  28.835  1.00  0.00     0.074 A 
ATOM     50  C   UNL A   1      44.385  31.652  29.147  1.00  0.00     0.029 A 
ATOM     51  N   UNL A   1      44.181  30.753  31.180  1.00  0.00    -0.354 N 
ATOM     52  N   UNL A   1      43.711  26.232  30.086  1.00  0.00    -0.248 NA
ATOM     53  C   UNL A   1      44.241  26.757  27.850  1.00  0.00     0.031 C 
ATOM     54  C   UNL A   1      44.701  30.279  29.097  1.00  0.00     0.029 A 
ATOM     55  C   UNL A   1      44.485  29.701  30.353  1.00  0.00     0.049 A 
ATOM     56  H   UNL A   1      44.220  30.753  32.163  1.00  0.00     0.167 HD
ATOM     57  C   UNL A   1      44.528  27.336  30.027  1.00  0.00     0.074 A 
ATOM     58  C   UNL A   1      45.050  27.402  28.682  1.00  0.00     0.031 C 
ATOM     59  C   UNL A   1      44.324  28.370  30.878  1.00  0.00     0.037 A 
BRANCH  46  60
ATOM     60  C   UNL A   1      43.155  33.698  31.847  1.00  0.00     0.064 A 
ATOM     61  C   UNL A   1      42.753  33.535  33.201  1.00  0.00     0.173 A 
ATOM     62  C   UNL A   1      43.538  34.991  31.474  1.00  0.00     0.173 A 
ATOM     63  F   UNL A   1      42.435  32.323  33.682  1.00  0.00    -0.203 F 
ATOM     64  C   UNL A   1      42.580  34.618  34.060  1.00  0.00     0.198 A 
ATOM     65  C   UNL A   1      43.414  36.069  32.360  1.00  0.00     0.198 A 
ATOM     66  F   UNL A   1      43.939  35.260  30.225  1.00  0.00    -0.203 F 
ATOM     67  F   UNL A   1      42.043  34.429  35.275  1.00  0.00    -0.200 F 
ATOM     68  C   UNL A   1      42.889  35.891  33.630  1.00  0.00     0.200 A 
ATOM     69  F   UNL A   1      43.730  37.305  31.946  1.00  0.00    -0.200 F 
ATOM     70  F   UNL A   1      42.649  36.946  34.421  1.00  0.00    -0.200 F 
ENDBRANCH  46  60
BRANCH  47  71
ATOM     71  C   UNL A   1      42.605  23.949  27.647  1.00  0.00     0.064 A 
ATOM     72  C   UNL A   1      42.507  22.666  28.198  1.00  0.00     0.173 A 
ATOM     73  C   UNL A   1      42.988  23.953  26.272  1.00  0.00     0.173 A 
ATOM     74  F   UNL A   1      42.312  22.491  29.510  1.00  0.00    -0.203 F 
ATOM     75  C   UNL A   1      42.637  21.501  27.414  1.00  0.00     0.198 A 
ATOM     76  C   UNL A   1      43.067  22.807  25.483  1.00  0.00     0.198 A 
ATOM     77  F   UNL A   1      43.303  25.087  25.631  1.00  0.00    -0.203 F 
ATOM     78  F   UNL A   1      42.519  20.296  27.988  1.00  0.00    -0.200 F 
ATOM     79  C   UNL A   1      42.869  21.574  26.051  1.00  0.00     0.200 A 
ATOM     80  F   UNL A   1      43.319  22.918  24.170  1.00  0.00    -0.200 F 
ATOM     81  F   UNL A   1      42.921  20.468  25.296  1.00  0.00    -0.200 F 
ENDBRANCH  47  71
BRANCH  59  82
ATOM     82  C   UNL A   1      43.583  27.988  32.143  1.00  0.00     0.064 A 
ATOM     83  C   UNL A   1      44.221  27.186  33.100  1.00  0.00     0.173 A 
ATOM     84  C   UNL A   1      42.230  28.283  32.385  1.00  0.00     0.173 A 
ATOM     85  F   UNL A   1      45.514  26.866  32.945  1.00  0.00    -0.203 F 
ATOM     86  C   UNL A   1      43.544  26.707  34.224  1.00  0.00     0.198 A 
ATOM     87  C   UNL A   1      41.551  27.813  33.511  1.00  0.00     0.198 A 
ATOM     88  F   UNL A   1      41.535  29.031  31.532  1.00  0.00    -0.203 F 
ATOM     89  F   UNL A   1      44.188  25.940  35.115  1.00  0.00    -0.200 F 
ATOM     90  C   UNL A   1      42.209  27.019  34.429  1.00  0.00     0.200 A 
ATOM     91  F   UNL A   1      40.262  28.134  33.703  1.00  0.00    -0.200 F 
ATOM     92  F   UNL A   1      41.562  26.564  35.512  1.00  0.00    -0.200 F 
ENDBRANCH  59  82
ENDBRANCH  33  34
ENDBRANCH  25  28
ENDBRANCH  23  24
ENDBRANCH  22  23
ENDBRANCH   1  22
TORSDOF 13
ENDMDL
