MODEL 1
REMARK VINA RESULT:     -13.2      0.000      0.000
REMARK SMILES CC(=O)Nc1cccc(NC(=O)N[C@H](C(=O)NCCCNC(=O)c2ccc(-c3c4nc(c(-c5c(F)c(F)c(F)c(F)c5F)c5ccc([nH]5)c(-c5c(F)c(F)c(F)c(F)c5F)c5nc(c(-c6c(F)c(F)c(F)c(F)c6F)c6ccc3[nH]6)C=C5)C=C4)cc2)C(C)C)c1
REMARK SMILES IDX 18 1 17 2 15 3 16 4 14 6 13 7 10 8 11 9 12 11 9 13 5 14 6 15
REMARK SMILES IDX 90 16 7 17 8 18 4 19 1 20 2 21 3 22 87 24 88 25 89 26 19 27
REMARK SMILES IDX 20 28 21 29 22 30 23 32 24 33 25 34 86 35 26 36 85 37 27 38
REMARK SMILES IDX 28 39 29 40 79 41 30 42 84 43 78 44 80 45 31 46 83 47 77 48
REMARK SMILES IDX 76 49 32 51 64 52 44 53 63 54 45 55 48 56 62 57 81 58 46 59
REMARK SMILES IDX 47 60 61 62 82 63 49 64 33 65 34 66 42 67 35 68 36 69 40 70
REMARK SMILES IDX 43 71 37 72 38 73 41 74 39 75 65 76 66 77 74 78 67 79 68 80
REMARK SMILES IDX 72 81 75 82 69 83 70 84 73 85 71 86 50 87 51 88 59 89 52 90
REMARK SMILES IDX 53 91 57 92 60 93 54 94 55 95 58 96 56 97
REMARK H PARENT 17 5 10 10 13 12 4 23 21 31 80 50 48 61
REMARK Flexibility Score: inf
ROOT
ATOM      1  C   UNL A   1      31.694  30.772  26.197  1.00  0.00     0.117 C 
ENDROOT
BRANCH   1   2
ATOM      2  N   UNL A   1      33.040  30.365  26.560  1.00  0.00    -0.354 N 
ATOM      3  C   UNL A   1      33.738  29.249  26.188  1.00  0.00     0.242 C 
ATOM      4  O   UNL A   1      34.762  29.020  26.834  1.00  0.00    -0.273 OA
ATOM      5  H   UNL A   1      33.518  30.981  27.160  1.00  0.00     0.163 HD
BRANCH   3   6
ATOM      6  C   UNL A   1      33.123  28.253  25.165  1.00  0.00     0.175 C 
BRANCH   6   7
ATOM      7  N   UNL A   1      33.808  28.178  23.857  1.00  0.00    -0.326 N 
ATOM      8  N   UNL A   1      32.287  28.207  22.002  1.00  0.00    -0.308 N 
ATOM      9  C   UNL A   1      33.510  28.237  22.555  1.00  0.00     0.319 C 
ATOM     10  H   UNL A   1      32.314  27.868  21.079  1.00  0.00     0.171 HD
ATOM     11  O   UNL A   1      34.474  28.126  21.787  1.00  0.00    -0.248 OA
ATOM     12  H   UNL A   1      34.774  28.044  23.983  1.00  0.00     0.166 HD
BRANCH   8  13
ATOM     13  C   UNL A   1      30.982  28.531  22.395  1.00  0.00     0.044 A 
ATOM     14  C   UNL A   1      29.319  30.259  22.846  1.00  0.00     0.043 A 
ATOM     15  C   UNL A   1      28.395  29.262  23.167  1.00  0.00     0.026 A 
ATOM     16  C   UNL A   1      30.611  29.888  22.452  1.00  0.00     0.052 A 
ATOM     17  C   UNL A   1      28.773  27.927  23.166  1.00  0.00     0.004 A 
ATOM     18  C   UNL A   1      30.079  27.580  22.835  1.00  0.00     0.026 A 
BRANCH  14  19
ATOM     19  N   UNL A   1      28.882  31.577  23.052  1.00  0.00    -0.326 N 
ATOM     20  C   UNL A   1      28.047  32.241  20.811  1.00  0.00     0.114 C 
ATOM     21  C   UNL A   1      28.476  32.566  22.211  1.00  0.00     0.221 C 
ATOM     22  O   UNL A   1      28.391  33.716  22.647  1.00  0.00    -0.275 OA
ATOM     23  H   UNL A   1      28.867  31.839  24.001  1.00  0.00     0.169 HD
ENDBRANCH  14  19
ENDBRANCH   8  13
ENDBRANCH   6   7
BRANCH   6  24
ATOM     24  C   UNL A   1      32.637  26.837  25.603  1.00  0.00     0.015 C 
ATOM     25  C   UNL A   1      33.719  25.780  25.832  1.00  0.00     0.010 C 
ATOM     26  C   UNL A   1      31.793  26.934  26.887  1.00  0.00     0.010 C 
ENDBRANCH   6  24
ENDBRANCH   3   6
ENDBRANCH   1   2
BRANCH   1  27
ATOM     27  C   UNL A   1      31.419  32.207  26.612  1.00  0.00     0.042 C 
BRANCH  27  28
ATOM     28  C   UNL A   1      32.588  32.844  27.350  1.00  0.00     0.118 C 
BRANCH  28  29
ATOM     29  N   UNL A   1      32.364  34.248  27.667  1.00  0.00    -0.352 N 
ATOM     30  C   UNL A   1      32.976  35.043  28.610  1.00  0.00     0.251 C 
ATOM     31  H   UNL A   1      31.672  34.695  27.126  1.00  0.00     0.163 HD
ATOM     32  O   UNL A   1      32.555  36.167  28.836  1.00  0.00    -0.269 OA
BRANCH  30  33
ATOM     33  C   UNL A   1      34.129  34.515  29.374  1.00  0.00     0.039 A 
ATOM     34  C   UNL A   1      33.903  33.918  30.616  1.00  0.00     0.014 A 
ATOM     35  C   UNL A   1      35.424  34.588  28.857  1.00  0.00     0.014 A 
ATOM     36  C   UNL A   1      34.969  33.331  31.304  1.00  0.00     0.010 A 
ATOM     37  C   UNL A   1      36.458  33.906  29.486  1.00  0.00     0.010 A 
ATOM     38  C   UNL A   1      36.249  33.283  30.725  1.00  0.00    -0.014 A 
BRANCH  38  39
ATOM     39  C   UNL A   1      37.389  32.623  31.414  1.00  0.00     0.031 A 
ATOM     40  C   UNL A   1      38.099  31.470  30.754  1.00  0.00     0.074 A 
ATOM     41  C   UNL A   1      37.748  33.017  32.651  1.00  0.00     0.049 A 
ATOM     42  N   UNL A   1      39.073  30.723  31.210  1.00  0.00    -0.248 NA
ATOM     43  C   UNL A   1      37.626  31.080  29.416  1.00  0.00     0.031 C 
ATOM     44  C   UNL A   1      37.103  34.079  33.424  1.00  0.00     0.029 A 
ATOM     45  N   UNL A   1      38.743  32.563  33.482  1.00  0.00    -0.354 N 
ATOM     46  C   UNL A   1      39.312  29.771  30.227  1.00  0.00     0.074 A 
ATOM     47  C   UNL A   1      38.336  29.987  29.183  1.00  0.00     0.031 C 
ATOM     48  C   UNL A   1      37.738  34.218  34.599  1.00  0.00     0.029 A 
ATOM     49  C   UNL A   1      38.809  33.229  34.681  1.00  0.00     0.049 A 
ATOM     50  H   UNL A   1      39.352  31.827  33.240  1.00  0.00     0.167 HD
ATOM     51  C   UNL A   1      40.277  28.823  30.182  1.00  0.00     0.037 A 
ATOM     52  C   UNL A   1      39.640  33.061  35.728  1.00  0.00     0.037 A 
ATOM     53  C   UNL A   1      41.267  28.633  31.208  1.00  0.00     0.049 A 
ATOM     54  C   UNL A   1      40.712  32.007  35.648  1.00  0.00     0.074 A 
ATOM     55  C   UNL A   1      42.325  27.741  31.233  1.00  0.00     0.029 A 
ATOM     56  N   UNL A   1      41.320  29.350  32.395  1.00  0.00    -0.354 N 
ATOM     57  N   UNL A   1      40.974  31.161  34.681  1.00  0.00    -0.248 NA
ATOM     58  C   UNL A   1      41.614  31.894  36.803  1.00  0.00     0.031 C 
ATOM     59  C   UNL A   1      42.985  27.881  32.458  1.00  0.00     0.029 A 
ATOM     60  C   UNL A   1      42.382  28.906  33.167  1.00  0.00     0.049 A 
ATOM     61  H   UNL A   1      40.696  30.067  32.651  1.00  0.00     0.167 HD
ATOM     62  C   UNL A   1      42.091  30.444  35.092  1.00  0.00     0.074 A 
ATOM     63  C   UNL A   1      42.464  30.965  36.391  1.00  0.00     0.031 C 
ATOM     64  C   UNL A   1      42.749  29.446  34.452  1.00  0.00     0.037 A 
BRANCH  51  65
ATOM     65  C   UNL A   1      40.311  27.925  28.977  1.00  0.00     0.064 A 
ATOM     66  C   UNL A   1      41.047  28.258  27.828  1.00  0.00     0.173 A 
ATOM     67  C   UNL A   1      39.622  26.704  28.981  1.00  0.00     0.173 A 
ATOM     68  F   UNL A   1      41.715  29.420  27.767  1.00  0.00    -0.203 F 
ATOM     69  C   UNL A   1      41.060  27.419  26.716  1.00  0.00     0.198 A 
ATOM     70  C   UNL A   1      39.667  25.850  27.880  1.00  0.00     0.198 A 
ATOM     71  F   UNL A   1      38.907  26.332  30.053  1.00  0.00    -0.203 F 
ATOM     72  F   UNL A   1      41.721  27.788  25.609  1.00  0.00    -0.200 F 
ATOM     73  C   UNL A   1      40.378  26.213  26.746  1.00  0.00     0.200 A 
ATOM     74  F   UNL A   1      39.019  24.678  27.917  1.00  0.00    -0.200 F 
ATOM     75  F   UNL A   1      40.397  25.404  25.678  1.00  0.00    -0.200 F 
ENDBRANCH  51  65
BRANCH  52  76
ATOM     76  C   UNL A   1      39.517  33.932  36.927  1.00  0.00     0.064 A 
ATOM     77  C   UNL A   1      38.785  33.516  38.049  1.00  0.00     0.173 A 
ATOM     78  C   UNL A   1      40.114  35.200  36.975  1.00  0.00     0.173 A 
ATOM     79  F   UNL A   1      38.179  32.319  38.046  1.00  0.00    -0.203 F 
ATOM     80  C   UNL A   1      38.631  34.345  39.159  1.00  0.00     0.198 A 
ATOM     81  C   UNL A   1      39.986  36.015  38.098  1.00  0.00     0.198 A 
ATOM     82  F   UNL A   1      40.831  35.645  35.933  1.00  0.00    -0.203 F 
ATOM     83  F   UNL A   1      37.879  33.942  40.193  1.00  0.00    -0.200 F 
ATOM     84  C   UNL A   1      39.236  35.592  39.185  1.00  0.00     0.200 A 
ATOM     85  F   UNL A   1      40.587  37.213  38.126  1.00  0.00    -0.200 F 
ATOM     86  F   UNL A   1      39.090  36.388  40.252  1.00  0.00    -0.200 F 
ENDBRANCH  52  76
BRANCH  64  87
ATOM     87  C   UNL A   1      43.975  28.889  35.120  1.00  0.00     0.064 A 
ATOM     88  C   UNL A   1      43.904  27.841  36.049  1.00  0.00     0.173 A 
ATOM     89  C   UNL A   1      45.243  29.399  34.799  1.00  0.00     0.173 A 
ATOM     90  F   UNL A   1      42.716  27.327  36.399  1.00  0.00    -0.203 F 
ATOM     91  C   UNL A   1      45.055  27.350  36.661  1.00  0.00     0.198 A 
ATOM     92  C   UNL A   1      46.394  28.879  35.386  1.00  0.00     0.198 A 
ATOM     93  F   UNL A   1      45.369  30.394  33.910  1.00  0.00    -0.203 F 
ATOM     94  F   UNL A   1      44.958  26.390  37.591  1.00  0.00    -0.200 F 
ATOM     95  C   UNL A   1      46.298  27.863  36.325  1.00  0.00     0.200 A 
ATOM     96  F   UNL A   1      47.596  29.365  35.045  1.00  0.00    -0.200 F 
ATOM     97  F   UNL A   1      47.404  27.385  36.911  1.00  0.00    -0.200 F 
ENDBRANCH  64  87
ENDBRANCH  38  39
ENDBRANCH  30  33
ENDBRANCH  28  29
ENDBRANCH  27  28
ENDBRANCH   1  27
TORSDOF 14
ENDMDL
MODEL 2
REMARK VINA RESULT:     -12.9      6.587     11.991
REMARK SMILES CC(=O)Nc1cccc(NC(=O)N[C@H](C(=O)NCCCNC(=O)c2ccc(-c3c4nc(c(-c5c(F)c(F)c(F)c(F)c5F)c5ccc([nH]5)c(-c5c(F)c(F)c(F)c(F)c5F)c5nc(c(-c6c(F)c(F)c(F)c(F)c6F)c6ccc3[nH]6)C=C5)C=C4)cc2)C(C)C)c1
REMARK SMILES IDX 18 1 17 2 15 3 16 4 14 6 13 7 10 8 11 9 12 11 9 13 5 14 6 15
REMARK SMILES IDX 90 16 7 17 8 18 4 19 1 20 2 21 3 22 87 24 88 25 89 26 19 27
REMARK SMILES IDX 20 28 21 29 22 30 23 32 24 33 25 34 86 35 26 36 85 37 27 38
REMARK SMILES IDX 28 39 29 40 79 41 30 42 84 43 78 44 80 45 31 46 83 47 77 48
REMARK SMILES IDX 76 49 32 51 64 52 44 53 63 54 45 55 48 56 62 57 81 58 46 59
REMARK SMILES IDX 47 60 61 62 82 63 49 64 33 65 34 66 42 67 35 68 36 69 40 70
REMARK SMILES IDX 43 71 37 72 38 73 41 74 39 75 65 76 66 77 74 78 67 79 68 80
REMARK SMILES IDX 72 81 75 82 69 83 70 84 73 85 71 86 50 87 51 88 59 89 52 90
REMARK SMILES IDX 53 91 57 92 60 93 54 94 55 95 58 96 56 97
REMARK H PARENT 17 5 10 10 13 12 4 23 21 31 80 50 48 61
REMARK Flexibility Score: inf
ROOT
ATOM      1  C   UNL A   1      37.047  20.549  25.017  1.00  0.00     0.117 C 
ENDROOT
BRANCH   1   2
ATOM      2  N   UNL A   1      37.430  21.808  25.630  1.00  0.00    -0.354 N 
ATOM      3  C   UNL A   1      36.670  22.916  25.885  1.00  0.00     0.242 C 
ATOM      4  O   UNL A   1      37.295  23.937  26.181  1.00  0.00    -0.273 OA
ATOM      5  H   UNL A   1      38.375  21.874  25.901  1.00  0.00     0.163 HD
BRANCH   3   6
ATOM      6  C   UNL A   1      35.144  22.894  25.591  1.00  0.00     0.175 C 
BRANCH   6   7
ATOM      7  N   UNL A   1      34.265  22.888  26.781  1.00  0.00    -0.326 N 
ATOM      8  N   UNL A   1      32.473  21.302  26.612  1.00  0.00    -0.308 N 
ATOM      9  C   UNL A   1      33.224  22.204  27.265  1.00  0.00     0.319 C 
ATOM     10  H   UNL A   1      31.571  21.233  26.998  1.00  0.00     0.171 HD
ATOM     11  O   UNL A   1      32.810  22.582  28.369  1.00  0.00    -0.248 OA
ATOM     12  H   UNL A   1      34.526  23.604  27.404  1.00  0.00     0.166 HD
BRANCH   8  13
ATOM     13  C   UNL A   1      32.638  20.434  25.525  1.00  0.00     0.044 A 
ATOM     14  C   UNL A   1      33.581  18.360  24.650  1.00  0.00     0.043 A 
ATOM     15  C   UNL A   1      33.012  18.646  23.406  1.00  0.00     0.026 A 
ATOM     16  C   UNL A   1      33.385  19.254  25.710  1.00  0.00     0.052 A 
ATOM     17  C   UNL A   1      32.324  19.834  23.206  1.00  0.00     0.004 A 
ATOM     18  C   UNL A   1      32.193  20.741  24.252  1.00  0.00     0.026 A 
BRANCH  14  19
ATOM     19  N   UNL A   1      34.403  17.223  24.692  1.00  0.00    -0.326 N 
ATOM     20  C   UNL A   1      32.843  15.438  25.430  1.00  0.00     0.114 C 
ATOM     21  C   UNL A   1      34.225  15.962  25.169  1.00  0.00     0.221 C 
ATOM     22  O   UNL A   1      35.212  15.235  25.305  1.00  0.00    -0.275 OA
ATOM     23  H   UNL A   1      35.291  17.368  24.292  1.00  0.00     0.169 HD
ENDBRANCH  14  19
ENDBRANCH   8  13
ENDBRANCH   6   7
BRANCH   6  24
ATOM     24  C   UNL A   1      34.522  23.776  24.465  1.00  0.00     0.015 C 
ATOM     25  C   UNL A   1      34.447  25.280  24.732  1.00  0.00     0.010 C 
ATOM     26  C   UNL A   1      35.280  23.567  23.141  1.00  0.00     0.010 C 
ENDBRANCH   6  24
ENDBRANCH   3   6
ENDBRANCH   1   2
BRANCH   1  27
ATOM     27  C   UNL A   1      38.230  19.603  24.908  1.00  0.00     0.042 C 
BRANCH  27  28
ATOM     28  C   UNL A   1      39.400  20.014  25.791  1.00  0.00     0.118 C 
BRANCH  28  29
ATOM     29  N   UNL A   1      40.409  18.972  25.920  1.00  0.00    -0.352 N 
ATOM     30  C   UNL A   1      41.765  19.085  26.131  1.00  0.00     0.251 C 
ATOM     31  H   UNL A   1      40.072  18.050  25.845  1.00  0.00     0.163 HD
ATOM     32  O   UNL A   1      42.484  18.100  26.066  1.00  0.00    -0.269 OA
BRANCH  30  33
ATOM     33  C   UNL A   1      42.354  20.416  26.405  1.00  0.00     0.039 A 
ATOM     34  C   UNL A   1      42.848  21.172  25.340  1.00  0.00     0.014 A 
ATOM     35  C   UNL A   1      42.396  20.925  27.704  1.00  0.00     0.014 A 
ATOM     36  C   UNL A   1      43.318  22.467  25.572  1.00  0.00     0.010 A 
ATOM     37  C   UNL A   1      42.756  22.251  27.915  1.00  0.00     0.010 A 
ATOM     38  C   UNL A   1      43.238  23.033  26.855  1.00  0.00    -0.014 A 
BRANCH  38  39
ATOM     39  C   UNL A   1      43.687  24.426  27.119  1.00  0.00     0.031 A 
ATOM     40  C   UNL A   1      42.709  25.443  27.645  1.00  0.00     0.074 A 
ATOM     41  C   UNL A   1      44.952  24.792  26.833  1.00  0.00     0.049 A 
ATOM     42  N   UNL A   1      42.885  26.718  27.883  1.00  0.00    -0.248 NA
ATOM     43  C   UNL A   1      41.338  24.973  27.902  1.00  0.00     0.031 C 
ATOM     44  C   UNL A   1      45.980  23.918  26.263  1.00  0.00     0.029 A 
ATOM     45  N   UNL A   1      45.589  26.000  26.976  1.00  0.00    -0.354 N 
ATOM     46  C   UNL A   1      41.649  27.199  28.297  1.00  0.00     0.074 A 
ATOM     47  C   UNL A   1      40.715  26.099  28.209  1.00  0.00     0.031 C 
ATOM     48  C   UNL A   1      47.124  24.609  26.137  1.00  0.00     0.029 A 
ATOM     49  C   UNL A   1      46.903  25.982  26.578  1.00  0.00     0.049 A 
ATOM     50  H   UNL A   1      45.143  26.804  27.329  1.00  0.00     0.167 HD
ATOM     51  C   UNL A   1      41.326  28.437  28.742  1.00  0.00     0.037 A 
ATOM     52  C   UNL A   1      47.826  26.964  26.571  1.00  0.00     0.037 A 
ATOM     53  C   UNL A   1      42.265  29.520  28.861  1.00  0.00     0.049 A 
ATOM     54  C   UNL A   1      47.444  28.329  27.081  1.00  0.00     0.074 A 
ATOM     55  C   UNL A   1      42.055  30.795  29.355  1.00  0.00     0.029 A 
ATOM     56  N   UNL A   1      43.597  29.454  28.476  1.00  0.00    -0.354 N 
ATOM     57  N   UNL A   1      46.291  28.752  27.539  1.00  0.00    -0.248 NA
ATOM     58  C   UNL A   1      48.500  29.351  27.086  1.00  0.00     0.031 C 
ATOM     59  C   UNL A   1      43.246  31.517  29.221  1.00  0.00     0.029 A 
ATOM     60  C   UNL A   1      44.215  30.672  28.706  1.00  0.00     0.049 A 
ATOM     61  H   UNL A   1      44.037  28.659  28.097  1.00  0.00     0.167 HD
ATOM     62  C   UNL A   1      46.491  30.072  27.921  1.00  0.00     0.074 A 
ATOM     63  C   UNL A   1      47.882  30.375  27.654  1.00  0.00     0.031 C 
ATOM     64  C   UNL A   1      45.605  30.953  28.447  1.00  0.00     0.037 A 
BRANCH  51  65
ATOM     65  C   UNL A   1      39.898  28.679  29.143  1.00  0.00     0.064 A 
ATOM     66  C   UNL A   1      39.444  28.433  30.448  1.00  0.00     0.173 A 
ATOM     67  C   UNL A   1      38.977  29.190  28.216  1.00  0.00     0.173 A 
ATOM     68  F   UNL A   1      40.280  27.931  31.371  1.00  0.00    -0.203 F 
ATOM     69  C   UNL A   1      38.114  28.653  30.800  1.00  0.00     0.198 A 
ATOM     70  C   UNL A   1      37.656  29.445  28.582  1.00  0.00     0.198 A 
ATOM     71  F   UNL A   1      39.356  29.450  26.957  1.00  0.00    -0.203 F 
ATOM     72  F   UNL A   1      37.692  28.352  32.036  1.00  0.00    -0.200 F 
ATOM     73  C   UNL A   1      37.224  29.167  29.870  1.00  0.00     0.200 A 
ATOM     74  F   UNL A   1      36.802  29.956  27.685  1.00  0.00    -0.200 F 
ATOM     75  F   UNL A   1      35.948  29.385  30.212  1.00  0.00    -0.200 F 
ENDBRANCH  51  65
BRANCH  52  76
ATOM     76  C   UNL A   1      49.208  26.688  26.097  1.00  0.00     0.064 A 
ATOM     77  C   UNL A   1      49.582  26.951  24.771  1.00  0.00     0.173 A 
ATOM     78  C   UNL A   1      50.179  26.144  26.951  1.00  0.00     0.173 A 
ATOM     79  F   UNL A   1      48.685  27.454  23.910  1.00  0.00    -0.203 F 
ATOM     80  C   UNL A   1      50.864  26.655  24.311  1.00  0.00     0.198 A 
ATOM     81  C   UNL A   1      51.469  25.878  26.498  1.00  0.00     0.198 A 
ATOM     82  F   UNL A   1      49.877  25.880  28.230  1.00  0.00    -0.203 F 
ATOM     83  F   UNL A   1      51.176  26.865  23.025  1.00  0.00    -0.200 F 
ATOM     84  C   UNL A   1      51.808  26.123  25.175  1.00  0.00     0.200 A 
ATOM     85  F   UNL A   1      52.384  25.380  27.341  1.00  0.00    -0.200 F 
ATOM     86  F   UNL A   1      53.041  25.841  24.734  1.00  0.00    -0.200 F 
ENDBRANCH  52  76
BRANCH  64  87
ATOM     87  C   UNL A   1      46.125  32.312  28.824  1.00  0.00     0.064 A 
ATOM     88  C   UNL A   1      46.101  33.392  27.928  1.00  0.00     0.173 A 
ATOM     89  C   UNL A   1      46.630  32.541  30.113  1.00  0.00     0.173 A 
ATOM     90  F   UNL A   1      45.639  33.223  26.679  1.00  0.00    -0.203 F 
ATOM     91  C   UNL A   1      46.598  34.638  28.298  1.00  0.00     0.198 A 
ATOM     92  C   UNL A   1      47.092  33.799  30.491  1.00  0.00     0.198 A 
ATOM     93  F   UNL A   1      46.668  31.547  31.013  1.00  0.00    -0.203 F 
ATOM     94  F   UNL A   1      46.620  35.639  27.406  1.00  0.00    -0.200 F 
ATOM     95  C   UNL A   1      47.086  34.844  29.579  1.00  0.00     0.200 A 
ATOM     96  F   UNL A   1      47.546  33.999  31.736  1.00  0.00    -0.200 F 
ATOM     97  F   UNL A   1      47.559  36.046  29.934  1.00  0.00    -0.200 F 
ENDBRANCH  64  87
ENDBRANCH  38  39
ENDBRANCH  30  33
ENDBRANCH  28  29
ENDBRANCH  27  28
ENDBRANCH   1  27
TORSDOF 14
ENDMDL
MODEL 3
REMARK VINA RESULT:     -12.8      0.878      7.333
REMARK SMILES CC(=O)Nc1cccc(NC(=O)N[C@H](C(=O)NCCCNC(=O)c2ccc(-c3c4nc(c(-c5c(F)c(F)c(F)c(F)c5F)c5ccc([nH]5)c(-c5c(F)c(F)c(F)c(F)c5F)c5nc(c(-c6c(F)c(F)c(F)c(F)c6F)c6ccc3[nH]6)C=C5)C=C4)cc2)C(C)C)c1
REMARK SMILES IDX 18 1 17 2 15 3 16 4 14 6 13 7 10 8 11 9 12 11 9 13 5 14 6 15
REMARK SMILES IDX 90 16 7 17 8 18 4 19 1 20 2 21 3 22 87 24 88 25 89 26 19 27
REMARK SMILES IDX 20 28 21 29 22 30 23 32 24 33 25 34 86 35 26 36 85 37 27 38
REMARK SMILES IDX 28 39 29 40 79 41 30 42 84 43 78 44 80 45 31 46 83 47 77 48
REMARK SMILES IDX 76 49 32 51 64 52 44 53 63 54 45 55 48 56 62 57 81 58 46 59
REMARK SMILES IDX 47 60 61 62 82 63 49 64 33 65 34 66 42 67 35 68 36 69 40 70
REMARK SMILES IDX 43 71 37 72 38 73 41 74 39 75 65 76 66 77 74 78 67 79 68 80
REMARK SMILES IDX 72 81 75 82 69 83 70 84 73 85 71 86 50 87 51 88 59 89 52 90
REMARK SMILES IDX 53 91 57 92 60 93 54 94 55 95 58 96 56 97
REMARK H PARENT 17 5 10 10 13 12 4 23 21 31 80 50 48 61
REMARK Flexibility Score: inf
ROOT
ATOM      1  C   UNL A   1      31.569  30.815  26.179  1.00  0.00     0.117 C 
ENDROOT
BRANCH   1   2
ATOM      2  N   UNL A   1      32.879  30.319  26.560  1.00  0.00    -0.354 N 
ATOM      3  C   UNL A   1      33.511  29.165  26.188  1.00  0.00     0.242 C 
ATOM      4  O   UNL A   1      34.508  28.864  26.849  1.00  0.00    -0.273 OA
ATOM      5  H   UNL A   1      33.385  30.898  27.175  1.00  0.00     0.163 HD
BRANCH   3   6
ATOM      6  C   UNL A   1      32.853  28.220  25.144  1.00  0.00     0.175 C 
BRANCH   6   7
ATOM      7  N   UNL A   1      33.538  28.137  23.836  1.00  0.00    -0.326 N 
ATOM      8  N   UNL A   1      32.017  28.136  21.982  1.00  0.00    -0.308 N 
ATOM      9  C   UNL A   1      33.240  28.181  22.534  1.00  0.00     0.319 C 
ATOM     10  H   UNL A   1      32.047  27.788  21.062  1.00  0.00     0.171 HD
ATOM     11  O   UNL A   1      34.205  28.070  21.767  1.00  0.00    -0.248 OA
ATOM     12  H   UNL A   1      34.506  28.011  23.963  1.00  0.00     0.166 HD
BRANCH   8  13
ATOM     13  C   UNL A   1      30.710  28.454  22.372  1.00  0.00     0.044 A 
ATOM     14  C   UNL A   1      28.990  30.159  22.670  1.00  0.00     0.043 A 
ATOM     15  C   UNL A   1      28.114  29.172  23.128  1.00  0.00     0.026 A 
ATOM     16  C   UNL A   1      30.287  29.795  22.285  1.00  0.00     0.052 A 
ATOM     17  C   UNL A   1      28.545  27.861  23.267  1.00  0.00     0.004 A 
ATOM     18  C   UNL A   1      29.856  27.527  22.941  1.00  0.00     0.026 A 
BRANCH  14  19
ATOM     19  N   UNL A   1      28.507  31.476  22.739  1.00  0.00    -0.326 N 
ATOM     20  C   UNL A   1      28.043  32.020  20.361  1.00  0.00     0.114 C 
ATOM     21  C   UNL A   1      28.230  32.416  21.796  1.00  0.00     0.221 C 
ATOM     22  O   UNL A   1      28.058  33.583  22.156  1.00  0.00    -0.275 OA
ATOM     23  H   UNL A   1      28.331  31.780  23.659  1.00  0.00     0.169 HD
ENDBRANCH  14  19
ENDBRANCH   8  13
ENDBRANCH   6   7
BRANCH   6  24
ATOM     24  C   UNL A   1      32.297  26.821  25.553  1.00  0.00     0.015 C 
ATOM     25  C   UNL A   1      33.322  25.783  26.014  1.00  0.00     0.010 C 
ATOM     26  C   UNL A   1      31.241  26.968  26.663  1.00  0.00     0.010 C 
ENDBRANCH   6  24
ENDBRANCH   3   6
ENDBRANCH   1   2
BRANCH   1  27
ATOM     27  C   UNL A   1      31.350  32.236  26.668  1.00  0.00     0.042 C 
BRANCH  27  28
ATOM     28  C   UNL A   1      32.652  32.995  26.883  1.00  0.00     0.118 C 
BRANCH  28  29
ATOM     29  N   UNL A   1      32.479  34.212  27.662  1.00  0.00    -0.352 N 
ATOM     30  C   UNL A   1      33.156  34.641  28.782  1.00  0.00     0.251 C 
ATOM     31  H   UNL A   1      31.773  34.820  27.341  1.00  0.00     0.163 HD
ATOM     32  O   UNL A   1      32.776  35.628  29.393  1.00  0.00    -0.269 OA
BRANCH  30  33
ATOM     33  C   UNL A   1      34.332  33.880  29.262  1.00  0.00     0.039 A 
ATOM     34  C   UNL A   1      35.612  34.325  28.927  1.00  0.00     0.014 A 
ATOM     35  C   UNL A   1      34.171  32.745  30.060  1.00  0.00     0.014 A 
ATOM     36  C   UNL A   1      36.730  33.672  29.453  1.00  0.00     0.010 A 
ATOM     37  C   UNL A   1      35.278  32.169  30.672  1.00  0.00     0.010 A 
ATOM     38  C   UNL A   1      36.572  32.613  30.364  1.00  0.00    -0.014 A 
BRANCH  38  39
ATOM     39  C   UNL A   1      37.744  31.933  30.974  1.00  0.00     0.031 A 
ATOM     40  C   UNL A   1      38.190  32.307  32.363  1.00  0.00     0.074 A 
ATOM     41  C   UNL A   1      38.442  31.024  30.264  1.00  0.00     0.049 A 
ATOM     42  N   UNL A   1      39.219  31.877  33.050  1.00  0.00    -0.248 NA
ATOM     43  C   UNL A   1      37.394  33.329  33.061  1.00  0.00     0.031 C 
ATOM     44  C   UNL A   1      38.151  30.618  28.888  1.00  0.00     0.029 A 
ATOM     45  N   UNL A   1      39.548  30.283  30.600  1.00  0.00    -0.354 N 
ATOM     46  C   UNL A   1      39.200  32.588  34.243  1.00  0.00     0.074 A 
ATOM     47  C   UNL A   1      38.105  33.528  34.160  1.00  0.00     0.031 C 
ATOM     48  C   UNL A   1      39.033  29.678  28.511  1.00  0.00     0.029 A 
ATOM     49  C   UNL A   1      39.975  29.443  29.600  1.00  0.00     0.049 A 
ATOM     50  H   UNL A   1      39.993  30.348  31.476  1.00  0.00     0.167 HD
ATOM     51  C   UNL A   1      40.003  32.449  35.325  1.00  0.00     0.037 A 
ATOM     52  C   UNL A   1      41.010  28.582  29.567  1.00  0.00     0.037 A 
ATOM     53  C   UNL A   1      41.071  31.491  35.418  1.00  0.00     0.049 A 
ATOM     54  C   UNL A   1      41.881  28.439  30.787  1.00  0.00     0.074 A 
ATOM     55  C   UNL A   1      41.906  31.228  36.489  1.00  0.00     0.029 A 
ATOM     56  N   UNL A   1      41.454  30.635  34.393  1.00  0.00    -0.354 N 
ATOM     57  N   UNL A   1      41.809  29.065  31.937  1.00  0.00    -0.248 NA
ATOM     58  C   UNL A   1      42.972  27.457  30.709  1.00  0.00     0.031 C 
ATOM     59  C   UNL A   1      42.827  30.252  36.096  1.00  0.00     0.029 A 
ATOM     60  C   UNL A   1      42.524  29.858  34.803  1.00  0.00     0.049 A 
ATOM     61  H   UNL A   1      41.027  30.588  33.507  1.00  0.00     0.167 HD
ATOM     62  C   UNL A   1      42.815  28.527  32.729  1.00  0.00     0.074 A 
ATOM     63  C   UNL A   1      43.474  27.514  31.933  1.00  0.00     0.031 C 
ATOM     64  C   UNL A   1      43.161  28.843  34.002  1.00  0.00     0.037 A 
BRANCH  51  65
ATOM     65  C   UNL A   1      39.747  33.353  36.499  1.00  0.00     0.064 A 
ATOM     66  C   UNL A   1      38.829  33.014  37.506  1.00  0.00     0.173 A 
ATOM     67  C   UNL A   1      40.448  34.561  36.632  1.00  0.00     0.173 A 
ATOM     68  F   UNL A   1      38.123  31.877  37.421  1.00  0.00    -0.203 F 
ATOM     69  C   UNL A   1      38.596  33.868  38.582  1.00  0.00     0.198 A 
ATOM     70  C   UNL A   1      40.239  35.395  37.729  1.00  0.00     0.198 A 
ATOM     71  F   UNL A   1      41.341  34.933  35.703  1.00  0.00    -0.203 F 
ATOM     72  F   UNL A   1      37.671  33.550  39.498  1.00  0.00    -0.200 F 
ATOM     73  C   UNL A   1      39.307  35.052  38.697  1.00  0.00     0.200 A 
ATOM     74  F   UNL A   1      40.938  36.532  37.846  1.00  0.00    -0.200 F 
ATOM     75  F   UNL A   1      39.087  35.869  39.736  1.00  0.00    -0.200 F 
ENDBRANCH  51  65
BRANCH  52  76
ATOM     76  C   UNL A   1      41.261  27.762  28.352  1.00  0.00     0.064 A 
ATOM     77  C   UNL A   1      40.642  26.515  28.183  1.00  0.00     0.173 A 
ATOM     78  C   UNL A   1      42.131  28.197  27.343  1.00  0.00     0.173 A 
ATOM     79  F   UNL A   1      39.815  26.045  29.129  1.00  0.00    -0.203 F 
ATOM     80  C   UNL A   1      40.906  25.724  27.067  1.00  0.00     0.198 A 
ATOM     81  C   UNL A   1      42.370  27.420  26.211  1.00  0.00     0.198 A 
ATOM     82  F   UNL A   1      42.744  29.385  27.450  1.00  0.00    -0.203 F 
ATOM     83  F   UNL A   1      40.343  24.512  26.959  1.00  0.00    -0.200 F 
ATOM     84  C   UNL A   1      41.765  26.178  26.079  1.00  0.00     0.200 A 
ATOM     85  F   UNL A   1      43.189  27.871  25.251  1.00  0.00    -0.200 F 
ATOM     86  F   UNL A   1      42.018  25.419  25.005  1.00  0.00    -0.200 F 
ENDBRANCH  52  76
BRANCH  64  87
ATOM     87  C   UNL A   1      44.266  28.045  34.634  1.00  0.00     0.064 A 
ATOM     88  C   UNL A   1      44.021  26.840  35.310  1.00  0.00     0.173 A 
ATOM     89  C   UNL A   1      45.596  28.483  34.535  1.00  0.00     0.173 A 
ATOM     90  F   UNL A   1      42.766  26.384  35.444  1.00  0.00    -0.203 F 
ATOM     91  C   UNL A   1      45.061  26.125  35.896  1.00  0.00     0.198 A 
ATOM     92  C   UNL A   1      46.638  27.744  35.090  1.00  0.00     0.198 A 
ATOM     93  F   UNL A   1      45.889  29.622  33.891  1.00  0.00    -0.203 F 
ATOM     94  F   UNL A   1      44.796  25.008  36.590  1.00  0.00    -0.200 F 
ATOM     95  C   UNL A   1      46.368  26.572  35.780  1.00  0.00     0.200 A 
ATOM     96  F   UNL A   1      47.902  28.170  34.961  1.00  0.00    -0.200 F 
ATOM     97  F   UNL A   1      47.369  25.878  36.341  1.00  0.00    -0.200 F 
ENDBRANCH  64  87
ENDBRANCH  38  39
ENDBRANCH  30  33
ENDBRANCH  28  29
ENDBRANCH  27  28
ENDBRANCH   1  27
TORSDOF 14
ENDMDL
