MODEL 1
REMARK VINA RESULT:     -14.5      0.000      0.000
REMARK SMILES Cc1ccc(-c2cc(Cl)ccc2Cl)c(C(=O)NCCCNC(=O)c2ccc(-c3c4nc(c(-c5c(F)c(F)c(F)c(F)c5F)c5ccc([nH]5)c(-c5c(F)c(F)c(F)c(F)c5F)c5nc(c(-c6c(F)c(F)c(F)c(F)c6F)c6ccc3[nH]6)C=C5)C=C4)cc2)c1
REMARK SMILES IDX 19 1 18 2 17 3 15 4 16 5 14 7 1 8 2 9 3 10 87 11 4 12 5 13
REMARK SMILES IDX 6 14 7 15 12 16 8 17 11 18 13 19 9 20 10 21 20 22 21 23
REMARK SMILES IDX 22 24 23 26 24 27 25 28 86 29 26 30 85 31 27 32 28 33 29 34
REMARK SMILES IDX 79 35 30 36 84 37 78 38 80 39 31 40 83 41 77 42 76 43 32 45
REMARK SMILES IDX 64 46 44 47 63 48 45 49 48 50 62 51 81 52 46 53 47 54 61 56
REMARK SMILES IDX 82 57 49 58 33 59 34 60 42 61 35 62 36 63 40 64 43 65 37 66
REMARK SMILES IDX 38 67 41 68 39 69 65 70 66 71 74 72 67 73 68 74 72 75 75 76
REMARK SMILES IDX 69 77 70 78 73 79 71 80 50 81 51 82 59 83 52 84 53 85 57 86
REMARK SMILES IDX 60 87 54 88 55 89 58 90 56 91
REMARK H PARENT 17 6 21 25 80 44 48 55
REMARK Flexibility Score: inf
ROOT
ATOM      1  C   UNL A   1      32.657  30.392  27.271  1.00  0.00     0.042 C 
ENDROOT
BRANCH   1   2
ATOM      2  C   UNL A   1      32.019  29.197  26.559  1.00  0.00     0.118 C 
BRANCH   2   3
ATOM      3  N   UNL A   1      32.547  29.031  25.213  1.00  0.00    -0.352 N 
ATOM      4  C   UNL A   1      31.987  28.897  23.962  1.00  0.00     0.251 C 
ATOM      5  O   UNL A   1      32.816  28.820  23.055  1.00  0.00    -0.269 OA
ATOM      6  H   UNL A   1      33.531  29.011  25.193  1.00  0.00     0.163 HD
BRANCH   4   7
ATOM      7  C   UNL A   1      30.504  28.833  23.664  1.00  0.00     0.047 A 
ATOM      8  C   UNL A   1      27.637  31.286  22.972  1.00  0.00     0.044 C 
ATOM      9  C   UNL A   1      28.376  29.996  23.181  1.00  0.00    -0.050 A 
ATOM     10  C   UNL A   1      27.719  28.778  23.085  1.00  0.00     0.004 A 
ATOM     11  C   UNL A   1      29.746  30.002  23.477  1.00  0.00     0.018 A 
ATOM     12  C   UNL A   1      28.426  27.598  23.303  1.00  0.00     0.010 A 
ATOM     13  C   UNL A   1      29.813  27.592  23.596  1.00  0.00    -0.004 A 
BRANCH  13  14
ATOM     14  C   UNL A   1      30.428  26.267  23.830  1.00  0.00     0.003 A 
ATOM     15  C   UNL A   1      30.203  25.609  25.056  1.00  0.00     0.030 A 
ATOM     16  C   UNL A   1      31.200  25.598  22.858  1.00  0.00     0.049 A 
ATOM     17  C   UNL A   1      30.766  24.358  25.316  1.00  0.00     0.041 A 
ATOM     18  C   UNL A   1      31.737  24.330  23.114  1.00  0.00     0.023 A 
ATOM     19  Cl  UNL A   1      31.520  26.295  21.305  1.00  0.00    -0.084 Cl
ATOM     20  Cl  UNL A   1      30.518  23.609  26.846  1.00  0.00    -0.084 Cl
ATOM     21  C   UNL A   1      31.527  23.714  24.348  1.00  0.00     0.022 A 
ENDBRANCH  13  14
ENDBRANCH   4   7
ENDBRANCH   2   3
ENDBRANCH   1   2
BRANCH   1  22
ATOM     22  C   UNL A   1      34.160  30.269  27.457  1.00  0.00     0.118 C 
BRANCH  22  23
ATOM     23  N   UNL A   1      34.708  31.203  28.435  1.00  0.00    -0.352 N 
ATOM     24  C   UNL A   1      35.870  31.098  29.187  1.00  0.00     0.251 C 
ATOM     25  H   UNL A   1      34.180  32.021  28.584  1.00  0.00     0.163 HD
ATOM     26  O   UNL A   1      36.182  31.961  29.980  1.00  0.00    -0.269 OA
BRANCH  24  27
ATOM     27  C   UNL A   1      36.791  29.975  28.892  1.00  0.00     0.039 A 
ATOM     28  C   UNL A   1      37.003  29.032  29.903  1.00  0.00     0.014 A 
ATOM     29  C   UNL A   1      37.611  30.013  27.769  1.00  0.00     0.014 A 
ATOM     30  C   UNL A   1      38.191  28.309  29.911  1.00  0.00     0.010 A 
ATOM     31  C   UNL A   1      38.836  29.385  27.833  1.00  0.00     0.010 A 
ATOM     32  C   UNL A   1      39.151  28.592  28.943  1.00  0.00    -0.014 A 
BRANCH  32  33
ATOM     33  C   UNL A   1      40.544  28.184  29.058  1.00  0.00     0.031 A 
ATOM     34  C   UNL A   1      40.981  26.886  28.508  1.00  0.00     0.074 A 
ATOM     35  C   UNL A   1      41.441  29.051  29.578  1.00  0.00     0.049 A 
ATOM     36  N   UNL A   1      42.068  26.280  28.842  1.00  0.00    -0.248 NA
ATOM     37  C   UNL A   1      40.174  26.136  27.555  1.00  0.00     0.031 C 
ATOM     38  C   UNL A   1      42.898  28.977  29.505  1.00  0.00     0.029 A 
ATOM     39  N   UNL A   1      41.192  30.106  30.474  1.00  0.00    -0.354 N 
ATOM     40  C   UNL A   1      42.240  25.217  27.983  1.00  0.00     0.074 A 
ATOM     41  C   UNL A   1      41.005  25.138  27.240  1.00  0.00     0.031 C 
ATOM     42  C   UNL A   1      43.419  29.702  30.508  1.00  0.00     0.029 A 
ATOM     43  C   UNL A   1      42.308  30.126  31.343  1.00  0.00     0.049 A 
ATOM     44  H   UNL A   1      40.408  30.702  30.493  1.00  0.00     0.167 HD
ATOM     45  C   UNL A   1      43.460  24.609  27.920  1.00  0.00     0.037 A 
ATOM     46  C   UNL A   1      42.186  29.848  32.673  1.00  0.00     0.037 A 
ATOM     47  C   UNL A   1      44.368  25.158  28.925  1.00  0.00     0.049 A 
ATOM     48  C   UNL A   1      43.050  28.700  33.137  1.00  0.00     0.074 A 
ATOM     49  C   UNL A   1      45.347  26.137  28.866  1.00  0.00     0.029 A 
ATOM     50  N   UNL A   1      44.113  24.934  30.272  1.00  0.00    -0.354 N 
ATOM     51  N   UNL A   1      43.497  27.764  32.347  1.00  0.00    -0.248 NA
ATOM     52  C   UNL A   1      43.448  28.499  34.528  1.00  0.00     0.031 C 
ATOM     53  C   UNL A   1      45.643  26.542  30.192  1.00  0.00     0.029 A 
ATOM     54  C   UNL A   1      44.862  25.791  31.053  1.00  0.00     0.049 A 
ATOM     55  H   UNL A   1      43.485  24.260  30.621  1.00  0.00     0.167 HD
ATOM     56  C   UNL A   1      44.211  26.853  33.080  1.00  0.00     0.074 A 
ATOM     57  C   UNL A   1      44.163  27.363  34.437  1.00  0.00     0.031 C 
ATOM     58  C   UNL A   1      44.774  25.751  32.505  1.00  0.00     0.037 A 
BRANCH  45  59
ATOM     59  C   UNL A   1      43.920  23.742  26.766  1.00  0.00     0.064 A 
ATOM     60  C   UNL A   1      43.471  22.407  26.643  1.00  0.00     0.173 A 
ATOM     61  C   UNL A   1      44.853  24.134  25.789  1.00  0.00     0.173 A 
ATOM     62  F   UNL A   1      42.494  21.922  27.420  1.00  0.00    -0.203 F 
ATOM     63  C   UNL A   1      44.009  21.513  25.713  1.00  0.00     0.198 A 
ATOM     64  C   UNL A   1      45.435  23.225  24.896  1.00  0.00     0.198 A 
ATOM     65  F   UNL A   1      45.186  25.418  25.619  1.00  0.00    -0.203 F 
ATOM     66  F   UNL A   1      43.547  20.256  25.654  1.00  0.00    -0.200 F 
ATOM     67  C   UNL A   1      45.022  21.910  24.868  1.00  0.00     0.200 A 
ATOM     68  F   UNL A   1      46.397  23.641  24.060  1.00  0.00    -0.200 F 
ATOM     69  F   UNL A   1      45.575  21.043  24.010  1.00  0.00    -0.200 F 
ENDBRANCH  45  59
BRANCH  46  70
ATOM     70  C   UNL A   1      40.840  30.168  33.223  1.00  0.00     0.064 A 
ATOM     71  C   UNL A   1      40.496  31.522  33.411  1.00  0.00     0.173 A 
ATOM     72  C   UNL A   1      39.799  29.234  33.203  1.00  0.00     0.173 A 
ATOM     73  F   UNL A   1      41.455  32.460  33.439  1.00  0.00    -0.203 F 
ATOM     74  C   UNL A   1      39.166  31.934  33.446  1.00  0.00     0.198 A 
ATOM     75  C   UNL A   1      38.467  29.648  33.259  1.00  0.00     0.198 A 
ATOM     76  F   UNL A   1      40.058  27.932  33.014  1.00  0.00    -0.203 F 
ATOM     77  F   UNL A   1      38.871  33.241  33.498  1.00  0.00    -0.200 F 
ATOM     78  C   UNL A   1      38.152  30.997  33.342  1.00  0.00     0.200 A 
ATOM     79  F   UNL A   1      37.483  28.747  33.128  1.00  0.00    -0.200 F 
ATOM     80  F   UNL A   1      36.874  31.397  33.275  1.00  0.00    -0.200 F 
ENDBRANCH  46  70
BRANCH  58  81
ATOM     81  C   UNL A   1      45.372  24.571  33.232  1.00  0.00     0.064 A 
ATOM     82  C   UNL A   1      46.657  24.571  33.797  1.00  0.00     0.173 A 
ATOM     83  C   UNL A   1      44.576  23.436  33.525  1.00  0.00     0.173 A 
ATOM     84  F   UNL A   1      47.466  25.634  33.690  1.00  0.00    -0.203 F 
ATOM     85  C   UNL A   1      47.133  23.493  34.550  1.00  0.00     0.198 A 
ATOM     86  C   UNL A   1      45.033  22.390  34.326  1.00  0.00     0.198 A 
ATOM     87  F   UNL A   1      43.322  23.321  33.068  1.00  0.00    -0.203 F 
ATOM     88  F   UNL A   1      48.381  23.525  35.036  1.00  0.00    -0.200 F 
ATOM     89  C   UNL A   1      46.318  22.411  34.826  1.00  0.00     0.200 A 
ATOM     90  F   UNL A   1      44.211  21.374  34.627  1.00  0.00    -0.200 F 
ATOM     91  F   UNL A   1      46.761  21.405  35.591  1.00  0.00    -0.200 F 
ENDBRANCH  58  81
ENDBRANCH  32  33
ENDBRANCH  24  27
ENDBRANCH  22  23
ENDBRANCH   1  22
TORSDOF 11
ENDMDL
MODEL 2
REMARK VINA RESULT:     -14.4      4.432     10.447
REMARK SMILES Cc1ccc(-c2cc(Cl)ccc2Cl)c(C(=O)NCCCNC(=O)c2ccc(-c3c4nc(c(-c5c(F)c(F)c(F)c(F)c5F)c5ccc([nH]5)c(-c5c(F)c(F)c(F)c(F)c5F)c5nc(c(-c6c(F)c(F)c(F)c(F)c6F)c6ccc3[nH]6)C=C5)C=C4)cc2)c1
REMARK SMILES IDX 19 1 18 2 17 3 15 4 16 5 14 7 1 8 2 9 3 10 87 11 4 12 5 13
REMARK SMILES IDX 6 14 7 15 12 16 8 17 11 18 13 19 9 20 10 21 20 22 21 23
REMARK SMILES IDX 22 24 23 26 24 27 25 28 86 29 26 30 85 31 27 32 28 33 29 34
REMARK SMILES IDX 79 35 30 36 84 37 78 38 80 39 31 40 83 41 77 42 76 43 32 45
REMARK SMILES IDX 64 46 44 47 63 48 45 49 48 50 62 51 81 52 46 53 47 54 61 56
REMARK SMILES IDX 82 57 49 58 33 59 34 60 42 61 35 62 36 63 40 64 43 65 37 66
REMARK SMILES IDX 38 67 41 68 39 69 65 70 66 71 74 72 67 73 68 74 72 75 75 76
REMARK SMILES IDX 69 77 70 78 73 79 71 80 50 81 51 82 59 83 52 84 53 85 57 86
REMARK SMILES IDX 60 87 54 88 55 89 58 90 56 91
REMARK H PARENT 17 6 21 25 80 44 48 55
REMARK Flexibility Score: inf
ROOT
ATOM      1  C   UNL A   1      38.396  21.481  25.700  1.00  0.00     0.042 C 
ENDROOT
BRANCH   1   2
ATOM      2  C   UNL A   1      36.995  21.444  25.086  1.00  0.00     0.118 C 
BRANCH   2   3
ATOM      3  N   UNL A   1      35.962  21.587  26.101  1.00  0.00    -0.352 N 
ATOM      4  C   UNL A   1      34.630  21.246  26.182  1.00  0.00     0.251 C 
ATOM      5  O   UNL A   1      34.115  21.517  27.268  1.00  0.00    -0.269 OA
ATOM      6  H   UNL A   1      36.291  22.031  26.916  1.00  0.00     0.163 HD
BRANCH   4   7
ATOM      7  C   UNL A   1      33.816  20.605  25.078  1.00  0.00     0.047 A 
ATOM      8  C   UNL A   1      33.300  17.106  23.593  1.00  0.00     0.044 C 
ATOM      9  C   UNL A   1      33.164  18.586  23.810  1.00  0.00    -0.050 A 
ATOM     10  C   UNL A   1      32.302  19.341  23.028  1.00  0.00     0.004 A 
ATOM     11  C   UNL A   1      33.909  19.230  24.807  1.00  0.00     0.018 A 
ATOM     12  C   UNL A   1      32.211  20.715  23.238  1.00  0.00     0.010 A 
ATOM     13  C   UNL A   1      32.954  21.375  24.249  1.00  0.00    -0.004 A 
BRANCH  13  14
ATOM     14  C   UNL A   1      32.778  22.841  24.341  1.00  0.00     0.003 A 
ATOM     15  C   UNL A   1      31.672  23.360  25.046  1.00  0.00     0.030 A 
ATOM     16  C   UNL A   1      33.695  23.759  23.791  1.00  0.00     0.049 A 
ATOM     17  C   UNL A   1      31.470  24.737  25.155  1.00  0.00     0.041 A 
ATOM     18  C   UNL A   1      33.502  25.140  23.929  1.00  0.00     0.023 A 
ATOM     19  Cl  UNL A   1      35.104  23.239  22.928  1.00  0.00    -0.084 Cl
ATOM     20  Cl  UNL A   1      30.079  25.335  25.973  1.00  0.00    -0.084 Cl
ATOM     21  C   UNL A   1      32.383  25.628  24.604  1.00  0.00     0.022 A 
ENDBRANCH  13  14
ENDBRANCH   4   7
ENDBRANCH   2   3
ENDBRANCH   1   2
BRANCH   1  22
ATOM     22  C   UNL A   1      38.860  22.873  26.097  1.00  0.00     0.118 C 
BRANCH  22  23
ATOM     23  N   UNL A   1      40.281  22.949  26.418  1.00  0.00    -0.352 N 
ATOM     24  C   UNL A   1      41.025  24.044  26.836  1.00  0.00     0.251 C 
ATOM     25  H   UNL A   1      40.783  22.107  26.324  1.00  0.00     0.163 HD
ATOM     26  O   UNL A   1      42.215  23.947  27.047  1.00  0.00    -0.269 OA
BRANCH  24  27
ATOM     27  C   UNL A   1      40.300  25.297  27.155  1.00  0.00     0.039 A 
ATOM     28  C   UNL A   1      40.628  26.438  26.414  1.00  0.00     0.014 A 
ATOM     29  C   UNL A   1      39.536  25.393  28.313  1.00  0.00     0.014 A 
ATOM     30  C   UNL A   1      40.417  27.691  26.979  1.00  0.00     0.010 A 
ATOM     31  C   UNL A   1      39.430  26.624  28.924  1.00  0.00     0.010 A 
ATOM     32  C   UNL A   1      39.938  27.761  28.285  1.00  0.00    -0.014 A 
BRANCH  32  33
ATOM     33  C   UNL A   1      40.021  28.965  29.101  1.00  0.00     0.031 A 
ATOM     34  C   UNL A   1      38.971  29.997  29.004  1.00  0.00     0.074 A 
ATOM     35  C   UNL A   1      41.012  29.071  30.015  1.00  0.00     0.049 A 
ATOM     36  N   UNL A   1      39.106  31.215  29.399  1.00  0.00    -0.248 NA
ATOM     37  C   UNL A   1      37.676  29.731  28.393  1.00  0.00     0.031 C 
ATOM     38  C   UNL A   1      41.105  30.018  31.122  1.00  0.00     0.029 A 
ATOM     39  N   UNL A   1      42.267  28.437  29.994  1.00  0.00    -0.354 N 
ATOM     40  C   UNL A   1      37.869  31.818  29.341  1.00  0.00     0.074 A 
ATOM     41  C   UNL A   1      37.026  30.869  28.654  1.00  0.00     0.031 C 
ATOM     42  C   UNL A   1      42.392  30.137  31.483  1.00  0.00     0.029 A 
ATOM     43  C   UNL A   1      43.173  29.393  30.510  1.00  0.00     0.049 A 
ATOM     44  H   UNL A   1      42.471  27.525  29.685  1.00  0.00     0.167 HD
ATOM     45  C   UNL A   1      37.678  33.001  29.996  1.00  0.00     0.037 A 
ATOM     46  C   UNL A   1      44.169  29.924  29.743  1.00  0.00     0.037 A 
ATOM     47  C   UNL A   1      38.933  33.489  30.564  1.00  0.00     0.049 A 
ATOM     48  C   UNL A   1      44.122  31.430  29.642  1.00  0.00     0.074 A 
ATOM     49  C   UNL A   1      39.489  33.389  31.829  1.00  0.00     0.029 A 
ATOM     50  N   UNL A   1      39.952  33.904  29.715  1.00  0.00    -0.354 N 
ATOM     51  N   UNL A   1      43.042  32.135  29.831  1.00  0.00    -0.248 NA
ATOM     52  C   UNL A   1      45.276  32.252  29.287  1.00  0.00     0.031 C 
ATOM     53  C   UNL A   1      40.869  33.694  31.726  1.00  0.00     0.029 A 
ATOM     54  C   UNL A   1      41.143  34.005  30.405  1.00  0.00     0.049 A 
ATOM     55  H   UNL A   1      39.841  34.097  28.755  1.00  0.00     0.167 HD
ATOM     56  C   UNL A   1      43.324  33.461  29.627  1.00  0.00     0.074 A 
ATOM     57  C   UNL A   1      44.738  33.485  29.301  1.00  0.00     0.031 C 
ATOM     58  C   UNL A   1      42.364  34.424  29.735  1.00  0.00     0.037 A 
BRANCH  45  59
ATOM     59  C   UNL A   1      36.320  33.554  30.375  1.00  0.00     0.064 A 
ATOM     60  C   UNL A   1      35.447  34.066  29.388  1.00  0.00     0.173 A 
ATOM     61  C   UNL A   1      35.842  33.676  31.694  1.00  0.00     0.173 A 
ATOM     62  F   UNL A   1      35.702  33.915  28.082  1.00  0.00    -0.203 F 
ATOM     63  C   UNL A   1      34.273  34.756  29.703  1.00  0.00     0.198 A 
ATOM     64  C   UNL A   1      34.698  34.417  32.014  1.00  0.00     0.198 A 
ATOM     65  F   UNL A   1      36.426  33.030  32.708  1.00  0.00    -0.203 F 
ATOM     66  F   UNL A   1      33.493  35.226  28.720  1.00  0.00    -0.200 F 
ATOM     67  C   UNL A   1      33.921  34.969  31.018  1.00  0.00     0.200 A 
ATOM     68  F   UNL A   1      34.355  34.585  33.299  1.00  0.00    -0.200 F 
ATOM     69  F   UNL A   1      32.823  35.674  31.325  1.00  0.00    -0.200 F 
ENDBRANCH  45  59
BRANCH  46  70
ATOM     70  C   UNL A   1      44.622  29.018  28.652  1.00  0.00     0.064 A 
ATOM     71  C   UNL A   1      45.417  27.904  28.991  1.00  0.00     0.173 A 
ATOM     72  C   UNL A   1      44.000  29.010  27.400  1.00  0.00     0.173 A 
ATOM     73  F   UNL A   1      46.038  27.860  30.180  1.00  0.00    -0.203 F 
ATOM     74  C   UNL A   1      45.478  26.781  28.170  1.00  0.00     0.198 A 
ATOM     75  C   UNL A   1      44.080  27.890  26.569  1.00  0.00     0.198 A 
ATOM     76  F   UNL A   1      43.219  30.033  27.022  1.00  0.00    -0.203 F 
ATOM     77  F   UNL A   1      46.138  25.688  28.579  1.00  0.00    -0.200 F 
ATOM     78  C   UNL A   1      44.785  26.765  26.971  1.00  0.00     0.200 A 
ATOM     79  F   UNL A   1      43.385  27.861  25.423  1.00  0.00    -0.200 F 
ATOM     80  F   UNL A   1      44.760  25.651  26.225  1.00  0.00    -0.200 F 
ENDBRANCH  46  70
BRANCH  58  81
ATOM     81  C   UNL A   1      42.494  35.866  29.309  1.00  0.00     0.064 A 
ATOM     82  C   UNL A   1      43.305  36.806  29.965  1.00  0.00     0.173 A 
ATOM     83  C   UNL A   1      41.910  36.306  28.095  1.00  0.00     0.173 A 
ATOM     84  F   UNL A   1      44.004  36.478  31.060  1.00  0.00    -0.203 F 
ATOM     85  C   UNL A   1      43.475  38.104  29.476  1.00  0.00     0.198 A 
ATOM     86  C   UNL A   1      42.130  37.583  27.580  1.00  0.00     0.198 A 
ATOM     87  F   UNL A   1      41.133  35.501  27.357  1.00  0.00    -0.203 F 
ATOM     88  F   UNL A   1      44.230  38.975  30.160  1.00  0.00    -0.200 F 
ATOM     89  C   UNL A   1      42.901  38.488  28.279  1.00  0.00     0.200 A 
ATOM     90  F   UNL A   1      41.608  37.921  26.392  1.00  0.00    -0.200 F 
ATOM     91  F   UNL A   1      43.109  39.718  27.789  1.00  0.00    -0.200 F 
ENDBRANCH  58  81
ENDBRANCH  32  33
ENDBRANCH  24  27
ENDBRANCH  22  23
ENDBRANCH   1  22
TORSDOF 11
ENDMDL
MODEL 3
REMARK VINA RESULT:     -14.3      4.420     10.579
REMARK SMILES Cc1ccc(-c2cc(Cl)ccc2Cl)c(C(=O)NCCCNC(=O)c2ccc(-c3c4nc(c(-c5c(F)c(F)c(F)c(F)c5F)c5ccc([nH]5)c(-c5c(F)c(F)c(F)c(F)c5F)c5nc(c(-c6c(F)c(F)c(F)c(F)c6F)c6ccc3[nH]6)C=C5)C=C4)cc2)c1
REMARK SMILES IDX 19 1 18 2 17 3 15 4 16 5 14 7 1 8 2 9 3 10 87 11 4 12 5 13
REMARK SMILES IDX 6 14 7 15 12 16 8 17 11 18 13 19 9 20 10 21 20 22 21 23
REMARK SMILES IDX 22 24 23 26 24 27 25 28 86 29 26 30 85 31 27 32 28 33 29 34
REMARK SMILES IDX 79 35 30 36 84 37 78 38 80 39 31 40 83 41 77 42 76 43 32 45
REMARK SMILES IDX 64 46 44 47 63 48 45 49 48 50 62 51 81 52 46 53 47 54 61 56
REMARK SMILES IDX 82 57 49 58 33 59 34 60 42 61 35 62 36 63 40 64 43 65 37 66
REMARK SMILES IDX 38 67 41 68 39 69 65 70 66 71 74 72 67 73 68 74 72 75 75 76
REMARK SMILES IDX 69 77 70 78 73 79 71 80 50 81 51 82 59 83 52 84 53 85 57 86
REMARK SMILES IDX 60 87 54 88 55 89 58 90 56 91
REMARK H PARENT 17 6 21 25 80 44 48 55
REMARK Flexibility Score: inf
ROOT
ATOM      1  C   UNL A   1      38.137  21.623  25.452  1.00  0.00     0.042 C 
ENDROOT
BRANCH   1   2
ATOM      2  C   UNL A   1      36.742  21.740  24.833  1.00  0.00     0.118 C 
BRANCH   2   3
ATOM      3  N   UNL A   1      35.703  21.744  25.851  1.00  0.00    -0.352 N 
ATOM      4  C   UNL A   1      34.435  21.215  25.944  1.00  0.00     0.251 C 
ATOM      5  O   UNL A   1      33.890  21.421  27.029  1.00  0.00    -0.269 OA
ATOM      6  H   UNL A   1      35.967  22.240  26.660  1.00  0.00     0.163 HD
BRANCH   4   7
ATOM      7  C   UNL A   1      33.718  20.450  24.851  1.00  0.00     0.047 A 
ATOM      8  C   UNL A   1      33.604  16.861  23.501  1.00  0.00     0.044 C 
ATOM      9  C   UNL A   1      33.309  18.326  23.654  1.00  0.00    -0.050 A 
ATOM     10  C   UNL A   1      32.392  18.955  22.826  1.00  0.00     0.004 A 
ATOM     11  C   UNL A   1      33.960  19.082  24.638  1.00  0.00     0.018 A 
ATOM     12  C   UNL A   1      32.154  20.319  22.977  1.00  0.00     0.010 A 
ATOM     13  C   UNL A   1      32.800  21.093  23.975  1.00  0.00    -0.004 A 
BRANCH  13  14
ATOM     14  C   UNL A   1      32.470  22.534  24.003  1.00  0.00     0.003 A 
ATOM     15  C   UNL A   1      33.103  23.405  23.092  1.00  0.00     0.030 A 
ATOM     16  C   UNL A   1      31.508  23.083  24.875  1.00  0.00     0.049 A 
ATOM     17  C   UNL A   1      32.820  24.771  23.087  1.00  0.00     0.041 A 
ATOM     18  C   UNL A   1      31.207  24.451  24.845  1.00  0.00     0.023 A 
ATOM     19  Cl  UNL A   1      30.647  22.107  26.018  1.00  0.00    -0.084 Cl
ATOM     20  Cl  UNL A   1      33.653  25.814  22.001  1.00  0.00    -0.084 Cl
ATOM     21  C   UNL A   1      31.870  25.297  23.956  1.00  0.00     0.022 A 
ENDBRANCH  13  14
ENDBRANCH   4   7
ENDBRANCH   2   3
ENDBRANCH   1   2
BRANCH   1  22
ATOM     22  C   UNL A   1      38.624  22.897  26.122  1.00  0.00     0.118 C 
BRANCH  22  23
ATOM     23  N   UNL A   1      40.056  22.903  26.399  1.00  0.00    -0.352 N 
ATOM     24  C   UNL A   1      40.862  23.957  26.808  1.00  0.00     0.251 C 
ATOM     25  H   UNL A   1      40.516  22.041  26.278  1.00  0.00     0.163 HD
ATOM     26  O   UNL A   1      42.053  23.803  26.979  1.00  0.00    -0.269 OA
BRANCH  24  27
ATOM     27  C   UNL A   1      40.206  25.237  27.166  1.00  0.00     0.039 A 
ATOM     28  C   UNL A   1      40.519  26.360  26.393  1.00  0.00     0.014 A 
ATOM     29  C   UNL A   1      39.531  25.368  28.375  1.00  0.00     0.014 A 
ATOM     30  C   UNL A   1      40.392  27.624  26.960  1.00  0.00     0.010 A 
ATOM     31  C   UNL A   1      39.512  26.606  28.980  1.00  0.00     0.010 A 
ATOM     32  C   UNL A   1      40.011  27.720  28.296  1.00  0.00    -0.014 A 
BRANCH  32  33
ATOM     33  C   UNL A   1      40.195  28.926  29.093  1.00  0.00     0.031 A 
ATOM     34  C   UNL A   1      39.138  29.954  29.129  1.00  0.00     0.074 A 
ATOM     35  C   UNL A   1      41.293  29.036  29.873  1.00  0.00     0.049 A 
ATOM     36  N   UNL A   1      39.318  31.174  29.501  1.00  0.00    -0.248 NA
ATOM     37  C   UNL A   1      37.776  29.684  28.688  1.00  0.00     0.031 C 
ATOM     38  C   UNL A   1      41.524  29.986  30.958  1.00  0.00     0.029 A 
ATOM     39  N   UNL A   1      42.537  28.405  29.693  1.00  0.00    -0.354 N 
ATOM     40  C   UNL A   1      38.082  31.774  29.601  1.00  0.00     0.074 A 
ATOM     41  C   UNL A   1      37.161  30.820  29.028  1.00  0.00     0.031 C 
ATOM     42  C   UNL A   1      42.847  30.108  31.151  1.00  0.00     0.029 A 
ATOM     43  C   UNL A   1      43.499  29.365  30.088  1.00  0.00     0.049 A 
ATOM     44  H   UNL A   1      42.704  27.493  29.362  1.00  0.00     0.167 HD
ATOM     45  C   UNL A   1      37.974  32.957  30.273  1.00  0.00     0.037 A 
ATOM     46  C   UNL A   1      44.388  29.896  29.198  1.00  0.00     0.037 A 
ATOM     47  C   UNL A   1      39.289  33.450  30.674  1.00  0.00     0.049 A 
ATOM     48  C   UNL A   1      44.324  31.402  29.102  1.00  0.00     0.074 A 
ATOM     49  C   UNL A   1      40.003  33.354  31.858  1.00  0.00     0.029 A 
ATOM     50  N   UNL A   1      40.190  33.865  29.702  1.00  0.00    -0.354 N 
ATOM     51  N   UNL A   1      43.275  32.105  29.426  1.00  0.00    -0.248 NA
ATOM     52  C   UNL A   1      45.421  32.226  28.602  1.00  0.00     0.031 C 
ATOM     53  C   UNL A   1      41.357  33.662  31.580  1.00  0.00     0.029 A 
ATOM     54  C   UNL A   1      41.459  33.971  30.235  1.00  0.00     0.049 A 
ATOM     55  H   UNL A   1      39.957  34.056  28.764  1.00  0.00     0.167 HD
ATOM     56  C   UNL A   1      43.525  33.431  29.185  1.00  0.00     0.074 A 
ATOM     57  C   UNL A   1      44.885  33.458  28.682  1.00  0.00     0.031 C 
ATOM     58  C   UNL A   1      42.583  34.392  29.413  1.00  0.00     0.037 A 
BRANCH  45  59
ATOM     59  C   UNL A   1      36.673  33.507  30.821  1.00  0.00     0.064 A 
ATOM     60  C   UNL A   1      35.658  33.965  29.950  1.00  0.00     0.173 A 
ATOM     61  C   UNL A   1      36.387  33.679  32.188  1.00  0.00     0.173 A 
ATOM     62  F   UNL A   1      35.726  33.763  28.628  1.00  0.00    -0.203 F 
ATOM     63  C   UNL A   1      34.529  34.653  30.403  1.00  0.00     0.198 A 
ATOM     64  C   UNL A   1      35.287  34.417  32.641  1.00  0.00     0.198 A 
ATOM     65  F   UNL A   1      37.123  33.084  33.134  1.00  0.00    -0.203 F 
ATOM     66  F   UNL A   1      33.607  35.071  29.525  1.00  0.00    -0.200 F 
ATOM     67  C   UNL A   1      34.364  34.916  31.746  1.00  0.00     0.200 A 
ATOM     68  F   UNL A   1      35.128  34.634  33.954  1.00  0.00    -0.200 F 
ATOM     69  F   UNL A   1      33.309  35.618  32.179  1.00  0.00    -0.200 F 
ENDBRANCH  45  59
BRANCH  46  70
ATOM     70  C   UNL A   1      44.701  28.989  28.061  1.00  0.00     0.064 A 
ATOM     71  C   UNL A   1      45.531  27.876  28.298  1.00  0.00     0.173 A 
ATOM     72  C   UNL A   1      43.926  28.980  26.896  1.00  0.00     0.173 A 
ATOM     73  F   UNL A   1      46.297  27.832  29.400  1.00  0.00    -0.203 F 
ATOM     74  C   UNL A   1      45.489  26.752  27.477  1.00  0.00     0.198 A 
ATOM     75  C   UNL A   1      43.901  27.860  26.063  1.00  0.00     0.198 A 
ATOM     76  F   UNL A   1      43.104  30.003  26.618  1.00  0.00    -0.203 F 
ATOM     77  F   UNL A   1      46.196  25.659  27.800  1.00  0.00    -0.200 F 
ATOM     78  C   UNL A   1      44.652  26.734  26.374  1.00  0.00     0.200 A 
ATOM     79  F   UNL A   1      43.068  27.829  25.013  1.00  0.00    -0.200 F 
ATOM     80  F   UNL A   1      44.533  25.620  25.639  1.00  0.00    -0.200 F 
ENDBRANCH  46  70
BRANCH  58  81
ATOM     81  C   UNL A   1      42.654  35.833  28.972  1.00  0.00     0.064 A 
ATOM     82  C   UNL A   1      41.935  36.354  27.884  1.00  0.00     0.173 A 
ATOM     83  C   UNL A   1      43.345  36.788  29.759  1.00  0.00     0.173 A 
ATOM     84  F   UNL A   1      41.149  35.573  27.130  1.00  0.00    -0.203 F 
ATOM     85  C   UNL A   1      41.951  37.717  27.572  1.00  0.00     0.198 A 
ATOM     86  C   UNL A   1      43.310  38.153  29.479  1.00  0.00     0.198 A 
ATOM     87  F   UNL A   1      44.050  36.427  30.840  1.00  0.00    -0.203 F 
ATOM     88  F   UNL A   1      41.278  38.158  26.501  1.00  0.00    -0.200 F 
ATOM     89  C   UNL A   1      42.625  38.616  28.376  1.00  0.00     0.200 A 
ATOM     90  F   UNL A   1      43.927  39.017  30.299  1.00  0.00    -0.200 F 
ATOM     91  F   UNL A   1      42.595  39.927  28.102  1.00  0.00    -0.200 F 
ENDBRANCH  58  81
ENDBRANCH  32  33
ENDBRANCH  24  27
ENDBRANCH  22  23
ENDBRANCH   1  22
TORSDOF 11
ENDMDL
