MODEL 1
REMARK VINA RESULT:     -12.6      0.000      0.000
REMARK SMILES CCOc1ccc(CNC(=O)Cc2c(C(=O)NCCCNC(=O)c3ccc(-c4c5nc(c(-c6c(F)c(F)c(F)c(F)c6F)c6ccc([nH]6)c(-c6c(F)c(F)c(F)c(F)c6F)c6nc(c(-c7c(F)c(F)c(F)c(F)c7F)c7ccc4[nH]7)C=C6)C=C5)cc3)c(C)cn2C)cc1
REMARK SMILES IDX 15 1 16 2 17 3 14 5 13 6 90 7 87 8 89 9 91 10 88 11 12 12
REMARK SMILES IDX 10 13 9 14 11 16 8 17 7 18 4 19 5 20 93 21 6 22 92 23 3 24
REMARK SMILES IDX 2 25 1 26 18 27 19 28 20 29 21 30 22 31 23 33 24 34 25 35
REMARK SMILES IDX 86 36 26 37 85 38 27 39 28 40 29 41 79 42 30 43 84 44 78 45
REMARK SMILES IDX 80 46 31 47 83 48 77 49 76 50 32 52 64 53 44 54 63 55 45 56
REMARK SMILES IDX 48 57 62 58 81 59 46 60 47 61 61 63 82 64 49 65 33 66 34 67
REMARK SMILES IDX 42 68 35 69 36 70 40 71 43 72 37 73 38 74 41 75 39 76 65 77
REMARK SMILES IDX 66 78 74 79 67 80 68 81 72 82 75 83 69 84 70 85 73 86 71 87
REMARK SMILES IDX 50 88 51 89 59 90 52 91 53 92 57 93 60 94 54 95 55 96 58 97
REMARK SMILES IDX 56 98
REMARK H PARENT 17 4 9 15 21 32 80 51 48 62
REMARK Flexibility Score: inf
ROOT
ATOM      1  C   UNL A   1      34.327  21.581  26.621  1.00  0.00     0.253 C 
ATOM      2  O   UNL A   1      33.880  21.298  27.739  1.00  0.00    -0.269 OA
ATOM      3  N   UNL A   1      35.642  21.948  26.679  1.00  0.00    -0.352 N 
ATOM      4  H   UNL A   1      35.918  22.257  27.572  1.00  0.00     0.163 HD
ENDROOT
BRANCH   1   5
ATOM      5  C   UNL A   1      33.454  21.558  25.417  1.00  0.00     0.064 A 
ATOM      6  C   UNL A   1      32.698  22.705  25.058  1.00  0.00     0.040 A 
ATOM      7  N   UNL A   1      31.897  22.384  23.985  1.00  0.00    -0.353 N 
ATOM      8  C   UNL A   1      33.179  20.596  24.363  1.00  0.00    -0.020 A 
ATOM      9  C   UNL A   1      32.202  21.138  23.551  1.00  0.00     0.089 A 
ATOM     10  C   UNL A   1      30.911  23.223  23.334  1.00  0.00     0.149 C 
ATOM     11  C   UNL A   1      33.734  19.264  24.025  1.00  0.00     0.047 C 
BRANCH   6  12
ATOM     12  C   UNL A   1      32.668  24.103  25.645  1.00  0.00     0.154 C 
BRANCH  12  13
ATOM     13  C   UNL A   1      31.547  24.268  26.669  1.00  0.00     0.226 C 
ATOM     14  N   UNL A   1      30.601  25.238  26.531  1.00  0.00    -0.352 N 
ATOM     15  H   UNL A   1      29.896  25.240  27.218  1.00  0.00     0.163 HD
ATOM     16  O   UNL A   1      31.477  23.529  27.656  1.00  0.00    -0.275 OA
BRANCH  14  17
ATOM     17  C   UNL A   1      30.483  26.268  25.522  1.00  0.00     0.151 C 
BRANCH  17  18
ATOM     18  C   UNL A   1      31.314  27.491  25.832  1.00  0.00    -0.029 A 
ATOM     19  C   UNL A   1      32.848  29.795  26.359  1.00  0.00     0.119 A 
ATOM     20  C   UNL A   1      32.251  29.103  27.405  1.00  0.00     0.047 A 
ATOM     21  C   UNL A   1      32.692  29.339  25.053  1.00  0.00     0.047 A 
ATOM     22  C   UNL A   1      31.489  27.960  27.142  1.00  0.00     0.009 A 
ATOM     23  C   UNL A   1      31.912  28.210  24.788  1.00  0.00     0.009 A 
BRANCH  19  24
ATOM     24  O   UNL A   1      33.698  30.814  26.680  1.00  0.00    -0.494 OA
BRANCH  24  25
ATOM     25  C   UNL A   1      34.533  30.565  27.815  1.00  0.00     0.226 C 
ATOM     26  C   UNL A   1      35.967  30.256  27.414  1.00  0.00     0.049 C 
ENDBRANCH  24  25
ENDBRANCH  19  24
ENDBRANCH  17  18
ENDBRANCH  14  17
ENDBRANCH  12  13
ENDBRANCH   6  12
ENDBRANCH   1   5
BRANCH   3  27
ATOM     27  C   UNL A   1      36.711  21.981  25.716  1.00  0.00     0.118 C 
BRANCH  27  28
ATOM     28  C   UNL A   1      37.262  23.385  25.457  1.00  0.00     0.042 C 
BRANCH  28  29
ATOM     29  C   UNL A   1      38.335  23.782  26.455  1.00  0.00     0.118 C 
BRANCH  29  30
ATOM     30  N   UNL A   1      39.519  22.921  26.344  1.00  0.00    -0.352 N 
ATOM     31  C   UNL A   1      40.858  23.265  26.314  1.00  0.00     0.251 C 
ATOM     32  H   UNL A   1      39.332  21.956  26.280  1.00  0.00     0.163 HD
ATOM     33  O   UNL A   1      41.708  22.482  25.945  1.00  0.00    -0.269 OA
BRANCH  31  34
ATOM     34  C   UNL A   1      41.220  24.631  26.723  1.00  0.00     0.039 A 
ATOM     35  C   UNL A   1      40.763  25.736  26.001  1.00  0.00     0.014 A 
ATOM     36  C   UNL A   1      41.923  24.781  27.912  1.00  0.00     0.014 A 
ATOM     37  C   UNL A   1      40.919  27.003  26.555  1.00  0.00     0.010 A 
ATOM     38  C   UNL A   1      41.916  26.003  28.530  1.00  0.00     0.010 A 
ATOM     39  C   UNL A   1      41.462  27.128  27.842  1.00  0.00    -0.014 A 
BRANCH  39  40
ATOM     40  C   UNL A   1      41.469  28.415  28.529  1.00  0.00     0.031 A 
ATOM     41  C   UNL A   1      42.582  29.344  28.180  1.00  0.00     0.074 A 
ATOM     42  C   UNL A   1      40.419  28.841  29.264  1.00  0.00     0.049 A 
ATOM     43  N   UNL A   1      43.478  29.831  28.974  1.00  0.00    -0.248 NA
ATOM     44  C   UNL A   1      42.776  29.719  26.770  1.00  0.00     0.031 C 
ATOM     45  C   UNL A   1      39.126  28.179  29.481  1.00  0.00     0.029 A 
ATOM     46  N   UNL A   1      40.245  30.040  29.881  1.00  0.00    -0.354 N 
ATOM     47  C   UNL A   1      44.257  30.697  28.212  1.00  0.00     0.074 A 
ATOM     48  C   UNL A   1      43.866  30.487  26.841  1.00  0.00     0.031 C 
ATOM     49  C   UNL A   1      38.234  29.073  29.954  1.00  0.00     0.029 A 
ATOM     50  C   UNL A   1      38.934  30.308  30.244  1.00  0.00     0.049 A 
ATOM     51  H   UNL A   1      40.987  30.664  30.055  1.00  0.00     0.167 HD
ATOM     52  C   UNL A   1      45.023  31.661  28.796  1.00  0.00     0.037 A 
ATOM     53  C   UNL A   1      38.447  31.473  30.732  1.00  0.00     0.037 A 
ATOM     54  C   UNL A   1      45.194  31.411  30.203  1.00  0.00     0.049 A 
ATOM     55  C   UNL A   1      39.596  32.225  31.293  1.00  0.00     0.074 A 
ATOM     56  C   UNL A   1      45.744  30.384  30.945  1.00  0.00     0.029 A 
ATOM     57  N   UNL A   1      44.425  32.130  31.086  1.00  0.00    -0.354 N 
ATOM     58  N   UNL A   1      40.259  31.848  32.351  1.00  0.00    -0.248 NA
ATOM     59  C   UNL A   1      40.297  33.152  30.418  1.00  0.00     0.031 C 
ATOM     60  C   UNL A   1      44.887  30.247  32.077  1.00  0.00     0.029 A 
ATOM     61  C   UNL A   1      43.908  31.237  31.991  1.00  0.00     0.049 A 
ATOM     62  H   UNL A   1      44.274  33.103  31.072  1.00  0.00     0.167 HD
ATOM     63  C   UNL A   1      41.584  32.118  32.049  1.00  0.00     0.074 A 
ATOM     64  C   UNL A   1      41.536  33.019  30.900  1.00  0.00     0.031 C 
ATOM     65  C   UNL A   1      42.592  31.360  32.572  1.00  0.00     0.037 A 
BRANCH  52  66
ATOM     66  C   UNL A   1      45.342  33.004  28.186  1.00  0.00     0.064 A 
ATOM     67  C   UNL A   1      46.689  33.400  28.046  1.00  0.00     0.173 A 
ATOM     68  C   UNL A   1      44.387  34.029  28.022  1.00  0.00     0.173 A 
ATOM     69  F   UNL A   1      47.681  32.509  28.198  1.00  0.00    -0.203 F 
ATOM     70  C   UNL A   1      47.051  34.733  27.840  1.00  0.00     0.198 A 
ATOM     71  C   UNL A   1      44.750  35.351  27.763  1.00  0.00     0.198 A 
ATOM     72  F   UNL A   1      43.081  33.819  28.218  1.00  0.00    -0.203 F 
ATOM     73  F   UNL A   1      48.345  35.081  27.843  1.00  0.00    -0.200 F 
ATOM     74  C   UNL A   1      46.081  35.709  27.706  1.00  0.00     0.200 A 
ATOM     75  F   UNL A   1      43.797  36.285  27.655  1.00  0.00    -0.200 F 
ATOM     76  F   UNL A   1      46.424  36.997  27.575  1.00  0.00    -0.200 F 
ENDBRANCH  52  66
BRANCH  53  77
ATOM     77  C   UNL A   1      37.105  32.061  30.531  1.00  0.00     0.064 A 
ATOM     78  C   UNL A   1      36.105  31.935  31.509  1.00  0.00     0.173 A 
ATOM     79  C   UNL A   1      36.855  32.986  29.497  1.00  0.00     0.173 A 
ATOM     80  F   UNL A   1      36.280  31.106  32.548  1.00  0.00    -0.203 F 
ATOM     81  C   UNL A   1      34.941  32.709  31.471  1.00  0.00     0.198 A 
ATOM     82  C   UNL A   1      35.689  33.749  29.454  1.00  0.00     0.198 A 
ATOM     83  F   UNL A   1      37.779  33.236  28.558  1.00  0.00    -0.203 F 
ATOM     84  F   UNL A   1      34.042  32.609  32.459  1.00  0.00    -0.200 F 
ATOM     85  C   UNL A   1      34.740  33.623  30.450  1.00  0.00     0.200 A 
ATOM     86  F   UNL A   1      35.524  34.654  28.479  1.00  0.00    -0.200 F 
ATOM     87  F   UNL A   1      33.655  34.412  30.449  1.00  0.00    -0.200 F 
ENDBRANCH  53  77
BRANCH  65  88
ATOM     88  C   UNL A   1      42.241  30.400  33.677  1.00  0.00     0.064 A 
ATOM     89  C   UNL A   1      41.821  29.076  33.466  1.00  0.00     0.173 A 
ATOM     90  C   UNL A   1      42.458  30.797  35.002  1.00  0.00     0.173 A 
ATOM     91  F   UNL A   1      41.698  28.578  32.231  1.00  0.00    -0.203 F 
ATOM     92  C   UNL A   1      41.568  28.212  34.530  1.00  0.00     0.198 A 
ATOM     93  C   UNL A   1      42.244  29.921  36.064  1.00  0.00     0.198 A 
ATOM     94  F   UNL A   1      42.923  32.029  35.268  1.00  0.00    -0.203 F 
ATOM     95  F   UNL A   1      41.145  26.961  34.296  1.00  0.00    -0.200 F 
ATOM     96  C   UNL A   1      41.785  28.635  35.830  1.00  0.00     0.200 A 
ATOM     97  F   UNL A   1      42.507  30.318  37.317  1.00  0.00    -0.200 F 
ATOM     98  F   UNL A   1      41.577  27.796  36.853  1.00  0.00    -0.200 F 
ENDBRANCH  65  88
ENDBRANCH  39  40
ENDBRANCH  31  34
ENDBRANCH  29  30
ENDBRANCH  28  29
ENDBRANCH  27  28
ENDBRANCH   3  27
TORSDOF 16
ENDMDL
MODEL 2
REMARK VINA RESULT:     -12.3      1.978      2.718
REMARK SMILES CCOc1ccc(CNC(=O)Cc2c(C(=O)NCCCNC(=O)c3ccc(-c4c5nc(c(-c6c(F)c(F)c(F)c(F)c6F)c6ccc([nH]6)c(-c6c(F)c(F)c(F)c(F)c6F)c6nc(c(-c7c(F)c(F)c(F)c(F)c7F)c7ccc4[nH]7)C=C6)C=C5)cc3)c(C)cn2C)cc1
REMARK SMILES IDX 15 1 16 2 17 3 14 5 13 6 90 7 87 8 89 9 91 10 88 11 12 12
REMARK SMILES IDX 10 13 9 14 11 16 8 17 7 18 4 19 5 20 93 21 6 22 92 23 3 24
REMARK SMILES IDX 2 25 1 26 18 27 19 28 20 29 21 30 22 31 23 33 24 34 25 35
REMARK SMILES IDX 86 36 26 37 85 38 27 39 28 40 29 41 79 42 30 43 84 44 78 45
REMARK SMILES IDX 80 46 31 47 83 48 77 49 76 50 32 52 64 53 44 54 63 55 45 56
REMARK SMILES IDX 48 57 62 58 81 59 46 60 47 61 61 63 82 64 49 65 33 66 34 67
REMARK SMILES IDX 42 68 35 69 36 70 40 71 43 72 37 73 38 74 41 75 39 76 65 77
REMARK SMILES IDX 66 78 74 79 67 80 68 81 72 82 75 83 69 84 70 85 73 86 71 87
REMARK SMILES IDX 50 88 51 89 59 90 52 91 53 92 57 93 60 94 54 95 55 96 58 97
REMARK SMILES IDX 56 98
REMARK H PARENT 17 4 9 15 21 32 80 51 48 62
REMARK Flexibility Score: inf
ROOT
ATOM      1  C   UNL A   1      36.258  22.441  23.881  1.00  0.00     0.253 C 
ATOM      2  O   UNL A   1      36.279  22.964  22.760  1.00  0.00    -0.269 OA
ATOM      3  N   UNL A   1      37.518  22.258  24.379  1.00  0.00    -0.352 N 
ATOM      4  H   UNL A   1      38.210  22.240  23.680  1.00  0.00     0.163 HD
ENDROOT
BRANCH   1   5
ATOM      5  C   UNL A   1      34.976  22.032  24.514  1.00  0.00     0.064 A 
ATOM      6  C   UNL A   1      33.991  23.005  24.832  1.00  0.00     0.040 A 
ATOM      7  N   UNL A   1      32.963  22.386  25.506  1.00  0.00    -0.353 N 
ATOM      8  C   UNL A   1      34.368  20.765  24.885  1.00  0.00    -0.020 A 
ATOM      9  C   UNL A   1      33.171  21.047  25.515  1.00  0.00     0.089 A 
ATOM     10  C   UNL A   1      31.784  23.000  26.083  1.00  0.00     0.149 C 
ATOM     11  C   UNL A   1      34.764  19.349  24.699  1.00  0.00     0.047 C 
BRANCH   6  12
ATOM     12  C   UNL A   1      33.931  24.493  24.545  1.00  0.00     0.154 C 
BRANCH  12  13
ATOM     13  C   UNL A   1      33.158  24.797  23.263  1.00  0.00     0.226 C 
ATOM     14  N   UNL A   1      32.034  25.566  23.282  1.00  0.00    -0.352 N 
ATOM     15  H   UNL A   1      31.629  25.740  22.402  1.00  0.00     0.163 HD
ATOM     16  O   UNL A   1      33.530  24.343  22.177  1.00  0.00    -0.275 OA
BRANCH  14  17
ATOM     17  C   UNL A   1      31.349  26.161  24.407  1.00  0.00     0.151 C 
BRANCH  17  18
ATOM     18  C   UNL A   1      30.714  27.491  24.071  1.00  0.00    -0.029 A 
ATOM     19  C   UNL A   1      29.581  29.995  23.453  1.00  0.00     0.119 A 
ATOM     20  C   UNL A   1      29.098  28.844  22.843  1.00  0.00     0.047 A 
ATOM     21  C   UNL A   1      30.619  29.903  24.375  1.00  0.00     0.047 A 
ATOM     22  C   UNL A   1      29.662  27.601  23.151  1.00  0.00     0.009 A 
ATOM     23  C   UNL A   1      31.198  28.664  24.665  1.00  0.00     0.009 A 
BRANCH  19  24
ATOM     24  O   UNL A   1      28.902  31.159  23.230  1.00  0.00    -0.494 OA
BRANCH  24  25
ATOM     25  C   UNL A   1      27.962  31.110  22.154  1.00  0.00     0.226 C 
ATOM     26  C   UNL A   1      28.049  32.338  21.261  1.00  0.00     0.049 C 
ENDBRANCH  24  25
ENDBRANCH  19  24
ENDBRANCH  17  18
ENDBRANCH  14  17
ENDBRANCH  12  13
ENDBRANCH   6  12
ENDBRANCH   1   5
BRANCH   3  27
ATOM     27  C   UNL A   1      38.050  22.088  25.704  1.00  0.00     0.118 C 
BRANCH  27  28
ATOM     28  C   UNL A   1      39.027  20.917  25.829  1.00  0.00     0.042 C 
BRANCH  28  29
ATOM     29  C   UNL A   1      40.194  21.227  26.748  1.00  0.00     0.118 C 
BRANCH  29  30
ATOM     30  N   UNL A   1      41.429  21.462  25.990  1.00  0.00    -0.352 N 
ATOM     31  C   UNL A   1      42.147  22.632  25.819  1.00  0.00     0.251 C 
ATOM     32  H   UNL A   1      41.800  20.672  25.535  1.00  0.00     0.163 HD
ATOM     33  O   UNL A   1      42.987  22.741  24.950  1.00  0.00    -0.269 OA
BRANCH  31  34
ATOM     34  C   UNL A   1      41.840  23.757  26.715  1.00  0.00     0.039 A 
ATOM     35  C   UNL A   1      42.495  23.891  27.941  1.00  0.00     0.014 A 
ATOM     36  C   UNL A   1      40.974  24.736  26.244  1.00  0.00     0.014 A 
ATOM     37  C   UNL A   1      42.359  25.085  28.641  1.00  0.00     0.010 A 
ATOM     38  C   UNL A   1      40.985  25.967  26.844  1.00  0.00     0.010 A 
ATOM     39  C   UNL A   1      41.634  26.140  28.066  1.00  0.00    -0.014 A 
BRANCH  39  40
ATOM     40  C   UNL A   1      41.626  27.464  28.678  1.00  0.00     0.031 A 
ATOM     41  C   UNL A   1      42.725  28.386  28.271  1.00  0.00     0.074 A 
ATOM     42  C   UNL A   1      40.574  27.918  29.393  1.00  0.00     0.049 A 
ATOM     43  N   UNL A   1      43.618  28.929  29.032  1.00  0.00    -0.248 NA
ATOM     44  C   UNL A   1      42.909  28.682  26.842  1.00  0.00     0.031 C 
ATOM     45  C   UNL A   1      39.291  27.252  29.654  1.00  0.00     0.029 A 
ATOM     46  N   UNL A   1      40.387  29.147  29.941  1.00  0.00    -0.354 N 
ATOM     47  C   UNL A   1      44.382  29.760  28.218  1.00  0.00     0.074 A 
ATOM     48  C   UNL A   1      43.988  29.467  26.863  1.00  0.00     0.031 C 
ATOM     49  C   UNL A   1      38.389  28.160  30.078  1.00  0.00     0.029 A 
ATOM     50  C   UNL A   1      39.074  29.419  30.295  1.00  0.00     0.049 A 
ATOM     51  H   UNL A   1      41.121  29.790  30.075  1.00  0.00     0.167 HD
ATOM     52  C   UNL A   1      45.138  30.766  28.742  1.00  0.00     0.037 A 
ATOM     53  C   UNL A   1      38.573  30.603  30.718  1.00  0.00     0.037 A 
ATOM     54  C   UNL A   1      45.318  30.599  30.161  1.00  0.00     0.049 A 
ATOM     55  C   UNL A   1      39.714  31.401  31.229  1.00  0.00     0.074 A 
ATOM     56  C   UNL A   1      45.885  29.623  30.957  1.00  0.00     0.029 A 
ATOM     57  N   UNL A   1      44.543  31.357  31.005  1.00  0.00    -0.354 N 
ATOM     58  N   UNL A   1      40.387  31.093  32.303  1.00  0.00    -0.248 NA
ATOM     59  C   UNL A   1      40.400  32.286  30.299  1.00  0.00     0.031 C 
ATOM     60  C   UNL A   1      45.034  29.540  32.099  1.00  0.00     0.029 A 
ATOM     61  C   UNL A   1      44.042  30.511  31.961  1.00  0.00     0.049 A 
ATOM     62  H   UNL A   1      44.379  32.326  30.936  1.00  0.00     0.167 HD
ATOM     63  C   UNL A   1      41.707  31.364  31.980  1.00  0.00     0.074 A 
ATOM     64  C   UNL A   1      41.642  32.197  30.782  1.00  0.00     0.031 C 
ATOM     65  C   UNL A   1      42.727  30.650  32.541  1.00  0.00     0.037 A 
BRANCH  52  66
ATOM     66  C   UNL A   1      45.437  32.076  28.055  1.00  0.00     0.064 A 
ATOM     67  C   UNL A   1      44.378  32.958  27.752  1.00  0.00     0.173 A 
ATOM     68  C   UNL A   1      46.663  32.357  27.417  1.00  0.00     0.173 A 
ATOM     69  F   UNL A   1      43.163  32.776  28.291  1.00  0.00    -0.203 F 
ATOM     70  C   UNL A   1      44.517  33.988  26.819  1.00  0.00     0.198 A 
ATOM     71  C   UNL A   1      46.813  33.419  26.526  1.00  0.00     0.198 A 
ATOM     72  F   UNL A   1      47.725  31.553  27.538  1.00  0.00    -0.203 F 
ATOM     73  F   UNL A   1      43.450  34.717  26.467  1.00  0.00    -0.200 F 
ATOM     74  C   UNL A   1      45.733  34.213  26.200  1.00  0.00     0.200 A 
ATOM     75  F   UNL A   1      47.994  33.609  25.922  1.00  0.00    -0.200 F 
ATOM     76  F   UNL A   1      45.854  35.156  25.257  1.00  0.00    -0.200 F 
ENDBRANCH  52  66
BRANCH  53  77
ATOM     77  C   UNL A   1      37.222  31.161  30.490  1.00  0.00     0.064 A 
ATOM     78  C   UNL A   1      36.376  31.471  31.566  1.00  0.00     0.173 A 
ATOM     79  C   UNL A   1      36.833  31.652  29.227  1.00  0.00     0.173 A 
ATOM     80  F   UNL A   1      36.693  31.077  32.808  1.00  0.00    -0.203 F 
ATOM     81  C   UNL A   1      35.228  32.251  31.395  1.00  0.00     0.198 A 
ATOM     82  C   UNL A   1      35.682  32.419  29.054  1.00  0.00     0.198 A 
ATOM     83  F   UNL A   1      37.612  31.476  28.149  1.00  0.00    -0.203 F 
ATOM     84  F   UNL A   1      34.483  32.583  32.457  1.00  0.00    -0.200 F 
ATOM     85  C   UNL A   1      34.888  32.733  30.141  1.00  0.00     0.200 A 
ATOM     86  F   UNL A   1      35.385  32.907  27.842  1.00  0.00    -0.200 F 
ATOM     87  F   UNL A   1      33.824  33.534  29.987  1.00  0.00    -0.200 F 
ENDBRANCH  53  77
BRANCH  65  88
ATOM     88  C   UNL A   1      42.393  29.750  33.701  1.00  0.00     0.064 A 
ATOM     89  C   UNL A   1      41.961  28.420  33.566  1.00  0.00     0.173 A 
ATOM     90  C   UNL A   1      42.639  30.213  34.999  1.00  0.00     0.173 A 
ATOM     91  F   UNL A   1      41.811  27.860  32.361  1.00  0.00    -0.203 F 
ATOM     92  C   UNL A   1      41.726  27.613  34.679  1.00  0.00     0.198 A 
ATOM     93  C   UNL A   1      42.442  29.394  36.109  1.00  0.00     0.198 A 
ATOM     94  F   UNL A   1      43.116  31.454  35.192  1.00  0.00    -0.203 F 
ATOM     95  F   UNL A   1      41.291  26.355  34.517  1.00  0.00    -0.200 F 
ATOM     96  C   UNL A   1      41.971  28.101  35.950  1.00  0.00     0.200 A 
ATOM     97  F   UNL A   1      42.732  29.853  37.334  1.00  0.00    -0.200 F 
ATOM     98  F   UNL A   1      41.779  27.316  37.019  1.00  0.00    -0.200 F 
ENDBRANCH  65  88
ENDBRANCH  39  40
ENDBRANCH  31  34
ENDBRANCH  29  30
ENDBRANCH  28  29
ENDBRANCH  27  28
ENDBRANCH   3  27
TORSDOF 16
ENDMDL
MODEL 3
REMARK VINA RESULT:     -12.0      1.347      1.953
REMARK SMILES CCOc1ccc(CNC(=O)Cc2c(C(=O)NCCCNC(=O)c3ccc(-c4c5nc(c(-c6c(F)c(F)c(F)c(F)c6F)c6ccc([nH]6)c(-c6c(F)c(F)c(F)c(F)c6F)c6nc(c(-c7c(F)c(F)c(F)c(F)c7F)c7ccc4[nH]7)C=C6)C=C5)cc3)c(C)cn2C)cc1
REMARK SMILES IDX 15 1 16 2 17 3 14 5 13 6 90 7 87 8 89 9 91 10 88 11 12 12
REMARK SMILES IDX 10 13 9 14 11 16 8 17 7 18 4 19 5 20 93 21 6 22 92 23 3 24
REMARK SMILES IDX 2 25 1 26 18 27 19 28 20 29 21 30 22 31 23 33 24 34 25 35
REMARK SMILES IDX 86 36 26 37 85 38 27 39 28 40 29 41 79 42 30 43 84 44 78 45
REMARK SMILES IDX 80 46 31 47 83 48 77 49 76 50 32 52 64 53 44 54 63 55 45 56
REMARK SMILES IDX 48 57 62 58 81 59 46 60 47 61 61 63 82 64 49 65 33 66 34 67
REMARK SMILES IDX 42 68 35 69 36 70 40 71 43 72 37 73 38 74 41 75 39 76 65 77
REMARK SMILES IDX 66 78 74 79 67 80 68 81 72 82 75 83 69 84 70 85 73 86 71 87
REMARK SMILES IDX 50 88 51 89 59 90 52 91 53 92 57 93 60 94 54 95 55 96 58 97
REMARK SMILES IDX 56 98
REMARK H PARENT 17 4 9 15 21 32 80 51 48 62
REMARK Flexibility Score: inf
ROOT
ATOM      1  C   UNL A   1      36.054  22.610  23.850  1.00  0.00     0.253 C 
ATOM      2  O   UNL A   1      36.029  23.024  22.684  1.00  0.00    -0.269 OA
ATOM      3  N   UNL A   1      37.330  22.538  24.334  1.00  0.00    -0.352 N 
ATOM      4  H   UNL A   1      38.010  22.485  23.625  1.00  0.00     0.163 HD
ENDROOT
BRANCH   1   5
ATOM      5  C   UNL A   1      34.806  22.203  24.548  1.00  0.00     0.064 A 
ATOM      6  C   UNL A   1      33.866  23.183  24.965  1.00  0.00     0.040 A 
ATOM      7  N   UNL A   1      32.868  22.558  25.679  1.00  0.00    -0.353 N 
ATOM      8  C   UNL A   1      34.193  20.935  24.908  1.00  0.00    -0.020 A 
ATOM      9  C   UNL A   1      33.046  21.217  25.623  1.00  0.00     0.089 A 
ATOM     10  C   UNL A   1      31.743  23.174  26.354  1.00  0.00     0.149 C 
ATOM     11  C   UNL A   1      34.544  19.520  24.642  1.00  0.00     0.047 C 
BRANCH   6  12
ATOM     12  C   UNL A   1      33.823  24.682  24.740  1.00  0.00     0.154 C 
BRANCH  12  13
ATOM     13  C   UNL A   1      33.126  25.043  23.431  1.00  0.00     0.226 C 
ATOM     14  N   UNL A   1      31.876  25.584  23.422  1.00  0.00    -0.352 N 
ATOM     15  H   UNL A   1      31.526  25.821  22.533  1.00  0.00     0.163 HD
ATOM     16  O   UNL A   1      33.677  24.844  22.344  1.00  0.00    -0.275 OA
BRANCH  14  17
ATOM     17  C   UNL A   1      30.987  25.858  24.529  1.00  0.00     0.151 C 
BRANCH  17  18
ATOM     18  C   UNL A   1      31.291  27.169  25.215  1.00  0.00    -0.029 A 
ATOM     19  C   UNL A   1      31.819  29.640  26.460  1.00  0.00     0.119 A 
ATOM     20  C   UNL A   1      31.877  28.464  27.198  1.00  0.00     0.047 A 
ATOM     21  C   UNL A   1      31.510  29.590  25.105  1.00  0.00     0.047 A 
ATOM     22  C   UNL A   1      31.613  27.238  26.578  1.00  0.00     0.009 A 
ATOM     23  C   UNL A   1      31.223  28.367  24.491  1.00  0.00     0.009 A 
BRANCH  19  24
ATOM     24  O   UNL A   1      32.228  30.791  27.074  1.00  0.00    -0.494 OA
BRANCH  24  25
ATOM     25  C   UNL A   1      31.525  31.969  26.671  1.00  0.00     0.226 C 
ATOM     26  C   UNL A   1      32.134  33.230  27.265  1.00  0.00     0.049 C 
ENDBRANCH  24  25
ENDBRANCH  19  24
ENDBRANCH  17  18
ENDBRANCH  14  17
ENDBRANCH  12  13
ENDBRANCH   6  12
ENDBRANCH   1   5
BRANCH   3  27
ATOM     27  C   UNL A   1      37.894  22.521  25.658  1.00  0.00     0.118 C 
BRANCH  27  28
ATOM     28  C   UNL A   1      39.052  21.535  25.821  1.00  0.00     0.042 C 
BRANCH  28  29
ATOM     29  C   UNL A   1      40.144  22.064  26.733  1.00  0.00     0.118 C 
BRANCH  29  30
ATOM     30  N   UNL A   1      41.393  22.298  25.998  1.00  0.00    -0.352 N 
ATOM     31  C   UNL A   1      42.103  23.471  25.822  1.00  0.00     0.251 C 
ATOM     32  H   UNL A   1      41.781  21.503  25.566  1.00  0.00     0.163 HD
ATOM     33  O   UNL A   1      42.961  23.574  24.970  1.00  0.00    -0.269 OA
BRANCH  31  34
ATOM     34  C   UNL A   1      41.766  24.610  26.691  1.00  0.00     0.039 A 
ATOM     35  C   UNL A   1      42.352  24.741  27.952  1.00  0.00     0.014 A 
ATOM     36  C   UNL A   1      40.947  25.599  26.164  1.00  0.00     0.014 A 
ATOM     37  C   UNL A   1      42.199  25.944  28.634  1.00  0.00     0.010 A 
ATOM     38  C   UNL A   1      40.946  26.835  26.754  1.00  0.00     0.010 A 
ATOM     39  C   UNL A   1      41.526  27.006  28.011  1.00  0.00    -0.014 A 
BRANCH  39  40
ATOM     40  C   UNL A   1      41.508  28.335  28.612  1.00  0.00     0.031 A 
ATOM     41  C   UNL A   1      42.570  29.279  28.160  1.00  0.00     0.074 A 
ATOM     42  C   UNL A   1      40.471  28.771  29.358  1.00  0.00     0.049 A 
ATOM     43  N   UNL A   1      43.476  29.850  28.885  1.00  0.00    -0.248 NA
ATOM     44  C   UNL A   1      42.698  29.567  26.722  1.00  0.00     0.031 C 
ATOM     45  C   UNL A   1      39.213  28.077  29.668  1.00  0.00     0.029 A 
ATOM     46  N   UNL A   1      40.272  30.001  29.902  1.00  0.00    -0.354 N 
ATOM     47  C   UNL A   1      44.191  30.692  28.038  1.00  0.00     0.074 A 
ATOM     48  C   UNL A   1      43.758  30.378  26.700  1.00  0.00     0.031 C 
ATOM     49  C   UNL A   1      38.304  28.967  30.117  1.00  0.00     0.029 A 
ATOM     50  C   UNL A   1      38.966  30.244  30.299  1.00  0.00     0.049 A 
ATOM     51  H   UNL A   1      40.995  30.661  30.006  1.00  0.00     0.167 HD
ATOM     52  C   UNL A   1      44.940  31.721  28.528  1.00  0.00     0.037 A 
ATOM     53  C   UNL A   1      38.451  31.420  30.729  1.00  0.00     0.037 A 
ATOM     54  C   UNL A   1      45.172  31.571  29.941  1.00  0.00     0.049 A 
ATOM     55  C   UNL A   1      39.590  32.249  31.194  1.00  0.00     0.074 A 
ATOM     56  C   UNL A   1      45.789  30.616  30.725  1.00  0.00     0.029 A 
ATOM     57  N   UNL A   1      44.409  32.317  30.805  1.00  0.00    -0.354 N 
ATOM     58  N   UNL A   1      40.306  31.967  32.248  1.00  0.00    -0.248 NA
ATOM     59  C   UNL A   1      40.222  33.142  30.234  1.00  0.00     0.031 C 
ATOM     60  C   UNL A   1      44.980  30.522  31.897  1.00  0.00     0.029 A 
ATOM     61  C   UNL A   1      43.961  31.469  31.785  1.00  0.00     0.049 A 
ATOM     62  H   UNL A   1      44.219  33.281  30.734  1.00  0.00     0.167 HD
ATOM     63  C   UNL A   1      41.608  32.266  31.877  1.00  0.00     0.074 A 
ATOM     64  C   UNL A   1      41.482  33.086  30.675  1.00  0.00     0.031 C 
ATOM     65  C   UNL A   1      42.663  31.581  32.408  1.00  0.00     0.037 A 
BRANCH  52  66
ATOM     66  C   UNL A   1      45.184  33.031  27.821  1.00  0.00     0.064 A 
ATOM     67  C   UNL A   1      46.492  33.366  27.413  1.00  0.00     0.173 A 
ATOM     68  C   UNL A   1      44.252  34.090  27.804  1.00  0.00     0.173 A 
ATOM     69  F   UNL A   1      47.463  32.439  27.405  1.00  0.00    -0.203 F 
ATOM     70  C   UNL A   1      46.855  34.677  27.093  1.00  0.00     0.198 A 
ATOM     71  C   UNL A   1      44.605  35.387  27.433  1.00  0.00     0.198 A 
ATOM     72  F   UNL A   1      43.001  33.940  28.253  1.00  0.00    -0.203 F 
ATOM     73  F   UNL A   1      48.137  34.970  26.837  1.00  0.00    -0.200 F 
ATOM     74  C   UNL A   1      45.913  35.688  27.111  1.00  0.00     0.200 A 
ATOM     75  F   UNL A   1      43.682  36.357  27.475  1.00  0.00    -0.200 F 
ATOM     76  F   UNL A   1      46.269  36.956  26.870  1.00  0.00    -0.200 F 
ENDBRANCH  52  66
BRANCH  53  77
ATOM     77  C   UNL A   1      37.081  31.944  30.543  1.00  0.00     0.064 A 
ATOM     78  C   UNL A   1      36.156  31.942  31.599  1.00  0.00     0.173 A 
ATOM     79  C   UNL A   1      36.732  32.700  29.406  1.00  0.00     0.173 A 
ATOM     80  F   UNL A   1      36.428  31.280  32.733  1.00  0.00    -0.203 F 
ATOM     81  C   UNL A   1      34.969  32.678  31.534  1.00  0.00     0.198 A 
ATOM     82  C   UNL A   1      35.542  33.425  29.337  1.00  0.00     0.198 A 
ATOM     83  F   UNL A   1      37.580  32.829  28.376  1.00  0.00    -0.203 F 
ATOM     84  F   UNL A   1      34.144  32.707  32.589  1.00  0.00    -0.200 F 
ATOM     85  C   UNL A   1      34.669  33.427  30.408  1.00  0.00     0.200 A 
ATOM     86  F   UNL A   1      35.281  34.172  28.255  1.00  0.00    -0.200 F 
ATOM     87  F   UNL A   1      33.563  34.184  30.371  1.00  0.00    -0.200 F 
ENDBRANCH  53  77
BRANCH  65  88
ATOM     88  C   UNL A   1      42.391  30.685  33.586  1.00  0.00     0.064 A 
ATOM     89  C   UNL A   1      42.359  31.126  34.920  1.00  0.00     0.173 A 
ATOM     90  C   UNL A   1      42.025  29.355  33.345  1.00  0.00     0.173 A 
ATOM     91  F   UNL A   1      42.583  32.407  35.230  1.00  0.00    -0.203 F 
ATOM     92  C   UNL A   1      42.039  30.262  35.967  1.00  0.00     0.198 A 
ATOM     93  C   UNL A   1      41.667  28.503  34.388  1.00  0.00     0.198 A 
ATOM     94  F   UNL A   1      41.972  28.890  32.087  1.00  0.00    -0.203 F 
ATOM     95  F   UNL A   1      42.041  30.709  37.231  1.00  0.00    -0.200 F 
ATOM     96  C   UNL A   1      41.689  28.951  35.698  1.00  0.00     0.200 A 
ATOM     97  F   UNL A   1      41.277  27.249  34.117  1.00  0.00    -0.200 F 
ATOM     98  F   UNL A   1      41.347  28.128  36.699  1.00  0.00    -0.200 F 
ENDBRANCH  65  88
ENDBRANCH  39  40
ENDBRANCH  31  34
ENDBRANCH  29  30
ENDBRANCH  28  29
ENDBRANCH  27  28
ENDBRANCH   3  27
TORSDOF 16
ENDMDL
