MODEL 1
REMARK VINA RESULT:     -12.6      0.000      0.000
REMARK SMILES COc1ccc([C@H](C(=O)NCCCNC(=O)c2ccc(-c3c4nc(c(-c5c(F)c(F)c(F)c(F)c5F)c5ccc([nH]5)c(-c5c(F)c(F)c(F)c(F)c5F)c5nc(c(-c6c(F)c(F)c(F)c(F)c6F)c6ccc3[nH]6)C=C5)C=C4)cc2)c2ccc(O)nn2)cc1
REMARK SMILES IDX 12 1 11 2 10 3 8 4 9 5 7 7 6 8 3 9 4 10 88 11 5 12 87 13
REMARK SMILES IDX 2 14 1 15 80 16 81 17 86 18 82 19 85 20 83 21 84 22 13 24
REMARK SMILES IDX 14 25 15 26 16 28 17 29 18 30 79 31 19 32 78 33 20 34 21 35
REMARK SMILES IDX 22 36 72 37 23 38 77 39 71 40 73 41 24 42 76 43 70 44 69 45
REMARK SMILES IDX 25 47 57 48 37 49 56 50 38 51 41 52 55 53 74 54 39 55 40 56
REMARK SMILES IDX 54 58 75 59 42 60 26 61 27 62 35 63 28 64 29 65 33 66 36 67
REMARK SMILES IDX 30 68 31 69 34 70 32 71 58 72 59 73 67 74 60 75 61 76 65 77
REMARK SMILES IDX 68 78 62 79 63 80 66 81 64 82 43 83 44 84 52 85 45 86 46 87
REMARK SMILES IDX 50 88 53 89 47 90 48 91 51 92 49 93
REMARK H PARENT 10 6 84 23 14 27 73 46 41 57
REMARK Flexibility Score: inf
ROOT
ATOM      1  C   UNL A   1      38.214  20.094  24.979  1.00  0.00     0.042 C 
ENDROOT
BRANCH   1   2
ATOM      2  C   UNL A   1      37.397  21.349  24.753  1.00  0.00     0.117 C 
BRANCH   2   3
ATOM      3  N   UNL A   1      36.487  21.681  25.838  1.00  0.00    -0.355 N 
ATOM      4  C   UNL A   1      35.157  21.347  25.968  1.00  0.00     0.233 C 
ATOM      5  O   UNL A   1      34.660  21.452  27.092  1.00  0.00    -0.274 OA
ATOM      6  H   UNL A   1      36.870  22.210  26.575  1.00  0.00     0.163 HD
BRANCH   4   7
ATOM      7  C   UNL A   1      34.366  20.903  24.730  1.00  0.00     0.159 C 
BRANCH   7   8
ATOM      8  C   UNL A   1      33.999  19.415  24.673  1.00  0.00    -0.029 A 
ATOM      9  C   UNL A   1      33.566  16.643  24.952  1.00  0.00     0.118 A 
ATOM     10  C   UNL A   1      34.798  17.125  24.514  1.00  0.00     0.047 A 
ATOM     11  C   UNL A   1      32.528  17.543  25.190  1.00  0.00     0.047 A 
ATOM     12  C   UNL A   1      35.018  18.494  24.378  1.00  0.00     0.009 A 
ATOM     13  C   UNL A   1      32.733  18.918  25.020  1.00  0.00     0.009 A 
BRANCH   9  14
ATOM     14  O   UNL A   1      33.521  15.290  25.134  1.00  0.00    -0.497 OA
ATOM     15  C   UNL A   1      32.356  14.763  25.752  1.00  0.00     0.278 C 
ENDBRANCH   9  14
ENDBRANCH   7   8
BRANCH   7  16
ATOM     16  C   UNL A   1      33.213  21.840  24.417  1.00  0.00     0.080 A 
ATOM     17  C   UNL A   1      32.233  22.174  25.350  1.00  0.00     0.032 A 
ATOM     18  N   UNL A   1      33.135  22.285  23.134  1.00  0.00    -0.151 NA
ATOM     19  C   UNL A   1      31.152  22.943  24.940  1.00  0.00     0.072 A 
ATOM     20  N   UNL A   1      32.084  23.057  22.737  1.00  0.00    -0.112 NA
ATOM     21  C   UNL A   1      31.128  23.356  23.631  1.00  0.00     0.230 A 
BRANCH  21  22
ATOM     22  O   UNL A   1      30.092  24.097  23.157  1.00  0.00    -0.492 OA
ATOM     23  H   UNL A   1      29.739  23.920  22.307  1.00  0.00     0.295 HD
ENDBRANCH  21  22
ENDBRANCH   7  16
ENDBRANCH   4   7
ENDBRANCH   2   3
ENDBRANCH   1   2
BRANCH   1  24
ATOM     24  C   UNL A   1      39.200  20.171  26.130  1.00  0.00     0.118 C 
BRANCH  24  25
ATOM     25  N   UNL A   1      40.259  19.172  26.061  1.00  0.00    -0.352 N 
ATOM     26  C   UNL A   1      41.625  19.308  26.124  1.00  0.00     0.251 C 
ATOM     27  H   UNL A   1      39.943  18.245  25.953  1.00  0.00     0.163 HD
ATOM     28  O   UNL A   1      42.341  18.330  25.913  1.00  0.00    -0.269 OA
BRANCH  26  29
ATOM     29  C   UNL A   1      42.244  20.622  26.403  1.00  0.00     0.039 A 
ATOM     30  C   UNL A   1      42.596  21.446  25.331  1.00  0.00     0.014 A 
ATOM     31  C   UNL A   1      42.480  21.050  27.711  1.00  0.00     0.014 A 
ATOM     32  C   UNL A   1      43.103  22.725  25.575  1.00  0.00     0.010 A 
ATOM     33  C   UNL A   1      42.871  22.364  27.952  1.00  0.00     0.010 A 
ATOM     34  C   UNL A   1      43.200  23.215  26.887  1.00  0.00    -0.014 A 
BRANCH  34  35
ATOM     35  C   UNL A   1      43.655  24.602  27.168  1.00  0.00     0.031 A 
ATOM     36  C   UNL A   1      42.679  25.628  27.682  1.00  0.00     0.074 A 
ATOM     37  C   UNL A   1      44.926  24.957  26.894  1.00  0.00     0.049 A 
ATOM     38  N   UNL A   1      42.867  26.902  27.924  1.00  0.00    -0.248 NA
ATOM     39  C   UNL A   1      41.301  25.174  27.925  1.00  0.00     0.031 C 
ATOM     40  C   UNL A   1      45.950  24.075  26.330  1.00  0.00     0.029 A 
ATOM     41  N   UNL A   1      45.573  26.160  27.041  1.00  0.00    -0.354 N 
ATOM     42  C   UNL A   1      41.632  27.399  28.319  1.00  0.00     0.074 A 
ATOM     43  C   UNL A   1      40.688  26.307  28.233  1.00  0.00     0.031 C 
ATOM     44  C   UNL A   1      47.100  24.758  26.204  1.00  0.00     0.029 A 
ATOM     45  C   UNL A   1      46.886  26.135  26.635  1.00  0.00     0.049 A 
ATOM     46  H   UNL A   1      45.137  26.965  27.404  1.00  0.00     0.167 HD
ATOM     47  C   UNL A   1      41.317  28.646  28.738  1.00  0.00     0.037 A 
ATOM     48  C   UNL A   1      47.810  27.115  26.606  1.00  0.00     0.037 A 
ATOM     49  C   UNL A   1      42.268  29.719  28.865  1.00  0.00     0.049 A 
ATOM     50  C   UNL A   1      47.435  28.487  27.101  1.00  0.00     0.074 A 
ATOM     51  C   UNL A   1      42.068  30.992  29.366  1.00  0.00     0.029 A 
ATOM     52  N   UNL A   1      43.598  29.644  28.481  1.00  0.00    -0.354 N 
ATOM     53  N   UNL A   1      46.287  28.918  27.563  1.00  0.00    -0.248 NA
ATOM     54  C   UNL A   1      48.492  29.508  27.082  1.00  0.00     0.031 C 
ATOM     55  C   UNL A   1      43.261  31.709  29.229  1.00  0.00     0.029 A 
ATOM     56  C   UNL A   1      44.223  30.860  28.707  1.00  0.00     0.049 A 
ATOM     57  H   UNL A   1      44.034  28.845  28.105  1.00  0.00     0.167 HD
ATOM     58  C   UNL A   1      46.492  30.243  27.922  1.00  0.00     0.074 A 
ATOM     59  C   UNL A   1      47.880  30.541  27.642  1.00  0.00     0.031 C 
ATOM     60  C   UNL A   1      45.611  31.136  28.436  1.00  0.00     0.037 A 
BRANCH  47  61
ATOM     61  C   UNL A   1      39.886  28.929  29.097  1.00  0.00     0.064 A 
ATOM     62  C   UNL A   1      38.950  29.349  28.140  1.00  0.00     0.173 A 
ATOM     63  C   UNL A   1      39.430  28.715  30.407  1.00  0.00     0.173 A 
ATOM     64  F   UNL A   1      39.334  29.580  26.875  1.00  0.00    -0.203 F 
ATOM     65  C   UNL A   1      37.619  29.566  28.485  1.00  0.00     0.198 A 
ATOM     66  C   UNL A   1      38.091  28.900  30.742  1.00  0.00     0.198 A 
ATOM     67  F   UNL A   1      40.281  28.309  31.361  1.00  0.00    -0.203 F 
ATOM     68  F   UNL A   1      36.752  30.010  27.564  1.00  0.00    -0.200 F 
ATOM     69  C   UNL A   1      37.188  29.331  29.783  1.00  0.00     0.200 A 
ATOM     70  F   UNL A   1      37.675  28.657  31.993  1.00  0.00    -0.200 F 
ATOM     71  F   UNL A   1      35.902  29.523  30.109  1.00  0.00    -0.200 F 
ENDBRANCH  47  61
BRANCH  48  72
ATOM     72  C   UNL A   1      49.183  26.840  26.102  1.00  0.00     0.064 A 
ATOM     73  C   UNL A   1      49.512  27.033  24.753  1.00  0.00     0.173 A 
ATOM     74  C   UNL A   1      50.184  26.342  26.949  1.00  0.00     0.173 A 
ATOM     75  F   UNL A   1      48.585  27.489  23.896  1.00  0.00    -0.203 F 
ATOM     76  C   UNL A   1      50.774  26.702  24.262  1.00  0.00     0.198 A 
ATOM     77  C   UNL A   1      51.457  26.045  26.465  1.00  0.00     0.198 A 
ATOM     78  F   UNL A   1      49.928  26.145  28.251  1.00  0.00    -0.203 F 
ATOM     79  F   UNL A   1      51.038  26.834  22.955  1.00  0.00    -0.200 F 
ATOM     80  C   UNL A   1      51.746  26.212  25.120  1.00  0.00     0.200 A 
ATOM     81  F   UNL A   1      52.400  25.589  27.301  1.00  0.00    -0.200 F 
ATOM     82  F   UNL A   1      52.959  25.891  24.648  1.00  0.00    -0.200 F 
ENDBRANCH  48  72
BRANCH  60  83
ATOM     83  C   UNL A   1      46.133  32.502  28.779  1.00  0.00     0.064 A 
ATOM     84  C   UNL A   1      46.688  32.791  30.036  1.00  0.00     0.173 A 
ATOM     85  C   UNL A   1      46.101  33.531  27.825  1.00  0.00     0.173 A 
ATOM     86  F   UNL A   1      46.732  31.847  30.988  1.00  0.00    -0.203 F 
ATOM     87  C   UNL A   1      47.154  34.068  30.335  1.00  0.00     0.198 A 
ATOM     88  C   UNL A   1      46.604  34.796  28.115  1.00  0.00     0.198 A 
ATOM     89  F   UNL A   1      45.591  33.306  26.604  1.00  0.00    -0.203 F 
ATOM     90  F   UNL A   1      47.622  34.337  31.562  1.00  0.00    -0.200 F 
ATOM     91  C   UNL A   1      47.118  35.067  29.373  1.00  0.00     0.200 A 
ATOM     92  F   UNL A   1      46.586  35.754  27.178  1.00  0.00    -0.200 F 
ATOM     93  F   UNL A   1      47.574  36.294  29.662  1.00  0.00    -0.200 F 
ENDBRANCH  60  83
ENDBRANCH  34  35
ENDBRANCH  26  29
ENDBRANCH  24  25
ENDBRANCH   1  24
TORSDOF 14
ENDMDL
MODEL 2
REMARK VINA RESULT:     -12.6      5.216      8.661
REMARK SMILES COc1ccc([C@H](C(=O)NCCCNC(=O)c2ccc(-c3c4nc(c(-c5c(F)c(F)c(F)c(F)c5F)c5ccc([nH]5)c(-c5c(F)c(F)c(F)c(F)c5F)c5nc(c(-c6c(F)c(F)c(F)c(F)c6F)c6ccc3[nH]6)C=C5)C=C4)cc2)c2ccc(O)nn2)cc1
REMARK SMILES IDX 12 1 11 2 10 3 8 4 9 5 7 7 6 8 3 9 4 10 88 11 5 12 87 13
REMARK SMILES IDX 2 14 1 15 80 16 81 17 86 18 82 19 85 20 83 21 84 22 13 24
REMARK SMILES IDX 14 25 15 26 16 28 17 29 18 30 79 31 19 32 78 33 20 34 21 35
REMARK SMILES IDX 22 36 72 37 23 38 77 39 71 40 73 41 24 42 76 43 70 44 69 45
REMARK SMILES IDX 25 47 57 48 37 49 56 50 38 51 41 52 55 53 74 54 39 55 40 56
REMARK SMILES IDX 54 58 75 59 42 60 26 61 27 62 35 63 28 64 29 65 33 66 36 67
REMARK SMILES IDX 30 68 31 69 34 70 32 71 58 72 59 73 67 74 60 75 61 76 65 77
REMARK SMILES IDX 68 78 62 79 63 80 66 81 64 82 43 83 44 84 52 85 45 86 46 87
REMARK SMILES IDX 50 88 53 89 47 90 48 91 51 92 49 93
REMARK H PARENT 10 6 84 23 14 27 73 46 41 57
REMARK Flexibility Score: inf
ROOT
ATOM      1  C   UNL A   1      31.511  29.509  26.934  1.00  0.00     0.042 C 
ENDROOT
BRANCH   1   2
ATOM      2  C   UNL A   1      31.937  28.230  27.626  1.00  0.00     0.117 C 
BRANCH   2   3
ATOM      3  N   UNL A   1      31.151  27.059  27.268  1.00  0.00    -0.355 N 
ATOM      4  C   UNL A   1      31.524  25.989  26.486  1.00  0.00     0.233 C 
ATOM      5  O   UNL A   1      30.833  24.970  26.565  1.00  0.00    -0.274 OA
ATOM      6  H   UNL A   1      30.236  27.027  27.631  1.00  0.00     0.163 HD
BRANCH   4   7
ATOM      7  C   UNL A   1      32.732  26.123  25.550  1.00  0.00     0.159 C 
BRANCH   7   8
ATOM      8  C   UNL A   1      33.393  24.806  25.123  1.00  0.00    -0.029 A 
ATOM      9  C   UNL A   1      34.348  22.194  24.658  1.00  0.00     0.118 A 
ATOM     10  C   UNL A   1      34.768  22.912  25.777  1.00  0.00     0.047 A 
ATOM     11  C   UNL A   1      33.498  22.805  23.737  1.00  0.00     0.047 A 
ATOM     12  C   UNL A   1      34.297  24.202  26.012  1.00  0.00     0.009 A 
ATOM     13  C   UNL A   1      33.049  24.114  23.950  1.00  0.00     0.009 A 
BRANCH   9  14
ATOM     14  O   UNL A   1      34.811  20.911  24.605  1.00  0.00    -0.497 OA
ATOM     15  C   UNL A   1      36.159  20.697  25.001  1.00  0.00     0.278 C 
ENDBRANCH   9  14
ENDBRANCH   7   8
BRANCH   7  16
ATOM     16  C   UNL A   1      32.470  27.087  24.406  1.00  0.00     0.080 A 
ATOM     17  C   UNL A   1      33.488  27.774  23.746  1.00  0.00     0.032 A 
ATOM     18  N   UNL A   1      31.164  27.314  24.101  1.00  0.00    -0.151 NA
ATOM     19  C   UNL A   1      33.146  28.724  22.793  1.00  0.00     0.072 A 
ATOM     20  N   UNL A   1      30.830  28.231  23.150  1.00  0.00    -0.112 NA
ATOM     21  C   UNL A   1      31.811  28.910  22.534  1.00  0.00     0.230 A 
BRANCH  21  22
ATOM     22  O   UNL A   1      31.403  29.835  21.626  1.00  0.00    -0.492 OA
ATOM     23  H   UNL A   1      31.774  29.843  20.766  1.00  0.00     0.295 HD
ENDBRANCH  21  22
ENDBRANCH   7  16
ENDBRANCH   4   7
ENDBRANCH   2   3
ENDBRANCH   1   2
BRANCH   1  24
ATOM     24  C   UNL A   1      32.643  30.307  26.312  1.00  0.00     0.118 C 
BRANCH  24  25
ATOM     25  N   UNL A   1      32.625  31.720  26.666  1.00  0.00    -0.352 N 
ATOM     26  C   UNL A   1      33.470  32.455  27.463  1.00  0.00     0.251 C 
ATOM     27  H   UNL A   1      31.886  32.234  26.267  1.00  0.00     0.163 HD
ATOM     28  O   UNL A   1      33.188  33.622  27.729  1.00  0.00    -0.269 OA
BRANCH  26  29
ATOM     29  C   UNL A   1      34.691  31.849  28.035  1.00  0.00     0.039 A 
ATOM     30  C   UNL A   1      35.821  32.650  28.225  1.00  0.00     0.014 A 
ATOM     31  C   UNL A   1      34.735  30.499  28.389  1.00  0.00     0.014 A 
ATOM     32  C   UNL A   1      36.955  32.118  28.843  1.00  0.00     0.010 A 
ATOM     33  C   UNL A   1      35.818  30.004  29.109  1.00  0.00     0.010 A 
ATOM     34  C   UNL A   1      36.947  30.803  29.335  1.00  0.00    -0.014 A 
BRANCH  34  35
ATOM     35  C   UNL A   1      38.110  30.241  30.071  1.00  0.00     0.031 A 
ATOM     36  C   UNL A   1      38.382  30.665  31.491  1.00  0.00     0.074 A 
ATOM     37  C   UNL A   1      38.961  29.406  29.441  1.00  0.00     0.049 A 
ATOM     38  N   UNL A   1      39.379  30.339  32.276  1.00  0.00    -0.248 NA
ATOM     39  C   UNL A   1      37.428  31.605  32.100  1.00  0.00     0.031 C 
ATOM     40  C   UNL A   1      38.846  28.972  28.047  1.00  0.00     0.029 A 
ATOM     41  N   UNL A   1      40.100  28.781  29.888  1.00  0.00    -0.354 N 
ATOM     42  C   UNL A   1      39.184  31.052  33.452  1.00  0.00     0.074 A 
ATOM     43  C   UNL A   1      38.007  31.870  33.262  1.00  0.00     0.031 C 
ATOM     44  C   UNL A   1      39.855  28.134  27.761  1.00  0.00     0.029 A 
ATOM     45  C   UNL A   1      40.713  28.004  28.935  1.00  0.00     0.049 A 
ATOM     46  H   UNL A   1      40.444  28.881  30.805  1.00  0.00     0.167 HD
ATOM     47  C   UNL A   1      39.906  31.012  34.595  1.00  0.00     0.037 A 
ATOM     48  C   UNL A   1      41.845  27.276  28.998  1.00  0.00     0.037 A 
ATOM     49  C   UNL A   1      41.052  30.163  34.796  1.00  0.00     0.049 A 
ATOM     50  C   UNL A   1      42.614  27.232  30.292  1.00  0.00     0.074 A 
ATOM     51  C   UNL A   1      41.796  29.981  35.948  1.00  0.00     0.029 A 
ATOM     52  N   UNL A   1      41.620  29.360  33.820  1.00  0.00    -0.354 N 
ATOM     53  N   UNL A   1      42.363  27.836  31.427  1.00  0.00    -0.248 NA
ATOM     54  C   UNL A   1      43.820  26.393  30.316  1.00  0.00     0.031 C 
ATOM     55  C   UNL A   1      42.854  29.115  35.652  1.00  0.00     0.029 A 
ATOM     56  C   UNL A   1      42.726  28.703  34.335  1.00  0.00     0.049 A 
ATOM     57  H   UNL A   1      41.287  29.269  32.898  1.00  0.00     0.167 HD
ATOM     58  C   UNL A   1      43.354  27.424  32.307  1.00  0.00     0.074 A 
ATOM     59  C   UNL A   1      44.201  26.502  31.580  1.00  0.00     0.031 C 
ATOM     60  C   UNL A   1      43.550  27.776  33.602  1.00  0.00     0.037 A 
BRANCH  47  61
ATOM     61  C   UNL A   1      39.486  31.905  35.727  1.00  0.00     0.064 A 
ATOM     62  C   UNL A   1      40.012  33.195  35.889  1.00  0.00     0.173 A 
ATOM     63  C   UNL A   1      38.493  31.486  36.626  1.00  0.00     0.173 A 
ATOM     64  F   UNL A   1      40.972  33.642  35.065  1.00  0.00    -0.203 F 
ATOM     65  C   UNL A   1      39.578  34.023  36.921  1.00  0.00     0.198 A 
ATOM     66  C   UNL A   1      38.036  32.329  37.637  1.00  0.00     0.198 A 
ATOM     67  F   UNL A   1      37.951  30.264  36.515  1.00  0.00    -0.203 F 
ATOM     68  F   UNL A   1      40.127  35.235  37.083  1.00  0.00    -0.200 F 
ATOM     69  C   UNL A   1      38.583  33.594  37.787  1.00  0.00     0.200 A 
ATOM     70  F   UNL A   1      37.064  31.917  38.463  1.00  0.00    -0.200 F 
ATOM     71  F   UNL A   1      38.153  34.399  38.769  1.00  0.00    -0.200 F 
ENDBRANCH  47  61
BRANCH  48  72
ATOM     72  C   UNL A   1      42.319  26.517  27.808  1.00  0.00     0.064 A 
ATOM     73  C   UNL A   1      41.865  25.216  27.549  1.00  0.00     0.173 A 
ATOM     74  C   UNL A   1      43.265  27.061  26.927  1.00  0.00     0.173 A 
ATOM     75  F   UNL A   1      40.974  24.642  28.371  1.00  0.00    -0.203 F 
ATOM     76  C   UNL A   1      42.366  24.475  26.480  1.00  0.00     0.198 A 
ATOM     77  C   UNL A   1      43.740  26.333  25.838  1.00  0.00     0.198 A 
ATOM     78  F   UNL A   1      43.729  28.305  27.122  1.00  0.00    -0.203 F 
ATOM     79  F   UNL A   1      41.963  23.211  26.298  1.00  0.00    -0.200 F 
ATOM     80  C   UNL A   1      43.301  25.036  25.624  1.00  0.00     0.200 A 
ATOM     81  F   UNL A   1      44.629  26.885  25.001  1.00  0.00    -0.200 F 
ATOM     82  F   UNL A   1      43.786  24.322  24.598  1.00  0.00    -0.200 F 
ENDBRANCH  48  72
BRANCH  60  83
ATOM     83  C   UNL A   1      44.690  27.124  34.331  1.00  0.00     0.064 A 
ATOM     84  C   UNL A   1      45.963  27.710  34.393  1.00  0.00     0.173 A 
ATOM     85  C   UNL A   1      44.496  25.905  34.999  1.00  0.00     0.173 A 
ATOM     86  F   UNL A   1      46.206  28.868  33.761  1.00  0.00    -0.203 F 
ATOM     87  C   UNL A   1      47.008  27.080  35.064  1.00  0.00     0.198 A 
ATOM     88  C   UNL A   1      45.532  25.298  35.702  1.00  0.00     0.198 A 
ATOM     89  F   UNL A   1      43.294  25.306  34.981  1.00  0.00    -0.203 F 
ATOM     90  F   UNL A   1      48.232  27.627  35.056  1.00  0.00    -0.200 F 
ATOM     91  C   UNL A   1      46.790  25.879  35.723  1.00  0.00     0.200 A 
ATOM     92  F   UNL A   1      45.315  24.148  36.354  1.00  0.00    -0.200 F 
ATOM     93  F   UNL A   1      47.797  25.278  36.373  1.00  0.00    -0.200 F 
ENDBRANCH  60  83
ENDBRANCH  34  35
ENDBRANCH  26  29
ENDBRANCH  24  25
ENDBRANCH   1  24
TORSDOF 14
ENDMDL
MODEL 3
REMARK VINA RESULT:     -12.4      6.455     12.029
REMARK SMILES COc1ccc([C@H](C(=O)NCCCNC(=O)c2ccc(-c3c4nc(c(-c5c(F)c(F)c(F)c(F)c5F)c5ccc([nH]5)c(-c5c(F)c(F)c(F)c(F)c5F)c5nc(c(-c6c(F)c(F)c(F)c(F)c6F)c6ccc3[nH]6)C=C5)C=C4)cc2)c2ccc(O)nn2)cc1
REMARK SMILES IDX 12 1 11 2 10 3 8 4 9 5 7 7 6 8 3 9 4 10 88 11 5 12 87 13
REMARK SMILES IDX 2 14 1 15 80 16 81 17 86 18 82 19 85 20 83 21 84 22 13 24
REMARK SMILES IDX 14 25 15 26 16 28 17 29 18 30 79 31 19 32 78 33 20 34 21 35
REMARK SMILES IDX 22 36 72 37 23 38 77 39 71 40 73 41 24 42 76 43 70 44 69 45
REMARK SMILES IDX 25 47 57 48 37 49 56 50 38 51 41 52 55 53 74 54 39 55 40 56
REMARK SMILES IDX 54 58 75 59 42 60 26 61 27 62 35 63 28 64 29 65 33 66 36 67
REMARK SMILES IDX 30 68 31 69 34 70 32 71 58 72 59 73 67 74 60 75 61 76 65 77
REMARK SMILES IDX 68 78 62 79 63 80 66 81 64 82 43 83 44 84 52 85 45 86 46 87
REMARK SMILES IDX 50 88 53 89 47 90 48 91 51 92 49 93
REMARK H PARENT 10 6 84 23 14 27 73 46 41 57
REMARK Flexibility Score: inf
ROOT
ATOM      1  C   UNL A   1      31.572  32.019  26.785  1.00  0.00     0.042 C 
ENDROOT
BRANCH   1   2
ATOM      2  C   UNL A   1      31.780  30.519  26.816  1.00  0.00     0.117 C 
BRANCH   2   3
ATOM      3  N   UNL A   1      32.635  30.006  25.756  1.00  0.00    -0.355 N 
ATOM      4  C   UNL A   1      32.260  29.459  24.548  1.00  0.00     0.233 C 
ATOM      5  O   UNL A   1      33.129  29.380  23.676  1.00  0.00    -0.274 OA
ATOM      6  H   UNL A   1      33.604  30.058  25.921  1.00  0.00     0.163 HD
BRANCH   4   7
ATOM      7  C   UNL A   1      30.824  28.955  24.362  1.00  0.00     0.159 C 
BRANCH   7   8
ATOM      8  C   UNL A   1      29.902  29.860  23.535  1.00  0.00    -0.029 A 
ATOM      9  C   UNL A   1      28.551  31.822  22.027  1.00  0.00     0.118 A 
ATOM     10  C   UNL A   1      28.701  31.969  23.405  1.00  0.00     0.047 A 
ATOM     11  C   UNL A   1      29.021  30.664  21.410  1.00  0.00     0.047 A 
ATOM     12  C   UNL A   1      29.370  31.004  24.154  1.00  0.00     0.009 A 
ATOM     13  C   UNL A   1      29.663  29.674  22.164  1.00  0.00     0.009 A 
BRANCH   9  14
ATOM     14  O   UNL A   1      27.963  32.888  21.407  1.00  0.00    -0.497 OA
ATOM     15  C   UNL A   1      27.635  32.730  20.033  1.00  0.00     0.278 C 
ENDBRANCH   9  14
ENDBRANCH   7   8
BRANCH   7  16
ATOM     16  C   UNL A   1      30.775  27.490  23.965  1.00  0.00     0.080 A 
ATOM     17  C   UNL A   1      30.290  26.492  24.810  1.00  0.00     0.032 A 
ATOM     18  N   UNL A   1      31.310  27.179  22.755  1.00  0.00    -0.151 NA
ATOM     19  C   UNL A   1      30.394  25.166  24.409  1.00  0.00     0.072 A 
ATOM     20  N   UNL A   1      31.393  25.879  22.353  1.00  0.00    -0.112 NA
ATOM     21  C   UNL A   1      30.949  24.918  23.179  1.00  0.00     0.230 A 
BRANCH  21  22
ATOM     22  O   UNL A   1      31.097  23.644  22.730  1.00  0.00    -0.492 OA
ATOM     23  H   UNL A   1      31.575  23.477  21.941  1.00  0.00     0.295 HD
ENDBRANCH  21  22
ENDBRANCH   7  16
ENDBRANCH   4   7
ENDBRANCH   2   3
ENDBRANCH   1   2
BRANCH   1  24
ATOM     24  C   UNL A   1      32.795  32.842  27.149  1.00  0.00     0.118 C 
BRANCH  24  25
ATOM     25  N   UNL A   1      32.478  34.187  27.613  1.00  0.00    -0.352 N 
ATOM     26  C   UNL A   1      33.020  34.934  28.631  1.00  0.00     0.251 C 
ATOM     27  H   UNL A   1      31.757  34.634  27.114  1.00  0.00     0.163 HD
ATOM     28  O   UNL A   1      32.506  36.009  28.933  1.00  0.00    -0.269 OA
BRANCH  26  29
ATOM     29  C   UNL A   1      34.190  34.443  29.392  1.00  0.00     0.039 A 
ATOM     30  C   UNL A   1      33.983  33.828  30.630  1.00  0.00     0.014 A 
ATOM     31  C   UNL A   1      35.488  34.582  28.898  1.00  0.00     0.014 A 
ATOM     32  C   UNL A   1      35.066  33.282  31.324  1.00  0.00     0.010 A 
ATOM     33  C   UNL A   1      36.546  33.936  29.530  1.00  0.00     0.010 A 
ATOM     34  C   UNL A   1      36.350  33.288  30.759  1.00  0.00    -0.014 A 
BRANCH  34  35
ATOM     35  C   UNL A   1      37.502  32.638  31.438  1.00  0.00     0.031 A 
ATOM     36  C   UNL A   1      38.210  31.480  30.784  1.00  0.00     0.074 A 
ATOM     37  C   UNL A   1      37.865  33.042  32.672  1.00  0.00     0.049 A 
ATOM     38  N   UNL A   1      39.190  30.741  31.244  1.00  0.00    -0.248 NA
ATOM     39  C   UNL A   1      37.735  31.074  29.452  1.00  0.00     0.031 C 
ATOM     40  C   UNL A   1      37.218  34.106  33.440  1.00  0.00     0.029 A 
ATOM     41  N   UNL A   1      38.863  32.595  33.504  1.00  0.00    -0.354 N 
ATOM     42  C   UNL A   1      39.424  29.776  30.273  1.00  0.00     0.074 A 
ATOM     43  C   UNL A   1      38.452  29.984  29.224  1.00  0.00     0.031 C 
ATOM     44  C   UNL A   1      37.848  34.248  34.617  1.00  0.00     0.029 A 
ATOM     45  C   UNL A   1      38.917  33.258  34.707  1.00  0.00     0.049 A 
ATOM     46  H   UNL A   1      39.482  31.869  33.261  1.00  0.00     0.167 HD
ATOM     47  C   UNL A   1      40.379  28.817  30.248  1.00  0.00     0.037 A 
ATOM     48  C   UNL A   1      39.730  33.081  35.766  1.00  0.00     0.037 A 
ATOM     49  C   UNL A   1      41.373  28.640  31.274  1.00  0.00     0.049 A 
ATOM     50  C   UNL A   1      40.798  32.021  35.698  1.00  0.00     0.074 A 
ATOM     51  C   UNL A   1      42.438  27.758  31.298  1.00  0.00     0.029 A 
ATOM     52  N   UNL A   1      41.418  29.357  32.460  1.00  0.00    -0.354 N 
ATOM     53  N   UNL A   1      41.070  31.178  34.732  1.00  0.00    -0.248 NA
ATOM     54  C   UNL A   1      41.681  31.895  36.866  1.00  0.00     0.031 C 
ATOM     55  C   UNL A   1      43.092  27.897  32.526  1.00  0.00     0.029 A 
ATOM     56  C   UNL A   1      42.478  28.915  33.237  1.00  0.00     0.049 A 
ATOM     57  H   UNL A   1      40.793  30.074  32.713  1.00  0.00     0.167 HD
ATOM     58  C   UNL A   1      42.174  30.451  35.158  1.00  0.00     0.074 A 
ATOM     59  C   UNL A   1      42.532  30.964  36.463  1.00  0.00     0.031 C 
ATOM     60  C   UNL A   1      42.831  29.447  34.528  1.00  0.00     0.037 A 
BRANCH  47  61
ATOM     61  C   UNL A   1      40.405  27.880  29.075  1.00  0.00     0.064 A 
ATOM     62  C   UNL A   1      39.637  26.706  29.044  1.00  0.00     0.173 A 
ATOM     63  C   UNL A   1      41.163  28.195  27.936  1.00  0.00     0.173 A 
ATOM     64  F   UNL A   1      38.903  26.352  30.110  1.00  0.00    -0.203 F 
ATOM     65  C   UNL A   1      39.645  25.872  27.929  1.00  0.00     0.198 A 
ATOM     66  C   UNL A   1      41.142  27.376  26.809  1.00  0.00     0.198 A 
ATOM     67  F   UNL A   1      41.913  29.307  27.909  1.00  0.00    -0.203 F 
ATOM     68  F   UNL A   1      38.937  24.734  27.940  1.00  0.00    -0.200 F 
ATOM     69  C   UNL A   1      40.388  26.214  26.809  1.00  0.00     0.200 A 
ATOM     70  F   UNL A   1      41.850  27.716  25.723  1.00  0.00    -0.200 F 
ATOM     71  F   UNL A   1      40.380  25.419  25.729  1.00  0.00    -0.200 F 
ENDBRANCH  47  61
BRANCH  48  72
ATOM     72  C   UNL A   1      39.581  33.929  36.980  1.00  0.00     0.064 A 
ATOM     73  C   UNL A   1      38.830  33.493  38.081  1.00  0.00     0.173 A 
ATOM     74  C   UNL A   1      40.153  35.208  37.050  1.00  0.00     0.173 A 
ATOM     75  F   UNL A   1      38.246  32.285  38.057  1.00  0.00    -0.203 F 
ATOM     76  C   UNL A   1      38.624  34.317  39.187  1.00  0.00     0.198 A 
ATOM     77  C   UNL A   1      39.976  36.017  38.171  1.00  0.00     0.198 A 
ATOM     78  F   UNL A   1      40.888  35.674  36.029  1.00  0.00    -0.203 F 
ATOM     79  F   UNL A   1      37.846  33.899  40.194  1.00  0.00    -0.200 F 
ATOM     80  C   UNL A   1      39.200  35.576  39.232  1.00  0.00     0.200 A 
ATOM     81  F   UNL A   1      40.550  37.227  38.219  1.00  0.00    -0.200 F 
ATOM     82  F   UNL A   1      38.999  36.370  40.293  1.00  0.00    -0.200 F 
ENDBRANCH  48  72
BRANCH  60  83
ATOM     83  C   UNL A   1      44.037  28.873  35.216  1.00  0.00     0.064 A 
ATOM     84  C   UNL A   1      45.327  29.380  34.998  1.00  0.00     0.173 A 
ATOM     85  C   UNL A   1      43.894  27.816  36.129  1.00  0.00     0.173 A 
ATOM     86  F   UNL A   1      45.522  30.381  34.126  1.00  0.00    -0.203 F 
ATOM     87  C   UNL A   1      46.432  28.823  35.638  1.00  0.00     0.198 A 
ATOM     88  C   UNL A   1      44.995  27.289  36.796  1.00  0.00     0.198 A 
ATOM     89  F   UNL A   1      42.681  27.301  36.383  1.00  0.00    -0.203 F 
ATOM     90  F   UNL A   1      47.662  29.282  35.365  1.00  0.00    -0.200 F 
ATOM     91  C   UNL A   1      46.264  27.784  36.540  1.00  0.00     0.200 A 
ATOM     92  F   UNL A   1      44.829  26.297  37.682  1.00  0.00    -0.200 F 
ATOM     93  F   UNL A   1      47.329  27.254  37.160  1.00  0.00    -0.200 F 
ENDBRANCH  60  83
ENDBRANCH  34  35
ENDBRANCH  26  29
ENDBRANCH  24  25
ENDBRANCH   1  24
TORSDOF 14
ENDMDL
