MODEL 1
REMARK VINA RESULT:     -13.2      0.000      0.000
REMARK SMILES C[NH+]1CCC(NC(=O)N[C@H]2C=C[C@H](C(=O)NCCCNC(=O)c3ccc(-c4c5nc(c(-c6c(F)c(F)c(F)c(F)c6F)c6ccc([nH]6)c(-c6c(F)c(F)c(F)c(F)c6F)c6nc(c(-c7c(F)c(F)c(F)c(F)c7F)c7ccc4[nH]7)C=C6)C=C5)cc3)C2)CC1
REMARK SMILES IDX 18 1 17 2 16 3 14 4 15 5 13 7 10 8 11 9 86 10 12 11 9 12
REMARK SMILES IDX 6 13 7 14 8 16 5 18 1 19 2 20 3 21 88 22 4 24 87 25 19 26
REMARK SMILES IDX 20 27 21 28 22 30 23 31 24 32 85 33 25 34 84 35 26 36 27 37
REMARK SMILES IDX 28 38 78 39 29 40 83 41 77 42 79 43 30 44 82 45 76 46 75 47
REMARK SMILES IDX 31 49 63 50 43 51 62 52 44 53 47 54 61 55 80 56 45 57 46 58
REMARK SMILES IDX 60 60 81 61 48 62 32 63 33 64 41 65 34 66 35 67 39 68 42 69
REMARK SMILES IDX 36 70 37 71 40 72 38 73 64 74 65 75 73 76 66 77 67 78 71 79
REMARK SMILES IDX 74 80 68 81 69 82 72 83 70 84 49 85 50 86 58 87 51 88 52 89
REMARK SMILES IDX 56 90 59 91 53 92 54 93 57 94 55 95
REMARK H PARENT 16 6 6 15 9 17 2 23 20 29 79 48 47 59
REMARK Flexibility Score: inf
ROOT
ATOM      1  C   UNL A   1      31.403  32.144  26.504  1.00  0.00     0.042 C 
ENDROOT
BRANCH   1   2
ATOM      2  C   UNL A   1      31.437  30.615  26.482  1.00  0.00     0.117 C 
BRANCH   2   3
ATOM      3  N   UNL A   1      32.245  30.078  25.398  1.00  0.00    -0.356 N 
ATOM      4  C   UNL A   1      32.090  28.899  24.709  1.00  0.00     0.227 C 
ATOM      5  O   UNL A   1      32.803  28.689  23.729  1.00  0.00    -0.274 OA
ATOM      6  H   UNL A   1      33.007  30.636  25.119  1.00  0.00     0.163 HD
BRANCH   4   7
ATOM      7  C   UNL A   1      31.027  27.913  25.188  1.00  0.00     0.103 C 
ATOM      8  C   UNL A   1      31.189  25.501  25.637  1.00  0.00     0.107 C 
ATOM      9  C   UNL A   1      30.509  25.768  24.343  1.00  0.00    -0.006 C 
ATOM     10  C   UNL A   1      31.534  26.877  26.212  1.00  0.00     0.047 C 
ATOM     11  C   UNL A   1      30.476  27.077  24.064  1.00  0.00    -0.016 C 
BRANCH   8  12
ATOM     12  N   UNL A   1      30.468  24.567  26.489  1.00  0.00    -0.332 N 
ATOM     13  N   UNL A   1      31.411  22.387  26.673  1.00  0.00    -0.335 N 
ATOM     14  C   UNL A   1      30.481  23.308  26.922  1.00  0.00     0.315 C 
ATOM     15  H   UNL A   1      31.173  21.498  27.024  1.00  0.00     0.165 HD
ATOM     16  O   UNL A   1      29.527  22.958  27.626  1.00  0.00    -0.249 OA
ATOM     17  H   UNL A   1      29.696  25.031  26.885  1.00  0.00     0.165 HD
BRANCH  13  18
ATOM     18  C   UNL A   1      32.689  22.404  26.003  1.00  0.00     0.095 C 
ATOM     19  C   UNL A   1      36.665  21.837  24.636  1.00  0.00     0.332 C 
ATOM     20  N   UNL A   1      35.452  21.674  25.443  1.00  0.00    -0.337 N 
ATOM     21  C   UNL A   1      34.352  21.144  24.629  1.00  0.00     0.264 C 
ATOM     22  C   UNL A   1      35.120  22.942  26.109  1.00  0.00     0.264 C 
ATOM     23  H   UNL A   1      35.619  20.985  26.176  1.00  0.00     0.347 HD
ATOM     24  C   UNL A   1      33.034  21.047  25.397  1.00  0.00     0.086 C 
ATOM     25  C   UNL A   1      33.823  22.853  26.917  1.00  0.00     0.086 C 
ENDBRANCH  13  18
ENDBRANCH   8  12
ENDBRANCH   4   7
ENDBRANCH   2   3
ENDBRANCH   1   2
BRANCH   1  26
ATOM     26  C   UNL A   1      32.625  32.779  27.161  1.00  0.00     0.118 C 
BRANCH  26  27
ATOM     27  N   UNL A   1      32.371  34.139  27.624  1.00  0.00    -0.352 N 
ATOM     28  C   UNL A   1      32.992  34.889  28.592  1.00  0.00     0.251 C 
ATOM     29  H   UNL A   1      31.630  34.597  27.164  1.00  0.00     0.163 HD
ATOM     30  O   UNL A   1      32.532  35.995  28.869  1.00  0.00    -0.269 OA
BRANCH  28  31
ATOM     31  C   UNL A   1      34.171  34.380  29.334  1.00  0.00     0.039 A 
ATOM     32  C   UNL A   1      33.960  33.740  30.561  1.00  0.00     0.014 A 
ATOM     33  C   UNL A   1      35.474  34.540  28.860  1.00  0.00     0.014 A 
ATOM     34  C   UNL A   1      35.038  33.204  31.271  1.00  0.00     0.010 A 
ATOM     35  C   UNL A   1      36.538  33.933  29.523  1.00  0.00     0.010 A 
ATOM     36  C   UNL A   1      36.333  33.260  30.735  1.00  0.00    -0.014 A 
BRANCH  36  37
ATOM     37  C   UNL A   1      37.489  32.626  31.420  1.00  0.00     0.031 A 
ATOM     38  C   UNL A   1      38.208  31.473  30.776  1.00  0.00     0.074 A 
ATOM     39  C   UNL A   1      37.835  33.029  32.657  1.00  0.00     0.049 A 
ATOM     40  N   UNL A   1      39.158  30.712  31.259  1.00  0.00    -0.248 NA
ATOM     41  C   UNL A   1      37.775  31.102  29.420  1.00  0.00     0.031 C 
ATOM     42  C   UNL A   1      37.186  34.104  33.408  1.00  0.00     0.029 A 
ATOM     43  N   UNL A   1      38.809  32.571  33.508  1.00  0.00    -0.354 N 
ATOM     44  C   UNL A   1      39.414  29.760  30.281  1.00  0.00     0.074 A 
ATOM     45  C   UNL A   1      38.485  30.007  29.200  1.00  0.00     0.031 C 
ATOM     46  C   UNL A   1      37.796  34.240  34.597  1.00  0.00     0.029 A 
ATOM     47  C   UNL A   1      38.850  33.237  34.708  1.00  0.00     0.049 A 
ATOM     48  H   UNL A   1      39.421  31.834  33.281  1.00  0.00     0.167 HD
ATOM     49  C   UNL A   1      40.355  28.785  30.275  1.00  0.00     0.037 A 
ATOM     50  C   UNL A   1      39.645  33.056  35.779  1.00  0.00     0.037 A 
ATOM     51  C   UNL A   1      41.300  28.567  31.338  1.00  0.00     0.049 A 
ATOM     52  C   UNL A   1      40.687  31.973  35.745  1.00  0.00     0.074 A 
ATOM     53  C   UNL A   1      42.335  27.650  31.400  1.00  0.00     0.029 A 
ATOM     54  N   UNL A   1      41.328  29.281  32.527  1.00  0.00    -0.354 N 
ATOM     55  N   UNL A   1      40.960  31.116  34.792  1.00  0.00    -0.248 NA
ATOM     56  C   UNL A   1      41.535  31.835  36.937  1.00  0.00     0.031 C 
ATOM     57  C   UNL A   1      42.964  27.782  32.643  1.00  0.00     0.029 A 
ATOM     58  C   UNL A   1      42.350  28.814  33.336  1.00  0.00     0.049 A 
ATOM     59  H   UNL A   1      40.711  30.013  32.760  1.00  0.00     0.167 HD
ATOM     60  C   UNL A   1      42.026  30.357  35.253  1.00  0.00     0.074 A 
ATOM     61  C   UNL A   1      42.358  30.861  36.569  1.00  0.00     0.031 C 
ATOM     62  C   UNL A   1      42.671  29.333  34.642  1.00  0.00     0.037 A 
BRANCH  49  63
ATOM     63  C   UNL A   1      40.401  27.881  29.076  1.00  0.00     0.064 A 
ATOM     64  C   UNL A   1      41.184  28.188  27.951  1.00  0.00     0.173 A 
ATOM     65  C   UNL A   1      39.663  26.689  29.051  1.00  0.00     0.173 A 
ATOM     66  F   UNL A   1      41.901  29.322  27.917  1.00  0.00    -0.203 F 
ATOM     67  C   UNL A   1      41.191  27.359  26.832  1.00  0.00     0.198 A 
ATOM     68  C   UNL A   1      39.697  25.845  27.944  1.00  0.00     0.198 A 
ATOM     69  F   UNL A   1      38.902  26.341  30.102  1.00  0.00    -0.203 F 
ATOM     70  F   UNL A   1      41.895  27.708  25.747  1.00  0.00    -0.200 F 
ATOM     71  C   UNL A   1      40.452  26.186  26.832  1.00  0.00     0.200 A 
ATOM     72  F   UNL A   1      38.992  24.705  27.949  1.00  0.00    -0.200 F 
ATOM     73  F   UNL A   1      40.457  25.391  25.753  1.00  0.00    -0.200 F 
ENDBRANCH  49  63
BRANCH  50  74
ATOM     74  C   UNL A   1      39.511  33.951  36.957  1.00  0.00     0.064 A 
ATOM     75  C   UNL A   1      38.753  33.558  38.068  1.00  0.00     0.173 A 
ATOM     76  C   UNL A   1      40.147  35.200  37.007  1.00  0.00     0.173 A 
ATOM     77  F   UNL A   1      38.112  32.380  38.057  1.00  0.00    -0.203 F 
ATOM     78  C   UNL A   1      38.624  34.386  39.181  1.00  0.00     0.198 A 
ATOM     79  C   UNL A   1      40.037  36.017  38.131  1.00  0.00     0.198 A 
ATOM     80  F   UNL A   1      40.888  35.619  35.971  1.00  0.00    -0.203 F 
ATOM     81  F   UNL A   1      37.865  34.000  40.215  1.00  0.00    -0.200 F 
ATOM     82  C   UNL A   1      39.271  35.611  39.215  1.00  0.00     0.200 A 
ATOM     83  F   UNL A   1      40.675  37.195  38.166  1.00  0.00    -0.200 F 
ATOM     84  F   UNL A   1      39.154  36.404  40.289  1.00  0.00    -0.200 F 
ENDBRANCH  50  74
BRANCH  62  85
ATOM     85  C   UNL A   1      43.826  28.715  35.374  1.00  0.00     0.064 A 
ATOM     86  C   UNL A   1      43.644  27.655  36.273  1.00  0.00     0.173 A 
ATOM     87  C   UNL A   1      45.135  29.163  35.140  1.00  0.00     0.173 A 
ATOM     88  F   UNL A   1      42.410  27.203  36.542  1.00  0.00    -0.203 F 
ATOM     89  C   UNL A   1      44.729  27.081  36.930  1.00  0.00     0.198 A 
ATOM     90  C   UNL A   1      46.220  28.568  35.778  1.00  0.00     0.198 A 
ATOM     91  F   UNL A   1      45.362  30.171  34.285  1.00  0.00    -0.203 F 
ATOM     92  F   UNL A   1      44.528  26.098  37.819  1.00  0.00    -0.200 F 
ATOM     93  C   UNL A   1      46.015  27.532  36.677  1.00  0.00     0.200 A 
ATOM     94  F   UNL A   1      47.463  28.998  35.522  1.00  0.00    -0.200 F 
ATOM     95  F   UNL A   1      47.059  26.973  37.304  1.00  0.00    -0.200 F 
ENDBRANCH  62  85
ENDBRANCH  36  37
ENDBRANCH  28  31
ENDBRANCH  26  27
ENDBRANCH   1  26
TORSDOF 12
ENDMDL
MODEL 2
REMARK VINA RESULT:     -13.2      0.058      1.134
REMARK SMILES C[NH+]1CCC(NC(=O)N[C@H]2C=C[C@H](C(=O)NCCCNC(=O)c3ccc(-c4c5nc(c(-c6c(F)c(F)c(F)c(F)c6F)c6ccc([nH]6)c(-c6c(F)c(F)c(F)c(F)c6F)c6nc(c(-c7c(F)c(F)c(F)c(F)c7F)c7ccc4[nH]7)C=C6)C=C5)cc3)C2)CC1
REMARK SMILES IDX 18 1 17 2 16 3 14 4 15 5 13 7 10 8 11 9 86 10 12 11 9 12
REMARK SMILES IDX 6 13 7 14 8 16 5 18 1 19 2 20 3 21 88 22 4 24 87 25 19 26
REMARK SMILES IDX 20 27 21 28 22 30 23 31 24 32 85 33 25 34 84 35 26 36 27 37
REMARK SMILES IDX 28 38 78 39 29 40 83 41 77 42 79 43 30 44 82 45 76 46 75 47
REMARK SMILES IDX 31 49 63 50 43 51 62 52 44 53 47 54 61 55 80 56 45 57 46 58
REMARK SMILES IDX 60 60 81 61 48 62 32 63 33 64 41 65 34 66 35 67 39 68 42 69
REMARK SMILES IDX 36 70 37 71 40 72 38 73 64 74 65 75 73 76 66 77 67 78 71 79
REMARK SMILES IDX 74 80 68 81 69 82 72 83 70 84 49 85 50 86 58 87 51 88 52 89
REMARK SMILES IDX 56 90 59 91 53 92 54 93 57 94 55 95
REMARK H PARENT 16 6 6 15 9 17 2 23 20 29 79 48 47 59
REMARK Flexibility Score: inf
ROOT
ATOM      1  C   UNL A   1      31.403  32.174  26.501  1.00  0.00     0.042 C 
ENDROOT
BRANCH   1   2
ATOM      2  C   UNL A   1      31.404  30.644  26.465  1.00  0.00     0.117 C 
BRANCH   2   3
ATOM      3  N   UNL A   1      32.230  30.101  25.398  1.00  0.00    -0.356 N 
ATOM      4  C   UNL A   1      32.091  28.913  24.720  1.00  0.00     0.227 C 
ATOM      5  O   UNL A   1      32.818  28.696  23.752  1.00  0.00    -0.274 OA
ATOM      6  H   UNL A   1      32.992  30.660  25.122  1.00  0.00     0.163 HD
BRANCH   4   7
ATOM      7  C   UNL A   1      31.028  27.926  25.196  1.00  0.00     0.103 C 
ATOM      8  C   UNL A   1      31.191  25.513  25.643  1.00  0.00     0.107 C 
ATOM      9  C   UNL A   1      30.512  25.781  24.348  1.00  0.00    -0.006 C 
ATOM     10  C   UNL A   1      31.534  26.889  26.220  1.00  0.00     0.047 C 
ATOM     11  C   UNL A   1      30.479  27.091  24.070  1.00  0.00    -0.016 C 
BRANCH   8  12
ATOM     12  N   UNL A   1      30.469  24.577  26.492  1.00  0.00    -0.332 N 
ATOM     13  N   UNL A   1      31.412  22.397  26.674  1.00  0.00    -0.335 N 
ATOM     14  C   UNL A   1      30.482  23.318  26.924  1.00  0.00     0.315 C 
ATOM     15  H   UNL A   1      31.175  21.508  27.023  1.00  0.00     0.165 HD
ATOM     16  O   UNL A   1      29.528  22.966  27.626  1.00  0.00    -0.249 OA
ATOM     17  H   UNL A   1      29.697  25.041  26.889  1.00  0.00     0.165 HD
BRANCH  13  18
ATOM     18  C   UNL A   1      32.691  22.416  26.005  1.00  0.00     0.095 C 
ATOM     19  C   UNL A   1      36.667  21.849  24.638  1.00  0.00     0.332 C 
ATOM     20  N   UNL A   1      35.453  21.684  25.443  1.00  0.00    -0.337 N 
ATOM     21  C   UNL A   1      34.353  21.160  24.626  1.00  0.00     0.264 C 
ATOM     22  C   UNL A   1      35.123  22.949  26.116  1.00  0.00     0.264 C 
ATOM     23  H   UNL A   1      35.618  20.991  26.173  1.00  0.00     0.347 HD
ATOM     24  C   UNL A   1      33.034  21.062  25.392  1.00  0.00     0.086 C 
ATOM     25  C   UNL A   1      33.825  22.858  26.922  1.00  0.00     0.086 C 
ENDBRANCH  13  18
ENDBRANCH   8  12
ENDBRANCH   4   7
ENDBRANCH   2   3
ENDBRANCH   1   2
BRANCH   1  26
ATOM     26  C   UNL A   1      32.617  32.776  27.200  1.00  0.00     0.118 C 
BRANCH  26  27
ATOM     27  N   UNL A   1      32.396  34.154  27.626  1.00  0.00    -0.352 N 
ATOM     28  C   UNL A   1      33.040  34.918  28.567  1.00  0.00     0.251 C 
ATOM     29  H   UNL A   1      31.660  34.613  27.159  1.00  0.00     0.163 HD
ATOM     30  O   UNL A   1      32.606  36.041  28.816  1.00  0.00    -0.269 OA
BRANCH  28  31
ATOM     31  C   UNL A   1      34.214  34.406  29.314  1.00  0.00     0.039 A 
ATOM     32  C   UNL A   1      33.995  33.762  30.538  1.00  0.00     0.014 A 
ATOM     33  C   UNL A   1      35.520  34.567  28.848  1.00  0.00     0.014 A 
ATOM     34  C   UNL A   1      35.070  33.222  31.253  1.00  0.00     0.010 A 
ATOM     35  C   UNL A   1      36.580  33.957  29.516  1.00  0.00     0.010 A 
ATOM     36  C   UNL A   1      36.368  33.280  30.724  1.00  0.00    -0.014 A 
BRANCH  36  37
ATOM     37  C   UNL A   1      37.520  32.644  31.413  1.00  0.00     0.031 A 
ATOM     38  C   UNL A   1      38.239  31.489  30.772  1.00  0.00     0.074 A 
ATOM     39  C   UNL A   1      37.861  33.045  32.652  1.00  0.00     0.049 A 
ATOM     40  N   UNL A   1      39.185  30.726  31.259  1.00  0.00    -0.248 NA
ATOM     41  C   UNL A   1      37.810  31.119  29.415  1.00  0.00     0.031 C 
ATOM     42  C   UNL A   1      37.212  34.122  33.401  1.00  0.00     0.029 A 
ATOM     43  N   UNL A   1      38.831  32.585  33.507  1.00  0.00    -0.354 N 
ATOM     44  C   UNL A   1      39.443  29.773  30.282  1.00  0.00     0.074 A 
ATOM     45  C   UNL A   1      38.518  30.022  29.197  1.00  0.00     0.031 C 
ATOM     46  C   UNL A   1      37.817  34.257  34.592  1.00  0.00     0.029 A 
ATOM     47  C   UNL A   1      38.869  33.251  34.707  1.00  0.00     0.049 A 
ATOM     48  H   UNL A   1      39.443  31.846  33.282  1.00  0.00     0.167 HD
ATOM     49  C   UNL A   1      40.381  28.795  30.279  1.00  0.00     0.037 A 
ATOM     50  C   UNL A   1      39.659  33.068  35.782  1.00  0.00     0.037 A 
ATOM     51  C   UNL A   1      41.322  28.575  31.346  1.00  0.00     0.049 A 
ATOM     52  C   UNL A   1      40.699  31.982  35.752  1.00  0.00     0.074 A 
ATOM     53  C   UNL A   1      42.353  27.656  31.412  1.00  0.00     0.029 A 
ATOM     54  N   UNL A   1      41.346  29.289  32.535  1.00  0.00    -0.354 N 
ATOM     55  N   UNL A   1      40.974  31.125  34.799  1.00  0.00    -0.248 NA
ATOM     56  C   UNL A   1      41.542  31.842  36.947  1.00  0.00     0.031 C 
ATOM     57  C   UNL A   1      42.978  27.787  32.658  1.00  0.00     0.029 A 
ATOM     58  C   UNL A   1      42.364  28.819  33.349  1.00  0.00     0.049 A 
ATOM     59  H   UNL A   1      40.730  30.023  32.766  1.00  0.00     0.167 HD
ATOM     60  C   UNL A   1      42.035  30.363  35.264  1.00  0.00     0.074 A 
ATOM     61  C   UNL A   1      42.364  30.866  36.582  1.00  0.00     0.031 C 
ATOM     62  C   UNL A   1      42.681  29.338  34.655  1.00  0.00     0.037 A 
BRANCH  49  63
ATOM     63  C   UNL A   1      40.430  27.891  29.081  1.00  0.00     0.064 A 
ATOM     64  C   UNL A   1      41.228  28.191  27.964  1.00  0.00     0.173 A 
ATOM     65  C   UNL A   1      39.678  26.708  29.047  1.00  0.00     0.173 A 
ATOM     66  F   UNL A   1      41.957  29.316  27.939  1.00  0.00    -0.203 F 
ATOM     67  C   UNL A   1      41.237  27.362  26.845  1.00  0.00     0.198 A 
ATOM     68  C   UNL A   1      39.715  25.864  27.940  1.00  0.00     0.198 A 
ATOM     69  F   UNL A   1      38.903  26.369  30.089  1.00  0.00    -0.203 F 
ATOM     70  F   UNL A   1      41.957  27.703  25.767  1.00  0.00    -0.200 F 
ATOM     71  C   UNL A   1      40.485  26.197  26.836  1.00  0.00     0.200 A 
ATOM     72  F   UNL A   1      38.997  24.732  27.937  1.00  0.00    -0.200 F 
ATOM     73  F   UNL A   1      40.493  25.402  25.757  1.00  0.00    -0.200 F 
ENDBRANCH  49  63
BRANCH  50  74
ATOM     74  C   UNL A   1      39.523  33.963  36.959  1.00  0.00     0.064 A 
ATOM     75  C   UNL A   1      38.759  33.572  38.067  1.00  0.00     0.173 A 
ATOM     76  C   UNL A   1      40.161  35.210  37.012  1.00  0.00     0.173 A 
ATOM     77  F   UNL A   1      38.115  32.396  38.052  1.00  0.00    -0.203 F 
ATOM     78  C   UNL A   1      38.628  34.400  39.179  1.00  0.00     0.198 A 
ATOM     79  C   UNL A   1      40.049  36.027  38.136  1.00  0.00     0.198 A 
ATOM     80  F   UNL A   1      40.908  35.627  35.979  1.00  0.00    -0.203 F 
ATOM     81  F   UNL A   1      37.863  34.016  40.210  1.00  0.00    -0.200 F 
ATOM     82  C   UNL A   1      39.278  35.624  39.216  1.00  0.00     0.200 A 
ATOM     83  F   UNL A   1      40.690  37.203  38.173  1.00  0.00    -0.200 F 
ATOM     84  F   UNL A   1      39.158  36.416  40.289  1.00  0.00    -0.200 F 
ENDBRANCH  50  74
BRANCH  62  85
ATOM     85  C   UNL A   1      43.831  28.717  35.392  1.00  0.00     0.064 A 
ATOM     86  C   UNL A   1      45.149  29.158  35.205  1.00  0.00     0.173 A 
ATOM     87  C   UNL A   1      43.605  27.695  36.327  1.00  0.00     0.173 A 
ATOM     88  F   UNL A   1      45.417  30.120  34.310  1.00  0.00    -0.203 F 
ATOM     89  C   UNL A   1      46.202  28.582  35.910  1.00  0.00     0.198 A 
ATOM     90  C   UNL A   1      44.657  27.141  37.051  1.00  0.00     0.198 A 
ATOM     91  F   UNL A   1      42.362  27.242  36.546  1.00  0.00    -0.203 F 
ATOM     92  F   UNL A   1      47.459  28.989  35.684  1.00  0.00    -0.200 F 
ATOM     93  C   UNL A   1      45.955  27.581  36.838  1.00  0.00     0.200 A 
ATOM     94  F   UNL A   1      44.415  26.182  37.956  1.00  0.00    -0.200 F 
ATOM     95  F   UNL A   1      46.970  27.034  37.521  1.00  0.00    -0.200 F 
ENDBRANCH  62  85
ENDBRANCH  36  37
ENDBRANCH  28  31
ENDBRANCH  26  27
ENDBRANCH   1  26
TORSDOF 12
ENDMDL
MODEL 3
REMARK VINA RESULT:     -13.0      1.914      2.924
REMARK SMILES C[NH+]1CCC(NC(=O)N[C@H]2C=C[C@H](C(=O)NCCCNC(=O)c3ccc(-c4c5nc(c(-c6c(F)c(F)c(F)c(F)c6F)c6ccc([nH]6)c(-c6c(F)c(F)c(F)c(F)c6F)c6nc(c(-c7c(F)c(F)c(F)c(F)c7F)c7ccc4[nH]7)C=C6)C=C5)cc3)C2)CC1
REMARK SMILES IDX 18 1 17 2 16 3 14 4 15 5 13 7 10 8 11 9 86 10 12 11 9 12
REMARK SMILES IDX 6 13 7 14 8 16 5 18 1 19 2 20 3 21 88 22 4 24 87 25 19 26
REMARK SMILES IDX 20 27 21 28 22 30 23 31 24 32 85 33 25 34 84 35 26 36 27 37
REMARK SMILES IDX 28 38 78 39 29 40 83 41 77 42 79 43 30 44 82 45 76 46 75 47
REMARK SMILES IDX 31 49 63 50 43 51 62 52 44 53 47 54 61 55 80 56 45 57 46 58
REMARK SMILES IDX 60 60 81 61 48 62 32 63 33 64 41 65 34 66 35 67 39 68 42 69
REMARK SMILES IDX 36 70 37 71 40 72 38 73 64 74 65 75 73 76 66 77 67 78 71 79
REMARK SMILES IDX 74 80 68 81 69 82 72 83 70 84 49 85 50 86 58 87 51 88 52 89
REMARK SMILES IDX 56 90 59 91 53 92 54 93 57 94 55 95
REMARK H PARENT 16 6 6 15 9 17 2 23 20 29 79 48 47 59
REMARK Flexibility Score: inf
ROOT
ATOM      1  C   UNL A   1      33.941  29.287  24.101  1.00  0.00     0.042 C 
ENDROOT
BRANCH   1   2
ATOM      2  C   UNL A   1      33.216  28.994  22.787  1.00  0.00     0.117 C 
BRANCH   2   3
ATOM      3  N   UNL A   1      33.637  27.746  22.170  1.00  0.00    -0.356 N 
ATOM      4  C   UNL A   1      33.141  26.478  22.361  1.00  0.00     0.227 C 
ATOM      5  O   UNL A   1      33.547  25.569  21.638  1.00  0.00    -0.274 OA
ATOM      6  H   UNL A   1      34.378  27.818  21.525  1.00  0.00     0.163 HD
BRANCH   4   7
ATOM      7  C   UNL A   1      32.099  26.264  23.456  1.00  0.00     0.103 C 
ATOM      8  C   UNL A   1      31.124  24.185  24.334  1.00  0.00     0.107 C 
ATOM      9  C   UNL A   1      30.180  24.885  23.426  1.00  0.00    -0.006 C 
ATOM     10  C   UNL A   1      32.380  25.060  24.378  1.00  0.00     0.047 C 
ATOM     11  C   UNL A   1      30.731  25.985  22.895  1.00  0.00    -0.016 C 
BRANCH   8  12
ATOM     12  N   UNL A   1      30.524  23.788  25.599  1.00  0.00    -0.332 N 
ATOM     13  N   UNL A   1      31.718  22.149  26.850  1.00  0.00    -0.335 N 
ATOM     14  C   UNL A   1      30.688  22.967  26.634  1.00  0.00     0.315 C 
ATOM     15  H   UNL A   1      31.589  21.570  27.635  1.00  0.00     0.165 HD
ATOM     16  O   UNL A   1      29.787  22.959  27.480  1.00  0.00    -0.249 OA
ATOM     17  H   UNL A   1      29.705  24.317  25.741  1.00  0.00     0.165 HD
BRANCH  13  18
ATOM     18  C   UNL A   1      32.981  21.927  26.188  1.00  0.00     0.095 C 
ATOM     19  C   UNL A   1      36.830  20.693  24.900  1.00  0.00     0.332 C 
ATOM     20  N   UNL A   1      35.613  20.776  25.713  1.00  0.00    -0.337 N 
ATOM     21  C   UNL A   1      34.445  20.325  24.949  1.00  0.00     0.264 C 
ATOM     22  C   UNL A   1      35.464  22.135  26.253  1.00  0.00     0.264 C 
ATOM     23  H   UNL A   1      35.691  20.144  26.510  1.00  0.00     0.347 HD
ATOM     24  C   UNL A   1      33.132  20.484  25.717  1.00  0.00     0.086 C 
ATOM     25  C   UNL A   1      34.174  22.302  27.059  1.00  0.00     0.086 C 
ENDBRANCH  13  18
ENDBRANCH   8  12
ENDBRANCH   4   7
ENDBRANCH   2   3
ENDBRANCH   1   2
BRANCH   1  26
ATOM     26  C   UNL A   1      33.067  29.119  25.340  1.00  0.00     0.118 C 
BRANCH  26  27
ATOM     27  N   UNL A   1      32.602  30.393  25.877  1.00  0.00    -0.352 N 
ATOM     28  C   UNL A   1      33.124  31.197  26.860  1.00  0.00     0.251 C 
ATOM     29  H   UNL A   1      31.775  30.733  25.466  1.00  0.00     0.163 HD
ATOM     30  O   UNL A   1      32.492  32.193  27.207  1.00  0.00    -0.269 OA
BRANCH  28  31
ATOM     31  C   UNL A   1      34.402  30.870  27.537  1.00  0.00     0.039 A 
ATOM     32  C   UNL A   1      35.351  31.888  27.695  1.00  0.00     0.014 A 
ATOM     33  C   UNL A   1      34.693  29.584  27.995  1.00  0.00     0.014 A 
ATOM     34  C   UNL A   1      36.550  31.635  28.369  1.00  0.00     0.010 A 
ATOM     35  C   UNL A   1      35.848  29.353  28.739  1.00  0.00     0.010 A 
ATOM     36  C   UNL A   1      36.789  30.373  28.933  1.00  0.00    -0.014 A 
BRANCH  36  37
ATOM     37  C   UNL A   1      38.012  30.093  29.729  1.00  0.00     0.031 A 
ATOM     38  C   UNL A   1      39.069  29.169  29.189  1.00  0.00     0.074 A 
ATOM     39  C   UNL A   1      38.129  30.597  30.972  1.00  0.00     0.049 A 
ATOM     40  N   UNL A   1      40.146  28.707  29.774  1.00  0.00    -0.248 NA
ATOM     41  C   UNL A   1      38.869  28.669  27.820  1.00  0.00     0.031 C 
ATOM     42  C   UNL A   1      37.152  31.466  31.627  1.00  0.00     0.029 A 
ATOM     43  N   UNL A   1      39.116  30.439  31.912  1.00  0.00    -0.354 N 
ATOM     44  C   UNL A   1      40.732  27.844  28.858  1.00  0.00     0.074 A 
ATOM     45  C   UNL A   1      39.865  27.806  27.699  1.00  0.00     0.031 C 
ATOM     46  C   UNL A   1      37.599  31.786  32.852  1.00  0.00     0.029 A 
ATOM     47  C   UNL A   1      38.873  31.112  33.084  1.00  0.00     0.049 A 
ATOM     48  H   UNL A   1      39.922  29.894  31.762  1.00  0.00     0.167 HD
ATOM     49  C   UNL A   1      41.899  27.163  28.962  1.00  0.00     0.037 A 
ATOM     50  C   UNL A   1      39.593  31.175  34.219  1.00  0.00     0.037 A 
ATOM     51  C   UNL A   1      42.775  27.232  30.102  1.00  0.00     0.049 A 
ATOM     52  C   UNL A   1      40.890  30.419  34.309  1.00  0.00     0.074 A 
ATOM     53  C   UNL A   1      44.011  26.635  30.280  1.00  0.00     0.029 A 
ATOM     54  N   UNL A   1      42.507  27.948  31.260  1.00  0.00    -0.354 N 
ATOM     55  N   UNL A   1      41.464  29.653  33.414  1.00  0.00    -0.248 NA
ATOM     56  C   UNL A   1      41.640  30.540  35.567  1.00  0.00     0.031 C 
ATOM     57  C   UNL A   1      44.472  26.957  31.562  1.00  0.00     0.029 A 
ATOM     58  C   UNL A   1      43.546  27.793  32.164  1.00  0.00     0.049 A 
ATOM     59  H   UNL A   1      41.697  28.487  31.416  1.00  0.00     0.167 HD
ATOM     60  C   UNL A   1      42.653  29.223  33.986  1.00  0.00     0.074 A 
ATOM     61  C   UNL A   1      42.724  29.823  35.303  1.00  0.00     0.031 C 
ATOM     62  C   UNL A   1      43.602  28.404  33.468  1.00  0.00     0.037 A 
BRANCH  49  63
ATOM     63  C   UNL A   1      42.291  26.285  27.808  1.00  0.00     0.064 A 
ATOM     64  C   UNL A   1      43.194  26.720  26.825  1.00  0.00     0.173 A 
ATOM     65  C   UNL A   1      41.765  24.991  27.685  1.00  0.00     0.173 A 
ATOM     66  F   UNL A   1      43.718  27.954  26.888  1.00  0.00    -0.203 F 
ATOM     67  C   UNL A   1      43.522  25.909  25.741  1.00  0.00     0.198 A 
ATOM     68  C   UNL A   1      42.120  24.169  26.617  1.00  0.00     0.198 A 
ATOM     69  F   UNL A   1      40.902  24.521  28.600  1.00  0.00    -0.203 F 
ATOM     70  F   UNL A   1      44.336  26.372  24.782  1.00  0.00    -0.200 F 
ATOM     71  C   UNL A   1      42.989  24.633  25.641  1.00  0.00     0.200 A 
ATOM     72  F   UNL A   1      41.613  22.932  26.528  1.00  0.00    -0.200 F 
ATOM     73  F   UNL A   1      43.302  23.855  24.596  1.00  0.00    -0.200 F 
ENDBRANCH  49  63
BRANCH  50  74
ATOM     74  C   UNL A   1      39.122  32.020  35.346  1.00  0.00     0.064 A 
ATOM     75  C   UNL A   1      38.381  31.461  36.395  1.00  0.00     0.173 A 
ATOM     76  C   UNL A   1      39.415  33.391  35.410  1.00  0.00     0.173 A 
ATOM     77  F   UNL A   1      38.062  30.158  36.367  1.00  0.00    -0.203 F 
ATOM     78  C   UNL A   1      37.938  32.241  37.460  1.00  0.00     0.198 A 
ATOM     79  C   UNL A   1      38.992  34.165  36.489  1.00  0.00     0.198 A 
ATOM     80  F   UNL A   1      40.126  33.972  34.433  1.00  0.00    -0.203 F 
ATOM     81  F   UNL A   1      37.201  31.687  38.433  1.00  0.00    -0.200 F 
ATOM     82  C   UNL A   1      38.249  33.591  37.510  1.00  0.00     0.200 A 
ATOM     83  F   UNL A   1      39.306  35.467  36.540  1.00  0.00    -0.200 F 
ATOM     84  F   UNL A   1      37.830  34.340  38.539  1.00  0.00    -0.200 F 
ENDBRANCH  50  74
BRANCH  62  85
ATOM     85  C   UNL A   1      44.815  28.139  34.310  1.00  0.00     0.064 A 
ATOM     86  C   UNL A   1      45.935  28.981  34.271  1.00  0.00     0.173 A 
ATOM     87  C   UNL A   1      44.837  27.053  35.198  1.00  0.00     0.173 A 
ATOM     88  F   UNL A   1      45.968  30.023  33.427  1.00  0.00    -0.203 F 
ATOM     89  C   UNL A   1      47.046  28.730  35.073  1.00  0.00     0.198 A 
ATOM     90  C   UNL A   1      45.938  26.822  36.019  1.00  0.00     0.198 A 
ATOM     91  F   UNL A   1      43.788  26.222  35.276  1.00  0.00    -0.203 F 
ATOM     92  F   UNL A   1      48.124  29.522  34.988  1.00  0.00    -0.200 F 
ATOM     93  C   UNL A   1      47.043  27.657  35.951  1.00  0.00     0.200 A 
ATOM     94  F   UNL A   1      45.929  25.791  36.875  1.00  0.00    -0.200 F 
ATOM     95  F   UNL A   1      48.110  27.422  36.728  1.00  0.00    -0.200 F 
ENDBRANCH  62  85
ENDBRANCH  36  37
ENDBRANCH  28  31
ENDBRANCH  26  27
ENDBRANCH   1  26
TORSDOF 12
ENDMDL
