MODEL 1
REMARK VINA RESULT:     -11.4      0.000      0.000
REMARK SMILES CC[C@H](C)[C@@H](NC(=O)c1csc(NC(C)=O)n1)C(=O)NCCCNC(=O)c1ccc(-c2c3nc(c(-c4c(F)c(F)c(F)c(F)c4F)c4ccc([nH]4)c(-c4c(F)c(F)c(F)c(F)c4F)c4nc(c(-c5c(F)c(F)c(F)c(F)c5F)c5ccc2[nH]5)C=C4)C=C3)cc1
REMARK SMILES IDX 21 1 20 2 18 3 19 4 5 6 3 7 4 8 2 9 1 10 6 11 7 12 8 14 9 15
REMARK SMILES IDX 10 16 17 17 11 18 12 19 13 20 14 21 15 23 16 24 22 25 23 26
REMARK SMILES IDX 24 27 25 28 26 30 27 31 28 32 89 33 29 34 88 35 30 36 31 37
REMARK SMILES IDX 32 38 82 39 33 40 87 41 81 42 83 43 34 44 86 45 80 46 79 47
REMARK SMILES IDX 35 49 67 50 47 51 66 52 48 53 51 54 65 55 84 56 49 57 50 58
REMARK SMILES IDX 64 60 85 61 52 62 36 63 37 64 45 65 38 66 39 67 43 68 46 69
REMARK SMILES IDX 40 70 41 71 44 72 42 73 68 74 69 75 77 76 70 77 71 78 75 79
REMARK SMILES IDX 78 80 72 81 73 82 76 83 74 84 53 85 54 86 62 87 55 88 56 89
REMARK SMILES IDX 60 90 63 91 57 92 58 93 61 94 59 95
REMARK H PARENT 20 5 6 13 13 22 24 29 83 48 51 59
REMARK Flexibility Score: inf
ROOT
ATOM      1  C   UNL A   1      34.525  24.681  24.664  1.00  0.00     0.117 C 
ENDROOT
BRANCH   1   2
ATOM      2  N   UNL A   1      33.502  24.303  23.706  1.00  0.00    -0.354 N 
ATOM      3  C   UNL A   1      32.163  24.561  23.713  1.00  0.00     0.242 C 
ATOM      4  O   UNL A   1      31.474  24.042  22.827  1.00  0.00    -0.273 OA
ATOM      5  H   UNL A   1      33.824  23.782  22.936  1.00  0.00     0.163 HD
BRANCH   3   6
ATOM      6  C   UNL A   1      31.522  25.334  24.883  1.00  0.00     0.174 C 
BRANCH   6   7
ATOM      7  C   UNL A   1      30.752  26.568  24.265  1.00  0.00     0.018 C 
ATOM      8  C   UNL A   1      29.227  26.382  24.216  1.00  0.00     0.010 C 
BRANCH   7   9
ATOM      9  C   UNL A   1      31.089  27.913  24.963  1.00  0.00     0.002 C 
ATOM     10  C   UNL A   1      30.884  29.125  24.060  1.00  0.00     0.004 C 
ENDBRANCH   7   9
ENDBRANCH   6   7
BRANCH   6  11
ATOM     11  N   UNL A   1      30.606  24.512  25.717  1.00  0.00    -0.339 N 
ATOM     12  C   UNL A   1      30.803  23.476  26.607  1.00  0.00     0.271 C 
ATOM     13  H   UNL A   1      29.659  24.759  25.613  1.00  0.00     0.164 HD
ATOM     14  O   UNL A   1      29.832  23.131  27.282  1.00  0.00    -0.267 OA
BRANCH  12  15
ATOM     15  C   UNL A   1      32.037  22.690  26.600  1.00  0.00     0.141 A 
ATOM     16  C   UNL A   1      32.935  22.722  27.657  1.00  0.00     0.102 A 
ATOM     17  N   UNL A   1      32.395  21.809  25.587  1.00  0.00    -0.215 NA
ATOM     18  S   UNL A   1      34.123  21.507  27.458  1.00  0.00    -0.104 S 
ATOM     19  C   UNL A   1      33.411  21.071  25.976  1.00  0.00     0.190 A 
BRANCH  19  20
ATOM     20  N   UNL A   1      33.846  20.013  25.220  1.00  0.00    -0.302 N 
ATOM     21  C   UNL A   1      33.248  18.780  25.103  1.00  0.00     0.223 C 
ATOM     22  H   UNL A   1      34.675  20.149  24.706  1.00  0.00     0.172 HD
ATOM     23  C   UNL A   1      34.044  17.817  24.256  1.00  0.00     0.114 C 
ATOM     24  O   UNL A   1      32.181  18.424  25.593  1.00  0.00    -0.275 OA
ENDBRANCH  19  20
ENDBRANCH  12  15
ENDBRANCH   6  11
ENDBRANCH   3   6
ENDBRANCH   1   2
BRANCH   1  25
ATOM     25  C   UNL A   1      35.664  23.684  24.658  1.00  0.00     0.042 C 
BRANCH  25  26
ATOM     26  C   UNL A   1      36.606  23.887  25.830  1.00  0.00     0.118 C 
BRANCH  26  27
ATOM     27  N   UNL A   1      37.605  22.831  25.933  1.00  0.00    -0.352 N 
ATOM     28  C   UNL A   1      38.916  22.932  26.316  1.00  0.00     0.251 C 
ATOM     29  H   UNL A   1      37.297  21.926  25.697  1.00  0.00     0.163 HD
ATOM     30  O   UNL A   1      39.689  21.994  26.156  1.00  0.00    -0.269 OA
BRANCH  28  31
ATOM     31  C   UNL A   1      39.386  24.197  26.906  1.00  0.00     0.039 A 
ATOM     32  C   UNL A   1      40.021  25.133  26.091  1.00  0.00     0.014 A 
ATOM     33  C   UNL A   1      39.168  24.462  28.262  1.00  0.00     0.014 A 
ATOM     34  C   UNL A   1      40.408  26.355  26.635  1.00  0.00     0.010 A 
ATOM     35  C   UNL A   1      39.444  25.720  28.769  1.00  0.00     0.010 A 
ATOM     36  C   UNL A   1      40.103  26.664  27.972  1.00  0.00    -0.014 A 
BRANCH  36  37
ATOM     37  C   UNL A   1      40.531  27.944  28.578  1.00  0.00     0.031 A 
ATOM     38  C   UNL A   1      41.973  28.137  28.960  1.00  0.00     0.074 A 
ATOM     39  C   UNL A   1      39.624  28.907  28.821  1.00  0.00     0.049 A 
ATOM     40  N   UNL A   1      42.550  29.162  29.531  1.00  0.00    -0.248 NA
ATOM     41  C   UNL A   1      42.883  27.007  28.702  1.00  0.00     0.031 C 
ATOM     42  C   UNL A   1      38.187  28.803  28.558  1.00  0.00     0.029 A 
ATOM     43  N   UNL A   1      39.776  30.162  29.350  1.00  0.00    -0.354 N 
ATOM     44  C   UNL A   1      43.877  28.794  29.709  1.00  0.00     0.074 A 
ATOM     45  C   UNL A   1      44.004  27.425  29.267  1.00  0.00     0.031 C 
ATOM     46  C   UNL A   1      37.595  29.960  28.894  1.00  0.00     0.029 A 
ATOM     47  C   UNL A   1      38.603  30.873  29.424  1.00  0.00     0.049 A 
ATOM     48  H   UNL A   1      40.644  30.521  29.646  1.00  0.00     0.167 HD
ATOM     49  C   UNL A   1      44.910  29.545  30.161  1.00  0.00     0.037 A 
ATOM     50  C   UNL A   1      38.376  32.123  29.866  1.00  0.00     0.037 A 
ATOM     51  C   UNL A   1      44.779  30.917  30.571  1.00  0.00     0.049 A 
ATOM     52  C   UNL A   1      39.542  32.949  30.337  1.00  0.00     0.074 A 
ATOM     53  C   UNL A   1      45.761  31.787  31.006  1.00  0.00     0.029 A 
ATOM     54  N   UNL A   1      43.581  31.619  30.590  1.00  0.00    -0.354 N 
ATOM     55  N   UNL A   1      40.807  32.617  30.437  1.00  0.00    -0.248 NA
ATOM     56  C   UNL A   1      39.252  34.332  30.737  1.00  0.00     0.031 C 
ATOM     57  C   UNL A   1      45.153  33.005  31.327  1.00  0.00     0.029 A 
ATOM     58  C   UNL A   1      43.799  32.912  31.039  1.00  0.00     0.049 A 
ATOM     59  H   UNL A   1      42.707  31.253  30.325  1.00  0.00     0.167 HD
ATOM     60  C   UNL A   1      41.468  33.754  30.882  1.00  0.00     0.074 A 
ATOM     61  C   UNL A   1      40.464  34.791  31.015  1.00  0.00     0.031 C 
ATOM     62  C   UNL A   1      42.785  33.928  31.155  1.00  0.00     0.037 A 
BRANCH  49  63
ATOM     63  C   UNL A   1      46.261  28.893  30.216  1.00  0.00     0.064 A 
ATOM     64  C   UNL A   1      46.711  28.227  31.368  1.00  0.00     0.173 A 
ATOM     65  C   UNL A   1      47.119  28.931  29.107  1.00  0.00     0.173 A 
ATOM     66  F   UNL A   1      45.937  28.175  32.463  1.00  0.00    -0.203 F 
ATOM     67  C   UNL A   1      47.982  27.662  31.422  1.00  0.00     0.198 A 
ATOM     68  C   UNL A   1      48.377  28.332  29.152  1.00  0.00     0.198 A 
ATOM     69  F   UNL A   1      46.741  29.551  27.978  1.00  0.00    -0.203 F 
ATOM     70  F   UNL A   1      48.412  27.092  32.556  1.00  0.00    -0.200 F 
ATOM     71  C   UNL A   1      48.810  27.709  30.312  1.00  0.00     0.200 A 
ATOM     72  F   UNL A   1      49.172  28.367  28.074  1.00  0.00    -0.200 F 
ATOM     73  F   UNL A   1      50.034  27.162  30.363  1.00  0.00    -0.200 F 
ENDBRANCH  49  63
BRANCH  50  74
ATOM     74  C   UNL A   1      36.998  32.677  29.838  1.00  0.00     0.064 A 
ATOM     75  C   UNL A   1      36.149  32.557  30.947  1.00  0.00     0.173 A 
ATOM     76  C   UNL A   1      36.505  33.346  28.707  1.00  0.00     0.173 A 
ATOM     77  F   UNL A   1      36.568  31.914  32.046  1.00  0.00    -0.203 F 
ATOM     78  C   UNL A   1      34.851  33.063  30.918  1.00  0.00     0.198 A 
ATOM     79  C   UNL A   1      35.217  33.878  28.691  1.00  0.00     0.198 A 
ATOM     80  F   UNL A   1      37.282  33.497  27.625  1.00  0.00    -0.203 F 
ATOM     81  F   UNL A   1      34.045  32.896  31.975  1.00  0.00    -0.200 F 
ATOM     82  C   UNL A   1      34.389  33.729  29.793  1.00  0.00     0.200 A 
ATOM     83  F   UNL A   1      34.782  34.536  27.608  1.00  0.00    -0.200 F 
ATOM     84  F   UNL A   1      33.143  34.222  29.768  1.00  0.00    -0.200 F 
ENDBRANCH  50  74
BRANCH  62  85
ATOM     85  C   UNL A   1      43.220  35.300  31.581  1.00  0.00     0.064 A 
ATOM     86  C   UNL A   1      43.204  35.695  32.927  1.00  0.00     0.173 A 
ATOM     87  C   UNL A   1      43.690  36.218  30.631  1.00  0.00     0.173 A 
ATOM     88  F   UNL A   1      42.753  34.857  33.872  1.00  0.00    -0.203 F 
ATOM     89  C   UNL A   1      43.608  36.974  33.300  1.00  0.00     0.198 A 
ATOM     90  C   UNL A   1      44.125  37.484  31.012  1.00  0.00     0.198 A 
ATOM     91  F   UNL A   1      43.735  35.885  29.332  1.00  0.00    -0.203 F 
ATOM     92  F   UNL A   1      43.530  37.351  34.584  1.00  0.00    -0.200 F 
ATOM     93  C   UNL A   1      44.074  37.865  32.344  1.00  0.00     0.200 A 
ATOM     94  F   UNL A   1      44.590  38.337  30.089  1.00  0.00    -0.200 F 
ATOM     95  F   UNL A   1      44.466  39.093  32.705  1.00  0.00    -0.200 F 
ENDBRANCH  62  85
ENDBRANCH  36  37
ENDBRANCH  28  31
ENDBRANCH  26  27
ENDBRANCH  25  26
ENDBRANCH   1  25
TORSDOF 15
ENDMDL
MODEL 2
REMARK VINA RESULT:     -11.3      3.545      8.776
REMARK SMILES CC[C@H](C)[C@@H](NC(=O)c1csc(NC(C)=O)n1)C(=O)NCCCNC(=O)c1ccc(-c2c3nc(c(-c4c(F)c(F)c(F)c(F)c4F)c4ccc([nH]4)c(-c4c(F)c(F)c(F)c(F)c4F)c4nc(c(-c5c(F)c(F)c(F)c(F)c5F)c5ccc2[nH]5)C=C4)C=C3)cc1
REMARK SMILES IDX 21 1 20 2 18 3 19 4 5 6 3 7 4 8 2 9 1 10 6 11 7 12 8 14 9 15
REMARK SMILES IDX 10 16 17 17 11 18 12 19 13 20 14 21 15 23 16 24 22 25 23 26
REMARK SMILES IDX 24 27 25 28 26 30 27 31 28 32 89 33 29 34 88 35 30 36 31 37
REMARK SMILES IDX 32 38 82 39 33 40 87 41 81 42 83 43 34 44 86 45 80 46 79 47
REMARK SMILES IDX 35 49 67 50 47 51 66 52 48 53 51 54 65 55 84 56 49 57 50 58
REMARK SMILES IDX 64 60 85 61 52 62 36 63 37 64 45 65 38 66 39 67 43 68 46 69
REMARK SMILES IDX 40 70 41 71 44 72 42 73 68 74 69 75 77 76 70 77 71 78 75 79
REMARK SMILES IDX 78 80 72 81 73 82 76 83 74 84 53 85 54 86 62 87 55 88 56 89
REMARK SMILES IDX 60 90 63 91 57 92 58 93 61 94 59 95
REMARK H PARENT 20 5 6 13 13 22 24 29 83 48 51 59
REMARK Flexibility Score: inf
ROOT
ATOM      1  C   UNL A   1      33.053  26.002  25.783  1.00  0.00     0.117 C 
ENDROOT
BRANCH   1   2
ATOM      2  N   UNL A   1      31.802  25.387  25.377  1.00  0.00    -0.354 N 
ATOM      3  C   UNL A   1      31.566  24.436  24.429  1.00  0.00     0.242 C 
ATOM      4  O   UNL A   1      30.388  24.141  24.195  1.00  0.00    -0.273 OA
ATOM      5  H   UNL A   1      31.006  25.704  25.860  1.00  0.00     0.163 HD
BRANCH   3   6
ATOM      6  C   UNL A   1      32.721  23.882  23.572  1.00  0.00     0.174 C 
BRANCH   6   7
ATOM      7  C   UNL A   1      32.694  22.308  23.709  1.00  0.00     0.018 C 
ATOM      8  C   UNL A   1      32.283  21.583  22.417  1.00  0.00     0.010 C 
BRANCH   7   9
ATOM      9  C   UNL A   1      34.029  21.715  24.235  1.00  0.00     0.002 C 
ATOM     10  C   UNL A   1      35.236  22.598  23.938  1.00  0.00     0.004 C 
ENDBRANCH   7   9
ENDBRANCH   6   7
BRANCH   6  11
ATOM     11  N   UNL A   1      32.656  24.283  22.142  1.00  0.00    -0.339 N 
ATOM     12  C   UNL A   1      32.850  25.477  21.480  1.00  0.00     0.271 C 
ATOM     13  H   UNL A   1      32.427  23.538  21.540  1.00  0.00     0.164 HD
ATOM     14  O   UNL A   1      32.902  25.429  20.250  1.00  0.00    -0.267 OA
BRANCH  12  15
ATOM     15  C   UNL A   1      32.784  26.758  22.185  1.00  0.00     0.141 A 
ATOM     16  C   UNL A   1      33.899  27.567  22.345  1.00  0.00     0.102 A 
ATOM     17  N   UNL A   1      31.615  27.308  22.698  1.00  0.00    -0.215 NA
ATOM     18  S   UNL A   1      33.438  29.091  22.970  1.00  0.00    -0.104 S 
ATOM     19  C   UNL A   1      31.823  28.560  23.041  1.00  0.00     0.190 A 
BRANCH  19  20
ATOM     20  N   UNL A   1      30.785  29.371  23.419  1.00  0.00    -0.302 N 
ATOM     21  C   UNL A   1      29.820  29.914  22.603  1.00  0.00     0.223 C 
ATOM     22  H   UNL A   1      30.722  29.588  24.377  1.00  0.00     0.172 HD
ATOM     23  C   UNL A   1      28.876  30.834  23.338  1.00  0.00     0.114 C 
ATOM     24  O   UNL A   1      29.668  29.716  21.402  1.00  0.00    -0.275 OA
ENDBRANCH  19  20
ENDBRANCH  12  15
ENDBRANCH   6  11
ENDBRANCH   3   6
ENDBRANCH   1   2
BRANCH   1  25
ATOM     25  C   UNL A   1      32.799  27.269  26.572  1.00  0.00     0.042 C 
BRANCH  25  26
ATOM     26  C   UNL A   1      34.008  28.186  26.582  1.00  0.00     0.118 C 
BRANCH  26  27
ATOM     27  N   UNL A   1      33.657  29.569  26.878  1.00  0.00    -0.352 N 
ATOM     28  C   UNL A   1      34.331  30.472  27.658  1.00  0.00     0.251 C 
ATOM     29  H   UNL A   1      32.828  29.898  26.463  1.00  0.00     0.163 HD
ATOM     30  O   UNL A   1      33.808  31.533  27.980  1.00  0.00    -0.269 OA
BRANCH  28  31
ATOM     31  C   UNL A   1      35.689  30.136  28.117  1.00  0.00     0.039 A 
ATOM     32  C   UNL A   1      35.867  29.637  29.407  1.00  0.00     0.014 A 
ATOM     33  C   UNL A   1      36.779  30.289  27.255  1.00  0.00     0.014 A 
ATOM     34  C   UNL A   1      37.142  29.259  29.819  1.00  0.00     0.010 A 
ATOM     35  C   UNL A   1      38.022  29.802  27.624  1.00  0.00     0.010 A 
ATOM     36  C   UNL A   1      38.223  29.319  28.924  1.00  0.00    -0.014 A 
BRANCH  36  37
ATOM     37  C   UNL A   1      39.592  28.952  29.350  1.00  0.00     0.031 A 
ATOM     38  C   UNL A   1      40.344  29.859  30.285  1.00  0.00     0.074 A 
ATOM     39  C   UNL A   1      40.166  27.835  28.868  1.00  0.00     0.049 A 
ATOM     40  N   UNL A   1      41.560  29.742  30.754  1.00  0.00    -0.248 NA
ATOM     41  C   UNL A   1      39.653  31.084  30.719  1.00  0.00     0.031 C 
ATOM     42  C   UNL A   1      39.557  26.919  27.902  1.00  0.00     0.029 A 
ATOM     43  N   UNL A   1      41.395  27.284  29.122  1.00  0.00    -0.354 N 
ATOM     44  C   UNL A   1      41.776  30.878  31.522  1.00  0.00     0.074 A 
ATOM     45  C   UNL A   1      40.605  31.713  31.388  1.00  0.00     0.031 C 
ATOM     46  C   UNL A   1      40.401  25.901  27.671  1.00  0.00     0.029 A 
ATOM     47  C   UNL A   1      41.619  26.109  28.448  1.00  0.00     0.049 A 
ATOM     48  H   UNL A   1      42.053  27.691  29.732  1.00  0.00     0.167 HD
ATOM     49  C   UNL A   1      42.839  31.180  32.304  1.00  0.00     0.037 A 
ATOM     50  C   UNL A   1      42.690  25.294  28.465  1.00  0.00     0.037 A 
ATOM     51  C   UNL A   1      43.988  30.329  32.453  1.00  0.00     0.049 A 
ATOM     52  C   UNL A   1      43.848  25.634  29.363  1.00  0.00     0.074 A 
ATOM     53  C   UNL A   1      45.103  30.512  33.249  1.00  0.00     0.029 A 
ATOM     54  N   UNL A   1      44.162  29.122  31.788  1.00  0.00    -0.354 N 
ATOM     55  N   UNL A   1      44.016  26.677  30.140  1.00  0.00    -0.248 NA
ATOM     56  C   UNL A   1      44.957  24.673  29.401  1.00  0.00     0.031 C 
ATOM     57  C   UNL A   1      45.972  29.436  33.036  1.00  0.00     0.029 A 
ATOM     58  C   UNL A   1      45.372  28.554  32.150  1.00  0.00     0.049 A 
ATOM     59  H   UNL A   1      43.520  28.729  31.154  1.00  0.00     0.167 HD
ATOM     60  C   UNL A   1      45.231  26.485  30.782  1.00  0.00     0.074 A 
ATOM     61  C   UNL A   1      45.750  25.215  30.315  1.00  0.00     0.031 C 
ATOM     62  C   UNL A   1      45.863  27.285  31.677  1.00  0.00     0.037 A 
BRANCH  49  63
ATOM     63  C   UNL A   1      42.790  32.477  33.060  1.00  0.00     0.064 A 
ATOM     64  C   UNL A   1      42.240  32.557  34.350  1.00  0.00     0.173 A 
ATOM     65  C   UNL A   1      43.297  33.655  32.493  1.00  0.00     0.173 A 
ATOM     66  F   UNL A   1      41.726  31.463  34.934  1.00  0.00    -0.203 F 
ATOM     67  C   UNL A   1      42.163  33.772  35.025  1.00  0.00     0.198 A 
ATOM     68  C   UNL A   1      43.250  34.863  33.186  1.00  0.00     0.198 A 
ATOM     69  F   UNL A   1      43.836  33.638  31.264  1.00  0.00    -0.203 F 
ATOM     70  F   UNL A   1      41.572  33.832  36.227  1.00  0.00    -0.200 F 
ATOM     71  C   UNL A   1      42.674  34.922  34.445  1.00  0.00     0.200 A 
ATOM     72  F   UNL A   1      43.757  35.972  32.629  1.00  0.00    -0.200 F 
ATOM     73  F   UNL A   1      42.601  36.092  35.096  1.00  0.00    -0.200 F 
ENDBRANCH  49  63
BRANCH  50  74
ATOM     74  C   UNL A   1      42.689  24.059  27.639  1.00  0.00     0.064 A 
ATOM     75  C   UNL A   1      42.349  22.818  28.197  1.00  0.00     0.173 A 
ATOM     76  C   UNL A   1      43.018  24.093  26.276  1.00  0.00     0.173 A 
ATOM     77  F   UNL A   1      42.041  22.730  29.499  1.00  0.00    -0.203 F 
ATOM     78  C   UNL A   1      42.360  21.655  27.429  1.00  0.00     0.198 A 
ATOM     79  C   UNL A   1      42.999  22.934  25.502  1.00  0.00     0.198 A 
ATOM     80  F   UNL A   1      43.339  25.257  25.692  1.00  0.00    -0.203 F 
ATOM     81  F   UNL A   1      42.074  20.476  27.996  1.00  0.00    -0.200 F 
ATOM     82  C   UNL A   1      42.679  21.716  26.081  1.00  0.00     0.200 A 
ATOM     83  F   UNL A   1      43.291  23.001  24.196  1.00  0.00    -0.200 F 
ATOM     84  F   UNL A   1      42.683  20.599  25.340  1.00  0.00    -0.200 F 
ENDBRANCH  50  74
BRANCH  62  85
ATOM     85  C   UNL A   1      47.161  26.787  32.242  1.00  0.00     0.064 A 
ATOM     86  C   UNL A   1      47.207  25.973  33.384  1.00  0.00     0.173 A 
ATOM     87  C   UNL A   1      48.373  27.105  31.611  1.00  0.00     0.173 A 
ATOM     88  F   UNL A   1      46.077  25.652  34.029  1.00  0.00    -0.203 F 
ATOM     89  C   UNL A   1      48.424  25.528  33.894  1.00  0.00     0.198 A 
ATOM     90  C   UNL A   1      49.584  26.628  32.104  1.00  0.00     0.198 A 
ATOM     91  F   UNL A   1      48.383  27.871  30.510  1.00  0.00    -0.203 F 
ATOM     92  F   UNL A   1      48.448  24.799  35.019  1.00  0.00    -0.200 F 
ATOM     93  C   UNL A   1      49.610  25.849  33.250  1.00  0.00     0.200 A 
ATOM     94  F   UNL A   1      50.728  26.927  31.472  1.00  0.00    -0.200 F 
ATOM     95  F   UNL A   1      50.778  25.415  33.740  1.00  0.00    -0.200 F 
ENDBRANCH  62  85
ENDBRANCH  36  37
ENDBRANCH  28  31
ENDBRANCH  26  27
ENDBRANCH  25  26
ENDBRANCH   1  25
TORSDOF 15
ENDMDL
MODEL 3
REMARK VINA RESULT:     -11.3      4.086      8.730
REMARK SMILES CC[C@H](C)[C@@H](NC(=O)c1csc(NC(C)=O)n1)C(=O)NCCCNC(=O)c1ccc(-c2c3nc(c(-c4c(F)c(F)c(F)c(F)c4F)c4ccc([nH]4)c(-c4c(F)c(F)c(F)c(F)c4F)c4nc(c(-c5c(F)c(F)c(F)c(F)c5F)c5ccc2[nH]5)C=C4)C=C3)cc1
REMARK SMILES IDX 21 1 20 2 18 3 19 4 5 6 3 7 4 8 2 9 1 10 6 11 7 12 8 14 9 15
REMARK SMILES IDX 10 16 17 17 11 18 12 19 13 20 14 21 15 23 16 24 22 25 23 26
REMARK SMILES IDX 24 27 25 28 26 30 27 31 28 32 89 33 29 34 88 35 30 36 31 37
REMARK SMILES IDX 32 38 82 39 33 40 87 41 81 42 83 43 34 44 86 45 80 46 79 47
REMARK SMILES IDX 35 49 67 50 47 51 66 52 48 53 51 54 65 55 84 56 49 57 50 58
REMARK SMILES IDX 64 60 85 61 52 62 36 63 37 64 45 65 38 66 39 67 43 68 46 69
REMARK SMILES IDX 40 70 41 71 44 72 42 73 68 74 69 75 77 76 70 77 71 78 75 79
REMARK SMILES IDX 78 80 72 81 73 82 76 83 74 84 53 85 54 86 62 87 55 88 56 89
REMARK SMILES IDX 60 90 63 91 57 92 58 93 61 94 59 95
REMARK H PARENT 20 5 6 13 13 22 24 29 83 48 51 59
REMARK Flexibility Score: inf
ROOT
ATOM      1  C   UNL A   1      31.887  29.690  25.752  1.00  0.00     0.117 C 
ENDROOT
BRANCH   1   2
ATOM      2  N   UNL A   1      32.869  29.731  24.684  1.00  0.00    -0.354 N 
ATOM      3  C   UNL A   1      32.912  29.037  23.512  1.00  0.00     0.242 C 
ATOM      4  O   UNL A   1      33.915  29.173  22.801  1.00  0.00    -0.273 OA
ATOM      5  H   UNL A   1      33.616  30.355  24.829  1.00  0.00     0.163 HD
BRANCH   3   6
ATOM      6  C   UNL A   1      31.824  27.997  23.179  1.00  0.00     0.174 C 
BRANCH   6   7
ATOM      7  C   UNL A   1      30.442  28.763  23.132  1.00  0.00     0.018 C 
ATOM      8  C   UNL A   1      30.329  29.762  21.970  1.00  0.00     0.010 C 
BRANCH   7   9
ATOM      9  C   UNL A   1      29.215  27.813  23.121  1.00  0.00     0.002 C 
ATOM     10  C   UNL A   1      29.236  26.792  24.254  1.00  0.00     0.004 C 
ENDBRANCH   7   9
ENDBRANCH   6   7
BRANCH   6  11
ATOM     11  N   UNL A   1      32.059  27.267  21.905  1.00  0.00    -0.339 N 
ATOM     12  C   UNL A   1      32.044  25.932  21.559  1.00  0.00     0.271 C 
ATOM     13  H   UNL A   1      32.268  27.862  21.149  1.00  0.00     0.164 HD
ATOM     14  O   UNL A   1      32.100  25.669  20.357  1.00  0.00    -0.267 OA
BRANCH  12  15
ATOM     15  C   UNL A   1      32.170  24.881  22.570  1.00  0.00     0.141 A 
ATOM     16  C   UNL A   1      33.404  24.382  22.960  1.00  0.00     0.102 A 
ATOM     17  N   UNL A   1      31.099  24.336  23.266  1.00  0.00    -0.215 NA
ATOM     18  S   UNL A   1      33.224  23.370  24.328  1.00  0.00    -0.104 S 
ATOM     19  C   UNL A   1      31.541  23.612  24.271  1.00  0.00     0.190 A 
BRANCH  19  20
ATOM     20  N   UNL A   1      30.680  23.102  25.208  1.00  0.00    -0.302 N 
ATOM     21  C   UNL A   1      30.452  23.591  26.473  1.00  0.00     0.223 C 
ATOM     22  H   UNL A   1      30.170  22.301  24.948  1.00  0.00     0.172 HD
ATOM     23  C   UNL A   1      29.504  22.733  27.274  1.00  0.00     0.114 C 
ATOM     24  O   UNL A   1      30.920  24.611  26.969  1.00  0.00    -0.275 OA
ENDBRANCH  19  20
ENDBRANCH  12  15
ENDBRANCH   6  11
ENDBRANCH   3   6
ENDBRANCH   1   2
BRANCH   1  25
ATOM     25  C   UNL A   1      31.614  31.079  26.288  1.00  0.00     0.042 C 
BRANCH  25  26
ATOM     26  C   UNL A   1      32.791  31.631  27.070  1.00  0.00     0.118 C 
BRANCH  26  27
ATOM     27  N   UNL A   1      32.690  33.068  27.292  1.00  0.00    -0.352 N 
ATOM     28  C   UNL A   1      33.411  33.850  28.155  1.00  0.00     0.251 C 
ATOM     29  H   UNL A   1      32.015  33.537  26.751  1.00  0.00     0.163 HD
ATOM     30  O   UNL A   1      33.074  35.006  28.381  1.00  0.00    -0.269 OA
BRANCH  28  31
ATOM     31  C   UNL A   1      34.590  33.269  28.820  1.00  0.00     0.039 A 
ATOM     32  C   UNL A   1      34.407  32.444  29.929  1.00  0.00     0.014 A 
ATOM     33  C   UNL A   1      35.872  33.523  28.323  1.00  0.00     0.014 A 
ATOM     34  C   UNL A   1      35.516  31.843  30.518  1.00  0.00     0.010 A 
ATOM     35  C   UNL A   1      36.957  32.831  28.835  1.00  0.00     0.010 A 
ATOM     36  C   UNL A   1      36.795  32.017  29.963  1.00  0.00    -0.014 A 
BRANCH  36  37
ATOM     37  C   UNL A   1      37.991  31.413  30.592  1.00  0.00     0.031 A 
ATOM     38  C   UNL A   1      38.393  31.838  31.977  1.00  0.00     0.074 A 
ATOM     39  C   UNL A   1      38.731  30.524  29.906  1.00  0.00     0.049 A 
ATOM     40  N   UNL A   1      39.419  31.461  32.695  1.00  0.00    -0.248 NA
ATOM     41  C   UNL A   1      37.551  32.855  32.629  1.00  0.00     0.031 C 
ATOM     42  C   UNL A   1      38.476  30.091  28.530  1.00  0.00     0.029 A 
ATOM     43  N   UNL A   1      39.852  29.826  30.272  1.00  0.00    -0.354 N 
ATOM     44  C   UNL A   1      39.349  32.201  33.867  1.00  0.00     0.074 A 
ATOM     45  C   UNL A   1      38.233  33.110  33.733  1.00  0.00     0.031 C 
ATOM     46  C   UNL A   1      39.395  29.176  28.181  1.00  0.00     0.029 A 
ATOM     47  C   UNL A   1      40.318  28.982  29.295  1.00  0.00     0.049 A 
ATOM     48  H   UNL A   1      40.282  29.921  31.154  1.00  0.00     0.167 HD
ATOM     49  C   UNL A   1      40.118  32.103  34.977  1.00  0.00     0.037 A 
ATOM     50  C   UNL A   1      41.371  28.143  29.306  1.00  0.00     0.037 A 
ATOM     51  C   UNL A   1      41.208  31.176  35.114  1.00  0.00     0.049 A 
ATOM     52  C   UNL A   1      42.195  28.030  30.559  1.00  0.00     0.074 A 
ATOM     53  C   UNL A   1      42.029  30.959  36.204  1.00  0.00     0.029 A 
ATOM     54  N   UNL A   1      41.624  30.302  34.117  1.00  0.00    -0.354 N 
ATOM     55  N   UNL A   1      42.080  28.684  31.690  1.00  0.00    -0.248 NA
ATOM     56  C   UNL A   1      43.285  27.045  30.545  1.00  0.00     0.031 C 
ATOM     57  C   UNL A   1      42.968  29.982  35.855  1.00  0.00     0.029 A 
ATOM     58  C   UNL A   1      42.697  29.550  34.566  1.00  0.00     0.049 A 
ATOM     59  H   UNL A   1      41.216  30.229  33.224  1.00  0.00     0.167 HD
ATOM     60  C   UNL A   1      43.058  28.172  32.531  1.00  0.00     0.074 A 
ATOM     61  C   UNL A   1      43.747  27.139  31.783  1.00  0.00     0.031 C 
ATOM     62  C   UNL A   1      43.361  28.522  33.805  1.00  0.00     0.037 A 
BRANCH  49  63
ATOM     63  C   UNL A   1      39.790  33.016  36.124  1.00  0.00     0.064 A 
ATOM     64  C   UNL A   1      38.831  32.670  37.090  1.00  0.00     0.173 A 
ATOM     65  C   UNL A   1      40.441  34.251  36.264  1.00  0.00     0.173 A 
ATOM     66  F   UNL A   1      38.167  31.507  36.995  1.00  0.00    -0.203 F 
ATOM     67  C   UNL A   1      38.506  33.541  38.125  1.00  0.00     0.198 A 
ATOM     68  C   UNL A   1      40.139  35.105  37.323  1.00  0.00     0.198 A 
ATOM     69  F   UNL A   1      41.369  34.633  35.373  1.00  0.00    -0.203 F 
ATOM     70  F   UNL A   1      37.538  33.215  38.994  1.00  0.00    -0.200 F 
ATOM     71  C   UNL A   1      39.165  34.754  38.244  1.00  0.00     0.200 A 
ATOM     72  F   UNL A   1      40.786  36.272  37.444  1.00  0.00    -0.200 F 
ATOM     73  F   UNL A   1      38.853  35.593  39.243  1.00  0.00    -0.200 F 
ENDBRANCH  49  63
BRANCH  50  74
ATOM     74  C   UNL A   1      41.668  27.318  28.108  1.00  0.00     0.064 A 
ATOM     75  C   UNL A   1      42.550  27.774  27.117  1.00  0.00     0.173 A 
ATOM     76  C   UNL A   1      41.088  26.053  27.932  1.00  0.00     0.173 A 
ATOM     77  F   UNL A   1      43.119  28.982  27.232  1.00  0.00    -0.203 F 
ATOM     78  C   UNL A   1      42.820  27.008  25.985  1.00  0.00     0.198 A 
ATOM     79  C   UNL A   1      41.383  25.275  26.814  1.00  0.00     0.198 A 
ATOM     80  F   UNL A   1      40.247  25.566  28.856  1.00  0.00    -0.203 F 
ATOM     81  F   UNL A   1      43.632  27.486  25.032  1.00  0.00    -0.200 F 
ATOM     82  C   UNL A   1      42.242  25.756  25.838  1.00  0.00     0.200 A 
ATOM     83  F   UNL A   1      40.835  24.059  26.685  1.00  0.00    -0.200 F 
ATOM     84  F   UNL A   1      42.507  25.016  24.752  1.00  0.00    -0.200 F 
ENDBRANCH  50  74
BRANCH  62  85
ATOM     85  C   UNL A   1      44.455  27.752  34.485  1.00  0.00     0.064 A 
ATOM     86  C   UNL A   1      44.198  26.562  35.183  1.00  0.00     0.173 A 
ATOM     87  C   UNL A   1      45.783  28.195  34.409  1.00  0.00     0.173 A 
ATOM     88  F   UNL A   1      42.942  26.103  35.294  1.00  0.00    -0.203 F 
ATOM     89  C   UNL A   1      45.227  25.866  35.811  1.00  0.00     0.198 A 
ATOM     90  C   UNL A   1      46.814  27.478  35.008  1.00  0.00     0.198 A 
ATOM     91  F   UNL A   1      46.084  29.322  33.745  1.00  0.00    -0.203 F 
ATOM     92  F   UNL A   1      44.950  24.763  36.520  1.00  0.00    -0.200 F 
ATOM     93  C   UNL A   1      46.534  26.320  35.717  1.00  0.00     0.200 A 
ATOM     94  F   UNL A   1      48.079  27.910  34.904  1.00  0.00    -0.200 F 
ATOM     95  F   UNL A   1      47.524  25.646  36.318  1.00  0.00    -0.200 F 
ENDBRANCH  62  85
ENDBRANCH  36  37
ENDBRANCH  28  31
ENDBRANCH  26  27
ENDBRANCH  25  26
ENDBRANCH   1  25
TORSDOF 15
ENDMDL
