MODEL 1
REMARK VINA RESULT:     -12.3      0.000      0.000
REMARK SMILES CC(C)c1ccc(-c2cnc([C@@H]3[NH2+][C@H](C(=O)NCCCNC(=O)c4ccc(-c5c6nc(c(-c7c(F)c(F)c(F)c(F)c7F)c7ccc([nH]7)c(-c7c(F)c(F)c(F)c(F)c7F)c7nc(c(-c8c(F)c(F)c(F)c(F)c8F)c8ccc5[nH]8)C=C7)C=C6)cc4)C(C)(C)S3)s2)cc1
REMARK SMILES IDX 18 1 17 2 15 3 16 4 14 6 12 7 13 8 90 9 87 12 88 13 89 14
REMARK SMILES IDX 11 15 8 16 9 17 91 18 10 19 7 20 4 21 5 22 93 23 6 24 92 25
REMARK SMILES IDX 2 26 1 27 3 28 19 29 20 30 21 31 22 32 23 34 24 35 25 36
REMARK SMILES IDX 86 37 26 38 85 39 27 40 28 41 29 42 79 43 30 44 84 45 78 46
REMARK SMILES IDX 80 47 31 48 83 49 77 50 76 51 32 53 64 54 44 55 63 56 45 57
REMARK SMILES IDX 48 58 62 59 81 60 46 61 47 62 61 64 82 65 49 66 33 67 34 68
REMARK SMILES IDX 42 69 35 70 36 71 40 72 43 73 37 74 38 75 41 76 39 77 65 78
REMARK SMILES IDX 66 79 74 80 67 81 68 82 72 83 75 84 69 85 70 86 73 87 71 88
REMARK SMILES IDX 50 89 51 90 59 91 52 92 53 93 57 94 60 95 54 96 55 97 58 98
REMARK SMILES IDX 56 99
REMARK H PARENT 17 5 13 10 13 11 21 33 80 52 48 63
REMARK Flexibility Score: inf
ROOT
ATOM      1  C   UNL A   1      33.033  28.734  23.295  1.00  0.00     0.118 C 
ENDROOT
BRANCH   1   2
ATOM      2  N   UNL A   1      33.882  27.559  23.352  1.00  0.00    -0.351 N 
ATOM      3  C   UNL A   1      33.549  26.400  24.011  1.00  0.00     0.279 C 
ATOM      4  O   UNL A   1      34.330  26.021  24.878  1.00  0.00    -0.268 OA
ATOM      5  H   UNL A   1      34.751  27.594  22.889  1.00  0.00     0.163 HD
BRANCH   3   6
ATOM      6  C   UNL A   1      32.232  25.691  23.614  1.00  0.00     0.289 C 
ATOM      7  C   UNL A   1      32.743  23.338  23.328  1.00  0.00     0.304 C 
ATOM      8  N   UNL A   1      32.499  24.611  22.611  1.00  0.00    -0.318 N 
ATOM      9  S   UNL A   1      31.871  23.389  24.925  1.00  0.00    -0.079 SA
ATOM     10  H   UNL A   1      31.692  24.508  21.995  1.00  0.00     0.348 HD
ATOM     11  H   UNL A   1      33.318  24.854  22.052  1.00  0.00     0.348 HD
ATOM     12  C   UNL A   1      31.363  25.129  24.759  1.00  0.00     0.078 C 
ATOM     13  C   UNL A   1      29.878  25.129  24.346  1.00  0.00     0.030 C 
ATOM     14  C   UNL A   1      31.495  25.862  26.096  1.00  0.00     0.030 C 
BRANCH   7  15
ATOM     15  C   UNL A   1      34.208  22.977  23.482  1.00  0.00     0.162 A 
ATOM     16  C   UNL A   1      36.358  22.086  24.233  1.00  0.00     0.055 A 
ATOM     17  C   UNL A   1      36.395  22.954  23.160  1.00  0.00     0.132 A 
ATOM     18  S   UNL A   1      34.721  21.871  24.711  1.00  0.00    -0.112 S 
ATOM     19  N   UNL A   1      35.189  23.468  22.757  1.00  0.00    -0.242 NA
BRANCH  16  20
ATOM     20  C   UNL A   1      37.486  21.446  24.914  1.00  0.00    -0.007 A 
ATOM     21  C   UNL A   1      39.792  20.323  26.129  1.00  0.00    -0.045 A 
ATOM     22  C   UNL A   1      38.915  19.530  25.375  1.00  0.00     0.004 A 
ATOM     23  C   UNL A   1      39.491  21.683  26.277  1.00  0.00     0.004 A 
ATOM     24  C   UNL A   1      37.773  20.084  24.779  1.00  0.00     0.010 A 
ATOM     25  C   UNL A   1      38.356  22.236  25.679  1.00  0.00     0.010 A 
BRANCH  21  26
ATOM     26  C   UNL A   1      41.075  19.794  26.749  1.00  0.00     0.013 C 
ATOM     27  C   UNL A   1      42.261  19.701  25.785  1.00  0.00     0.012 C 
ATOM     28  C   UNL A   1      41.453  20.633  27.973  1.00  0.00     0.012 C 
ENDBRANCH  21  26
ENDBRANCH  16  20
ENDBRANCH   7  15
ENDBRANCH   3   6
ENDBRANCH   1   2
BRANCH   1  29
ATOM     29  C   UNL A   1      32.357  29.003  24.644  1.00  0.00     0.042 C 
BRANCH  29  30
ATOM     30  C   UNL A   1      33.307  29.442  25.761  1.00  0.00     0.118 C 
BRANCH  30  31
ATOM     31  N   UNL A   1      33.021  30.783  26.246  1.00  0.00    -0.352 N 
ATOM     32  C   UNL A   1      33.610  31.513  27.244  1.00  0.00     0.251 C 
ATOM     33  H   UNL A   1      32.283  31.241  25.780  1.00  0.00     0.163 HD
ATOM     34  O   UNL A   1      33.096  32.576  27.597  1.00  0.00    -0.269 OA
BRANCH  32  35
ATOM     35  C   UNL A   1      34.837  31.042  27.923  1.00  0.00     0.039 A 
ATOM     36  C   UNL A   1      35.902  31.937  28.066  1.00  0.00     0.014 A 
ATOM     37  C   UNL A   1      34.974  29.724  28.370  1.00  0.00     0.014 A 
ATOM     38  C   UNL A   1      37.076  31.533  28.705  1.00  0.00     0.010 A 
ATOM     39  C   UNL A   1      36.123  29.338  29.061  1.00  0.00     0.010 A 
ATOM     40  C   UNL A   1      37.185  30.238  29.236  1.00  0.00    -0.014 A 
BRANCH  40  41
ATOM     41  C   UNL A   1      38.399  29.820  29.984  1.00  0.00     0.031 A 
ATOM     42  C   UNL A   1      38.650  30.322  31.379  1.00  0.00     0.074 A 
ATOM     43  C   UNL A   1      39.308  29.026  29.384  1.00  0.00     0.049 A 
ATOM     44  N   UNL A   1      39.679  30.112  32.161  1.00  0.00    -0.248 NA
ATOM     45  C   UNL A   1      37.617  31.190  31.964  1.00  0.00     0.031 C 
ATOM     46  C   UNL A   1      39.202  28.503  28.021  1.00  0.00     0.029 A 
ATOM     47  N   UNL A   1      40.503  28.529  29.840  1.00  0.00    -0.354 N 
ATOM     48  C   UNL A   1      39.427  30.833  33.320  1.00  0.00     0.074 A 
ATOM     49  C   UNL A   1      38.165  31.517  33.126  1.00  0.00     0.031 C 
ATOM     50  C   UNL A   1      40.280  27.748  27.757  1.00  0.00     0.029 A 
ATOM     51  C   UNL A   1      41.166  27.758  28.917  1.00  0.00     0.049 A 
ATOM     52  H   UNL A   1      40.852  28.708  30.743  1.00  0.00     0.167 HD
ATOM     53  C   UNL A   1      40.171  30.906  34.450  1.00  0.00     0.037 A 
ATOM     54  C   UNL A   1      42.357  27.135  28.994  1.00  0.00     0.037 A 
ATOM     55  C   UNL A   1      41.411  30.204  34.657  1.00  0.00     0.049 A 
ATOM     56  C   UNL A   1      43.159  27.227  30.263  1.00  0.00     0.074 A 
ATOM     57  C   UNL A   1      42.203  30.167  35.792  1.00  0.00     0.029 A 
ATOM     58  N   UNL A   1      42.040  29.416  33.706  1.00  0.00    -0.354 N 
ATOM     59  N   UNL A   1      42.880  27.861  31.374  1.00  0.00    -0.248 NA
ATOM     60  C   UNL A   1      44.441  26.506  30.289  1.00  0.00     0.031 C 
ATOM     61  C   UNL A   1      43.330  29.385  35.515  1.00  0.00     0.029 A 
ATOM     62  C   UNL A   1      43.220  28.903  34.222  1.00  0.00     0.049 A 
ATOM     63  H   UNL A   1      41.700  29.247  32.798  1.00  0.00     0.167 HD
ATOM     64  C   UNL A   1      43.935  27.601  32.237  1.00  0.00     0.074 A 
ATOM     65  C   UNL A   1      44.855  26.739  31.527  1.00  0.00     0.031 C 
ATOM     66  C   UNL A   1      44.123  28.039  33.506  1.00  0.00     0.037 A 
BRANCH  53  67
ATOM     67  C   UNL A   1      39.660  31.776  35.560  1.00  0.00     0.064 A 
ATOM     68  C   UNL A   1      40.137  33.081  35.749  1.00  0.00     0.173 A 
ATOM     69  C   UNL A   1      38.649  31.315  36.419  1.00  0.00     0.173 A 
ATOM     70  F   UNL A   1      41.109  33.565  34.960  1.00  0.00    -0.203 F 
ATOM     71  C   UNL A   1      39.641  33.885  36.772  1.00  0.00     0.198 A 
ATOM     72  C   UNL A   1      38.137  32.131  37.425  1.00  0.00     0.198 A 
ATOM     73  F   UNL A   1      38.153  30.077  36.276  1.00  0.00    -0.203 F 
ATOM     74  F   UNL A   1      40.140  35.114  36.958  1.00  0.00    -0.200 F 
ATOM     75  C   UNL A   1      38.637  33.412  37.604  1.00  0.00     0.200 A 
ATOM     76  F   UNL A   1      37.159  31.676  38.220  1.00  0.00    -0.200 F 
ATOM     77  F   UNL A   1      38.155  34.190  38.583  1.00  0.00    -0.200 F 
ENDBRANCH  53  67
BRANCH  54  78
ATOM     78  C   UNL A   1      42.854  26.348  27.839  1.00  0.00     0.064 A 
ATOM     79  C   UNL A   1      42.431  25.026  27.636  1.00  0.00     0.173 A 
ATOM     80  C   UNL A   1      43.755  26.896  26.915  1.00  0.00     0.173 A 
ATOM     81  F   UNL A   1      41.587  24.453  28.505  1.00  0.00    -0.203 F 
ATOM     82  C   UNL A   1      42.905  24.277  26.562  1.00  0.00     0.198 A 
ATOM     83  C   UNL A   1      44.209  26.155  25.827  1.00  0.00     0.198 A 
ATOM     84  F   UNL A   1      44.185  28.157  27.064  1.00  0.00    -0.203 F 
ATOM     85  F   UNL A   1      42.516  23.004  26.412  1.00  0.00    -0.200 F 
ATOM     86  C   UNL A   1      43.789  24.843  25.654  1.00  0.00     0.200 A 
ATOM     87  F   UNL A   1      45.053  26.708  24.946  1.00  0.00    -0.200 F 
ATOM     88  F   UNL A   1      44.241  24.125  24.619  1.00  0.00    -0.200 F 
ENDBRANCH  54  78
BRANCH  66  89
ATOM     89  C   UNL A   1      45.355  27.568  34.218  1.00  0.00     0.064 A 
ATOM     90  C   UNL A   1      46.551  28.300  34.180  1.00  0.00     0.173 A 
ATOM     91  C   UNL A   1      45.330  26.388  34.976  1.00  0.00     0.173 A 
ATOM     92  F   UNL A   1      46.628  29.426  33.454  1.00  0.00    -0.203 F 
ATOM     93  C   UNL A   1      47.683  27.856  34.857  1.00  0.00     0.198 A 
ATOM     94  C   UNL A   1      46.457  25.960  35.673  1.00  0.00     0.198 A 
ATOM     95  F   UNL A   1      44.209  25.653  35.048  1.00  0.00    -0.203 F 
ATOM     96  F   UNL A   1      48.827  28.549  34.773  1.00  0.00    -0.200 F 
ATOM     97  C   UNL A   1      47.633  26.691  35.609  1.00  0.00     0.200 A 
ATOM     98  F   UNL A   1      46.405  24.839  36.405  1.00  0.00    -0.200 F 
ATOM     99  F   UNL A   1      48.723  26.267  36.263  1.00  0.00    -0.200 F 
ENDBRANCH  66  89
ENDBRANCH  40  41
ENDBRANCH  32  35
ENDBRANCH  30  31
ENDBRANCH  29  30
ENDBRANCH   1  29
TORSDOF 13
ENDMDL
MODEL 2
REMARK VINA RESULT:     -12.2      3.126      6.361
REMARK SMILES CC(C)c1ccc(-c2cnc([C@@H]3[NH2+][C@H](C(=O)NCCCNC(=O)c4ccc(-c5c6nc(c(-c7c(F)c(F)c(F)c(F)c7F)c7ccc([nH]7)c(-c7c(F)c(F)c(F)c(F)c7F)c7nc(c(-c8c(F)c(F)c(F)c(F)c8F)c8ccc5[nH]8)C=C7)C=C6)cc4)C(C)(C)S3)s2)cc1
REMARK SMILES IDX 18 1 17 2 15 3 16 4 14 6 12 7 13 8 90 9 87 12 88 13 89 14
REMARK SMILES IDX 11 15 8 16 9 17 91 18 10 19 7 20 4 21 5 22 93 23 6 24 92 25
REMARK SMILES IDX 2 26 1 27 3 28 19 29 20 30 21 31 22 32 23 34 24 35 25 36
REMARK SMILES IDX 86 37 26 38 85 39 27 40 28 41 29 42 79 43 30 44 84 45 78 46
REMARK SMILES IDX 80 47 31 48 83 49 77 50 76 51 32 53 64 54 44 55 63 56 45 57
REMARK SMILES IDX 48 58 62 59 81 60 46 61 47 62 61 64 82 65 49 66 33 67 34 68
REMARK SMILES IDX 42 69 35 70 36 71 40 72 43 73 37 74 38 75 41 76 39 77 65 78
REMARK SMILES IDX 66 79 74 80 67 81 68 82 72 83 75 84 69 85 70 86 73 87 71 88
REMARK SMILES IDX 50 89 51 90 59 91 52 92 53 93 57 94 60 95 54 96 55 97 58 98
REMARK SMILES IDX 56 99
REMARK H PARENT 17 5 13 10 13 11 21 33 80 52 48 63
REMARK Flexibility Score: inf
ROOT
ATOM      1  C   UNL A   1      33.018  26.274  26.520  1.00  0.00     0.118 C 
ENDROOT
BRANCH   1   2
ATOM      2  N   UNL A   1      33.717  25.655  25.409  1.00  0.00    -0.351 N 
ATOM      3  C   UNL A   1      34.332  24.429  25.473  1.00  0.00     0.279 C 
ATOM      4  O   UNL A   1      35.527  24.402  25.198  1.00  0.00    -0.268 OA
ATOM      5  H   UNL A   1      33.752  26.146  24.556  1.00  0.00     0.163 HD
BRANCH   3   6
ATOM      6  C   UNL A   1      33.477  23.208  25.892  1.00  0.00     0.289 C 
ATOM      7  C   UNL A   1      31.335  23.416  24.774  1.00  0.00     0.304 C 
ATOM      8  N   UNL A   1      32.043  23.605  26.062  1.00  0.00    -0.318 N 
ATOM      9  S   UNL A   1      32.179  22.110  23.829  1.00  0.00    -0.079 SA
ATOM     10  H   UNL A   1      31.609  23.025  26.779  1.00  0.00     0.348 HD
ATOM     11  H   UNL A   1      31.987  24.584  26.345  1.00  0.00     0.348 HD
ATOM     12  C   UNL A   1      33.563  21.951  25.000  1.00  0.00     0.078 C 
ATOM     13  C   UNL A   1      33.300  20.687  25.842  1.00  0.00     0.030 C 
ATOM     14  C   UNL A   1      34.887  21.772  24.254  1.00  0.00     0.030 C 
BRANCH   7  15
ATOM     15  C   UNL A   1      31.154  24.687  23.967  1.00  0.00     0.162 A 
ATOM     16  C   UNL A   1      30.400  26.837  23.077  1.00  0.00     0.055 A 
ATOM     17  C   UNL A   1      31.385  26.188  22.360  1.00  0.00     0.132 A 
ATOM     18  S   UNL A   1      30.013  25.891  24.460  1.00  0.00    -0.112 S 
ATOM     19  N   UNL A   1      31.789  24.973  22.850  1.00  0.00    -0.242 NA
BRANCH  16  20
ATOM     20  C   UNL A   1      29.734  28.101  22.755  1.00  0.00    -0.007 A 
ATOM     21  C   UNL A   1      28.577  30.642  22.244  1.00  0.00    -0.045 A 
ATOM     22  C   UNL A   1      27.840  29.626  22.869  1.00  0.00     0.004 A 
ATOM     23  C   UNL A   1      29.898  30.364  21.867  1.00  0.00     0.004 A 
ATOM     24  C   UNL A   1      28.411  28.369  23.117  1.00  0.00     0.010 A 
ATOM     25  C   UNL A   1      30.467  29.113  22.118  1.00  0.00     0.010 A 
BRANCH  21  26
ATOM     26  C   UNL A   1      28.036  32.041  22.003  1.00  0.00     0.013 C 
ATOM     27  C   UNL A   1      28.767  33.152  22.762  1.00  0.00     0.012 C 
ATOM     28  C   UNL A   1      28.021  32.348  20.502  1.00  0.00     0.012 C 
ENDBRANCH  21  26
ENDBRANCH  16  20
ENDBRANCH   7  15
ENDBRANCH   3   6
ENDBRANCH   1   2
BRANCH   1  29
ATOM     29  C   UNL A   1      32.803  27.773  26.282  1.00  0.00     0.042 C 
BRANCH  29  30
ATOM     30  C   UNL A   1      34.073  28.623  26.358  1.00  0.00     0.118 C 
BRANCH  30  31
ATOM     31  N   UNL A   1      33.860  29.890  27.040  1.00  0.00    -0.352 N 
ATOM     32  C   UNL A   1      34.633  30.547  27.960  1.00  0.00     0.251 C 
ATOM     33  H   UNL A   1      33.023  30.352  26.800  1.00  0.00     0.163 HD
ATOM     34  O   UNL A   1      34.178  31.538  28.533  1.00  0.00    -0.269 OA
BRANCH  32  35
ATOM     35  C   UNL A   1      35.995  30.078  28.298  1.00  0.00     0.039 A 
ATOM     36  C   UNL A   1      37.005  30.231  27.344  1.00  0.00     0.014 A 
ATOM     37  C   UNL A   1      36.278  29.446  29.513  1.00  0.00     0.014 A 
ATOM     38  C   UNL A   1      38.306  29.805  27.625  1.00  0.00     0.010 A 
ATOM     39  C   UNL A   1      37.588  29.075  29.817  1.00  0.00     0.010 A 
ATOM     40  C   UNL A   1      38.616  29.252  28.877  1.00  0.00    -0.014 A 
BRANCH  40  41
ATOM     41  C   UNL A   1      40.009  28.864  29.216  1.00  0.00     0.031 A 
ATOM     42  C   UNL A   1      40.892  29.794  30.001  1.00  0.00     0.074 A 
ATOM     43  C   UNL A   1      40.499  27.692  28.770  1.00  0.00     0.049 A 
ATOM     44  N   UNL A   1      42.150  29.652  30.340  1.00  0.00    -0.248 NA
ATOM     45  C   UNL A   1      40.290  31.058  30.448  1.00  0.00     0.031 C 
ATOM     46  C   UNL A   1      39.759  26.718  27.967  1.00  0.00     0.029 A 
ATOM     47  N   UNL A   1      41.741  27.123  28.921  1.00  0.00    -0.354 N 
ATOM     48  C   UNL A   1      42.492  30.811  31.022  1.00  0.00     0.074 A 
ATOM     49  C   UNL A   1      41.322  31.664  31.017  1.00  0.00     0.031 C 
ATOM     50  C   UNL A   1      40.553  25.668  27.707  1.00  0.00     0.029 A 
ATOM     51  C   UNL A   1      41.867  25.906  28.298  1.00  0.00     0.049 A 
ATOM     52  H   UNL A   1      42.469  27.548  29.427  1.00  0.00     0.167 HD
ATOM     53  C   UNL A   1      43.669  31.129  31.612  1.00  0.00     0.037 A 
ATOM     54  C   UNL A   1      42.925  25.079  28.205  1.00  0.00     0.037 A 
ATOM     55  C   UNL A   1      44.825  30.271  31.643  1.00  0.00     0.049 A 
ATOM     56  C   UNL A   1      44.218  25.454  28.876  1.00  0.00     0.074 A 
ATOM     57  C   UNL A   1      46.041  30.483  32.270  1.00  0.00     0.029 A 
ATOM     58  N   UNL A   1      44.908  29.037  31.017  1.00  0.00    -0.354 N 
ATOM     59  N   UNL A   1      44.509  26.526  29.570  1.00  0.00    -0.248 NA
ATOM     60  C   UNL A   1      45.328  24.497  28.755  1.00  0.00     0.031 C 
ATOM     61  C   UNL A   1      46.872  29.391  31.995  1.00  0.00     0.029 A 
ATOM     62  C   UNL A   1      46.161  28.483  31.229  1.00  0.00     0.049 A 
ATOM     63  H   UNL A   1      44.185  28.616  30.499  1.00  0.00     0.167 HD
ATOM     64  C   UNL A   1      45.823  26.365  29.987  1.00  0.00     0.074 A 
ATOM     65  C   UNL A   1      46.269  25.085  29.480  1.00  0.00     0.031 C 
ATOM     66  C   UNL A   1      46.590  27.204  30.725  1.00  0.00     0.037 A 
BRANCH  53  67
ATOM     67  C   UNL A   1      43.768  32.468  32.281  1.00  0.00     0.064 A 
ATOM     68  C   UNL A   1      44.196  33.608  31.584  1.00  0.00     0.173 A 
ATOM     69  C   UNL A   1      43.388  32.623  33.623  1.00  0.00     0.173 A 
ATOM     70  F   UNL A   1      44.577  33.510  30.302  1.00  0.00    -0.203 F 
ATOM     71  C   UNL A   1      44.265  34.849  32.213  1.00  0.00     0.198 A 
ATOM     72  C   UNL A   1      43.434  33.870  34.242  1.00  0.00     0.198 A 
ATOM     73  F   UNL A   1      42.965  31.566  34.333  1.00  0.00    -0.203 F 
ATOM     74  F   UNL A   1      44.714  35.915  31.538  1.00  0.00    -0.200 F 
ATOM     75  C   UNL A   1      43.878  34.980  33.538  1.00  0.00     0.200 A 
ATOM     76  F   UNL A   1      43.048  33.997  35.519  1.00  0.00    -0.200 F 
ATOM     77  F   UNL A   1      43.937  36.176  34.140  1.00  0.00    -0.200 F 
ENDBRANCH  53  67
BRANCH  54  78
ATOM     78  C   UNL A   1      42.798  23.799  27.466  1.00  0.00     0.064 A 
ATOM     79  C   UNL A   1      43.189  23.704  26.123  1.00  0.00     0.173 A 
ATOM     80  C   UNL A   1      42.288  22.647  28.082  1.00  0.00     0.173 A 
ATOM     81  F   UNL A   1      43.662  24.785  25.487  1.00  0.00    -0.203 F 
ATOM     82  C   UNL A   1      43.059  22.509  25.419  1.00  0.00     0.198 A 
ATOM     83  C   UNL A   1      42.181  21.447  27.385  1.00  0.00     0.198 A 
ATOM     84  F   UNL A   1      41.904  22.687  29.366  1.00  0.00    -0.203 F 
ATOM     85  F   UNL A   1      43.403  22.455  24.126  1.00  0.00    -0.200 F 
ATOM     86  C   UNL A   1      42.560  21.380  26.052  1.00  0.00     0.200 A 
ATOM     87  F   UNL A   1      41.710  20.354  28.003  1.00  0.00    -0.200 F 
ATOM     88  F   UNL A   1      42.439  20.230  25.377  1.00  0.00    -0.200 F 
ENDBRANCH  54  78
BRANCH  66  89
ATOM     89  C   UNL A   1      47.981  26.751  31.054  1.00  0.00     0.064 A 
ATOM     90  C   UNL A   1      48.246  25.952  32.175  1.00  0.00     0.173 A 
ATOM     91  C   UNL A   1      49.055  27.092  30.219  1.00  0.00     0.173 A 
ATOM     92  F   UNL A   1      47.254  25.615  33.013  1.00  0.00    -0.203 F 
ATOM     93  C   UNL A   1      49.542  25.528  32.461  1.00  0.00     0.198 A 
ATOM     94  C   UNL A   1      50.345  26.645  30.493  1.00  0.00     0.198 A 
ATOM     95  F   UNL A   1      48.853  27.850  29.131  1.00  0.00    -0.203 F 
ATOM     96  F   UNL A   1      49.780  24.800  33.560  1.00  0.00    -0.200 F 
ATOM     97  C   UNL A   1      50.588  25.869  31.616  1.00  0.00     0.200 A 
ATOM     98  F   UNL A   1      51.353  26.968  29.671  1.00  0.00    -0.200 F 
ATOM     99  F   UNL A   1      51.833  25.457  31.890  1.00  0.00    -0.200 F 
ENDBRANCH  66  89
ENDBRANCH  40  41
ENDBRANCH  32  35
ENDBRANCH  30  31
ENDBRANCH  29  30
ENDBRANCH   1  29
TORSDOF 13
ENDMDL
MODEL 3
REMARK VINA RESULT:     -12.2      1.923      3.027
REMARK SMILES CC(C)c1ccc(-c2cnc([C@@H]3[NH2+][C@H](C(=O)NCCCNC(=O)c4ccc(-c5c6nc(c(-c7c(F)c(F)c(F)c(F)c7F)c7ccc([nH]7)c(-c7c(F)c(F)c(F)c(F)c7F)c7nc(c(-c8c(F)c(F)c(F)c(F)c8F)c8ccc5[nH]8)C=C7)C=C6)cc4)C(C)(C)S3)s2)cc1
REMARK SMILES IDX 18 1 17 2 15 3 16 4 14 6 12 7 13 8 90 9 87 12 88 13 89 14
REMARK SMILES IDX 11 15 8 16 9 17 91 18 10 19 7 20 4 21 5 22 93 23 6 24 92 25
REMARK SMILES IDX 2 26 1 27 3 28 19 29 20 30 21 31 22 32 23 34 24 35 25 36
REMARK SMILES IDX 86 37 26 38 85 39 27 40 28 41 29 42 79 43 30 44 84 45 78 46
REMARK SMILES IDX 80 47 31 48 83 49 77 50 76 51 32 53 64 54 44 55 63 56 45 57
REMARK SMILES IDX 48 58 62 59 81 60 46 61 47 62 61 64 82 65 49 66 33 67 34 68
REMARK SMILES IDX 42 69 35 70 36 71 40 72 43 73 37 74 38 75 41 76 39 77 65 78
REMARK SMILES IDX 66 79 74 80 67 81 68 82 72 83 75 84 69 85 70 86 73 87 71 88
REMARK SMILES IDX 50 89 51 90 59 91 52 92 53 93 57 94 60 95 54 96 55 97 58 98
REMARK SMILES IDX 56 99
REMARK H PARENT 17 5 13 10 13 11 21 33 80 52 48 63
REMARK Flexibility Score: inf
ROOT
ATOM      1  C   UNL A   1      32.126  27.868  27.503  1.00  0.00     0.118 C 
ENDROOT
BRANCH   1   2
ATOM      2  N   UNL A   1      31.773  26.666  26.771  1.00  0.00    -0.351 N 
ATOM      3  C   UNL A   1      31.369  26.655  25.459  1.00  0.00     0.279 C 
ATOM      4  O   UNL A   1      30.273  26.153  25.228  1.00  0.00    -0.268 OA
ATOM      5  H   UNL A   1      31.827  25.804  27.246  1.00  0.00     0.163 HD
BRANCH   3   6
ATOM      6  C   UNL A   1      32.315  27.276  24.402  1.00  0.00     0.289 C 
ATOM      7  C   UNL A   1      33.045  25.478  22.948  1.00  0.00     0.304 C 
ATOM      8  N   UNL A   1      33.440  26.338  24.088  1.00  0.00    -0.318 N 
ATOM      9  S   UNL A   1      31.829  26.373  21.933  1.00  0.00    -0.079 SA
ATOM     10  H   UNL A   1      34.273  26.872  23.842  1.00  0.00     0.348 HD
ATOM     11  H   UNL A   1      33.643  25.758  24.903  1.00  0.00     0.348 HD
ATOM     12  C   UNL A   1      31.673  27.771  23.089  1.00  0.00     0.078 C 
ATOM     13  C   UNL A   1      32.497  28.935  22.503  1.00  0.00     0.030 C 
ATOM     14  C   UNL A   1      30.214  28.219  23.205  1.00  0.00     0.030 C 
BRANCH   7  15
ATOM     15  C   UNL A   1      32.561  24.097  23.344  1.00  0.00     0.162 A 
ATOM     16  C   UNL A   1      32.367  21.708  23.831  1.00  0.00     0.055 A 
ATOM     17  C   UNL A   1      31.209  22.451  23.937  1.00  0.00     0.132 A 
ATOM     18  S   UNL A   1      33.656  22.758  23.392  1.00  0.00    -0.112 S 
ATOM     19  N   UNL A   1      31.318  23.786  23.643  1.00  0.00    -0.242 NA
BRANCH  16  20
ATOM     20  C   UNL A   1      32.532  20.265  24.015  1.00  0.00    -0.007 A 
ATOM     21  C   UNL A   1      33.033  17.503  24.443  1.00  0.00    -0.045 A 
ATOM     22  C   UNL A   1      32.770  17.998  23.158  1.00  0.00     0.004 A 
ATOM     23  C   UNL A   1      33.028  18.408  25.513  1.00  0.00     0.004 A 
ATOM     24  C   UNL A   1      32.517  19.362  22.947  1.00  0.00     0.010 A 
ATOM     25  C   UNL A   1      32.782  19.767  25.302  1.00  0.00     0.010 A 
BRANCH  21  26
ATOM     26  C   UNL A   1      33.372  16.050  24.727  1.00  0.00     0.013 C 
ATOM     27  C   UNL A   1      34.813  15.804  25.181  1.00  0.00     0.012 C 
ATOM     28  C   UNL A   1      32.389  15.470  25.749  1.00  0.00     0.012 C 
ENDBRANCH  21  26
ENDBRANCH  16  20
ENDBRANCH   7  15
ENDBRANCH   3   6
ENDBRANCH   1   2
BRANCH   1  29
ATOM     29  C   UNL A   1      31.706  29.130  26.742  1.00  0.00     0.042 C 
BRANCH  29  30
ATOM     30  C   UNL A   1      32.865  29.945  26.163  1.00  0.00     0.118 C 
BRANCH  30  31
ATOM     31  N   UNL A   1      32.782  31.357  26.502  1.00  0.00    -0.352 N 
ATOM     32  C   UNL A   1      33.518  32.106  27.382  1.00  0.00     0.251 C 
ATOM     33  H   UNL A   1      32.084  31.857  26.019  1.00  0.00     0.163 HD
ATOM     34  O   UNL A   1      33.166  33.260  27.633  1.00  0.00    -0.269 OA
BRANCH  32  35
ATOM     35  C   UNL A   1      34.711  31.550  28.057  1.00  0.00     0.039 A 
ATOM     36  C   UNL A   1      35.819  32.384  28.238  1.00  0.00     0.014 A 
ATOM     37  C   UNL A   1      34.775  30.214  28.463  1.00  0.00     0.014 A 
ATOM     38  C   UNL A   1      36.964  31.900  28.875  1.00  0.00     0.010 A 
ATOM     39  C   UNL A   1      35.896  29.747  29.152  1.00  0.00     0.010 A 
ATOM     40  C   UNL A   1      37.001  30.586  29.366  1.00  0.00    -0.014 A 
BRANCH  40  41
ATOM     41  C   UNL A   1      38.184  30.082  30.110  1.00  0.00     0.031 A 
ATOM     42  C   UNL A   1      38.457  30.544  31.515  1.00  0.00     0.074 A 
ATOM     43  C   UNL A   1      39.045  29.245  29.501  1.00  0.00     0.049 A 
ATOM     44  N   UNL A   1      39.468  30.259  32.297  1.00  0.00    -0.248 NA
ATOM     45  C   UNL A   1      37.477  31.463  32.111  1.00  0.00     0.031 C 
ATOM     46  C   UNL A   1      38.915  28.752  28.129  1.00  0.00     0.029 A 
ATOM     47  N   UNL A   1      40.206  28.668  29.953  1.00  0.00    -0.354 N 
ATOM     48  C   UNL A   1      39.255  30.975  33.468  1.00  0.00     0.074 A 
ATOM     49  C   UNL A   1      38.038  31.737  33.280  1.00  0.00     0.031 C 
ATOM     50  C   UNL A   1      39.945  27.937  27.856  1.00  0.00     0.029 A 
ATOM     51  C   UNL A   1      40.825  27.873  29.020  1.00  0.00     0.049 A 
ATOM     52  H   UNL A   1      40.560  28.810  30.860  1.00  0.00     0.167 HD
ATOM     53  C   UNL A   1      39.996  30.983  34.602  1.00  0.00     0.037 A 
ATOM     54  C   UNL A   1      41.976  27.178  29.090  1.00  0.00     0.037 A 
ATOM     55  C   UNL A   1      41.190  30.204  34.801  1.00  0.00     0.049 A 
ATOM     56  C   UNL A   1      42.776  27.199  30.363  1.00  0.00     0.074 A 
ATOM     57  C   UNL A   1      41.973  30.100  35.939  1.00  0.00     0.029 A 
ATOM     58  N   UNL A   1      41.775  29.395  33.839  1.00  0.00    -0.354 N 
ATOM     59  N   UNL A   1      42.530  27.831  31.484  1.00  0.00    -0.248 NA
ATOM     60  C   UNL A   1      44.012  26.402  30.382  1.00  0.00     0.031 C 
ATOM     61  C   UNL A   1      43.052  29.255  35.653  1.00  0.00     0.029 A 
ATOM     62  C   UNL A   1      42.919  28.802  34.351  1.00  0.00     0.049 A 
ATOM     63  H   UNL A   1      41.430  29.262  32.927  1.00  0.00     0.167 HD
ATOM     64  C   UNL A   1      43.563  27.493  32.347  1.00  0.00     0.074 A 
ATOM     65  C   UNL A   1      44.432  26.588  31.625  1.00  0.00     0.031 C 
ATOM     66  C   UNL A   1      43.771  27.897  33.624  1.00  0.00     0.037 A 
BRANCH  53  67
ATOM     67  C   UNL A   1      39.534  31.864  35.724  1.00  0.00     0.064 A 
ATOM     68  C   UNL A   1      40.042  33.159  35.898  1.00  0.00     0.173 A 
ATOM     69  C   UNL A   1      38.539  31.424  36.611  1.00  0.00     0.173 A 
ATOM     70  F   UNL A   1      41.000  33.623  35.081  1.00  0.00    -0.203 F 
ATOM     71  C   UNL A   1      39.590  33.974  36.933  1.00  0.00     0.198 A 
ATOM     72  C   UNL A   1      38.071  32.250  37.630  1.00  0.00     0.198 A 
ATOM     73  F   UNL A   1      38.015  30.195  36.484  1.00  0.00    -0.203 F 
ATOM     74  F   UNL A   1      40.119  35.193  37.104  1.00  0.00    -0.200 F 
ATOM     75  C   UNL A   1      38.601  33.521  37.793  1.00  0.00     0.200 A 
ATOM     76  F   UNL A   1      37.107  31.816  38.453  1.00  0.00    -0.200 F 
ATOM     77  F   UNL A   1      38.161  34.309  38.785  1.00  0.00    -0.200 F 
ENDBRANCH  53  67
BRANCH  54  78
ATOM     78  C   UNL A   1      42.429  26.382  27.924  1.00  0.00     0.064 A 
ATOM     79  C   UNL A   1      43.301  26.933  26.973  1.00  0.00     0.173 A 
ATOM     80  C   UNL A   1      42.006  25.058  27.734  1.00  0.00     0.173 A 
ATOM     81  F   UNL A   1      43.714  28.201  27.102  1.00  0.00    -0.203 F 
ATOM     82  C   UNL A   1      43.718  26.195  25.868  1.00  0.00     0.198 A 
ATOM     83  C   UNL A   1      42.443  24.314  26.642  1.00  0.00     0.198 A 
ATOM     84  F   UNL A   1      41.175  24.486  28.617  1.00  0.00    -0.203 F 
ATOM     85  F   UNL A   1      44.520  26.758  24.954  1.00  0.00    -0.200 F 
ATOM     86  C   UNL A   1      43.294  24.884  25.706  1.00  0.00     0.200 A 
ATOM     87  F   UNL A   1      42.041  23.044  26.494  1.00  0.00    -0.200 F 
ATOM     88  F   UNL A   1      43.700  24.174  24.646  1.00  0.00    -0.200 F 
ENDBRANCH  54  78
BRANCH  66  89
ATOM     89  C   UNL A   1      44.969  27.340  34.333  1.00  0.00     0.064 A 
ATOM     90  C   UNL A   1      46.197  28.017  34.343  1.00  0.00     0.173 A 
ATOM     91  C   UNL A   1      44.878  26.131  35.038  1.00  0.00     0.173 A 
ATOM     92  F   UNL A   1      46.338  29.169  33.667  1.00  0.00    -0.203 F 
ATOM     93  C   UNL A   1      47.297  27.493  35.017  1.00  0.00     0.198 A 
ATOM     94  C   UNL A   1      45.973  25.623  35.733  1.00  0.00     0.198 A 
ATOM     95  F   UNL A   1      43.724  25.447  35.063  1.00  0.00    -0.203 F 
ATOM     96  F   UNL A   1      48.472  28.136  34.978  1.00  0.00    -0.200 F 
ATOM     97  C   UNL A   1      47.182  26.301  35.716  1.00  0.00     0.200 A 
ATOM     98  F   UNL A   1      45.858  24.476  36.415  1.00  0.00    -0.200 F 
ATOM     99  F   UNL A   1      48.241  25.800  36.367  1.00  0.00    -0.200 F 
ENDBRANCH  66  89
ENDBRANCH  40  41
ENDBRANCH  32  35
ENDBRANCH  30  31
ENDBRANCH  29  30
ENDBRANCH   1  29
TORSDOF 13
ENDMDL
