MODEL 1
REMARK VINA RESULT:     -12.2      0.000      0.000
REMARK SMILES COc1ccc(C(=O)C2=C(NCCCNC(=O)c3ccc(-c4c5nc(c(-c6c(F)c(F)c(F)c(F)c6F)c6ccc([nH]6)c(-c6c(F)c(F)c(F)c(F)c6F)c6nc(c(-c7c(F)c(F)c(F)c(F)c7F)c7ccc4[nH]7)C=C6)C=C5)cc3)C(=O)N(CCC(=O)[O-])[C@H]2c2ccccc2F)cc1
REMARK SMILES IDX 12 1 11 2 10 4 9 5 89 6 81 7 83 8 82 9 7 10 8 11 6 12 3 13
REMARK SMILES IDX 4 14 98 15 5 16 97 17 2 18 1 19 90 20 91 21 95 22 92 23
REMARK SMILES IDX 94 24 96 25 93 26 84 27 85 28 86 29 87 30 88 31 13 32 14 33
REMARK SMILES IDX 15 34 16 35 17 37 18 38 19 39 80 40 20 41 79 42 21 43 22 44
REMARK SMILES IDX 23 45 73 46 24 47 78 48 72 49 74 50 25 51 77 52 71 53 70 54
REMARK SMILES IDX 26 56 58 57 38 58 57 59 39 60 42 61 56 62 75 63 40 64 41 65
REMARK SMILES IDX 55 67 76 68 43 69 27 70 28 71 36 72 29 73 30 74 34 75 37 76
REMARK SMILES IDX 31 77 32 78 35 79 33 80 59 81 60 82 68 83 61 84 62 85 66 86
REMARK SMILES IDX 69 87 63 88 64 89 67 90 65 91 44 92 45 93 53 94 46 95 47 96
REMARK SMILES IDX 51 97 54 98 48 99 49 100 52 101 50 102
REMARK H PARENT 11 3 15 36 74 55 42 66
REMARK Flexibility Score: inf
ROOT
ATOM      1  C   UNL A   1      38.266  21.992  25.763  1.00  0.00     0.115 C 
ENDROOT
BRANCH   1   2
ATOM      2  N   UNL A   1      37.464  21.382  24.729  1.00  0.00    -0.380 N 
ATOM      3  H   UNL A   1      37.972  20.918  24.025  1.00  0.00     0.160 HD
BRANCH   2   4
ATOM      4  C   UNL A   1      36.103  21.351  24.579  1.00  0.00     0.110 C 
ATOM      5  C   UNL A   1      35.144  22.192  24.176  1.00  0.00     0.056 C 
ATOM      6  C   UNL A   1      33.773  21.586  24.100  1.00  0.00     0.155 C 
ATOM      7  C   UNL A   1      35.381  20.066  24.859  1.00  0.00     0.271 C 
ATOM      8  N   UNL A   1      34.073  20.212  24.454  1.00  0.00    -0.326 N 
ATOM      9  O   UNL A   1      35.918  19.086  25.346  1.00  0.00    -0.267 OA
BRANCH   5  10
ATOM     10  C   UNL A   1      35.418  23.540  23.654  1.00  0.00     0.193 C 
ATOM     11  O   UNL A   1      36.381  23.717  22.913  1.00  0.00    -0.289 OA
BRANCH  10  12
ATOM     12  C   UNL A   1      34.520  24.674  24.022  1.00  0.00     0.023 A 
ATOM     13  C   UNL A   1      32.611  26.638  24.698  1.00  0.00     0.118 A 
ATOM     14  C   UNL A   1      32.712  26.167  23.388  1.00  0.00     0.047 A 
ATOM     15  C   UNL A   1      33.506  26.167  25.654  1.00  0.00     0.047 A 
ATOM     16  C   UNL A   1      33.651  25.185  23.051  1.00  0.00     0.016 A 
ATOM     17  C   UNL A   1      34.477  25.221  25.306  1.00  0.00     0.016 A 
BRANCH  13  18
ATOM     18  O   UNL A   1      31.611  27.543  24.918  1.00  0.00    -0.497 OA
ATOM     19  C   UNL A   1      30.324  27.211  24.410  1.00  0.00     0.278 C 
ENDBRANCH  13  18
ENDBRANCH  10  12
ENDBRANCH   5  10
BRANCH   6  20
ATOM     20  C   UNL A   1      32.779  22.196  25.070  1.00  0.00     0.015 A 
ATOM     21  C   UNL A   1      33.018  22.250  26.458  1.00  0.00     0.009 A 
ATOM     22  C   UNL A   1      31.598  22.762  24.587  1.00  0.00     0.128 A 
ATOM     23  C   UNL A   1      32.119  22.885  27.316  1.00  0.00     0.001 A 
ATOM     24  C   UNL A   1      30.688  23.382  25.439  1.00  0.00     0.039 A 
ATOM     25  F   UNL A   1      31.325  22.715  23.276  1.00  0.00    -0.207 F 
ATOM     26  C   UNL A   1      30.954  23.454  26.806  1.00  0.00     0.003 A 
ENDBRANCH   6  20
BRANCH   8  27
ATOM     27  C   UNL A   1      33.072  19.150  24.461  1.00  0.00     0.127 C 
BRANCH  27  28
ATOM     28  C   UNL A   1      33.088  18.292  23.203  1.00  0.00     0.074 C 
BRANCH  28  29
ATOM     29  C   UNL A   1      33.651  16.937  23.505  1.00  0.00     0.043 C 
ATOM     30  O   UNL A   1      34.235  16.215  22.714  1.00  0.00    -0.550 OA
ATOM     31  O   UNL A   1      33.388  16.535  24.762  1.00  0.00    -0.550 OA
ENDBRANCH  28  29
ENDBRANCH  27  28
ENDBRANCH   8  27
ENDBRANCH   2   4
ENDBRANCH   1   2
BRANCH   1  32
ATOM     32  C   UNL A   1      39.333  21.016  26.239  1.00  0.00     0.042 C 
BRANCH  32  33
ATOM     33  C   UNL A   1      39.533  19.819  25.316  1.00  0.00     0.118 C 
BRANCH  33  34
ATOM     34  N   UNL A   1      40.509  18.867  25.827  1.00  0.00    -0.352 N 
ATOM     35  C   UNL A   1      41.776  19.065  26.314  1.00  0.00     0.251 C 
ATOM     36  H   UNL A   1      40.210  17.928  25.822  1.00  0.00     0.163 HD
ATOM     37  O   UNL A   1      42.503  18.096  26.521  1.00  0.00    -0.269 OA
BRANCH  35  38
ATOM     38  C   UNL A   1      42.288  20.429  26.572  1.00  0.00     0.039 A 
ATOM     39  C   UNL A   1      42.720  21.195  25.486  1.00  0.00     0.014 A 
ATOM     40  C   UNL A   1      42.382  20.947  27.867  1.00  0.00     0.014 A 
ATOM     41  C   UNL A   1      43.190  22.494  25.694  1.00  0.00     0.010 A 
ATOM     42  C   UNL A   1      42.767  22.273  28.064  1.00  0.00     0.010 A 
ATOM     43  C   UNL A   1      43.183  23.059  26.979  1.00  0.00    -0.014 A 
BRANCH  43  44
ATOM     44  C   UNL A   1      43.599  24.470  27.189  1.00  0.00     0.031 A 
ATOM     45  C   UNL A   1      42.610  25.503  27.657  1.00  0.00     0.074 A 
ATOM     46  C   UNL A   1      44.871  24.828  26.921  1.00  0.00     0.049 A 
ATOM     47  N   UNL A   1      42.797  26.778  27.896  1.00  0.00    -0.248 NA
ATOM     48  C   UNL A   1      41.223  25.058  27.858  1.00  0.00     0.031 C 
ATOM     49  C   UNL A   1      45.907  23.935  26.397  1.00  0.00     0.029 A 
ATOM     50  N   UNL A   1      45.510  26.036  27.050  1.00  0.00    -0.354 N 
ATOM     51  C   UNL A   1      41.556  27.282  28.262  1.00  0.00     0.074 A 
ATOM     52  C   UNL A   1      40.611  26.193  28.162  1.00  0.00     0.031 C 
ATOM     53  C   UNL A   1      47.057  24.615  26.279  1.00  0.00     0.029 A 
ATOM     54  C   UNL A   1      46.835  26.000  26.685  1.00  0.00     0.049 A 
ATOM     55  H   UNL A   1      45.063  26.851  27.373  1.00  0.00     0.167 HD
ATOM     56  C   UNL A   1      41.239  28.535  28.669  1.00  0.00     0.037 A 
ATOM     57  C   UNL A   1      47.765  26.973  26.676  1.00  0.00     0.037 A 
ATOM     58  C   UNL A   1      42.190  29.611  28.796  1.00  0.00     0.049 A 
ATOM     59  C   UNL A   1      47.388  28.349  27.155  1.00  0.00     0.074 A 
ATOM     60  C   UNL A   1      41.980  30.893  29.274  1.00  0.00     0.029 A 
ATOM     61  N   UNL A   1      43.527  29.530  28.440  1.00  0.00    -0.354 N 
ATOM     62  N   UNL A   1      46.231  28.788  27.588  1.00  0.00    -0.248 NA
ATOM     63  C   UNL A   1      48.452  29.363  27.156  1.00  0.00     0.031 C 
ATOM     64  C   UNL A   1      43.178  31.606  29.154  1.00  0.00     0.029 A 
ATOM     65  C   UNL A   1      44.148  30.750  28.660  1.00  0.00     0.049 A 
ATOM     66  H   UNL A   1      43.970  28.726  28.083  1.00  0.00     0.167 HD
ATOM     67  C   UNL A   1      46.433  30.118  27.935  1.00  0.00     0.074 A 
ATOM     68  C   UNL A   1      47.831  30.405  27.690  1.00  0.00     0.031 C 
ATOM     69  C   UNL A   1      45.541  31.021  28.410  1.00  0.00     0.037 A 
BRANCH  56  70
ATOM     70  C   UNL A   1      39.806  28.820  29.016  1.00  0.00     0.064 A 
ATOM     71  C   UNL A   1      39.314  28.650  30.319  1.00  0.00     0.173 A 
ATOM     72  C   UNL A   1      38.930  29.338  28.049  1.00  0.00     0.173 A 
ATOM     73  F   UNL A   1      40.106  28.150  31.279  1.00  0.00    -0.203 F 
ATOM     74  C   UNL A   1      37.996  28.966  30.636  1.00  0.00     0.198 A 
ATOM     75  C   UNL A   1      37.621  29.682  28.376  1.00  0.00     0.198 A 
ATOM     76  F   UNL A   1      39.349  29.526  26.789  1.00  0.00    -0.203 F 
ATOM     77  F   UNL A   1      37.537  28.757  31.878  1.00  0.00    -0.200 F 
ATOM     78  C   UNL A   1      37.153  29.491  29.667  1.00  0.00     0.200 A 
ATOM     79  F   UNL A   1      36.813  30.204  27.443  1.00  0.00    -0.200 F 
ATOM     80  F   UNL A   1      35.890  29.812  29.978  1.00  0.00    -0.200 F 
ENDBRANCH  56  70
BRANCH  57  81
ATOM     81  C   UNL A   1      49.149  26.681  26.215  1.00  0.00     0.064 A 
ATOM     82  C   UNL A   1      50.118  26.181  27.097  1.00  0.00     0.173 A 
ATOM     83  C   UNL A   1      49.539  26.920  24.888  1.00  0.00     0.173 A 
ATOM     84  F   UNL A   1      49.800  25.955  28.381  1.00  0.00    -0.203 F 
ATOM     85  C   UNL A   1      51.429  25.963  26.680  1.00  0.00     0.198 A 
ATOM     86  C   UNL A   1      50.842  26.669  24.464  1.00  0.00     0.198 A 
ATOM     87  F   UNL A   1      48.651  27.392  24.001  1.00  0.00    -0.203 F 
ATOM     88  F   UNL A   1      52.349  25.545  27.561  1.00  0.00    -0.200 F 
ATOM     89  C   UNL A   1      51.789  26.203  25.363  1.00  0.00     0.200 A 
ATOM     90  F   UNL A   1      51.181  26.886  23.185  1.00  0.00    -0.200 F 
ATOM     91  F   UNL A   1      53.051  25.995  24.963  1.00  0.00    -0.200 F 
ENDBRANCH  57  81
BRANCH  69  92
ATOM     92  C   UNL A   1      46.060  32.397  28.719  1.00  0.00     0.064 A 
ATOM     93  C   UNL A   1      46.584  32.722  29.980  1.00  0.00     0.173 A 
ATOM     94  C   UNL A   1      46.042  33.401  27.738  1.00  0.00     0.173 A 
ATOM     95  F   UNL A   1      46.611  31.802  30.956  1.00  0.00    -0.203 F 
ATOM     96  C   UNL A   1      47.033  34.009  30.258  1.00  0.00     0.198 A 
ATOM     97  C   UNL A   1      46.526  34.677  28.009  1.00  0.00     0.198 A 
ATOM     98  F   UNL A   1      45.561  33.142  26.513  1.00  0.00    -0.203 F 
ATOM     99  F   UNL A   1      47.468  34.313  31.489  1.00  0.00    -0.200 F 
ATOM    100  C   UNL A   1      47.009  34.985  29.272  1.00  0.00     0.200 A 
ATOM    101  F   UNL A   1      46.517  35.613  27.050  1.00  0.00    -0.200 F 
ATOM    102  F   UNL A   1      47.442  36.223  29.542  1.00  0.00    -0.200 F 
ENDBRANCH  69  92
ENDBRANCH  43  44
ENDBRANCH  35  38
ENDBRANCH  33  34
ENDBRANCH  32  33
ENDBRANCH   1  32
TORSDOF 17
ENDMDL
MODEL 2
REMARK VINA RESULT:     -12.2      0.892      6.916
REMARK SMILES COc1ccc(C(=O)C2=C(NCCCNC(=O)c3ccc(-c4c5nc(c(-c6c(F)c(F)c(F)c(F)c6F)c6ccc([nH]6)c(-c6c(F)c(F)c(F)c(F)c6F)c6nc(c(-c7c(F)c(F)c(F)c(F)c7F)c7ccc4[nH]7)C=C6)C=C5)cc3)C(=O)N(CCC(=O)[O-])[C@H]2c2ccccc2F)cc1
REMARK SMILES IDX 12 1 11 2 10 4 9 5 89 6 81 7 83 8 82 9 7 10 8 11 6 12 3 13
REMARK SMILES IDX 4 14 98 15 5 16 97 17 2 18 1 19 90 20 91 21 95 22 92 23
REMARK SMILES IDX 94 24 96 25 93 26 84 27 85 28 86 29 87 30 88 31 13 32 14 33
REMARK SMILES IDX 15 34 16 35 17 37 18 38 19 39 80 40 20 41 79 42 21 43 22 44
REMARK SMILES IDX 23 45 73 46 24 47 78 48 72 49 74 50 25 51 77 52 71 53 70 54
REMARK SMILES IDX 26 56 58 57 38 58 57 59 39 60 42 61 56 62 75 63 40 64 41 65
REMARK SMILES IDX 55 67 76 68 43 69 27 70 28 71 36 72 29 73 30 74 34 75 37 76
REMARK SMILES IDX 31 77 32 78 35 79 33 80 59 81 60 82 68 83 61 84 62 85 66 86
REMARK SMILES IDX 69 87 63 88 64 89 67 90 65 91 44 92 45 93 53 94 46 95 47 96
REMARK SMILES IDX 51 97 54 98 48 99 49 100 52 101 50 102
REMARK H PARENT 11 3 15 36 74 55 42 66
REMARK Flexibility Score: inf
ROOT
ATOM      1  C   UNL A   1      38.152  21.685  25.708  1.00  0.00     0.115 C 
ENDROOT
BRANCH   1   2
ATOM      2  N   UNL A   1      37.318  21.255  24.609  1.00  0.00    -0.380 N 
ATOM      3  H   UNL A   1      37.804  20.905  23.828  1.00  0.00     0.160 HD
BRANCH   2   4
ATOM      4  C   UNL A   1      35.954  21.262  24.490  1.00  0.00     0.110 C 
ATOM      5  C   UNL A   1      35.010  22.125  24.098  1.00  0.00     0.056 C 
ATOM      6  C   UNL A   1      33.622  21.558  24.060  1.00  0.00     0.155 C 
ATOM      7  C   UNL A   1      35.202  20.001  24.802  1.00  0.00     0.271 C 
ATOM      8  N   UNL A   1      33.890  20.180  24.424  1.00  0.00    -0.326 N 
ATOM      9  O   UNL A   1      35.722  19.012  25.289  1.00  0.00    -0.267 OA
BRANCH   5  10
ATOM     10  C   UNL A   1      35.311  23.458  23.553  1.00  0.00     0.193 C 
ATOM     11  O   UNL A   1      36.208  23.585  22.724  1.00  0.00    -0.289 OA
BRANCH  10  12
ATOM     12  C   UNL A   1      34.519  24.640  24.006  1.00  0.00     0.023 A 
ATOM     13  C   UNL A   1      32.797  26.711  24.846  1.00  0.00     0.118 A 
ATOM     14  C   UNL A   1      32.804  26.289  23.515  1.00  0.00     0.047 A 
ATOM     15  C   UNL A   1      33.694  26.134  25.740  1.00  0.00     0.047 A 
ATOM     16  C   UNL A   1      33.650  25.255  23.097  1.00  0.00     0.016 A 
ATOM     17  C   UNL A   1      34.574  25.134  25.311  1.00  0.00     0.016 A 
BRANCH  13  18
ATOM     18  O   UNL A   1      31.879  27.678  25.147  1.00  0.00    -0.497 OA
ATOM     19  C   UNL A   1      30.773  27.808  24.261  1.00  0.00     0.278 C 
ENDBRANCH  13  18
ENDBRANCH  10  12
ENDBRANCH   5  10
BRANCH   6  20
ATOM     20  C   UNL A   1      32.667  22.208  25.044  1.00  0.00     0.015 A 
ATOM     21  C   UNL A   1      32.916  22.229  26.432  1.00  0.00     0.009 A 
ATOM     22  C   UNL A   1      31.517  22.845  24.576  1.00  0.00     0.128 A 
ATOM     23  C   UNL A   1      32.057  22.900  27.304  1.00  0.00     0.001 A 
ATOM     24  C   UNL A   1      30.647  23.502  25.442  1.00  0.00     0.039 A 
ATOM     25  F   UNL A   1      31.235  22.832  23.265  1.00  0.00    -0.207 F 
ATOM     26  C   UNL A   1      30.923  23.540  26.808  1.00  0.00     0.003 A 
ENDBRANCH   6  20
BRANCH   8  27
ATOM     27  C   UNL A   1      32.859  19.148  24.466  1.00  0.00     0.127 C 
BRANCH  27  28
ATOM     28  C   UNL A   1      32.819  18.278  23.217  1.00  0.00     0.074 C 
BRANCH  28  29
ATOM     29  C   UNL A   1      33.460  16.951  23.486  1.00  0.00     0.043 C 
ATOM     30  O   UNL A   1      34.159  16.326  22.706  1.00  0.00    -0.550 OA
ATOM     31  O   UNL A   1      33.130  16.451  24.691  1.00  0.00    -0.550 OA
ENDBRANCH  28  29
ENDBRANCH  27  28
ENDBRANCH   8  27
ENDBRANCH   2   4
ENDBRANCH   1   2
BRANCH   1  32
ATOM     32  C   UNL A   1      39.540  21.073  25.578  1.00  0.00     0.042 C 
BRANCH  32  33
ATOM     33  C   UNL A   1      39.716  19.771  26.352  1.00  0.00     0.118 C 
BRANCH  33  34
ATOM     34  N   UNL A   1      40.910  19.036  25.957  1.00  0.00    -0.352 N 
ATOM     35  C   UNL A   1      42.212  19.451  25.832  1.00  0.00     0.251 C 
ATOM     36  H   UNL A   1      40.757  18.086  25.745  1.00  0.00     0.163 HD
ATOM     37  O   UNL A   1      43.036  18.709  25.304  1.00  0.00    -0.269 OA
BRANCH  35  38
ATOM     38  C   UNL A   1      42.633  20.789  26.307  1.00  0.00     0.039 A 
ATOM     39  C   UNL A   1      43.066  21.724  25.363  1.00  0.00     0.014 A 
ATOM     40  C   UNL A   1      42.642  21.119  27.664  1.00  0.00     0.014 A 
ATOM     41  C   UNL A   1      43.451  23.001  25.775  1.00  0.00     0.010 A 
ATOM     42  C   UNL A   1      42.941  22.420  28.065  1.00  0.00     0.010 A 
ATOM     43  C   UNL A   1      43.356  23.375  27.125  1.00  0.00    -0.014 A 
BRANCH  43  44
ATOM     44  C   UNL A   1      43.682  24.760  27.553  1.00  0.00     0.031 A 
ATOM     45  C   UNL A   1      45.110  25.229  27.622  1.00  0.00     0.074 A 
ATOM     46  C   UNL A   1      42.682  25.590  27.915  1.00  0.00     0.049 A 
ATOM     47  N   UNL A   1      45.579  26.403  27.970  1.00  0.00    -0.248 NA
ATOM     48  C   UNL A   1      46.152  24.248  27.285  1.00  0.00     0.031 C 
ATOM     49  C   UNL A   1      41.262  25.233  27.956  1.00  0.00     0.029 A 
ATOM     50  N   UNL A   1      42.705  26.902  28.317  1.00  0.00    -0.354 N 
ATOM     51  C   UNL A   1      46.962  26.294  27.903  1.00  0.00     0.074 A 
ATOM     52  C   UNL A   1      47.261  24.928  27.537  1.00  0.00     0.031 C 
ATOM     53  C   UNL A   1      40.549  26.306  28.330  1.00  0.00     0.029 A 
ATOM     54  C   UNL A   1      41.459  27.417  28.589  1.00  0.00     0.049 A 
ATOM     55  H   UNL A   1      43.534  27.425  28.404  1.00  0.00     0.167 HD
ATOM     56  C   UNL A   1      47.895  27.255  28.105  1.00  0.00     0.037 A 
ATOM     57  C   UNL A   1      41.094  28.645  29.002  1.00  0.00     0.037 A 
ATOM     58  C   UNL A   1      47.592  28.623  28.442  1.00  0.00     0.049 A 
ATOM     59  C   UNL A   1      42.153  29.696  29.196  1.00  0.00     0.074 A 
ATOM     60  C   UNL A   1      48.464  29.687  28.590  1.00  0.00     0.029 A 
ATOM     61  N   UNL A   1      46.318  29.113  28.686  1.00  0.00    -0.354 N 
ATOM     62  N   UNL A   1      43.451  29.605  29.038  1.00  0.00    -0.248 NA
ATOM     63  C   UNL A   1      41.692  31.028  29.614  1.00  0.00     0.031 C 
ATOM     64  C   UNL A   1      47.723  30.809  28.979  1.00  0.00     0.029 A 
ATOM     65  C   UNL A   1      46.384  30.458  29.012  1.00  0.00     0.049 A 
ATOM     66  H   UNL A   1      45.489  28.584  28.634  1.00  0.00     0.167 HD
ATOM     67  C   UNL A   1      43.958  30.869  29.313  1.00  0.00     0.074 A 
ATOM     68  C   UNL A   1      42.824  31.715  29.618  1.00  0.00     0.031 C 
ATOM     69  C   UNL A   1      45.246  31.289  29.316  1.00  0.00     0.037 A 
BRANCH  56  70
ATOM     70  C   UNL A   1      49.341  26.871  27.964  1.00  0.00     0.064 A 
ATOM     71  C   UNL A   1      50.137  26.573  29.080  1.00  0.00     0.173 A 
ATOM     72  C   UNL A   1      49.918  26.732  26.693  1.00  0.00     0.173 A 
ATOM     73  F   UNL A   1      49.638  26.699  30.319  1.00  0.00    -0.203 F 
ATOM     74  C   UNL A   1      51.462  26.170  28.930  1.00  0.00     0.198 A 
ATOM     75  C   UNL A   1      51.233  26.299  26.545  1.00  0.00     0.198 A 
ATOM     76  F   UNL A   1      49.201  26.998  25.591  1.00  0.00    -0.203 F 
ATOM     77  F   UNL A   1      52.214  25.929  30.013  1.00  0.00    -0.200 F 
ATOM     78  C   UNL A   1      52.006  26.024  27.663  1.00  0.00     0.200 A 
ATOM     79  F   UNL A   1      51.753  26.143  25.319  1.00  0.00    -0.200 F 
ATOM     80  F   UNL A   1      53.275  25.618  27.519  1.00  0.00    -0.200 F 
ENDBRANCH  56  70
BRANCH  57  81
ATOM     81  C   UNL A   1      39.659  28.956  29.244  1.00  0.00     0.064 A 
ATOM     82  C   UNL A   1      39.091  28.813  30.518  1.00  0.00     0.173 A 
ATOM     83  C   UNL A   1      38.820  29.378  28.202  1.00  0.00     0.173 A 
ATOM     84  F   UNL A   1      39.847  28.393  31.545  1.00  0.00    -0.203 F 
ATOM     85  C   UNL A   1      37.735  29.047  30.734  1.00  0.00     0.198 A 
ATOM     86  C   UNL A   1      37.471  29.645  28.426  1.00  0.00     0.198 A 
ATOM     87  F   UNL A   1      39.313  29.537  26.965  1.00  0.00    -0.203 F 
ATOM     88  F   UNL A   1      37.206  28.841  31.948  1.00  0.00    -0.200 F 
ATOM     89  C   UNL A   1      36.926  29.467  29.688  1.00  0.00     0.200 A 
ATOM     90  F   UNL A   1      36.698  30.067  27.416  1.00  0.00    -0.200 F 
ATOM     91  F   UNL A   1      35.622  29.690  29.895  1.00  0.00    -0.200 F 
ENDBRANCH  57  81
BRANCH  69  92
ATOM     92  C   UNL A   1      45.493  32.736  29.635  1.00  0.00     0.064 A 
ATOM     93  C   UNL A   1      45.746  33.170  30.946  1.00  0.00     0.173 A 
ATOM     94  C   UNL A   1      45.489  33.700  28.615  1.00  0.00     0.173 A 
ATOM     95  F   UNL A   1      45.747  32.290  31.959  1.00  0.00    -0.203 F 
ATOM     96  C   UNL A   1      45.943  34.519  31.228  1.00  0.00     0.198 A 
ATOM     97  C   UNL A   1      45.723  35.043  28.896  1.00  0.00     0.198 A 
ATOM     98  F   UNL A   1      45.262  33.339  27.343  1.00  0.00    -0.203 F 
ATOM     99  F   UNL A   1      46.116  34.917  32.496  1.00  0.00    -0.200 F 
ATOM    100  C   UNL A   1      45.937  35.453  30.203  1.00  0.00     0.200 A 
ATOM    101  F   UNL A   1      45.734  35.942  27.902  1.00  0.00    -0.200 F 
ATOM    102  F   UNL A   1      46.128  36.751  30.477  1.00  0.00    -0.200 F 
ENDBRANCH  69  92
ENDBRANCH  43  44
ENDBRANCH  35  38
ENDBRANCH  33  34
ENDBRANCH  32  33
ENDBRANCH   1  32
TORSDOF 17
ENDMDL
MODEL 3
REMARK VINA RESULT:     -12.2      3.298      8.308
REMARK SMILES COc1ccc(C(=O)C2=C(NCCCNC(=O)c3ccc(-c4c5nc(c(-c6c(F)c(F)c(F)c(F)c6F)c6ccc([nH]6)c(-c6c(F)c(F)c(F)c(F)c6F)c6nc(c(-c7c(F)c(F)c(F)c(F)c7F)c7ccc4[nH]7)C=C6)C=C5)cc3)C(=O)N(CCC(=O)[O-])[C@H]2c2ccccc2F)cc1
REMARK SMILES IDX 12 1 11 2 10 4 9 5 89 6 81 7 83 8 82 9 7 10 8 11 6 12 3 13
REMARK SMILES IDX 4 14 98 15 5 16 97 17 2 18 1 19 90 20 91 21 95 22 92 23
REMARK SMILES IDX 94 24 96 25 93 26 84 27 85 28 86 29 87 30 88 31 13 32 14 33
REMARK SMILES IDX 15 34 16 35 17 37 18 38 19 39 80 40 20 41 79 42 21 43 22 44
REMARK SMILES IDX 23 45 73 46 24 47 78 48 72 49 74 50 25 51 77 52 71 53 70 54
REMARK SMILES IDX 26 56 58 57 38 58 57 59 39 60 42 61 56 62 75 63 40 64 41 65
REMARK SMILES IDX 55 67 76 68 43 69 27 70 28 71 36 72 29 73 30 74 34 75 37 76
REMARK SMILES IDX 31 77 32 78 35 79 33 80 59 81 60 82 68 83 61 84 62 85 66 86
REMARK SMILES IDX 69 87 63 88 64 89 67 90 65 91 44 92 45 93 53 94 46 95 47 96
REMARK SMILES IDX 51 97 54 98 48 99 49 100 52 101 50 102
REMARK H PARENT 11 3 15 36 74 55 42 66
REMARK Flexibility Score: inf
ROOT
ATOM      1  C   UNL A   1      36.147  22.599  23.421  1.00  0.00     0.115 C 
ENDROOT
BRANCH   1   2
ATOM      2  N   UNL A   1      34.781  22.933  23.089  1.00  0.00    -0.380 N 
ATOM      3  H   UNL A   1      34.491  22.661  22.189  1.00  0.00     0.160 HD
BRANCH   2   4
ATOM      4  C   UNL A   1      33.829  23.572  23.838  1.00  0.00     0.110 C 
ATOM      5  C   UNL A   1      33.078  24.674  23.731  1.00  0.00     0.056 C 
ATOM      6  C   UNL A   1      32.077  24.855  24.835  1.00  0.00     0.155 C 
ATOM      7  C   UNL A   1      33.381  22.935  25.120  1.00  0.00     0.271 C 
ATOM      8  N   UNL A   1      32.294  23.638  25.591  1.00  0.00    -0.326 N 
ATOM      9  O   UNL A   1      33.915  21.952  25.605  1.00  0.00    -0.267 OA
BRANCH   5  10
ATOM     10  C   UNL A   1      33.076  25.539  22.542  1.00  0.00     0.193 C 
ATOM     11  O   UNL A   1      33.708  25.198  21.546  1.00  0.00    -0.289 OA
BRANCH  10  12
ATOM     12  C   UNL A   1      32.301  26.815  22.554  1.00  0.00     0.023 A 
ATOM     13  C   UNL A   1      30.729  29.143  22.821  1.00  0.00     0.118 A 
ATOM     14  C   UNL A   1      30.138  27.919  22.503  1.00  0.00     0.047 A 
ATOM     15  C   UNL A   1      32.114  29.209  22.947  1.00  0.00     0.047 A 
ATOM     16  C   UNL A   1      30.914  26.760  22.379  1.00  0.00     0.016 A 
ATOM     17  C   UNL A   1      32.894  28.060  22.776  1.00  0.00     0.016 A 
BRANCH  13  18
ATOM     18  O   UNL A   1      29.862  30.186  22.982  1.00  0.00    -0.497 OA
ATOM     19  C   UNL A   1      28.675  30.159  22.197  1.00  0.00     0.278 C 
ENDBRANCH  13  18
ENDBRANCH  10  12
ENDBRANCH   5  10
BRANCH   6  20
ATOM     20  C   UNL A   1      32.324  26.083  25.691  1.00  0.00     0.015 A 
ATOM     21  C   UNL A   1      33.623  26.560  25.966  1.00  0.00     0.009 A 
ATOM     22  C   UNL A   1      31.242  26.802  26.201  1.00  0.00     0.128 A 
ATOM     23  C   UNL A   1      33.816  27.735  26.694  1.00  0.00     0.001 A 
ATOM     24  C   UNL A   1      31.428  27.966  26.942  1.00  0.00     0.039 A 
ATOM     25  F   UNL A   1      29.993  26.373  25.977  1.00  0.00    -0.207 F 
ATOM     26  C   UNL A   1      32.718  28.440  27.180  1.00  0.00     0.003 A 
ENDBRANCH   6  20
BRANCH   8  27
ATOM     27  C   UNL A   1      31.504  23.271  26.762  1.00  0.00     0.127 C 
BRANCH  27  28
ATOM     28  C   UNL A   1      30.469  22.189  26.480  1.00  0.00     0.074 C 
BRANCH  28  29
ATOM     29  C   UNL A   1      29.170  22.526  27.145  1.00  0.00     0.043 C 
ATOM     30  O   UNL A   1      28.212  21.779  27.258  1.00  0.00    -0.550 OA
ATOM     31  O   UNL A   1      29.120  23.803  27.570  1.00  0.00    -0.550 OA
ENDBRANCH  28  29
ENDBRANCH  27  28
ENDBRANCH   8  27
ENDBRANCH   2   4
ENDBRANCH   1   2
BRANCH   1  32
ATOM     32  C   UNL A   1      36.768  23.713  24.253  1.00  0.00     0.042 C 
BRANCH  32  33
ATOM     33  C   UNL A   1      36.897  23.380  25.735  1.00  0.00     0.118 C 
BRANCH  33  34
ATOM     34  N   UNL A   1      38.017  22.493  26.021  1.00  0.00    -0.352 N 
ATOM     35  C   UNL A   1      39.272  22.769  26.498  1.00  0.00     0.251 C 
ATOM     36  H   UNL A   1      37.844  21.540  25.840  1.00  0.00     0.163 HD
ATOM     37  O   UNL A   1      40.130  21.890  26.491  1.00  0.00    -0.269 OA
BRANCH  35  38
ATOM     38  C   UNL A   1      39.615  24.118  27.004  1.00  0.00     0.039 A 
ATOM     39  C   UNL A   1      39.296  24.433  28.328  1.00  0.00     0.014 A 
ATOM     40  C   UNL A   1      40.209  25.082  26.185  1.00  0.00     0.014 A 
ATOM     41  C   UNL A   1      39.624  25.689  28.842  1.00  0.00     0.010 A 
ATOM     42  C   UNL A   1      40.615  26.302  26.723  1.00  0.00     0.010 A 
ATOM     43  C   UNL A   1      40.321  26.623  28.056  1.00  0.00    -0.014 A 
BRANCH  43  44
ATOM     44  C   UNL A   1      40.748  27.926  28.629  1.00  0.00     0.031 A 
ATOM     45  C   UNL A   1      42.184  28.166  29.009  1.00  0.00     0.074 A 
ATOM     46  C   UNL A   1      39.825  28.887  28.840  1.00  0.00     0.049 A 
ATOM     47  N   UNL A   1      42.736  29.241  29.518  1.00  0.00    -0.248 NA
ATOM     48  C   UNL A   1      43.121  27.048  28.821  1.00  0.00     0.031 C 
ATOM     49  C   UNL A   1      38.391  28.752  28.578  1.00  0.00     0.029 A 
ATOM     50  N   UNL A   1      39.954  30.165  29.324  1.00  0.00    -0.354 N 
ATOM     51  C   UNL A   1      44.073  28.922  29.718  1.00  0.00     0.074 A 
ATOM     52  C   UNL A   1      44.241  27.540  29.329  1.00  0.00     0.031 C 
ATOM     53  C   UNL A   1      37.778  29.909  28.873  1.00  0.00     0.029 A 
ATOM     54  C   UNL A   1      38.767  30.856  29.378  1.00  0.00     0.049 A 
ATOM     55  H   UNL A   1      40.814  30.551  29.606  1.00  0.00     0.167 HD
ATOM     56  C   UNL A   1      45.074  29.720  30.162  1.00  0.00     0.037 A 
ATOM     57  C   UNL A   1      38.506  32.111  29.790  1.00  0.00     0.037 A 
ATOM     58  C   UNL A   1      44.908  31.106  30.520  1.00  0.00     0.049 A 
ATOM     59  C   UNL A   1      39.642  32.979  30.257  1.00  0.00     0.074 A 
ATOM     60  C   UNL A   1      45.876  32.017  30.907  1.00  0.00     0.029 A 
ATOM     61  N   UNL A   1      43.695  31.778  30.540  1.00  0.00    -0.354 N 
ATOM     62  N   UNL A   1      40.918  32.694  30.352  1.00  0.00    -0.248 NA
ATOM     63  C   UNL A   1      39.303  34.350  30.662  1.00  0.00     0.031 C 
ATOM     64  C   UNL A   1      45.241  33.225  31.215  1.00  0.00     0.029 A 
ATOM     65  C   UNL A   1      43.887  33.084  30.960  1.00  0.00     0.049 A 
ATOM     66  H   UNL A   1      42.827  31.385  30.292  1.00  0.00     0.167 HD
ATOM     67  C   UNL A   1      41.535  33.854  30.803  1.00  0.00     0.074 A 
ATOM     68  C   UNL A   1      40.497  34.854  30.934  1.00  0.00     0.031 C 
ATOM     69  C   UNL A   1      42.843  34.070  31.087  1.00  0.00     0.037 A 
BRANCH  56  70
ATOM     70  C   UNL A   1      46.447  29.123  30.284  1.00  0.00     0.064 A 
ATOM     71  C   UNL A   1      46.902  28.560  31.486  1.00  0.00     0.173 A 
ATOM     72  C   UNL A   1      47.292  29.049  29.166  1.00  0.00     0.173 A 
ATOM     73  F   UNL A   1      46.139  28.612  32.587  1.00  0.00    -0.203 F 
ATOM     74  C   UNL A   1      48.159  27.966  31.569  1.00  0.00     0.198 A 
ATOM     75  C   UNL A   1      48.535  28.427  29.244  1.00  0.00     0.198 A 
ATOM     76  F   UNL A   1      46.904  29.566  27.990  1.00  0.00    -0.203 F 
ATOM     77  F   UNL A   1      48.588  27.470  32.738  1.00  0.00    -0.200 F 
ATOM     78  C   UNL A   1      48.970  27.891  30.446  1.00  0.00     0.200 A 
ATOM     79  F   UNL A   1      49.310  28.341  28.154  1.00  0.00    -0.200 F 
ATOM     80  F   UNL A   1      50.171  27.301  30.523  1.00  0.00    -0.200 F 
ENDBRANCH  56  70
BRANCH  57  81
ATOM     81  C   UNL A   1      37.112  32.630  29.765  1.00  0.00     0.064 A 
ATOM     82  C   UNL A   1      36.249  32.448  30.855  1.00  0.00     0.173 A 
ATOM     83  C   UNL A   1      36.604  33.299  28.640  1.00  0.00     0.173 A 
ATOM     84  F   UNL A   1      36.680  31.798  31.948  1.00  0.00    -0.203 F 
ATOM     85  C   UNL A   1      34.926  32.882  30.810  1.00  0.00     0.198 A 
ATOM     86  C   UNL A   1      35.292  33.763  28.608  1.00  0.00     0.198 A 
ATOM     87  F   UNL A   1      37.388  33.506  27.571  1.00  0.00    -0.203 F 
ATOM     88  F   UNL A   1      34.108  32.639  31.842  1.00  0.00    -0.200 F 
ATOM     89  C   UNL A   1      34.450  33.544  29.688  1.00  0.00     0.200 A 
ATOM     90  F   UNL A   1      34.840  34.416  27.528  1.00  0.00    -0.200 F 
ATOM     91  F   UNL A   1      33.177  33.959  29.643  1.00  0.00    -0.200 F 
ENDBRANCH  57  81
BRANCH  69  92
ATOM     92  C   UNL A   1      43.225  35.449  31.543  1.00  0.00     0.064 A 
ATOM     93  C   UNL A   1      43.187  35.817  32.897  1.00  0.00     0.173 A 
ATOM     94  C   UNL A   1      43.646  36.414  30.614  1.00  0.00     0.173 A 
ATOM     95  F   UNL A   1      42.779  34.936  33.823  1.00  0.00    -0.203 F 
ATOM     96  C   UNL A   1      43.517  37.108  33.298  1.00  0.00     0.198 A 
ATOM     97  C   UNL A   1      44.010  37.694  31.023  1.00  0.00     0.198 A 
ATOM     98  F   UNL A   1      43.709  36.113  29.308  1.00  0.00    -0.203 F 
ATOM     99  F   UNL A   1      43.409  37.454  34.589  1.00  0.00    -0.200 F 
ATOM    100  C   UNL A   1      43.932  38.044  32.362  1.00  0.00     0.200 A 
ATOM    101  F   UNL A   1      44.427  38.591  30.119  1.00  0.00    -0.200 F 
ATOM    102  F   UNL A   1      44.250  39.286  32.751  1.00  0.00    -0.200 F 
ENDBRANCH  69  92
ENDBRANCH  43  44
ENDBRANCH  35  38
ENDBRANCH  33  34
ENDBRANCH  32  33
ENDBRANCH   1  32
TORSDOF 17
ENDMDL
