MODEL 1
REMARK VINA RESULT:     -12.3      0.000      0.000
REMARK SMILES CCC[C@]1(C(=O)NCCCNC(=O)c2ccc(-c3c4nc(c(-c5c(F)c(F)c(F)c(F)c5F)c5ccc([nH]5)c(-c5c(F)c(F)c(F)c(F)c5F)c5nc(c(-c6c(F)c(F)c(F)c(F)c6F)c6ccc3[nH]6)C=C5)C=C4)cc2)CCN(C(=O)c2cccnc2C)C1
REMARK SMILES IDX 9 1 8 2 7 3 5 4 6 5 4 7 77 8 89 9 78 10 79 11 3 12 2 13 1 14
REMARK SMILES IDX 80 15 81 16 82 17 83 18 87 19 84 20 86 21 88 22 85 23 10 24
REMARK SMILES IDX 11 25 12 26 13 28 14 29 15 30 76 31 16 32 75 33 17 34 18 35
REMARK SMILES IDX 19 36 69 37 20 38 74 39 68 40 70 41 21 42 73 43 67 44 66 45
REMARK SMILES IDX 22 47 54 48 34 49 53 50 35 51 38 52 52 53 71 54 36 55 37 56
REMARK SMILES IDX 51 58 72 59 39 60 23 61 24 62 32 63 25 64 26 65 30 66 33 67
REMARK SMILES IDX 27 68 28 69 31 70 29 71 55 72 56 73 64 74 57 75 58 76 62 77
REMARK SMILES IDX 65 78 59 79 60 80 63 81 61 82 40 83 41 84 49 85 42 86 43 87
REMARK SMILES IDX 47 88 50 89 44 90 45 91 48 92 46 93
REMARK H PARENT 7 6 11 27 70 46 38 57
REMARK Flexibility Score: inf
ROOT
ATOM      1  C   UNL A   1      31.360  32.311  26.552  1.00  0.00     0.042 C 
ENDROOT
BRANCH   1   2
ATOM      2  C   UNL A   1      31.391  30.793  26.420  1.00  0.00     0.117 C 
BRANCH   2   3
ATOM      3  N   UNL A   1      31.445  30.342  25.043  1.00  0.00    -0.355 N 
ATOM      4  C   UNL A   1      31.744  29.148  24.472  1.00  0.00     0.228 C 
ATOM      5  O   UNL A   1      31.460  29.079  23.272  1.00  0.00    -0.274 OA
ATOM      6  H   UNL A   1      31.220  31.044  24.391  1.00  0.00     0.163 HD
BRANCH   4   7
ATOM      7  C   UNL A   1      32.335  27.944  25.234  1.00  0.00     0.068 C 
ATOM      8  C   UNL A   1      31.532  27.473  26.474  1.00  0.00     0.040 C 
ATOM      9  C   UNL A   1      32.287  26.715  24.285  1.00  0.00     0.136 C 
ATOM     10  C   UNL A   1      31.515  25.951  26.399  1.00  0.00     0.121 C 
ATOM     11  N   UNL A   1      31.522  25.688  24.979  1.00  0.00    -0.337 N 
BRANCH   7  12
ATOM     12  C   UNL A   1      33.819  28.216  25.649  1.00  0.00     0.018 C 
BRANCH  12  13
ATOM     13  C   UNL A   1      34.153  28.581  27.112  1.00  0.00    -0.002 C 
ATOM     14  C   UNL A   1      34.895  29.883  27.360  1.00  0.00     0.004 C 
ENDBRANCH  12  13
ENDBRANCH   7  12
BRANCH  11  15
ATOM     15  C   UNL A   1      30.981  24.622  24.286  1.00  0.00     0.255 C 
ATOM     16  O   UNL A   1      30.036  24.746  23.511  1.00  0.00    -0.269 OA
BRANCH  15  17
ATOM     17  C   UNL A   1      31.563  23.275  24.435  1.00  0.00     0.061 A 
ATOM     18  C   UNL A   1      32.408  22.825  23.416  1.00  0.00     0.017 A 
ATOM     19  C   UNL A   1      31.195  22.380  25.442  1.00  0.00     0.050 A 
ATOM     20  C   UNL A   1      32.905  21.527  23.457  1.00  0.00     0.021 A 
ATOM     21  N   UNL A   1      31.712  21.122  25.513  1.00  0.00    -0.261 NA
ATOM     22  C   UNL A   1      30.198  22.712  26.508  1.00  0.00     0.067 C 
ATOM     23  C   UNL A   1      32.541  20.724  24.524  1.00  0.00     0.111 A 
ENDBRANCH  15  17
ENDBRANCH  11  15
ENDBRANCH   4   7
ENDBRANCH   2   3
ENDBRANCH   1   2
BRANCH   1  24
ATOM     24  C   UNL A   1      32.600  32.911  27.198  1.00  0.00     0.118 C 
BRANCH  24  25
ATOM     25  N   UNL A   1      32.393  34.280  27.645  1.00  0.00    -0.352 N 
ATOM     26  C   UNL A   1      32.999  34.988  28.652  1.00  0.00     0.251 C 
ATOM     27  H   UNL A   1      31.708  34.778  27.144  1.00  0.00     0.163 HD
ATOM     28  O   UNL A   1      32.543  36.075  28.990  1.00  0.00    -0.269 OA
BRANCH  26  29
ATOM     29  C   UNL A   1      34.184  34.445  29.352  1.00  0.00     0.039 A 
ATOM     30  C   UNL A   1      33.998  33.748  30.549  1.00  0.00     0.014 A 
ATOM     31  C   UNL A   1      35.476  34.648  28.860  1.00  0.00     0.014 A 
ATOM     32  C   UNL A   1      35.097  33.199  31.215  1.00  0.00     0.010 A 
ATOM     33  C   UNL A   1      36.560  34.033  29.477  1.00  0.00     0.010 A 
ATOM     34  C   UNL A   1      36.384  33.307  30.665  1.00  0.00    -0.014 A 
BRANCH  34  35
ATOM     35  C   UNL A   1      37.561  32.680  31.317  1.00  0.00     0.031 A 
ATOM     36  C   UNL A   1      38.264  31.527  30.654  1.00  0.00     0.074 A 
ATOM     37  C   UNL A   1      37.944  33.091  32.541  1.00  0.00     0.049 A 
ATOM     38  N   UNL A   1      39.234  30.776  31.111  1.00  0.00    -0.248 NA
ATOM     39  C   UNL A   1      37.793  31.149  29.313  1.00  0.00     0.031 C 
ATOM     40  C   UNL A   1      37.310  34.163  33.310  1.00  0.00     0.029 A 
ATOM     41  N   UNL A   1      38.947  32.640  33.363  1.00  0.00    -0.354 N 
ATOM     42  C   UNL A   1      39.467  29.822  30.128  1.00  0.00     0.074 A 
ATOM     43  C   UNL A   1      38.512  30.063  29.068  1.00  0.00     0.031 C 
ATOM     44  C   UNL A   1      37.945  34.295  34.487  1.00  0.00     0.029 A 
ATOM     45  C   UNL A   1      39.005  33.295  34.570  1.00  0.00     0.049 A 
ATOM     46  H   UNL A   1      39.566  31.918  33.112  1.00  0.00     0.167 HD
ATOM     47  C   UNL A   1      40.407  28.847  30.104  1.00  0.00     0.037 A 
ATOM     48  C   UNL A   1      39.814  33.102  35.629  1.00  0.00     0.037 A 
ATOM     49  C   UNL A   1      41.387  28.640  31.137  1.00  0.00     0.049 A 
ATOM     50  C   UNL A   1      40.868  32.030  35.563  1.00  0.00     0.074 A 
ATOM     51  C   UNL A   1      42.432  27.735  31.166  1.00  0.00     0.029 A 
ATOM     52  N   UNL A   1      41.442  29.354  32.325  1.00  0.00    -0.354 N 
ATOM     53  N   UNL A   1      41.124  31.181  34.599  1.00  0.00    -0.248 NA
ATOM     54  C   UNL A   1      41.749  31.893  36.732  1.00  0.00     0.031 C 
ATOM     55  C   UNL A   1      43.097  27.873  32.388  1.00  0.00     0.029 A 
ATOM     56  C   UNL A   1      42.493  28.895  33.102  1.00  0.00     0.049 A 
ATOM     57  H   UNL A   1      40.826  30.080  32.579  1.00  0.00     0.167 HD
ATOM     58  C   UNL A   1      42.208  30.429  35.030  1.00  0.00     0.074 A 
ATOM     59  C   UNL A   1      42.570  30.930  36.339  1.00  0.00     0.031 C 
ATOM     60  C   UNL A   1      42.845  29.413  34.399  1.00  0.00     0.037 A 
BRANCH  47  61
ATOM     61  C   UNL A   1      40.428  27.928  28.919  1.00  0.00     0.064 A 
ATOM     62  C   UNL A   1      41.202  28.207  27.783  1.00  0.00     0.173 A 
ATOM     63  C   UNL A   1      39.702  26.727  28.938  1.00  0.00     0.173 A 
ATOM     64  F   UNL A   1      41.905  29.348  27.711  1.00  0.00    -0.203 F 
ATOM     65  C   UNL A   1      41.231  27.331  26.701  1.00  0.00     0.198 A 
ATOM     66  C   UNL A   1      39.755  25.839  27.866  1.00  0.00     0.198 A 
ATOM     67  F   UNL A   1      38.950  26.408  30.003  1.00  0.00    -0.203 F 
ATOM     68  F   UNL A   1      41.945  27.640  25.610  1.00  0.00    -0.200 F 
ATOM     69  C   UNL A   1      40.514  26.145  26.747  1.00  0.00     0.200 A 
ATOM     70  F   UNL A   1      39.071  24.688  27.917  1.00  0.00    -0.200 F 
ATOM     71  F   UNL A   1      40.551  25.298  25.709  1.00  0.00    -0.200 F 
ENDBRANCH  47  61
BRANCH  48  72
ATOM     72  C   UNL A   1      39.670  33.953  36.837  1.00  0.00     0.064 A 
ATOM     73  C   UNL A   1      38.885  33.538  37.921  1.00  0.00     0.173 A 
ATOM     74  C   UNL A   1      40.308  35.198  36.932  1.00  0.00     0.173 A 
ATOM     75  F   UNL A   1      38.237  32.365  37.867  1.00  0.00    -0.203 F 
ATOM     76  C   UNL A   1      38.726  34.345  39.046  1.00  0.00     0.198 A 
ATOM     77  C   UNL A   1      40.171  35.993  38.068  1.00  0.00     0.198 A 
ATOM     78  F   UNL A   1      41.075  35.639  35.924  1.00  0.00    -0.203 F 
ATOM     79  F   UNL A   1      37.933  33.944  40.048  1.00  0.00    -0.200 F 
ATOM     80  C   UNL A   1      39.374  35.569  39.121  1.00  0.00     0.200 A 
ATOM     81  F   UNL A   1      40.807  37.169  38.142  1.00  0.00    -0.200 F 
ATOM     82  F   UNL A   1      39.222  36.345  40.203  1.00  0.00    -0.200 F 
ENDBRANCH  48  72
BRANCH  60  83
ATOM     83  C   UNL A   1      44.019  28.795  35.099  1.00  0.00     0.064 A 
ATOM     84  C   UNL A   1      45.315  29.305  34.948  1.00  0.00     0.173 A 
ATOM     85  C   UNL A   1      43.835  27.708  35.967  1.00  0.00     0.173 A 
ATOM     86  F   UNL A   1      45.544  30.334  34.116  1.00  0.00    -0.203 F 
ATOM     87  C   UNL A   1      46.391  28.737  35.626  1.00  0.00     0.198 A 
ATOM     88  C   UNL A   1      44.907  27.160  36.665  1.00  0.00     0.198 A 
ATOM     89  F   UNL A   1      42.611  27.189  36.151  1.00  0.00    -0.203 F 
ATOM     90  F   UNL A   1      47.628  29.215  35.436  1.00  0.00    -0.200 F 
ATOM     91  C   UNL A   1      46.184  27.671  36.490  1.00  0.00     0.200 A 
ATOM     92  F   UNL A   1      44.704  26.138  37.508  1.00  0.00    -0.200 F 
ATOM     93  F   UNL A   1      47.219  27.131  37.148  1.00  0.00    -0.200 F 
ENDBRANCH  60  83
ENDBRANCH  34  35
ENDBRANCH  26  29
ENDBRANCH  24  25
ENDBRANCH   1  24
TORSDOF 14
ENDMDL
MODEL 2
REMARK VINA RESULT:     -12.3      0.923      2.239
REMARK SMILES CCC[C@]1(C(=O)NCCCNC(=O)c2ccc(-c3c4nc(c(-c5c(F)c(F)c(F)c(F)c5F)c5ccc([nH]5)c(-c5c(F)c(F)c(F)c(F)c5F)c5nc(c(-c6c(F)c(F)c(F)c(F)c6F)c6ccc3[nH]6)C=C5)C=C4)cc2)CCN(C(=O)c2cccnc2C)C1
REMARK SMILES IDX 9 1 8 2 7 3 5 4 6 5 4 7 77 8 89 9 78 10 79 11 3 12 2 13 1 14
REMARK SMILES IDX 80 15 81 16 82 17 83 18 87 19 84 20 86 21 88 22 85 23 10 24
REMARK SMILES IDX 11 25 12 26 13 28 14 29 15 30 76 31 16 32 75 33 17 34 18 35
REMARK SMILES IDX 19 36 69 37 20 38 74 39 68 40 70 41 21 42 73 43 67 44 66 45
REMARK SMILES IDX 22 47 54 48 34 49 53 50 35 51 38 52 52 53 71 54 36 55 37 56
REMARK SMILES IDX 51 58 72 59 39 60 23 61 24 62 32 63 25 64 26 65 30 66 33 67
REMARK SMILES IDX 27 68 28 69 31 70 29 71 55 72 56 73 64 74 57 75 58 76 62 77
REMARK SMILES IDX 65 78 59 79 60 80 63 81 61 82 40 83 41 84 49 85 42 86 43 87
REMARK SMILES IDX 47 88 50 89 44 90 45 91 48 92 46 93
REMARK H PARENT 7 6 11 27 70 46 38 57
REMARK Flexibility Score: inf
ROOT
ATOM      1  C   UNL A   1      31.348  32.207  26.501  1.00  0.00     0.042 C 
ENDROOT
BRANCH   1   2
ATOM      2  C   UNL A   1      31.400  30.703  26.263  1.00  0.00     0.117 C 
BRANCH   2   3
ATOM      3  N   UNL A   1      32.037  30.346  25.011  1.00  0.00    -0.355 N 
ATOM      4  C   UNL A   1      32.566  29.189  24.539  1.00  0.00     0.228 C 
ATOM      5  O   UNL A   1      32.816  29.206  23.329  1.00  0.00    -0.274 OA
ATOM      6  H   UNL A   1      32.099  31.094  24.375  1.00  0.00     0.163 HD
BRANCH   4   7
ATOM      7  C   UNL A   1      32.797  27.926  25.394  1.00  0.00     0.068 C 
ATOM      8  C   UNL A   1      31.561  27.007  25.583  1.00  0.00     0.040 C 
ATOM      9  C   UNL A   1      33.807  27.021  24.637  1.00  0.00     0.136 C 
ATOM     10  C   UNL A   1      32.078  25.584  25.407  1.00  0.00     0.121 C 
ATOM     11  N   UNL A   1      33.149  25.735  24.451  1.00  0.00    -0.337 N 
BRANCH   7  12
ATOM     12  C   UNL A   1      33.386  28.297  26.795  1.00  0.00     0.018 C 
BRANCH  12  13
ATOM     13  C   UNL A   1      34.781  28.953  26.893  1.00  0.00    -0.002 C 
ATOM     14  C   UNL A   1      34.886  30.275  27.633  1.00  0.00     0.004 C 
ENDBRANCH  12  13
ENDBRANCH   7  12
BRANCH  11  15
ATOM     15  C   UNL A   1      33.612  24.836  23.510  1.00  0.00     0.255 C 
ATOM     16  O   UNL A   1      33.949  25.176  22.378  1.00  0.00    -0.269 OA
BRANCH  15  17
ATOM     17  C   UNL A   1      33.751  23.409  23.858  1.00  0.00     0.061 A 
ATOM     18  C   UNL A   1      32.695  22.560  23.512  1.00  0.00     0.017 A 
ATOM     19  C   UNL A   1      34.790  22.900  24.640  1.00  0.00     0.050 A 
ATOM     20  C   UNL A   1      32.730  21.225  23.902  1.00  0.00     0.021 A 
ATOM     21  N   UNL A   1      34.852  21.584  24.989  1.00  0.00    -0.261 NA
ATOM     22  C   UNL A   1      35.901  23.747  25.176  1.00  0.00     0.067 C 
ATOM     23  C   UNL A   1      33.826  20.786  24.623  1.00  0.00     0.111 A 
ENDBRANCH  15  17
ENDBRANCH  11  15
ENDBRANCH   4   7
ENDBRANCH   2   3
ENDBRANCH   1   2
BRANCH   1  24
ATOM     24  C   UNL A   1      32.551  32.768  27.246  1.00  0.00     0.118 C 
BRANCH  24  25
ATOM     25  N   UNL A   1      32.376  34.161  27.626  1.00  0.00    -0.352 N 
ATOM     26  C   UNL A   1      32.996  34.902  28.600  1.00  0.00     0.251 C 
ATOM     27  H   UNL A   1      31.703  34.651  27.100  1.00  0.00     0.163 HD
ATOM     28  O   UNL A   1      32.566  36.015  28.884  1.00  0.00    -0.269 OA
BRANCH  26  29
ATOM     29  C   UNL A   1      34.167  34.365  29.328  1.00  0.00     0.039 A 
ATOM     30  C   UNL A   1      33.965  33.753  30.569  1.00  0.00     0.014 A 
ATOM     31  C   UNL A   1      35.461  34.493  28.819  1.00  0.00     0.014 A 
ATOM     32  C   UNL A   1      35.049  33.211  31.264  1.00  0.00     0.010 A 
ATOM     33  C   UNL A   1      36.529  33.882  29.471  1.00  0.00     0.010 A 
ATOM     34  C   UNL A   1      36.336  33.240  30.703  1.00  0.00    -0.014 A 
BRANCH  34  35
ATOM     35  C   UNL A   1      37.494  32.616  31.390  1.00  0.00     0.031 A 
ATOM     36  C   UNL A   1      38.217  31.462  30.751  1.00  0.00     0.074 A 
ATOM     37  C   UNL A   1      37.843  33.033  32.622  1.00  0.00     0.049 A 
ATOM     38  N   UNL A   1      39.175  30.714  31.237  1.00  0.00    -0.248 NA
ATOM     39  C   UNL A   1      37.783  31.078  29.399  1.00  0.00     0.031 C 
ATOM     40  C   UNL A   1      37.188  34.106  33.370  1.00  0.00     0.029 A 
ATOM     41  N   UNL A   1      38.825  32.586  33.474  1.00  0.00    -0.354 N 
ATOM     42  C   UNL A   1      39.436  29.756  30.264  1.00  0.00     0.074 A 
ATOM     43  C   UNL A   1      38.510  29.992  29.178  1.00  0.00     0.031 C 
ATOM     44  C   UNL A   1      37.790  34.243  34.563  1.00  0.00     0.029 A 
ATOM     45  C   UNL A   1      38.849  33.246  34.679  1.00  0.00     0.049 A 
ATOM     46  H   UNL A   1      39.451  31.863  33.242  1.00  0.00     0.167 HD
ATOM     47  C   UNL A   1      40.377  28.783  30.270  1.00  0.00     0.037 A 
ATOM     48  C   UNL A   1      39.628  33.057  35.760  1.00  0.00     0.037 A 
ATOM     49  C   UNL A   1      41.328  28.580  31.330  1.00  0.00     0.049 A 
ATOM     50  C   UNL A   1      40.685  31.986  35.728  1.00  0.00     0.074 A 
ATOM     51  C   UNL A   1      42.373  27.676  31.390  1.00  0.00     0.029 A 
ATOM     52  N   UNL A   1      41.350  29.298  32.516  1.00  0.00    -0.354 N 
ATOM     53  N   UNL A   1      40.969  31.133  34.774  1.00  0.00    -0.248 NA
ATOM     54  C   UNL A   1      41.534  31.854  36.921  1.00  0.00     0.031 C 
ATOM     55  C   UNL A   1      43.004  27.820  32.630  1.00  0.00     0.029 A 
ATOM     56  C   UNL A   1      42.380  28.843  33.324  1.00  0.00     0.049 A 
ATOM     57  H   UNL A   1      40.727  30.025  32.750  1.00  0.00     0.167 HD
ATOM     58  C   UNL A   1      42.041  30.384  35.237  1.00  0.00     0.074 A 
ATOM     59  C   UNL A   1      42.367  30.891  36.553  1.00  0.00     0.031 C 
ATOM     60  C   UNL A   1      42.696  29.367  34.627  1.00  0.00     0.037 A 
BRANCH  47  61
ATOM     61  C   UNL A   1      40.431  27.859  29.089  1.00  0.00     0.064 A 
ATOM     62  C   UNL A   1      39.667  26.684  29.036  1.00  0.00     0.173 A 
ATOM     63  C   UNL A   1      41.221  28.177  27.974  1.00  0.00     0.173 A 
ATOM     64  F   UNL A   1      38.904  26.329  30.082  1.00  0.00    -0.203 F 
ATOM     65  C   UNL A   1      39.709  25.850  27.922  1.00  0.00     0.198 A 
ATOM     66  C   UNL A   1      41.239  27.356  26.849  1.00  0.00     0.198 A 
ATOM     67  F   UNL A   1      41.968  29.292  27.969  1.00  0.00    -0.203 F 
ATOM     68  F   UNL A   1      39.001  24.712  27.913  1.00  0.00    -0.200 F 
ATOM     69  C   UNL A   1      40.488  26.190  26.827  1.00  0.00     0.200 A 
ATOM     70  F   UNL A   1      41.984  27.692  25.787  1.00  0.00    -0.200 F 
ATOM     71  F   UNL A   1      40.519  25.392  25.751  1.00  0.00    -0.200 F 
ENDBRANCH  47  61
BRANCH  48  72
ATOM     72  C   UNL A   1      39.451  33.913  36.961  1.00  0.00     0.064 A 
ATOM     73  C   UNL A   1      40.040  35.182  37.034  1.00  0.00     0.173 A 
ATOM     74  C   UNL A   1      38.693  33.480  38.059  1.00  0.00     0.173 A 
ATOM     75  F   UNL A   1      40.792  35.629  36.017  1.00  0.00    -0.203 F 
ATOM     76  C   UNL A   1      39.898  35.978  38.168  1.00  0.00     0.198 A 
ATOM     77  C   UNL A   1      38.529  34.288  39.182  1.00  0.00     0.198 A 
ATOM     78  F   UNL A   1      38.104  32.276  38.036  1.00  0.00    -0.203 F 
ATOM     79  F   UNL A   1      40.511  37.168  38.230  1.00  0.00    -0.200 F 
ATOM     80  C   UNL A   1      39.138  35.533  39.239  1.00  0.00     0.200 A 
ATOM     81  F   UNL A   1      37.784  33.860  40.210  1.00  0.00    -0.200 F 
ATOM     82  F   UNL A   1      38.999  36.299  40.330  1.00  0.00    -0.200 F 
ENDBRANCH  48  72
BRANCH  60  83
ATOM     83  C   UNL A   1      43.850  28.753  35.362  1.00  0.00     0.064 A 
ATOM     84  C   UNL A   1      43.670  27.682  36.248  1.00  0.00     0.173 A 
ATOM     85  C   UNL A   1      45.157  29.214  35.142  1.00  0.00     0.173 A 
ATOM     86  F   UNL A   1      42.437  27.217  36.503  1.00  0.00    -0.203 F 
ATOM     87  C   UNL A   1      44.756  27.105  36.902  1.00  0.00     0.198 A 
ATOM     88  C   UNL A   1      46.242  28.618  35.776  1.00  0.00     0.198 A 
ATOM     89  F   UNL A   1      45.381  30.233  34.298  1.00  0.00    -0.203 F 
ATOM     90  F   UNL A   1      44.557  26.108  37.775  1.00  0.00    -0.200 F 
ATOM     91  C   UNL A   1      46.041  27.568  36.659  1.00  0.00     0.200 A 
ATOM     92  F   UNL A   1      47.485  29.058  35.532  1.00  0.00    -0.200 F 
ATOM     93  F   UNL A   1      47.085  27.006  37.284  1.00  0.00    -0.200 F 
ENDBRANCH  60  83
ENDBRANCH  34  35
ENDBRANCH  26  29
ENDBRANCH  24  25
ENDBRANCH   1  24
TORSDOF 14
ENDMDL
MODEL 3
REMARK VINA RESULT:     -12.2      1.437      3.218
REMARK SMILES CCC[C@]1(C(=O)NCCCNC(=O)c2ccc(-c3c4nc(c(-c5c(F)c(F)c(F)c(F)c5F)c5ccc([nH]5)c(-c5c(F)c(F)c(F)c(F)c5F)c5nc(c(-c6c(F)c(F)c(F)c(F)c6F)c6ccc3[nH]6)C=C5)C=C4)cc2)CCN(C(=O)c2cccnc2C)C1
REMARK SMILES IDX 9 1 8 2 7 3 5 4 6 5 4 7 77 8 89 9 78 10 79 11 3 12 2 13 1 14
REMARK SMILES IDX 80 15 81 16 82 17 83 18 87 19 84 20 86 21 88 22 85 23 10 24
REMARK SMILES IDX 11 25 12 26 13 28 14 29 15 30 76 31 16 32 75 33 17 34 18 35
REMARK SMILES IDX 19 36 69 37 20 38 74 39 68 40 70 41 21 42 73 43 67 44 66 45
REMARK SMILES IDX 22 47 54 48 34 49 53 50 35 51 38 52 52 53 71 54 36 55 37 56
REMARK SMILES IDX 51 58 72 59 39 60 23 61 24 62 32 63 25 64 26 65 30 66 33 67
REMARK SMILES IDX 27 68 28 69 31 70 29 71 55 72 56 73 64 74 57 75 58 76 62 77
REMARK SMILES IDX 65 78 59 79 60 80 63 81 61 82 40 83 41 84 49 85 42 86 43 87
REMARK SMILES IDX 47 88 50 89 44 90 45 91 48 92 46 93
REMARK H PARENT 7 6 11 27 70 46 38 57
REMARK Flexibility Score: inf
ROOT
ATOM      1  C   UNL A   1      31.393  32.129  26.553  1.00  0.00     0.042 C 
ENDROOT
BRANCH   1   2
ATOM      2  C   UNL A   1      31.553  30.658  26.187  1.00  0.00     0.117 C 
BRANCH   2   3
ATOM      3  N   UNL A   1      32.877  30.140  26.472  1.00  0.00    -0.355 N 
ATOM      4  C   UNL A   1      33.466  28.938  26.256  1.00  0.00     0.228 C 
ATOM      5  O   UNL A   1      34.690  28.939  26.426  1.00  0.00    -0.274 OA
ATOM      6  H   UNL A   1      33.467  30.793  26.911  1.00  0.00     0.163 HD
BRANCH   4   7
ATOM      7  C   UNL A   1      32.716  27.674  25.784  1.00  0.00     0.068 C 
ATOM      8  C   UNL A   1      31.320  27.445  26.419  1.00  0.00     0.040 C 
ATOM      9  C   UNL A   1      32.402  27.849  24.273  1.00  0.00     0.136 C 
ATOM     10  C   UNL A   1      30.414  27.013  25.271  1.00  0.00     0.121 C 
ATOM     11  N   UNL A   1      30.958  27.717  24.135  1.00  0.00    -0.337 N 
BRANCH   7  12
ATOM     12  C   UNL A   1      33.593  26.394  25.984  1.00  0.00     0.018 C 
BRANCH  12  13
ATOM     13  C   UNL A   1      33.735  25.373  24.834  1.00  0.00    -0.002 C 
ATOM     14  C   UNL A   1      34.982  24.505  24.813  1.00  0.00     0.004 C 
ENDBRANCH  12  13
ENDBRANCH   7  12
BRANCH  11  15
ATOM     15  C   UNL A   1      30.314  28.177  23.002  1.00  0.00     0.255 C 
ATOM     16  O   UNL A   1      30.520  27.707  21.886  1.00  0.00    -0.269 OA
BRANCH  15  17
ATOM     17  C   UNL A   1      29.310  29.252  23.109  1.00  0.00     0.061 A 
ATOM     18  C   UNL A   1      29.782  30.567  23.161  1.00  0.00     0.017 A 
ATOM     19  C   UNL A   1      27.948  29.022  23.317  1.00  0.00     0.050 A 
ATOM     20  C   UNL A   1      28.886  31.612  23.360  1.00  0.00     0.021 A 
ATOM     21  N   UNL A   1      27.059  30.043  23.469  1.00  0.00    -0.261 NA
ATOM     22  C   UNL A   1      27.355  27.651  23.412  1.00  0.00     0.067 C 
ATOM     23  C   UNL A   1      27.544  31.303  23.496  1.00  0.00     0.111 A 
ENDBRANCH  15  17
ENDBRANCH  11  15
ENDBRANCH   4   7
ENDBRANCH   2   3
ENDBRANCH   1   2
BRANCH   1  24
ATOM     24  C   UNL A   1      32.632  32.761  27.172  1.00  0.00     0.118 C 
BRANCH  24  25
ATOM     25  N   UNL A   1      32.407  34.132  27.601  1.00  0.00    -0.352 N 
ATOM     26  C   UNL A   1      32.997  34.859  28.604  1.00  0.00     0.251 C 
ATOM     27  H   UNL A   1      31.719  34.617  27.089  1.00  0.00     0.163 HD
ATOM     28  O   UNL A   1      32.527  35.945  28.926  1.00  0.00    -0.269 OA
BRANCH  26  29
ATOM     29  C   UNL A   1      34.184  34.338  29.317  1.00  0.00     0.039 A 
ATOM     30  C   UNL A   1      33.992  33.570  30.470  1.00  0.00     0.014 A 
ATOM     31  C   UNL A   1      35.480  34.629  28.885  1.00  0.00     0.014 A 
ATOM     32  C   UNL A   1      35.094  33.039  31.146  1.00  0.00     0.010 A 
ATOM     33  C   UNL A   1      36.572  34.035  29.509  1.00  0.00     0.010 A 
ATOM     34  C   UNL A   1      36.392  33.239  30.650  1.00  0.00    -0.014 A 
BRANCH  34  35
ATOM     35  C   UNL A   1      37.576  32.636  31.313  1.00  0.00     0.031 A 
ATOM     36  C   UNL A   1      38.315  31.506  30.650  1.00  0.00     0.074 A 
ATOM     37  C   UNL A   1      37.934  33.047  32.544  1.00  0.00     0.049 A 
ATOM     38  N   UNL A   1      39.298  30.775  31.113  1.00  0.00    -0.248 NA
ATOM     39  C   UNL A   1      37.869  31.126  29.301  1.00  0.00     0.031 C 
ATOM     40  C   UNL A   1      37.265  34.097  33.314  1.00  0.00     0.029 A 
ATOM     41  N   UNL A   1      38.938  32.614  33.376  1.00  0.00    -0.354 N 
ATOM     42  C   UNL A   1      39.566  29.835  30.126  1.00  0.00     0.074 A 
ATOM     43  C   UNL A   1      38.618  30.060  29.056  1.00  0.00     0.031 C 
ATOM     44  C   UNL A   1      37.882  34.235  34.498  1.00  0.00     0.029 A 
ATOM     45  C   UNL A   1      38.965  33.261  34.588  1.00  0.00     0.049 A 
ATOM     46  H   UNL A   1      39.578  31.909  33.127  1.00  0.00     0.167 HD
ATOM     47  C   UNL A   1      40.530  28.883  30.106  1.00  0.00     0.037 A 
ATOM     48  C   UNL A   1      39.766  33.079  35.655  1.00  0.00     0.037 A 
ATOM     49  C   UNL A   1      41.501  28.692  31.150  1.00  0.00     0.049 A 
ATOM     50  C   UNL A   1      40.846  32.034  35.594  1.00  0.00     0.074 A 
ATOM     51  C   UNL A   1      42.568  27.812  31.185  1.00  0.00     0.029 A 
ATOM     52  N   UNL A   1      41.524  29.398  32.343  1.00  0.00    -0.354 N 
ATOM     53  N   UNL A   1      41.135  31.199  34.627  1.00  0.00    -0.248 NA
ATOM     54  C   UNL A   1      41.716  31.910  36.773  1.00  0.00     0.031 C 
ATOM     55  C   UNL A   1      43.215  27.958  32.416  1.00  0.00     0.029 A 
ATOM     56  C   UNL A   1      42.577  28.959  33.130  1.00  0.00     0.049 A 
ATOM     57  H   UNL A   1      40.888  30.106  32.595  1.00  0.00     0.167 HD
ATOM     58  C   UNL A   1      42.231  30.470  35.066  1.00  0.00     0.074 A 
ATOM     59  C   UNL A   1      42.566  30.970  36.382  1.00  0.00     0.031 C 
ATOM     60  C   UNL A   1      42.901  29.475  34.435  1.00  0.00     0.037 A 
BRANCH  47  61
ATOM     61  C   UNL A   1      40.587  27.974  28.915  1.00  0.00     0.064 A 
ATOM     62  C   UNL A   1      39.811  26.808  28.839  1.00  0.00     0.173 A 
ATOM     63  C   UNL A   1      41.393  28.297  27.813  1.00  0.00     0.173 A 
ATOM     64  F   UNL A   1      39.032  26.448  29.872  1.00  0.00    -0.203 F 
ATOM     65  C   UNL A   1      39.856  25.987  27.715  1.00  0.00     0.198 A 
ATOM     66  C   UNL A   1      41.415  27.490  26.678  1.00  0.00     0.198 A 
ATOM     67  F   UNL A   1      42.151  29.404  27.831  1.00  0.00    -0.203 F 
ATOM     68  F   UNL A   1      39.137  24.858  27.683  1.00  0.00    -0.200 F 
ATOM     69  C   UNL A   1      40.652  26.333  26.633  1.00  0.00     0.200 A 
ATOM     70  F   UNL A   1      42.175  27.831  25.628  1.00  0.00    -0.200 F 
ATOM     71  F   UNL A   1      40.686  25.548  25.548  1.00  0.00    -0.200 F 
ENDBRANCH  47  61
BRANCH  48  72
ATOM     72  C   UNL A   1      39.586  33.918  36.867  1.00  0.00     0.064 A 
ATOM     73  C   UNL A   1      38.822  33.463  37.950  1.00  0.00     0.173 A 
ATOM     74  C   UNL A   1      40.170  35.189  36.968  1.00  0.00     0.173 A 
ATOM     75  F   UNL A   1      38.226  32.263  37.891  1.00  0.00    -0.203 F 
ATOM     76  C   UNL A   1      38.629  34.257  39.079  1.00  0.00     0.198 A 
ATOM     77  C   UNL A   1      39.999  35.971  38.108  1.00  0.00     0.198 A 
ATOM     78  F   UNL A   1      40.915  35.668  35.961  1.00  0.00    -0.203 F 
ATOM     79  F   UNL A   1      37.855  33.817  40.081  1.00  0.00    -0.200 F 
ATOM     80  C   UNL A   1      39.222  35.508  39.160  1.00  0.00     0.200 A 
ATOM     81  F   UNL A   1      40.583  37.174  38.188  1.00  0.00    -0.200 F 
ATOM     82  F   UNL A   1      39.038  36.270  40.246  1.00  0.00    -0.200 F 
ENDBRANCH  48  72
BRANCH  60  83
ATOM     83  C   UNL A   1      44.080  28.881  35.145  1.00  0.00     0.064 A 
ATOM     84  C   UNL A   1      43.943  27.778  35.999  1.00  0.00     0.173 A 
ATOM     85  C   UNL A   1      45.369  29.394  34.933  1.00  0.00     0.173 A 
ATOM     86  F   UNL A   1      42.729  27.261  36.245  1.00  0.00    -0.203 F 
ATOM     87  C   UNL A   1      45.052  27.221  36.630  1.00  0.00     0.198 A 
ATOM     88  C   UNL A   1      46.478  28.819  35.544  1.00  0.00     0.198 A 
ATOM     89  F   UNL A   1      45.552  30.446  34.119  1.00  0.00    -0.203 F 
ATOM     90  F   UNL A   1      44.894  26.191  37.473  1.00  0.00    -0.200 F 
ATOM     91  C   UNL A   1      46.319  27.736  36.396  1.00  0.00     0.200 A 
ATOM     92  F   UNL A   1      47.703  29.310  35.308  1.00  0.00    -0.200 F 
ATOM     93  F   UNL A   1      47.386  27.193  36.998  1.00  0.00    -0.200 F 
ENDBRANCH  60  83
ENDBRANCH  34  35
ENDBRANCH  26  29
ENDBRANCH  24  25
ENDBRANCH   1  24
TORSDOF 14
ENDMDL
