MODEL 1
REMARK VINA RESULT:     -11.9      0.000      0.000
REMARK SMILES Cc1cc(C(=O)NCCCNC(=O)c2ccc(-c3c4nc(c(-c5c(F)c(F)c(F)c(F)c5F)c5ccc([nH]5)c(-c5c(F)c(F)c(F)c(F)c5F)c5nc(c(-c6c(F)c(F)c(F)c(F)c6F)c6ccc3[nH]6)C=C5)C=C4)cc2)cc(C)c1OC[C@H]1C[N@@H+](C)CCO1
REMARK SMILES IDX 8 1 7 2 5 3 6 4 4 6 1 7 2 8 3 9 80 10 78 11 77 12 79 13
REMARK SMILES IDX 81 14 82 15 83 16 84 17 89 18 85 19 88 20 86 21 87 22 9 24
REMARK SMILES IDX 10 25 11 26 12 27 13 29 14 30 15 31 76 32 16 33 75 34 17 35
REMARK SMILES IDX 18 36 19 37 69 38 20 39 74 40 68 41 70 42 21 43 73 44 67 45
REMARK SMILES IDX 66 46 22 48 54 49 34 50 53 51 35 52 38 53 52 54 71 55 36 56
REMARK SMILES IDX 37 57 51 59 72 60 39 61 23 62 24 63 32 64 25 65 26 66 30 67
REMARK SMILES IDX 33 68 27 69 28 70 31 71 29 72 55 73 56 74 64 75 57 76 58 77
REMARK SMILES IDX 62 78 65 79 59 80 60 81 63 82 61 83 40 84 41 85 49 86 42 87
REMARK SMILES IDX 43 88 47 89 50 90 44 91 45 92 48 93 46 94
REMARK H PARENT 7 5 85 23 11 28 70 47 38 58
REMARK Flexibility Score: inf
ROOT
ATOM      1  C   UNL A   1      37.550  20.829  24.688  1.00  0.00     0.118 C 
ENDROOT
BRANCH   1   2
ATOM      2  N   UNL A   1      38.087  22.026  25.317  1.00  0.00    -0.352 N 
ATOM      3  C   UNL A   1      37.495  23.182  25.751  1.00  0.00     0.251 C 
ATOM      4  O   UNL A   1      38.225  24.098  26.137  1.00  0.00    -0.269 OA
ATOM      5  H   UNL A   1      39.061  21.999  25.457  1.00  0.00     0.163 HD
BRANCH   3   6
ATOM      6  C   UNL A   1      36.026  23.388  25.726  1.00  0.00     0.040 A 
ATOM      7  C   UNL A   1      33.699  24.857  23.163  1.00  0.00     0.048 C 
ATOM      8  C   UNL A   1      34.093  24.230  24.465  1.00  0.00    -0.008 A 
ATOM      9  C   UNL A   1      35.485  24.043  24.619  1.00  0.00     0.021 A 
ATOM     10  C   UNL A   1      33.228  23.785  25.480  1.00  0.00     0.125 A 
ATOM     11  C   UNL A   1      33.775  23.093  26.587  1.00  0.00    -0.008 A 
ATOM     12  C   UNL A   1      35.168  22.964  26.731  1.00  0.00     0.021 A 
ATOM     13  C   UNL A   1      32.912  22.347  27.575  1.00  0.00     0.048 C 
BRANCH  10  14
ATOM     14  O   UNL A   1      31.864  23.865  25.495  1.00  0.00    -0.490 OA
BRANCH  14  15
ATOM     15  C   UNL A   1      31.148  24.916  26.165  1.00  0.00     0.267 C 
BRANCH  15  16
ATOM     16  C   UNL A   1      31.771  26.326  26.149  1.00  0.00     0.210 C 
ATOM     17  C   UNL A   1      31.379  27.067  24.855  1.00  0.00     0.298 C 
ATOM     18  O   UNL A   1      31.252  27.117  27.252  1.00  0.00    -0.363 OA
ATOM     19  N   UNL A   1      32.158  28.313  24.793  1.00  0.00    -0.333 N 
ATOM     20  C   UNL A   1      31.839  28.435  27.254  1.00  0.00     0.222 C 
ATOM     21  C   UNL A   1      32.052  28.952  23.489  1.00  0.00     0.332 C 
ATOM     22  C   UNL A   1      31.707  29.172  25.899  1.00  0.00     0.290 C 
ATOM     23  H   UNL A   1      33.154  28.122  24.902  1.00  0.00     0.348 HD
ENDBRANCH  15  16
ENDBRANCH  14  15
ENDBRANCH  10  14
ENDBRANCH   3   6
ENDBRANCH   1   2
BRANCH   1  24
ATOM     24  C   UNL A   1      38.393  19.589  24.944  1.00  0.00     0.042 C 
BRANCH  24  25
ATOM     25  C   UNL A   1      39.248  19.654  26.198  1.00  0.00     0.118 C 
BRANCH  25  26
ATOM     26  N   UNL A   1      40.468  18.858  26.095  1.00  0.00    -0.352 N 
ATOM     27  C   UNL A   1      41.784  19.227  26.054  1.00  0.00     0.251 C 
ATOM     28  H   UNL A   1      40.317  17.886  26.046  1.00  0.00     0.163 HD
ATOM     29  O   UNL A   1      42.637  18.389  25.745  1.00  0.00    -0.269 OA
BRANCH  27  30
ATOM     30  C   UNL A   1      42.206  20.611  26.353  1.00  0.00     0.039 A 
ATOM     31  C   UNL A   1      42.421  20.986  27.685  1.00  0.00     0.014 A 
ATOM     32  C   UNL A   1      42.346  21.561  25.339  1.00  0.00     0.014 A 
ATOM     33  C   UNL A   1      42.835  22.286  27.985  1.00  0.00     0.010 A 
ATOM     34  C   UNL A   1      42.866  22.817  25.626  1.00  0.00     0.010 A 
ATOM     35  C   UNL A   1      43.095  23.203  26.954  1.00  0.00    -0.014 A 
BRANCH  35  36
ATOM     36  C   UNL A   1      43.564  24.583  27.237  1.00  0.00     0.031 A 
ATOM     37  C   UNL A   1      42.600  25.605  27.781  1.00  0.00     0.074 A 
ATOM     38  C   UNL A   1      44.829  24.936  26.937  1.00  0.00     0.049 A 
ATOM     39  N   UNL A   1      42.784  26.882  28.006  1.00  0.00    -0.248 NA
ATOM     40  C   UNL A   1      41.236  25.138  28.074  1.00  0.00     0.031 C 
ATOM     41  C   UNL A   1      45.838  24.054  26.351  1.00  0.00     0.029 A 
ATOM     42  N   UNL A   1      45.478  26.138  27.076  1.00  0.00    -0.354 N 
ATOM     43  C   UNL A   1      41.556  27.370  28.436  1.00  0.00     0.074 A 
ATOM     44  C   UNL A   1      40.620  26.269  28.381  1.00  0.00     0.031 C 
ATOM     45  C   UNL A   1      46.988  24.734  26.209  1.00  0.00     0.029 A 
ATOM     46  C   UNL A   1      46.786  26.107  26.657  1.00  0.00     0.049 A 
ATOM     47  H   UNL A   1      45.048  26.943  27.442  1.00  0.00     0.167 HD
ATOM     48  C   UNL A   1      41.244  28.615  28.866  1.00  0.00     0.037 A 
ATOM     49  C   UNL A   1      47.715  27.081  26.636  1.00  0.00     0.037 A 
ATOM     50  C   UNL A   1      42.190  29.694  28.962  1.00  0.00     0.049 A 
ATOM     51  C   UNL A   1      47.352  28.449  27.150  1.00  0.00     0.074 A 
ATOM     52  C   UNL A   1      41.995  30.975  29.447  1.00  0.00     0.029 A 
ATOM     53  N   UNL A   1      43.518  29.613  28.568  1.00  0.00    -0.354 N 
ATOM     54  N   UNL A   1      46.205  28.881  27.615  1.00  0.00    -0.248 NA
ATOM     55  C   UNL A   1      48.416  29.461  27.144  1.00  0.00     0.031 C 
ATOM     56  C   UNL A   1      43.195  31.680  29.311  1.00  0.00     0.029 A 
ATOM     57  C   UNL A   1      44.151  30.825  28.788  1.00  0.00     0.049 A 
ATOM     58  H   UNL A   1      43.946  28.812  28.189  1.00  0.00     0.167 HD
ATOM     59  C   UNL A   1      46.417  30.201  27.987  1.00  0.00     0.074 A 
ATOM     60  C   UNL A   1      47.807  30.495  27.705  1.00  0.00     0.031 C 
ATOM     61  C   UNL A   1      45.540  31.092  28.512  1.00  0.00     0.037 A 
BRANCH  48  62
ATOM     62  C   UNL A   1      39.822  28.871  29.279  1.00  0.00     0.064 A 
ATOM     63  C   UNL A   1      38.859  29.326  28.363  1.00  0.00     0.173 A 
ATOM     64  C   UNL A   1      39.409  28.638  30.599  1.00  0.00     0.173 A 
ATOM     65  F   UNL A   1      39.204  29.578  27.091  1.00  0.00    -0.203 F 
ATOM     66  C   UNL A   1      37.548  29.571  28.761  1.00  0.00     0.198 A 
ATOM     67  C   UNL A   1      38.089  28.852  30.987  1.00  0.00     0.198 A 
ATOM     68  F   UNL A   1      40.285  28.198  31.514  1.00  0.00    -0.203 F 
ATOM     69  F   UNL A   1      36.662  30.059  27.882  1.00  0.00    -0.200 F 
ATOM     70  C   UNL A   1      37.162  29.326  30.071  1.00  0.00     0.200 A 
ATOM     71  F   UNL A   1      37.713  28.603  32.249  1.00  0.00    -0.200 F 
ATOM     72  F   UNL A   1      35.897  29.557  30.451  1.00  0.00    -0.200 F 
ENDBRANCH  48  62
BRANCH  49  73
ATOM     73  C   UNL A   1      49.089  26.788  26.151  1.00  0.00     0.064 A 
ATOM     74  C   UNL A   1      49.435  26.997  24.809  1.00  0.00     0.173 A 
ATOM     75  C   UNL A   1      50.080  26.294  27.010  1.00  0.00     0.173 A 
ATOM     76  F   UNL A   1      48.515  27.451  23.943  1.00  0.00    -0.203 F 
ATOM     77  C   UNL A   1      50.713  26.703  24.339  1.00  0.00     0.198 A 
ATOM     78  C   UNL A   1      51.367  26.028  26.547  1.00  0.00     0.198 A 
ATOM     79  F   UNL A   1      49.802  26.084  28.306  1.00  0.00    -0.203 F 
ATOM     80  F   UNL A   1      51.003  26.869  23.042  1.00  0.00    -0.200 F 
ATOM     81  C   UNL A   1      51.680  26.223  25.211  1.00  0.00     0.200 A 
ATOM     82  F   UNL A   1      52.302  25.579  27.395  1.00  0.00    -0.200 F 
ATOM     83  F   UNL A   1      52.911  25.945  24.760  1.00  0.00    -0.200 F 
ENDBRANCH  49  73
BRANCH  61  84
ATOM     84  C   UNL A   1      46.069  32.453  28.855  1.00  0.00     0.064 A 
ATOM     85  C   UNL A   1      46.627  32.731  30.111  1.00  0.00     0.173 A 
ATOM     86  C   UNL A   1      46.045  33.483  27.903  1.00  0.00     0.173 A 
ATOM     87  F   UNL A   1      46.660  31.784  31.061  1.00  0.00    -0.203 F 
ATOM     88  C   UNL A   1      47.115  34.000  30.411  1.00  0.00     0.198 A 
ATOM     89  C   UNL A   1      46.562  34.741  28.196  1.00  0.00     0.198 A 
ATOM     90  F   UNL A   1      45.529  33.265  26.684  1.00  0.00    -0.203 F 
ATOM     91  F   UNL A   1      47.597  34.259  31.635  1.00  0.00    -0.200 F 
ATOM     92  C   UNL A   1      47.088  35.001  29.451  1.00  0.00     0.200 A 
ATOM     93  F   UNL A   1      46.548  35.703  27.262  1.00  0.00    -0.200 F 
ATOM     94  F   UNL A   1      47.563  36.220  29.741  1.00  0.00    -0.200 F 
ENDBRANCH  61  84
ENDBRANCH  35  36
ENDBRANCH  27  30
ENDBRANCH  25  26
ENDBRANCH  24  25
ENDBRANCH   1  24
TORSDOF 13
ENDMDL
MODEL 2
REMARK VINA RESULT:     -11.9      5.195      9.751
REMARK SMILES Cc1cc(C(=O)NCCCNC(=O)c2ccc(-c3c4nc(c(-c5c(F)c(F)c(F)c(F)c5F)c5ccc([nH]5)c(-c5c(F)c(F)c(F)c(F)c5F)c5nc(c(-c6c(F)c(F)c(F)c(F)c6F)c6ccc3[nH]6)C=C5)C=C4)cc2)cc(C)c1OC[C@H]1C[N@@H+](C)CCO1
REMARK SMILES IDX 8 1 7 2 5 3 6 4 4 6 1 7 2 8 3 9 80 10 78 11 77 12 79 13
REMARK SMILES IDX 81 14 82 15 83 16 84 17 89 18 85 19 88 20 86 21 87 22 9 24
REMARK SMILES IDX 10 25 11 26 12 27 13 29 14 30 15 31 76 32 16 33 75 34 17 35
REMARK SMILES IDX 18 36 19 37 69 38 20 39 74 40 68 41 70 42 21 43 73 44 67 45
REMARK SMILES IDX 66 46 22 48 54 49 34 50 53 51 35 52 38 53 52 54 71 55 36 56
REMARK SMILES IDX 37 57 51 59 72 60 39 61 23 62 24 63 32 64 25 65 26 66 30 67
REMARK SMILES IDX 33 68 27 69 28 70 31 71 29 72 55 73 56 74 64 75 57 76 58 77
REMARK SMILES IDX 62 78 65 79 59 80 60 81 63 82 61 83 40 84 41 85 49 86 42 87
REMARK SMILES IDX 43 88 47 89 50 90 44 91 45 92 48 93 46 94
REMARK H PARENT 7 5 85 23 11 28 70 47 38 58
REMARK Flexibility Score: inf
ROOT
ATOM      1  C   UNL A   1      31.788  30.733  26.870  1.00  0.00     0.118 C 
ENDROOT
BRANCH   1   2
ATOM      2  N   UNL A   1      33.108  30.394  27.377  1.00  0.00    -0.352 N 
ATOM      3  C   UNL A   1      33.955  29.350  27.114  1.00  0.00     0.251 C 
ATOM      4  O   UNL A   1      34.976  29.245  27.796  1.00  0.00    -0.269 OA
ATOM      5  H   UNL A   1      33.459  31.036  28.035  1.00  0.00     0.163 HD
BRANCH   3   6
ATOM      6  C   UNL A   1      33.664  28.324  26.082  1.00  0.00     0.040 A 
ATOM      7  C   UNL A   1      31.928  24.991  26.216  1.00  0.00     0.048 C 
ATOM      8  C   UNL A   1      32.670  26.132  25.590  1.00  0.00    -0.008 A 
ATOM      9  C   UNL A   1      33.050  27.144  26.501  1.00  0.00     0.021 A 
ATOM     10  C   UNL A   1      32.962  26.298  24.226  1.00  0.00     0.125 A 
ATOM     11  C   UNL A   1      33.557  27.508  23.798  1.00  0.00    -0.008 A 
ATOM     12  C   UNL A   1      33.963  28.475  24.735  1.00  0.00     0.021 A 
ATOM     13  C   UNL A   1      33.654  27.885  22.340  1.00  0.00     0.048 C 
BRANCH  10  14
ATOM     14  O   UNL A   1      32.657  25.440  23.207  1.00  0.00    -0.490 OA
BRANCH  14  15
ATOM     15  C   UNL A   1      33.616  24.536  22.630  1.00  0.00     0.267 C 
BRANCH  15  16
ATOM     16  C   UNL A   1      34.587  23.819  23.589  1.00  0.00     0.210 C 
ATOM     17  C   UNL A   1      33.896  22.600  24.233  1.00  0.00     0.298 C 
ATOM     18  O   UNL A   1      35.730  23.306  22.855  1.00  0.00    -0.363 OA
ATOM     19  N   UNL A   1      34.784  22.078  25.283  1.00  0.00    -0.333 N 
ATOM     20  C   UNL A   1      36.652  22.644  23.747  1.00  0.00     0.222 C 
ATOM     21  C   UNL A   1      34.112  21.094  26.119  1.00  0.00     0.332 C 
ATOM     22  C   UNL A   1      35.989  21.554  24.623  1.00  0.00     0.290 C 
ATOM     23  H   UNL A   1      35.052  22.820  25.930  1.00  0.00     0.348 HD
ENDBRANCH  15  16
ENDBRANCH  14  15
ENDBRANCH  10  14
ENDBRANCH   3   6
ENDBRANCH   1   2
BRANCH   1  24
ATOM     24  C   UNL A   1      31.504  32.228  26.892  1.00  0.00     0.042 C 
BRANCH  24  25
ATOM     25  C   UNL A   1      32.743  33.106  26.893  1.00  0.00     0.118 C 
BRANCH  25  26
ATOM     26  N   UNL A   1      32.553  34.355  27.626  1.00  0.00    -0.352 N 
ATOM     27  C   UNL A   1      33.103  34.810  28.792  1.00  0.00     0.251 C 
ATOM     28  H   UNL A   1      31.917  34.979  27.207  1.00  0.00     0.163 HD
ATOM     29  O   UNL A   1      32.627  35.810  29.335  1.00  0.00    -0.269 OA
BRANCH  27  30
ATOM     30  C   UNL A   1      34.245  34.118  29.426  1.00  0.00     0.039 A 
ATOM     31  C   UNL A   1      33.995  33.122  30.379  1.00  0.00     0.014 A 
ATOM     32  C   UNL A   1      35.562  34.471  29.128  1.00  0.00     0.014 A 
ATOM     33  C   UNL A   1      35.062  32.447  30.978  1.00  0.00     0.010 A 
ATOM     34  C   UNL A   1      36.617  33.723  29.636  1.00  0.00     0.010 A 
ATOM     35  C   UNL A   1      36.383  32.719  30.585  1.00  0.00    -0.014 A 
BRANCH  35  36
ATOM     36  C   UNL A   1      37.537  31.998  31.180  1.00  0.00     0.031 A 
ATOM     37  C   UNL A   1      38.004  32.349  32.568  1.00  0.00     0.074 A 
ATOM     38  C   UNL A   1      38.207  31.087  30.448  1.00  0.00     0.049 A 
ATOM     39  N   UNL A   1      39.044  31.907  33.230  1.00  0.00    -0.248 NA
ATOM     40  C   UNL A   1      37.219  33.359  33.295  1.00  0.00     0.031 C 
ATOM     41  C   UNL A   1      37.890  30.705  29.072  1.00  0.00     0.029 A 
ATOM     42  N   UNL A   1      39.305  30.324  30.760  1.00  0.00    -0.354 N 
ATOM     43  C   UNL A   1      39.051  32.607  34.430  1.00  0.00     0.074 A 
ATOM     44  C   UNL A   1      37.952  33.544  34.382  1.00  0.00     0.031 C 
ATOM     45  C   UNL A   1      38.752  29.758  28.668  1.00  0.00     0.029 A 
ATOM     46  C   UNL A   1      39.705  29.494  29.741  1.00  0.00     0.049 A 
ATOM     47  H   UNL A   1      39.761  30.365  31.631  1.00  0.00     0.167 HD
ATOM     48  C   UNL A   1      39.882  32.460  35.490  1.00  0.00     0.037 A 
ATOM     49  C   UNL A   1      40.728  28.621  29.680  1.00  0.00     0.037 A 
ATOM     50  C   UNL A   1      40.945  31.494  35.551  1.00  0.00     0.049 A 
ATOM     51  C   UNL A   1      41.616  28.453  30.884  1.00  0.00     0.074 A 
ATOM     52  C   UNL A   1      41.802  31.215  36.601  1.00  0.00     0.029 A 
ATOM     53  N   UNL A   1      41.293  30.640  34.514  1.00  0.00    -0.354 N 
ATOM     54  N   UNL A   1      41.574  29.073  32.038  1.00  0.00    -0.248 NA
ATOM     55  C   UNL A   1      42.689  27.456  30.778  1.00  0.00     0.031 C 
ATOM     56  C   UNL A   1      42.692  30.220  36.186  1.00  0.00     0.029 A 
ATOM     57  C   UNL A   1      42.360  29.842  34.895  1.00  0.00     0.049 A 
ATOM     58  H   UNL A   1      40.847  30.606  33.637  1.00  0.00     0.167 HD
ATOM     59  C   UNL A   1      42.589  28.521  32.806  1.00  0.00     0.074 A 
ATOM     60  C   UNL A   1      43.223  27.506  31.990  1.00  0.00     0.031 C 
ATOM     61  C   UNL A   1      42.966  28.829  34.071  1.00  0.00     0.037 A 
BRANCH  48  62
ATOM     62  C   UNL A   1      39.661  33.357  36.675  1.00  0.00     0.064 A 
ATOM     63  C   UNL A   1      38.792  33.000  37.718  1.00  0.00     0.173 A 
ATOM     64  C   UNL A   1      40.343  34.578  36.782  1.00  0.00     0.173 A 
ATOM     65  F   UNL A   1      38.104  31.849  37.660  1.00  0.00    -0.203 F 
ATOM     66  C   UNL A   1      38.587  33.846  38.805  1.00  0.00     0.198 A 
ATOM     67  C   UNL A   1      40.162  35.408  37.886  1.00  0.00     0.198 A 
ATOM     68  F   UNL A   1      41.189  34.967  35.817  1.00  0.00    -0.203 F 
ATOM     69  F   UNL A   1      37.710  33.509  39.759  1.00  0.00    -0.200 F 
ATOM     70  C   UNL A   1      39.278  35.045  38.892  1.00  0.00     0.200 A 
ATOM     71  F   UNL A   1      40.839  36.560  37.975  1.00  0.00    -0.200 F 
ATOM     72  F   UNL A   1      39.085  35.857  39.941  1.00  0.00    -0.200 F 
ENDBRANCH  48  62
BRANCH  49  73
ATOM     73  C   UNL A   1      40.941  27.809  28.454  1.00  0.00     0.064 A 
ATOM     74  C   UNL A   1      41.777  28.267  27.427  1.00  0.00     0.173 A 
ATOM     75  C   UNL A   1      40.317  26.566  28.281  1.00  0.00     0.173 A 
ATOM     76  F   UNL A   1      42.382  29.460  27.538  1.00  0.00    -0.203 F 
ATOM     77  C   UNL A   1      41.965  27.523  26.264  1.00  0.00     0.198 A 
ATOM     78  C   UNL A   1      40.528  25.809  27.130  1.00  0.00     0.198 A 
ATOM     79  F   UNL A   1      39.513  26.078  29.238  1.00  0.00    -0.203 F 
ATOM     80  F   UNL A   1      42.733  28.007  25.279  1.00  0.00    -0.200 F 
ATOM     81  C   UNL A   1      41.344  26.292  26.119  1.00  0.00     0.200 A 
ATOM     82  F   UNL A   1      39.939  24.612  27.001  1.00  0.00    -0.200 F 
ATOM     83  F   UNL A   1      41.528  25.575  25.002  1.00  0.00    -0.200 F 
ENDBRANCH  49  73
BRANCH  61  84
ATOM     84  C   UNL A   1      44.087  28.028  34.665  1.00  0.00     0.064 A 
ATOM     85  C   UNL A   1      43.854  26.817  35.334  1.00  0.00     0.173 A 
ATOM     86  C   UNL A   1      45.415  28.463  34.535  1.00  0.00     0.173 A 
ATOM     87  F   UNL A   1      42.601  26.365  35.497  1.00  0.00    -0.203 F 
ATOM     88  C   UNL A   1      44.908  26.087  35.877  1.00  0.00     0.198 A 
ATOM     89  C   UNL A   1      46.468  27.714  35.052  1.00  0.00     0.198 A 
ATOM     90  F   UNL A   1      45.691  29.610  33.898  1.00  0.00    -0.203 F 
ATOM     91  F   UNL A   1      44.658  24.959  36.557  1.00  0.00    -0.200 F 
ATOM     92  C   UNL A   1      46.213  26.532  35.730  1.00  0.00     0.200 A 
ATOM     93  F   UNL A   1      47.729  28.139  34.897  1.00  0.00    -0.200 F 
ATOM     94  F   UNL A   1      47.225  25.825  36.250  1.00  0.00    -0.200 F 
ENDBRANCH  61  84
ENDBRANCH  35  36
ENDBRANCH  27  30
ENDBRANCH  25  26
ENDBRANCH  24  25
ENDBRANCH   1  24
TORSDOF 13
ENDMDL
MODEL 3
REMARK VINA RESULT:     -11.9      4.737     10.255
REMARK SMILES Cc1cc(C(=O)NCCCNC(=O)c2ccc(-c3c4nc(c(-c5c(F)c(F)c(F)c(F)c5F)c5ccc([nH]5)c(-c5c(F)c(F)c(F)c(F)c5F)c5nc(c(-c6c(F)c(F)c(F)c(F)c6F)c6ccc3[nH]6)C=C5)C=C4)cc2)cc(C)c1OC[C@H]1C[N@@H+](C)CCO1
REMARK SMILES IDX 8 1 7 2 5 3 6 4 4 6 1 7 2 8 3 9 80 10 78 11 77 12 79 13
REMARK SMILES IDX 81 14 82 15 83 16 84 17 89 18 85 19 88 20 86 21 87 22 9 24
REMARK SMILES IDX 10 25 11 26 12 27 13 29 14 30 15 31 76 32 16 33 75 34 17 35
REMARK SMILES IDX 18 36 19 37 69 38 20 39 74 40 68 41 70 42 21 43 73 44 67 45
REMARK SMILES IDX 66 46 22 48 54 49 34 50 53 51 35 52 38 53 52 54 71 55 36 56
REMARK SMILES IDX 37 57 51 59 72 60 39 61 23 62 24 63 32 64 25 65 26 66 30 67
REMARK SMILES IDX 33 68 27 69 28 70 31 71 29 72 55 73 56 74 64 75 57 76 58 77
REMARK SMILES IDX 62 78 65 79 59 80 60 81 63 82 61 83 40 84 41 85 49 86 42 87
REMARK SMILES IDX 43 88 47 89 50 90 44 91 45 92 48 93 46 94
REMARK H PARENT 7 5 85 23 11 28 70 47 38 58
REMARK Flexibility Score: inf
ROOT
ATOM      1  C   UNL A   1      31.647  27.266  24.320  1.00  0.00     0.118 C 
ENDROOT
BRANCH   1   2
ATOM      2  N   UNL A   1      32.472  27.243  23.122  1.00  0.00    -0.352 N 
ATOM      3  C   UNL A   1      33.324  26.300  22.609  1.00  0.00     0.251 C 
ATOM      4  O   UNL A   1      34.001  26.604  21.625  1.00  0.00    -0.269 OA
ATOM      5  H   UNL A   1      32.406  28.059  22.576  1.00  0.00     0.163 HD
BRANCH   3   6
ATOM      6  C   UNL A   1      33.495  24.959  23.220  1.00  0.00     0.040 A 
ATOM      7  C   UNL A   1      32.165  21.558  22.323  1.00  0.00     0.048 C 
ATOM      8  C   UNL A   1      32.927  22.571  23.121  1.00  0.00    -0.008 A 
ATOM      9  C   UNL A   1      32.784  23.899  22.658  1.00  0.00     0.021 A 
ATOM     10  C   UNL A   1      33.775  22.316  24.212  1.00  0.00     0.125 A 
ATOM     11  C   UNL A   1      34.519  23.387  24.762  1.00  0.00    -0.008 A 
ATOM     12  C   UNL A   1      34.320  24.703  24.306  1.00  0.00     0.021 A 
ATOM     13  C   UNL A   1      35.646  23.165  25.740  1.00  0.00     0.048 C 
BRANCH  10  14
ATOM     14  O   UNL A   1      34.047  21.104  24.780  1.00  0.00    -0.490 OA
BRANCH  14  15
ATOM     15  C   UNL A   1      33.081  20.361  25.543  1.00  0.00     0.267 C 
BRANCH  15  16
ATOM     16  C   UNL A   1      32.741  18.934  25.069  1.00  0.00     0.210 C 
ATOM     17  C   UNL A   1      33.920  18.344  24.269  1.00  0.00     0.298 C 
ATOM     18  O   UNL A   1      32.538  18.061  26.212  1.00  0.00    -0.363 OA
ATOM     19  N   UNL A   1      33.472  17.078  23.669  1.00  0.00    -0.333 N 
ATOM     20  C   UNL A   1      32.206  16.725  25.777  1.00  0.00     0.222 C 
ATOM     21  C   UNL A   1      34.424  16.578  22.688  1.00  0.00     0.332 C 
ATOM     22  C   UNL A   1      33.219  16.133  24.768  1.00  0.00     0.290 C 
ATOM     23  H   UNL A   1      32.610  17.215  23.140  1.00  0.00     0.348 HD
ENDBRANCH  15  16
ENDBRANCH  14  15
ENDBRANCH  10  14
ENDBRANCH   3   6
ENDBRANCH   1   2
BRANCH   1  24
ATOM     24  C   UNL A   1      32.329  27.936  25.503  1.00  0.00     0.042 C 
BRANCH  24  25
ATOM     25  C   UNL A   1      33.193  29.132  25.140  1.00  0.00     0.118 C 
BRANCH  25  26
ATOM     26  N   UNL A   1      32.677  30.389  25.677  1.00  0.00    -0.352 N 
ATOM     27  C   UNL A   1      33.051  31.125  26.767  1.00  0.00     0.251 C 
ATOM     28  H   UNL A   1      31.930  30.773  25.164  1.00  0.00     0.163 HD
ATOM     29  O   UNL A   1      32.326  32.046  27.151  1.00  0.00    -0.269 OA
BRANCH  27  30
ATOM     30  C   UNL A   1      34.296  30.828  27.506  1.00  0.00     0.039 A 
ATOM     31  C   UNL A   1      35.279  31.821  27.613  1.00  0.00     0.014 A 
ATOM     32  C   UNL A   1      34.529  29.566  28.056  1.00  0.00     0.014 A 
ATOM     33  C   UNL A   1      36.455  31.563  28.321  1.00  0.00     0.010 A 
ATOM     34  C   UNL A   1      35.644  29.348  28.855  1.00  0.00     0.010 A 
ATOM     35  C   UNL A   1      36.632  30.334  28.978  1.00  0.00    -0.014 A 
BRANCH  35  36
ATOM     36  C   UNL A   1      37.858  30.040  29.763  1.00  0.00     0.031 A 
ATOM     37  C   UNL A   1      38.898  29.105  29.206  1.00  0.00     0.074 A 
ATOM     38  C   UNL A   1      37.999  30.551  31.002  1.00  0.00     0.049 A 
ATOM     39  N   UNL A   1      39.988  28.645  29.768  1.00  0.00    -0.248 NA
ATOM     40  C   UNL A   1      38.663  28.585  27.849  1.00  0.00     0.031 C 
ATOM     41  C   UNL A   1      37.034  31.420  31.675  1.00  0.00     0.029 A 
ATOM     42  N   UNL A   1      39.010  30.403  31.919  1.00  0.00    -0.354 N 
ATOM     43  C   UNL A   1      40.545  27.766  28.848  1.00  0.00     0.074 A 
ATOM     44  C   UNL A   1      39.645  27.707  27.718  1.00  0.00     0.031 C 
ATOM     45  C   UNL A   1      37.511  31.753  32.885  1.00  0.00     0.029 A 
ATOM     46  C   UNL A   1      38.796  31.093  33.088  1.00  0.00     0.049 A 
ATOM     47  H   UNL A   1      39.811  29.857  31.755  1.00  0.00     0.167 HD
ATOM     48  C   UNL A   1      41.717  27.091  28.924  1.00  0.00     0.037 A 
ATOM     49  C   UNL A   1      39.552  31.178  34.198  1.00  0.00     0.037 A 
ATOM     50  C   UNL A   1      42.631  27.189  30.030  1.00  0.00     0.049 A 
ATOM     51  C   UNL A   1      40.866  30.444  34.245  1.00  0.00     0.074 A 
ATOM     52  C   UNL A   1      43.875  26.602  30.179  1.00  0.00     0.029 A 
ATOM     53  N   UNL A   1      42.399  27.932  31.179  1.00  0.00    -0.354 N 
ATOM     54  N   UNL A   1      41.413  29.668  33.342  1.00  0.00    -0.248 NA
ATOM     55  C   UNL A   1      41.671  30.608  35.463  1.00  0.00     0.031 C 
ATOM     56  C   UNL A   1      44.379  26.959  31.434  1.00  0.00     0.029 A 
ATOM     57  C   UNL A   1      43.472  27.808  32.047  1.00  0.00     0.049 A 
ATOM     58  H   UNL A   1      41.592  28.468  31.351  1.00  0.00     0.167 HD
ATOM     59  C   UNL A   1      42.637  29.276  33.866  1.00  0.00     0.074 A 
ATOM     60  C   UNL A   1      42.758  29.913  35.162  1.00  0.00     0.031 C 
ATOM     61  C   UNL A   1      43.576  28.461  33.326  1.00  0.00     0.037 A 
BRANCH  48  62
ATOM     62  C   UNL A   1      42.081  26.199  27.772  1.00  0.00     0.064 A 
ATOM     63  C   UNL A   1      42.958  26.622  26.760  1.00  0.00     0.173 A 
ATOM     64  C   UNL A   1      41.567  24.896  27.688  1.00  0.00     0.173 A 
ATOM     65  F   UNL A   1      43.468  27.863  26.784  1.00  0.00    -0.203 F 
ATOM     66  C   UNL A   1      43.277  25.789  25.691  1.00  0.00     0.198 A 
ATOM     67  C   UNL A   1      41.914  24.053  26.635  1.00  0.00     0.198 A 
ATOM     68  F   UNL A   1      40.729  24.438  28.629  1.00  0.00    -0.203 F 
ATOM     69  F   UNL A   1      44.071  26.237  24.709  1.00  0.00    -0.200 F 
ATOM     70  C   UNL A   1      42.762  24.503  25.633  1.00  0.00     0.200 A 
ATOM     71  F   UNL A   1      41.426  22.807  26.587  1.00  0.00    -0.200 F 
ATOM     72  F   UNL A   1      43.075  23.700  24.607  1.00  0.00    -0.200 F 
ENDBRANCH  48  62
BRANCH  49  73
ATOM     73  C   UNL A   1      39.108  32.022  35.338  1.00  0.00     0.064 A 
ATOM     74  C   UNL A   1      38.365  31.471  36.391  1.00  0.00     0.173 A 
ATOM     75  C   UNL A   1      39.412  33.389  35.400  1.00  0.00     0.173 A 
ATOM     76  F   UNL A   1      38.032  30.171  36.368  1.00  0.00    -0.203 F 
ATOM     77  C   UNL A   1      37.923  32.259  37.452  1.00  0.00     0.198 A 
ATOM     78  C   UNL A   1      38.995  34.171  36.476  1.00  0.00     0.198 A 
ATOM     79  F   UNL A   1      40.127  33.963  34.421  1.00  0.00    -0.203 F 
ATOM     80  F   UNL A   1      37.176  31.716  38.422  1.00  0.00    -0.200 F 
ATOM     81  C   UNL A   1      38.244  33.608  37.496  1.00  0.00     0.200 A 
ATOM     82  F   UNL A   1      39.320  35.470  36.523  1.00  0.00    -0.200 F 
ATOM     83  F   UNL A   1      37.824  34.365  38.518  1.00  0.00    -0.200 F 
ENDBRANCH  49  73
BRANCH  61  84
ATOM     84  C   UNL A   1      44.834  28.248  34.116  1.00  0.00     0.064 A 
ATOM     85  C   UNL A   1      45.948  29.087  33.969  1.00  0.00     0.173 A 
ATOM     86  C   UNL A   1      44.912  27.208  35.055  1.00  0.00     0.173 A 
ATOM     87  F   UNL A   1      45.928  30.087  33.074  1.00  0.00    -0.203 F 
ATOM     88  C   UNL A   1      47.105  28.874  34.713  1.00  0.00     0.198 A 
ATOM     89  C   UNL A   1      46.060  27.018  35.819  1.00  0.00     0.198 A 
ATOM     90  F   UNL A   1      43.871  26.383  35.239  1.00  0.00    -0.203 F 
ATOM     91  F   UNL A   1      48.177  29.657  34.519  1.00  0.00    -0.200 F 
ATOM     92  C   UNL A   1      47.158  27.845  35.641  1.00  0.00     0.200 A 
ATOM     93  F   UNL A   1      46.104  26.031  36.725  1.00  0.00    -0.200 F 
ATOM     94  F   UNL A   1      48.272  27.645  36.358  1.00  0.00    -0.200 F 
ENDBRANCH  61  84
ENDBRANCH  35  36
ENDBRANCH  27  30
ENDBRANCH  25  26
ENDBRANCH  24  25
ENDBRANCH   1  24
TORSDOF 13
ENDMDL
