MODEL 1
REMARK VINA RESULT:     -10.9      0.000      0.000
REMARK SMILES CCN(CCC#N)C(=O)c1ccncc1/C=C/C(=O)NCCCNC(=O)c1ccc(-c2c3nc(c(-c4c(F)c(F)c(F)c(F)c4F)c4ccc([nH]4)c(-c4c(F)c(F)c(F)c(F)c4F)c4nc(c(-c5c(F)c(F)c(F)c(F)c5F)c5ccc2[nH]5)C=C4)C=C3)cc1
REMARK SMILES IDX 18 1 19 2 20 3 17 5 16 6 15 7 10 8 11 9 12 10 14 11 13 12
REMARK SMILES IDX 8 13 9 14 3 15 2 16 1 17 4 18 5 19 6 20 7 21 21 22 22 23
REMARK SMILES IDX 23 24 24 25 25 26 26 28 27 29 28 30 89 31 29 32 88 33 30 34
REMARK SMILES IDX 31 35 32 36 82 37 33 38 87 39 81 40 83 41 34 42 86 43 80 44
REMARK SMILES IDX 79 45 35 47 67 48 47 49 66 50 48 51 51 52 65 53 84 54 49 55
REMARK SMILES IDX 50 56 64 58 85 59 52 60 36 61 37 62 45 63 38 64 39 65 43 66
REMARK SMILES IDX 46 67 40 68 41 69 44 70 42 71 68 72 69 73 77 74 70 75 71 76
REMARK SMILES IDX 75 77 78 78 72 79 73 80 76 81 74 82 53 83 54 84 62 85 55 86
REMARK SMILES IDX 56 87 60 88 63 89 57 90 58 91 61 92 59 93
REMARK H PARENT 20 4 24 27 83 46 51 57
REMARK Flexibility Score: inf
ROOT
ATOM      1  C   UNL A   1      37.518  23.258  25.786  1.00  0.00     0.244 C 
ATOM      2  O   UNL A   1      38.177  24.207  26.204  1.00  0.00    -0.270 OA
ATOM      3  N   UNL A   1      38.140  22.202  25.195  1.00  0.00    -0.352 N 
ATOM      4  H   UNL A   1      39.122  22.261  25.146  1.00  0.00     0.163 HD
ENDROOT
BRANCH   1   5
ATOM      5  C   UNL A   1      36.045  23.343  25.756  1.00  0.00     0.072 C 
ATOM      6  C   UNL A   1      35.292  24.399  25.399  1.00  0.00     0.016 C 
BRANCH   6   7
ATOM      7  C   UNL A   1      33.846  24.285  25.638  1.00  0.00     0.006 A 
ATOM      8  C   UNL A   1      32.920  25.353  25.518  1.00  0.00     0.050 A 
ATOM      9  C   UNL A   1      31.752  25.253  26.272  1.00  0.00     0.034 A 
ATOM     10  C   UNL A   1      31.431  24.044  26.876  1.00  0.00     0.112 A 
ATOM     11  C   UNL A   1      33.410  23.101  26.243  1.00  0.00     0.119 A 
ATOM     12  N   UNL A   1      32.211  22.952  26.841  1.00  0.00    -0.264 NA
BRANCH   8  13
ATOM     13  C   UNL A   1      33.154  26.491  24.539  1.00  0.00     0.254 C 
ATOM     14  O   UNL A   1      33.280  26.186  23.354  1.00  0.00    -0.269 OA
BRANCH  13  15
ATOM     15  N   UNL A   1      33.141  27.882  24.871  1.00  0.00    -0.338 N 
BRANCH  15  16
ATOM     16  C   UNL A   1      34.105  28.309  25.913  1.00  0.00     0.116 C 
ATOM     17  C   UNL A   1      33.477  28.686  27.251  1.00  0.00     0.027 C 
ENDBRANCH  15  16
BRANCH  15  18
ATOM     18  C   UNL A   1      32.518  28.993  24.114  1.00  0.00     0.135 C 
BRANCH  18  19
ATOM     19  C   UNL A   1      31.030  29.246  24.396  1.00  0.00     0.141 C 
BRANCH  19  20
ATOM     20  C   UNL A   1      30.260  29.189  23.087  1.00  0.00     0.064 C 
ATOM     21  N   UNL A   1      29.621  29.141  22.001  1.00  0.00    -0.198 NA
ENDBRANCH  19  20
ENDBRANCH  18  19
ENDBRANCH  15  18
ENDBRANCH  13  15
ENDBRANCH   8  13
ENDBRANCH   6   7
ENDBRANCH   1   5
BRANCH   3  22
ATOM     22  C   UNL A   1      37.559  21.003  24.629  1.00  0.00     0.118 C 
BRANCH  22  23
ATOM     23  C   UNL A   1      38.314  19.732  24.996  1.00  0.00     0.042 C 
BRANCH  23  24
ATOM     24  C   UNL A   1      39.255  19.917  26.177  1.00  0.00     0.118 C 
BRANCH  24  25
ATOM     25  N   UNL A   1      40.403  19.013  26.118  1.00  0.00    -0.352 N 
ATOM     26  C   UNL A   1      41.744  19.262  26.046  1.00  0.00     0.251 C 
ATOM     27  H   UNL A   1      40.168  18.057  26.134  1.00  0.00     0.163 HD
ATOM     28  O   UNL A   1      42.519  18.347  25.752  1.00  0.00    -0.269 OA
BRANCH  26  29
ATOM     29  C   UNL A   1      42.278  20.607  26.318  1.00  0.00     0.039 A 
ATOM     30  C   UNL A   1      42.553  21.461  25.247  1.00  0.00     0.014 A 
ATOM     31  C   UNL A   1      42.549  21.014  27.626  1.00  0.00     0.014 A 
ATOM     32  C   UNL A   1      43.042  22.743  25.493  1.00  0.00     0.010 A 
ATOM     33  C   UNL A   1      42.931  22.324  27.876  1.00  0.00     0.010 A 
ATOM     34  C   UNL A   1      43.198  23.197  26.814  1.00  0.00    -0.014 A 
BRANCH  34  35
ATOM     35  C   UNL A   1      43.654  24.575  27.110  1.00  0.00     0.031 A 
ATOM     36  C   UNL A   1      42.678  25.593  27.627  1.00  0.00     0.074 A 
ATOM     37  C   UNL A   1      44.925  24.923  26.836  1.00  0.00     0.049 A 
ATOM     38  N   UNL A   1      42.857  26.869  27.862  1.00  0.00    -0.248 NA
ATOM     39  C   UNL A   1      41.304  25.127  27.876  1.00  0.00     0.031 C 
ATOM     40  C   UNL A   1      45.944  24.034  26.278  1.00  0.00     0.029 A 
ATOM     41  N   UNL A   1      45.573  26.125  26.977  1.00  0.00    -0.354 N 
ATOM     42  C   UNL A   1      41.620  27.355  28.263  1.00  0.00     0.074 A 
ATOM     43  C   UNL A   1      40.684  26.256  28.180  1.00  0.00     0.031 C 
ATOM     44  C   UNL A   1      47.096  24.711  26.149  1.00  0.00     0.029 A 
ATOM     45  C   UNL A   1      46.884  26.091  26.571  1.00  0.00     0.049 A 
ATOM     46  H   UNL A   1      45.139  26.933  27.334  1.00  0.00     0.167 HD
ATOM     47  C   UNL A   1      41.301  28.600  28.689  1.00  0.00     0.037 A 
ATOM     48  C   UNL A   1      47.807  27.070  26.535  1.00  0.00     0.037 A 
ATOM     49  C   UNL A   1      42.248  29.679  28.793  1.00  0.00     0.049 A 
ATOM     50  C   UNL A   1      47.429  28.445  27.015  1.00  0.00     0.074 A 
ATOM     51  C   UNL A   1      42.049  30.958  29.280  1.00  0.00     0.029 A 
ATOM     52  N   UNL A   1      43.577  29.602  28.395  1.00  0.00    -0.354 N 
ATOM     53  N   UNL A   1      46.278  28.875  27.469  1.00  0.00    -0.248 NA
ATOM     54  C   UNL A   1      48.484  29.468  26.985  1.00  0.00     0.031 C 
ATOM     55  C   UNL A   1      43.241  31.674  29.123  1.00  0.00     0.029 A 
ATOM     56  C   UNL A   1      44.202  30.822  28.598  1.00  0.00     0.049 A 
ATOM     57  H   UNL A   1      44.010  28.800  28.025  1.00  0.00     0.167 HD
ATOM     58  C   UNL A   1      46.473  30.209  27.804  1.00  0.00     0.074 A 
ATOM     59  C   UNL A   1      47.861  30.509  27.516  1.00  0.00     0.031 C 
ATOM     60  C   UNL A   1      45.585  31.102  28.307  1.00  0.00     0.037 A 
BRANCH  47  61
ATOM     61  C   UNL A   1      39.871  28.860  29.070  1.00  0.00     0.064 A 
ATOM     62  C   UNL A   1      39.410  28.685  30.384  1.00  0.00     0.173 A 
ATOM     63  C   UNL A   1      38.950  29.306  28.109  1.00  0.00     0.173 A 
ATOM     64  F   UNL A   1      40.245  28.249  31.341  1.00  0.00    -0.203 F 
ATOM     65  C   UNL A   1      38.075  28.909  30.714  1.00  0.00     0.198 A 
ATOM     66  C   UNL A   1      37.624  29.563  28.450  1.00  0.00     0.198 A 
ATOM     67  F   UNL A   1      39.335  29.495  26.839  1.00  0.00    -0.203 F 
ATOM     68  F   UNL A   1      37.647  28.674  31.962  1.00  0.00    -0.200 F 
ATOM     69  C   UNL A   1      37.186  29.354  29.749  1.00  0.00     0.200 A 
ATOM     70  F   UNL A   1      36.770  30.009  27.519  1.00  0.00    -0.200 F 
ATOM     71  F   UNL A   1      35.903  29.574  30.068  1.00  0.00    -0.200 F 
ENDBRANCH  47  61
BRANCH  48  72
ATOM     72  C   UNL A   1      49.181  26.771  26.052  1.00  0.00     0.064 A 
ATOM     73  C   UNL A   1      49.537  26.992  24.714  1.00  0.00     0.173 A 
ATOM     74  C   UNL A   1      50.168  26.277  26.917  1.00  0.00     0.173 A 
ATOM     75  F   UNL A   1      48.624  27.449  23.844  1.00  0.00    -0.203 F 
ATOM     76  C   UNL A   1      50.822  26.711  24.256  1.00  0.00     0.198 A 
ATOM     77  C   UNL A   1      51.462  26.027  26.465  1.00  0.00     0.198 A 
ATOM     78  F   UNL A   1      49.882  26.060  28.210  1.00  0.00    -0.203 F 
ATOM     79  F   UNL A   1      51.125  26.892  22.963  1.00  0.00    -0.200 F 
ATOM     80  C   UNL A   1      51.786  26.237  25.133  1.00  0.00     0.200 A 
ATOM     81  F   UNL A   1      52.396  25.590  27.321  1.00  0.00    -0.200 F 
ATOM     82  F   UNL A   1      53.026  25.979  24.696  1.00  0.00    -0.200 F 
ENDBRANCH  48  72
BRANCH  60  83
ATOM     83  C   UNL A   1      46.095  32.482  28.608  1.00  0.00     0.064 A 
ATOM     84  C   UNL A   1      46.663  32.806  29.848  1.00  0.00     0.173 A 
ATOM     85  C   UNL A   1      46.049  33.483  27.625  1.00  0.00     0.173 A 
ATOM     86  F   UNL A   1      46.717  31.889  30.826  1.00  0.00    -0.203 F 
ATOM     87  C   UNL A   1      47.143  34.088  30.102  1.00  0.00     0.198 A 
ATOM     88  C   UNL A   1      46.561  34.753  27.871  1.00  0.00     0.198 A 
ATOM     89  F   UNL A   1      45.522  33.224  26.419  1.00  0.00    -0.203 F 
ATOM     90  F   UNL A   1      47.633  34.389  31.312  1.00  0.00    -0.200 F 
ATOM     91  C   UNL A   1      47.099  35.058  29.111  1.00  0.00     0.200 A 
ATOM     92  F   UNL A   1      46.534  35.683  26.907  1.00  0.00    -0.200 F 
ATOM     93  F   UNL A   1      47.570  36.288  29.355  1.00  0.00    -0.200 F 
ENDBRANCH  60  83
ENDBRANCH  34  35
ENDBRANCH  26  29
ENDBRANCH  24  25
ENDBRANCH  23  24
ENDBRANCH  22  23
ENDBRANCH   3  22
TORSDOF 17
ENDMDL
MODEL 2
REMARK VINA RESULT:     -10.6      5.506     10.979
REMARK SMILES CCN(CCC#N)C(=O)c1ccncc1/C=C/C(=O)NCCCNC(=O)c1ccc(-c2c3nc(c(-c4c(F)c(F)c(F)c(F)c4F)c4ccc([nH]4)c(-c4c(F)c(F)c(F)c(F)c4F)c4nc(c(-c5c(F)c(F)c(F)c(F)c5F)c5ccc2[nH]5)C=C4)C=C3)cc1
REMARK SMILES IDX 18 1 19 2 20 3 17 5 16 6 15 7 10 8 11 9 12 10 14 11 13 12
REMARK SMILES IDX 8 13 9 14 3 15 2 16 1 17 4 18 5 19 6 20 7 21 21 22 22 23
REMARK SMILES IDX 23 24 24 25 25 26 26 28 27 29 28 30 89 31 29 32 88 33 30 34
REMARK SMILES IDX 31 35 32 36 82 37 33 38 87 39 81 40 83 41 34 42 86 43 80 44
REMARK SMILES IDX 79 45 35 47 67 48 47 49 66 50 48 51 51 52 65 53 84 54 49 55
REMARK SMILES IDX 50 56 64 58 85 59 52 60 36 61 37 62 45 63 38 64 39 65 43 66
REMARK SMILES IDX 46 67 40 68 41 69 44 70 42 71 68 72 69 73 77 74 70 75 71 76
REMARK SMILES IDX 75 77 78 78 72 79 73 80 76 81 74 82 53 83 54 84 62 85 55 86
REMARK SMILES IDX 56 87 60 88 63 89 57 90 58 91 61 92 59 93
REMARK H PARENT 20 4 24 27 83 46 51 57
REMARK Flexibility Score: inf
ROOT
ATOM      1  C   UNL A   1      33.857  29.159  26.992  1.00  0.00     0.244 C 
ATOM      2  O   UNL A   1      34.920  28.965  27.578  1.00  0.00    -0.270 OA
ATOM      3  N   UNL A   1      33.029  30.161  27.391  1.00  0.00    -0.352 N 
ATOM      4  H   UNL A   1      33.350  30.700  28.151  1.00  0.00     0.163 HD
ENDROOT
BRANCH   1   5
ATOM      5  C   UNL A   1      33.392  28.192  25.979  1.00  0.00     0.072 C 
ATOM      6  C   UNL A   1      34.030  27.093  25.539  1.00  0.00     0.016 C 
BRANCH   6   7
ATOM      7  C   UNL A   1      33.432  26.403  24.387  1.00  0.00     0.006 A 
ATOM      8  C   UNL A   1      33.503  25.005  24.156  1.00  0.00     0.050 A 
ATOM      9  C   UNL A   1      33.394  24.585  22.831  1.00  0.00     0.034 A 
ATOM     10  C   UNL A   1      32.972  25.487  21.863  1.00  0.00     0.112 A 
ATOM     11  C   UNL A   1      32.969  27.218  23.348  1.00  0.00     0.119 A 
ATOM     12  N   UNL A   1      32.713  26.782  22.099  1.00  0.00    -0.264 NA
BRANCH   8  13
ATOM     13  C   UNL A   1      33.591  24.020  25.310  1.00  0.00     0.254 C 
ATOM     14  O   UNL A   1      32.688  24.062  26.145  1.00  0.00    -0.269 OA
BRANCH  13  15
ATOM     15  N   UNL A   1      34.577  22.994  25.447  1.00  0.00    -0.338 N 
BRANCH  15  16
ATOM     16  C   UNL A   1      35.837  23.392  26.119  1.00  0.00     0.116 C 
ATOM     17  C   UNL A   1      37.037  23.547  25.190  1.00  0.00     0.027 C 
ENDBRANCH  15  16
BRANCH  15  18
ATOM     18  C   UNL A   1      34.399  21.533  25.284  1.00  0.00     0.135 C 
BRANCH  18  19
ATOM     19  C   UNL A   1      33.266  21.094  24.345  1.00  0.00     0.141 C 
BRANCH  19  20
ATOM     20  C   UNL A   1      32.711  19.763  24.824  1.00  0.00     0.064 C 
ATOM     21  N   UNL A   1      32.249  18.658  25.221  1.00  0.00    -0.198 NA
ENDBRANCH  19  20
ENDBRANCH  18  19
ENDBRANCH  15  18
ENDBRANCH  13  15
ENDBRANCH   8  13
ENDBRANCH   6   7
ENDBRANCH   1   5
BRANCH   3  22
ATOM     22  C   UNL A   1      31.741  30.547  26.854  1.00  0.00     0.118 C 
BRANCH  22  23
ATOM     23  C   UNL A   1      31.496  32.050  26.887  1.00  0.00     0.042 C 
BRANCH  23  24
ATOM     24  C   UNL A   1      32.779  32.861  26.993  1.00  0.00     0.118 C 
BRANCH  24  25
ATOM     25  N   UNL A   1      32.552  34.186  27.570  1.00  0.00    -0.352 N 
ATOM     26  C   UNL A   1      33.074  34.788  28.679  1.00  0.00     0.251 C 
ATOM     27  H   UNL A   1      31.911  34.741  27.070  1.00  0.00     0.163 HD
ATOM     28  O   UNL A   1      32.550  35.817  29.117  1.00  0.00    -0.269 OA
BRANCH  26  29
ATOM     29  C   UNL A   1      34.256  34.229  29.356  1.00  0.00     0.039 A 
ATOM     30  C   UNL A   1      34.080  33.439  30.495  1.00  0.00     0.014 A 
ATOM     31  C   UNL A   1      35.543  34.517  28.896  1.00  0.00     0.014 A 
ATOM     32  C   UNL A   1      35.190  32.890  31.134  1.00  0.00     0.010 A 
ATOM     33  C   UNL A   1      36.637  33.884  29.465  1.00  0.00     0.010 A 
ATOM     34  C   UNL A   1      36.476  33.078  30.599  1.00  0.00    -0.014 A 
BRANCH  34  35
ATOM     35  C   UNL A   1      37.670  32.455  31.217  1.00  0.00     0.031 A 
ATOM     36  C   UNL A   1      38.320  31.269  30.564  1.00  0.00     0.074 A 
ATOM     37  C   UNL A   1      38.112  32.911  32.404  1.00  0.00     0.049 A 
ATOM     38  N   UNL A   1      39.313  30.530  30.989  1.00  0.00    -0.248 NA
ATOM     39  C   UNL A   1      37.753  30.828  29.279  1.00  0.00     0.031 C 
ATOM     40  C   UNL A   1      37.524  34.018  33.158  1.00  0.00     0.029 A 
ATOM     41  N   UNL A   1      39.153  32.488  33.192  1.00  0.00    -0.354 N 
ATOM     42  C   UNL A   1      39.473  29.531  30.038  1.00  0.00     0.074 A 
ATOM     43  C   UNL A   1      38.436  29.718  29.047  1.00  0.00     0.031 C 
ATOM     44  C   UNL A   1      38.228  34.206  34.285  1.00  0.00     0.029 A 
ATOM     45  C   UNL A   1      39.286  33.204  34.355  1.00  0.00     0.049 A 
ATOM     46  H   UNL A   1      39.747  31.743  32.946  1.00  0.00     0.167 HD
ATOM     47  C   UNL A   1      40.417  28.562  29.983  1.00  0.00     0.037 A 
ATOM     48  C   UNL A   1      40.159  33.060  35.369  1.00  0.00     0.037 A 
ATOM     49  C   UNL A   1      41.460  28.403  30.962  1.00  0.00     0.049 A 
ATOM     50  C   UNL A   1      41.200  31.977  35.284  1.00  0.00     0.074 A 
ATOM     51  C   UNL A   1      42.509  27.502  30.966  1.00  0.00     0.029 A 
ATOM     52  N   UNL A   1      41.579  29.163  32.118  1.00  0.00    -0.354 N 
ATOM     53  N   UNL A   1      41.394  31.088  34.342  1.00  0.00    -0.248 NA
ATOM     54  C   UNL A   1      42.149  31.884  36.402  1.00  0.00     0.031 C 
ATOM     55  C   UNL A   1      43.230  27.678  32.152  1.00  0.00     0.029 A 
ATOM     56  C   UNL A   1      42.668  28.731  32.858  1.00  0.00     0.049 A 
ATOM     57  H   UNL A   1      40.979  29.900  32.373  1.00  0.00     0.167 HD
ATOM     58  C   UNL A   1      42.500  30.347  34.736  1.00  0.00     0.074 A 
ATOM     59  C   UNL A   1      42.945  30.905  35.997  1.00  0.00     0.031 C 
ATOM     60  C   UNL A   1      43.095  29.301  34.110  1.00  0.00     0.037 A 
BRANCH  47  61
ATOM     61  C   UNL A   1      40.360  27.600  28.830  1.00  0.00     0.064 A 
ATOM     62  C   UNL A   1      41.074  27.825  27.642  1.00  0.00     0.173 A 
ATOM     63  C   UNL A   1      39.593  26.429  28.919  1.00  0.00     0.173 A 
ATOM     64  F   UNL A   1      41.814  28.935  27.497  1.00  0.00    -0.203 F 
ATOM     65  C   UNL A   1      40.991  26.933  26.574  1.00  0.00     0.198 A 
ATOM     66  C   UNL A   1      39.542  25.521  27.864  1.00  0.00     0.198 A 
ATOM     67  F   UNL A   1      38.895  26.160  30.032  1.00  0.00    -0.203 F 
ATOM     68  F   UNL A   1      41.632  27.202  25.428  1.00  0.00    -0.200 F 
ATOM     69  C   UNL A   1      40.231  25.780  26.689  1.00  0.00     0.200 A 
ATOM     70  F   UNL A   1      38.819  24.399  27.982  1.00  0.00    -0.200 F 
ATOM     71  F   UNL A   1      40.156  24.920  25.663  1.00  0.00    -0.200 F 
ENDBRANCH  47  61
BRANCH  48  72
ATOM     72  C   UNL A   1      40.099  33.983  36.532  1.00  0.00     0.064 A 
ATOM     73  C   UNL A   1      39.297  33.690  37.643  1.00  0.00     0.173 A 
ATOM     74  C   UNL A   1      40.853  35.166  36.566  1.00  0.00     0.173 A 
ATOM     75  F   UNL A   1      38.546  32.579  37.652  1.00  0.00    -0.203 F 
ATOM     76  C   UNL A   1      39.235  34.554  38.735  1.00  0.00     0.198 A 
ATOM     77  C   UNL A   1      40.815  36.013  37.671  1.00  0.00     0.198 A 
ATOM     78  F   UNL A   1      41.646  35.488  35.533  1.00  0.00    -0.203 F 
ATOM     79  F   UNL A   1      38.428  34.270  39.766  1.00  0.00    -0.200 F 
ATOM     80  C   UNL A   1      40.000  35.710  38.752  1.00  0.00     0.200 A 
ATOM     81  F   UNL A   1      41.573  37.118  37.693  1.00  0.00    -0.200 F 
ATOM     82  F   UNL A   1      39.951  36.535  39.807  1.00  0.00    -0.200 F 
ENDBRANCH  48  72
BRANCH  60  83
ATOM     83  C   UNL A   1      44.312  28.712  34.764  1.00  0.00     0.064 A 
ATOM     84  C   UNL A   1      44.218  27.669  35.697  1.00  0.00     0.173 A 
ATOM     85  C   UNL A   1      45.593  29.172  34.420  1.00  0.00     0.173 A 
ATOM     86  F   UNL A   1      43.017  27.203  36.071  1.00  0.00    -0.203 F 
ATOM     87  C   UNL A   1      45.360  27.127  36.281  1.00  0.00     0.198 A 
ATOM     88  C   UNL A   1      46.733  28.603  34.979  1.00  0.00     0.198 A 
ATOM     89  F   UNL A   1      45.739  30.162  33.527  1.00  0.00    -0.203 F 
ATOM     90  F   UNL A   1      45.243  26.167  37.209  1.00  0.00    -0.200 F 
ATOM     91  C   UNL A   1      46.616  27.588  35.916  1.00  0.00     0.200 A 
ATOM     92  F   UNL A   1      47.946  29.039  34.613  1.00  0.00    -0.200 F 
ATOM     93  F   UNL A   1      47.713  27.059  36.472  1.00  0.00    -0.200 F 
ENDBRANCH  60  83
ENDBRANCH  34  35
ENDBRANCH  26  29
ENDBRANCH  24  25
ENDBRANCH  23  24
ENDBRANCH  22  23
ENDBRANCH   3  22
TORSDOF 17
ENDMDL
MODEL 3
REMARK VINA RESULT:     -10.5      0.633      2.219
REMARK SMILES CCN(CCC#N)C(=O)c1ccncc1/C=C/C(=O)NCCCNC(=O)c1ccc(-c2c3nc(c(-c4c(F)c(F)c(F)c(F)c4F)c4ccc([nH]4)c(-c4c(F)c(F)c(F)c(F)c4F)c4nc(c(-c5c(F)c(F)c(F)c(F)c5F)c5ccc2[nH]5)C=C4)C=C3)cc1
REMARK SMILES IDX 18 1 19 2 20 3 17 5 16 6 15 7 10 8 11 9 12 10 14 11 13 12
REMARK SMILES IDX 8 13 9 14 3 15 2 16 1 17 4 18 5 19 6 20 7 21 21 22 22 23
REMARK SMILES IDX 23 24 24 25 25 26 26 28 27 29 28 30 89 31 29 32 88 33 30 34
REMARK SMILES IDX 31 35 32 36 82 37 33 38 87 39 81 40 83 41 34 42 86 43 80 44
REMARK SMILES IDX 79 45 35 47 67 48 47 49 66 50 48 51 51 52 65 53 84 54 49 55
REMARK SMILES IDX 50 56 64 58 85 59 52 60 36 61 37 62 45 63 38 64 39 65 43 66
REMARK SMILES IDX 46 67 40 68 41 69 44 70 42 71 68 72 69 73 77 74 70 75 71 76
REMARK SMILES IDX 75 77 78 78 72 79 73 80 76 81 74 82 53 83 54 84 62 85 55 86
REMARK SMILES IDX 56 87 60 88 63 89 57 90 58 91 61 92 59 93
REMARK H PARENT 20 4 24 27 83 46 51 57
REMARK Flexibility Score: inf
ROOT
ATOM      1  C   UNL A   1      37.465  23.125  25.665  1.00  0.00     0.244 C 
ATOM      2  O   UNL A   1      38.123  24.097  26.028  1.00  0.00    -0.270 OA
ATOM      3  N   UNL A   1      38.087  22.034  25.142  1.00  0.00    -0.352 N 
ATOM      4  H   UNL A   1      39.069  22.088  25.094  1.00  0.00     0.163 HD
ENDROOT
BRANCH   1   5
ATOM      5  C   UNL A   1      35.992  23.212  25.621  1.00  0.00     0.072 C 
ATOM      6  C   UNL A   1      35.232  24.317  25.724  1.00  0.00     0.016 C 
BRANCH   6   7
ATOM      7  C   UNL A   1      33.782  24.108  25.839  1.00  0.00     0.006 A 
ATOM      8  C   UNL A   1      32.815  25.146  25.868  1.00  0.00     0.050 A 
ATOM      9  C   UNL A   1      31.611  24.859  26.508  1.00  0.00     0.034 A 
ATOM     10  C   UNL A   1      31.312  23.544  26.842  1.00  0.00     0.112 A 
ATOM     11  C   UNL A   1      33.367  22.813  26.170  1.00  0.00     0.119 A 
ATOM     12  N   UNL A   1      32.144  22.508  26.647  1.00  0.00    -0.264 NA
BRANCH   8  13
ATOM     13  C   UNL A   1      33.052  26.462  25.148  1.00  0.00     0.254 C 
ATOM     14  O   UNL A   1      33.841  27.247  25.673  1.00  0.00    -0.269 OA
BRANCH  13  15
ATOM     15  N   UNL A   1      32.511  26.816  23.873  1.00  0.00    -0.338 N 
BRANCH  15  16
ATOM     16  C   UNL A   1      33.335  26.451  22.696  1.00  0.00     0.116 C 
ATOM     17  C   UNL A   1      33.164  25.015  22.213  1.00  0.00     0.027 C 
ENDBRANCH  15  16
BRANCH  15  18
ATOM     18  C   UNL A   1      31.122  27.219  23.552  1.00  0.00     0.135 C 
BRANCH  18  19
ATOM     19  C   UNL A   1      30.756  28.676  23.870  1.00  0.00     0.141 C 
BRANCH  19  20
ATOM     20  C   UNL A   1      30.118  29.307  22.643  1.00  0.00     0.064 C 
ATOM     21  N   UNL A   1      29.589  29.831  21.625  1.00  0.00    -0.198 NA
ENDBRANCH  19  20
ENDBRANCH  18  19
ENDBRANCH  15  18
ENDBRANCH  13  15
ENDBRANCH   8  13
ENDBRANCH   6   7
ENDBRANCH   1   5
BRANCH   3  22
ATOM     22  C   UNL A   1      37.506  20.803  24.647  1.00  0.00     0.118 C 
BRANCH  22  23
ATOM     23  C   UNL A   1      38.332  19.567  24.976  1.00  0.00     0.042 C 
BRANCH  23  24
ATOM     24  C   UNL A   1      39.224  19.754  26.195  1.00  0.00     0.118 C 
BRANCH  24  25
ATOM     25  N   UNL A   1      40.459  18.974  26.103  1.00  0.00    -0.352 N 
ATOM     26  C   UNL A   1      41.767  19.360  26.043  1.00  0.00     0.251 C 
ATOM     27  H   UNL A   1      40.322  17.999  26.080  1.00  0.00     0.163 HD
ATOM     28  O   UNL A   1      42.630  18.541  25.714  1.00  0.00    -0.269 OA
BRANCH  26  29
ATOM     29  C   UNL A   1      42.162  20.741  26.369  1.00  0.00     0.039 A 
ATOM     30  C   UNL A   1      42.441  21.075  27.697  1.00  0.00     0.014 A 
ATOM     31  C   UNL A   1      42.216  21.720  25.374  1.00  0.00     0.014 A 
ATOM     32  C   UNL A   1      42.834  22.374  28.015  1.00  0.00     0.010 A 
ATOM     33  C   UNL A   1      42.710  22.981  25.673  1.00  0.00     0.010 A 
ATOM     34  C   UNL A   1      43.008  23.327  26.998  1.00  0.00    -0.014 A 
BRANCH  34  35
ATOM     35  C   UNL A   1      43.485  24.698  27.295  1.00  0.00     0.031 A 
ATOM     36  C   UNL A   1      42.527  25.727  27.823  1.00  0.00     0.074 A 
ATOM     37  C   UNL A   1      44.757  25.031  27.010  1.00  0.00     0.049 A 
ATOM     38  N   UNL A   1      42.725  26.999  28.061  1.00  0.00    -0.248 NA
ATOM     39  C   UNL A   1      41.149  25.278  28.084  1.00  0.00     0.031 C 
ATOM     40  C   UNL A   1      45.760  24.130  26.440  1.00  0.00     0.029 A 
ATOM     41  N   UNL A   1      45.422  26.223  27.149  1.00  0.00    -0.354 N 
ATOM     42  C   UNL A   1      41.498  27.500  28.475  1.00  0.00     0.074 A 
ATOM     43  C   UNL A   1      40.547  26.414  28.397  1.00  0.00     0.031 C 
ATOM     44  C   UNL A   1      46.919  24.792  26.303  1.00  0.00     0.029 A 
ATOM     45  C   UNL A   1      46.729  26.174  26.731  1.00  0.00     0.049 A 
ATOM     46  H   UNL A   1      45.003  27.035  27.513  1.00  0.00     0.167 HD
ATOM     47  C   UNL A   1      41.199  28.748  28.908  1.00  0.00     0.037 A 
ATOM     48  C   UNL A   1      47.665  27.140  26.690  1.00  0.00     0.037 A 
ATOM     49  C   UNL A   1      42.161  29.814  29.007  1.00  0.00     0.049 A 
ATOM     50  C   UNL A   1      47.309  28.518  27.178  1.00  0.00     0.074 A 
ATOM     51  C   UNL A   1      41.984  31.094  29.500  1.00  0.00     0.029 A 
ATOM     52  N   UNL A   1      43.485  29.722  28.597  1.00  0.00    -0.354 N 
ATOM     53  N   UNL A   1      46.168  28.963  27.644  1.00  0.00    -0.248 NA
ATOM     54  C   UNL A   1      48.377  29.528  27.141  1.00  0.00     0.031 C 
ATOM     55  C   UNL A   1      43.183  31.795  29.334  1.00  0.00     0.029 A 
ATOM     56  C   UNL A   1      44.128  30.933  28.798  1.00  0.00     0.049 A 
ATOM     57  H   UNL A   1      43.905  28.915  28.220  1.00  0.00     0.167 HD
ATOM     58  C   UNL A   1      46.384  30.292  27.981  1.00  0.00     0.074 A 
ATOM     59  C   UNL A   1      47.772  30.576  27.682  1.00  0.00     0.031 C 
ATOM     60  C   UNL A   1      45.512  31.195  28.495  1.00  0.00     0.037 A 
BRANCH  47  61
ATOM     61  C   UNL A   1      39.776  29.025  29.303  1.00  0.00     0.064 A 
ATOM     62  C   UNL A   1      38.822  29.467  28.372  1.00  0.00     0.173 A 
ATOM     63  C   UNL A   1      39.355  28.832  30.627  1.00  0.00     0.173 A 
ATOM     64  F   UNL A   1      39.172  29.679  27.094  1.00  0.00    -0.203 F 
ATOM     65  C   UNL A   1      37.512  29.741  28.760  1.00  0.00     0.198 A 
ATOM     66  C   UNL A   1      38.036  29.072  31.004  1.00  0.00     0.198 A 
ATOM     67  F   UNL A   1      40.222  28.407  31.558  1.00  0.00    -0.203 F 
ATOM     68  F   UNL A   1      36.637  30.220  27.866  1.00  0.00    -0.200 F 
ATOM     69  C   UNL A   1      37.119  29.537  30.073  1.00  0.00     0.200 A 
ATOM     70  F   UNL A   1      37.654  28.859  32.271  1.00  0.00    -0.200 F 
ATOM     71  F   UNL A   1      35.858  29.795  30.445  1.00  0.00    -0.200 F 
ENDBRANCH  47  61
BRANCH  48  72
ATOM     72  C   UNL A   1      49.030  26.826  26.193  1.00  0.00     0.064 A 
ATOM     73  C   UNL A   1      50.012  26.323  27.058  1.00  0.00     0.173 A 
ATOM     74  C   UNL A   1      49.377  27.003  24.846  1.00  0.00     0.173 A 
ATOM     75  F   UNL A   1      49.734  26.150  28.359  1.00  0.00    -0.203 F 
ATOM     76  C   UNL A   1      51.294  26.029  26.598  1.00  0.00     0.198 A 
ATOM     77  C   UNL A   1      50.649  26.679  24.380  1.00  0.00     0.198 A 
ATOM     78  F   UNL A   1      48.470  27.471  23.974  1.00  0.00    -0.203 F 
ATOM     79  F   UNL A   1      52.225  25.588  27.454  1.00  0.00    -0.200 F 
ATOM     80  C   UNL A   1      51.609  26.199  25.258  1.00  0.00     0.200 A 
ATOM     81  F   UNL A   1      50.943  26.824  23.081  1.00  0.00    -0.200 F 
ATOM     82  F   UNL A   1      52.838  25.904  24.813  1.00  0.00    -0.200 F 
ENDBRANCH  48  72
BRANCH  60  83
ATOM     83  C   UNL A   1      46.042  32.567  28.796  1.00  0.00     0.064 A 
ATOM     84  C   UNL A   1      45.963  33.612  27.863  1.00  0.00     0.173 A 
ATOM     85  C   UNL A   1      46.601  32.850  30.052  1.00  0.00     0.173 A 
ATOM     86  F   UNL A   1      45.451  33.390  26.642  1.00  0.00    -0.203 F 
ATOM     87  C   UNL A   1      46.449  34.881  28.167  1.00  0.00     0.198 A 
ATOM     88  C   UNL A   1      47.053  34.128  30.364  1.00  0.00     0.198 A 
ATOM     89  F   UNL A   1      46.694  31.889  30.982  1.00  0.00    -0.203 F 
ATOM     90  F   UNL A   1      46.410  35.849  27.241  1.00  0.00    -0.200 F 
ATOM     91  C   UNL A   1      46.985  35.140  29.419  1.00  0.00     0.200 A 
ATOM     92  F   UNL A   1      47.555  34.381  31.580  1.00  0.00    -0.200 F 
ATOM     93  F   UNL A   1      47.442  36.364  29.713  1.00  0.00    -0.200 F 
ENDBRANCH  60  83
ENDBRANCH  34  35
ENDBRANCH  26  29
ENDBRANCH  24  25
ENDBRANCH  23  24
ENDBRANCH  22  23
ENDBRANCH   3  22
TORSDOF 17
ENDMDL
