MODEL 1
REMARK VINA RESULT:     -11.1      0.000      0.000
REMARK SMILES CCc1ccc(S(=O)(=O)Cc2noc(C(=O)NCCCNC(=O)c3ccc(-c4c5nc(c(-c6c(F)c(F)c(F)c(F)c6F)c6ccc([nH]6)c(-c6c(F)c(F)c(F)c(F)c6F)c6nc(c(-c7c(F)c(F)c(F)c(F)c7F)c7ccc4[nH]7)C=C6)C=C5)cc3)n2)cc1
REMARK SMILES IDX 18 1 17 2 15 3 16 4 14 6 11 7 12 8 87 9 13 10 10 11 7 12
REMARK SMILES IDX 8 13 9 14 6 15 3 16 4 17 89 18 5 19 88 20 2 21 1 22 19 23
REMARK SMILES IDX 20 24 21 25 22 26 23 28 24 29 25 30 86 31 26 32 85 33 27 34
REMARK SMILES IDX 28 35 29 36 79 37 30 38 84 39 78 40 80 41 31 42 83 43 77 44
REMARK SMILES IDX 76 45 32 47 64 48 44 49 63 50 45 51 48 52 62 53 81 54 46 55
REMARK SMILES IDX 47 56 61 58 82 59 49 60 33 61 34 62 42 63 35 64 36 65 40 66
REMARK SMILES IDX 43 67 37 68 38 69 41 70 39 71 65 72 66 73 74 74 67 75 68 76
REMARK SMILES IDX 72 77 75 78 69 79 70 80 73 81 71 82 50 83 51 84 59 85 52 86
REMARK SMILES IDX 53 87 57 88 60 89 54 90 55 91 58 92 56 93
REMARK H PARENT 17 5 21 27 80 46 48 57
REMARK Flexibility Score: inf
ROOT
ATOM      1  C   UNL A   1      34.552  35.119  28.817  1.00  0.00     0.118 C 
ENDROOT
BRANCH   1   2
ATOM      2  N   UNL A   1      33.689  36.114  29.419  1.00  0.00    -0.348 N 
ATOM      3  C   UNL A   1      33.324  36.262  30.747  1.00  0.00     0.309 C 
ATOM      4  O   UNL A   1      32.686  37.283  31.019  1.00  0.00    -0.264 OA
ATOM      5  H   UNL A   1      33.309  36.776  28.799  1.00  0.00     0.163 HD
BRANCH   3   6
ATOM      6  C   UNL A   1      33.701  35.266  31.737  1.00  0.00     0.315 A 
ATOM      7  C   UNL A   1      34.610  34.076  33.213  1.00  0.00     0.187 A 
ATOM      8  N   UNL A   1      33.361  33.601  33.164  1.00  0.00    -0.061 NA
ATOM      9  N   UNL A   1      34.879  35.059  32.295  1.00  0.00    -0.186 NA
ATOM     10  O   UNL A   1      32.745  34.399  32.194  1.00  0.00    -0.329 OA
BRANCH   7  11
ATOM     11  C   UNL A   1      35.663  33.503  34.067  1.00  0.00     0.223 C 
BRANCH  11  12
ATOM     12  S   UNL A   1      36.721  32.351  33.237  1.00  0.00     0.185 S 
ATOM     13  O   UNL A   1      35.866  31.484  32.441  1.00  0.00    -0.223 OA
ATOM     14  O   UNL A   1      37.621  31.775  34.218  1.00  0.00    -0.223 OA
BRANCH  12  15
ATOM     15  C   UNL A   1      37.737  33.213  32.055  1.00  0.00     0.067 A 
ATOM     16  C   UNL A   1      39.346  34.448  30.102  1.00  0.00    -0.048 A 
ATOM     17  C   UNL A   1      38.211  33.711  29.735  1.00  0.00     0.005 A 
ATOM     18  C   UNL A   1      39.612  34.618  31.467  1.00  0.00     0.005 A 
ATOM     19  C   UNL A   1      37.415  33.089  30.702  1.00  0.00     0.020 A 
ATOM     20  C   UNL A   1      38.814  34.005  32.444  1.00  0.00     0.020 A 
BRANCH  16  21
ATOM     21  C   UNL A   1      40.193  35.068  29.012  1.00  0.00     0.032 C 
ATOM     22  C   UNL A   1      41.698  35.090  29.261  1.00  0.00     0.009 C 
ENDBRANCH  16  21
ENDBRANCH  12  15
ENDBRANCH  11  12
ENDBRANCH   7  11
ENDBRANCH   3   6
ENDBRANCH   1   2
BRANCH   1  23
ATOM     23  C   UNL A   1      33.872  33.766  28.656  1.00  0.00     0.042 C 
BRANCH  23  24
ATOM     24  C   UNL A   1      34.848  32.649  28.310  1.00  0.00     0.118 C 
BRANCH  24  25
ATOM     25  N   UNL A   1      34.179  31.367  28.116  1.00  0.00    -0.352 N 
ATOM     26  C   UNL A   1      34.689  30.096  28.029  1.00  0.00     0.251 C 
ATOM     27  H   UNL A   1      33.200  31.424  28.032  1.00  0.00     0.163 HD
ATOM     28  O   UNL A   1      33.953  29.178  27.676  1.00  0.00    -0.269 OA
BRANCH  26  29
ATOM     29  C   UNL A   1      36.110  29.825  28.335  1.00  0.00     0.039 A 
ATOM     30  C   UNL A   1      36.445  29.358  29.609  1.00  0.00     0.014 A 
ATOM     31  C   UNL A   1      37.114  30.058  27.394  1.00  0.00     0.014 A 
ATOM     32  C   UNL A   1      37.776  29.065  29.914  1.00  0.00     0.010 A 
ATOM     33  C   UNL A   1      38.425  29.675  27.666  1.00  0.00     0.010 A 
ATOM     34  C   UNL A   1      38.773  29.187  28.932  1.00  0.00    -0.014 A 
BRANCH  34  35
ATOM     35  C   UNL A   1      40.182  28.813  29.216  1.00  0.00     0.031 A 
ATOM     36  C   UNL A   1      41.078  29.752  29.978  1.00  0.00     0.074 A 
ATOM     37  C   UNL A   1      40.671  27.652  28.737  1.00  0.00     0.049 A 
ATOM     38  N   UNL A   1      42.346  29.625  30.278  1.00  0.00    -0.248 NA
ATOM     39  C   UNL A   1      40.480  31.017  30.435  1.00  0.00     0.031 C 
ATOM     40  C   UNL A   1      39.919  26.685  27.935  1.00  0.00     0.029 A 
ATOM     41  N   UNL A   1      41.919  27.092  28.846  1.00  0.00    -0.354 N 
ATOM     42  C   UNL A   1      42.697  30.794  30.941  1.00  0.00     0.074 A 
ATOM     43  C   UNL A   1      41.527  31.645  30.946  1.00  0.00     0.031 C 
ATOM     44  C   UNL A   1      40.711  25.640  27.649  1.00  0.00     0.029 A 
ATOM     45  C   UNL A   1      42.036  25.880  28.210  1.00  0.00     0.049 A 
ATOM     46  H   UNL A   1      42.660  27.519  29.333  1.00  0.00     0.167 HD
ATOM     47  C   UNL A   1      43.880  31.119  31.517  1.00  0.00     0.037 A 
ATOM     48  C   UNL A   1      43.095  25.058  28.088  1.00  0.00     0.037 A 
ATOM     49  C   UNL A   1      45.034  30.257  31.530  1.00  0.00     0.049 A 
ATOM     50  C   UNL A   1      44.395  25.439  28.744  1.00  0.00     0.074 A 
ATOM     51  C   UNL A   1      46.258  30.464  32.141  1.00  0.00     0.029 A 
ATOM     52  N   UNL A   1      45.106  29.024  30.899  1.00  0.00    -0.354 N 
ATOM     53  N   UNL A   1      44.691  26.512  29.436  1.00  0.00    -0.248 NA
ATOM     54  C   UNL A   1      45.504  24.484  28.614  1.00  0.00     0.031 C 
ATOM     55  C   UNL A   1      47.090  29.384  31.830  1.00  0.00     0.029 A 
ATOM     56  C   UNL A   1      46.364  28.471  31.085  1.00  0.00     0.049 A 
ATOM     57  H   UNL A   1      44.373  28.604  30.393  1.00  0.00     0.167 HD
ATOM     58  C   UNL A   1      46.006  26.348  29.852  1.00  0.00     0.074 A 
ATOM     59  C   UNL A   1      46.443  25.063  29.349  1.00  0.00     0.031 C 
ATOM     60  C   UNL A   1      46.781  27.185  30.585  1.00  0.00     0.037 A 
BRANCH  47  61
ATOM     61  C   UNL A   1      43.989  32.463  32.180  1.00  0.00     0.064 A 
ATOM     62  C   UNL A   1      44.380  33.610  31.471  1.00  0.00     0.173 A 
ATOM     63  C   UNL A   1      43.658  32.615  33.536  1.00  0.00     0.173 A 
ATOM     64  F   UNL A   1      44.719  33.519  30.176  1.00  0.00    -0.203 F 
ATOM     65  C   UNL A   1      44.467  34.849  32.100  1.00  0.00     0.198 A 
ATOM     66  C   UNL A   1      43.711  33.863  34.153  1.00  0.00     0.198 A 
ATOM     67  F   UNL A   1      43.273  31.556  34.262  1.00  0.00    -0.203 F 
ATOM     68  F   UNL A   1      44.896  35.917  31.414  1.00  0.00    -0.200 F 
ATOM     69  C   UNL A   1      44.124  34.976  33.437  1.00  0.00     0.200 A 
ATOM     70  F   UNL A   1      43.365  33.987  35.442  1.00  0.00    -0.200 F 
ATOM     71  F   UNL A   1      44.197  36.172  34.039  1.00  0.00    -0.200 F 
ENDBRANCH  47  61
BRANCH  48  72
ATOM     72  C   UNL A   1      42.965  23.781  27.336  1.00  0.00     0.064 A 
ATOM     73  C   UNL A   1      42.485  22.621  27.959  1.00  0.00     0.173 A 
ATOM     74  C   UNL A   1      43.330  23.691  25.984  1.00  0.00     0.173 A 
ATOM     75  F   UNL A   1      42.139  22.651  29.254  1.00  0.00    -0.203 F 
ATOM     76  C   UNL A   1      42.402  21.413  27.269  1.00  0.00     0.198 A 
ATOM     77  C   UNL A   1      43.214  22.491  25.286  1.00  0.00     0.198 A 
ATOM     78  F   UNL A   1      43.787  24.773  25.338  1.00  0.00    -0.203 F 
ATOM     79  F   UNL A   1      41.992  20.308  27.905  1.00  0.00    -0.200 F 
ATOM     80  C   UNL A   1      42.762  21.350  25.932  1.00  0.00     0.200 A 
ATOM     81  F   UNL A   1      43.545  22.440  23.988  1.00  0.00    -0.200 F 
ATOM     82  F   UNL A   1      42.680  20.190  25.267  1.00  0.00    -0.200 F 
ENDBRANCH  48  72
BRANCH  60  83
ATOM     83  C   UNL A   1      48.165  26.713  30.931  1.00  0.00     0.064 A 
ATOM     84  C   UNL A   1      49.282  27.047  30.150  1.00  0.00     0.173 A 
ATOM     85  C   UNL A   1      48.378  25.928  32.075  1.00  0.00     0.173 A 
ATOM     86  F   UNL A   1      49.132  27.785  29.039  1.00  0.00    -0.203 F 
ATOM     87  C   UNL A   1      50.552  26.580  30.478  1.00  0.00     0.198 A 
ATOM     88  C   UNL A   1      49.655  25.494  32.421  1.00  0.00     0.198 A 
ATOM     89  F   UNL A   1      47.348  25.587  32.864  1.00  0.00    -0.203 F 
ATOM     90  F   UNL A   1      51.592  26.857  29.680  1.00  0.00    -0.200 F 
ATOM     91  C   UNL A   1      50.739  25.809  31.616  1.00  0.00     0.200 A 
ATOM     92  F   UNL A   1      49.835  24.766  33.532  1.00  0.00    -0.200 F 
ATOM     93  F   UNL A   1      51.962  25.362  31.931  1.00  0.00    -0.200 F 
ENDBRANCH  60  83
ENDBRANCH  34  35
ENDBRANCH  26  29
ENDBRANCH  24  25
ENDBRANCH  23  24
ENDBRANCH   1  23
TORSDOF 14
ENDMDL
MODEL 2
REMARK VINA RESULT:     -10.9      1.196      2.382
REMARK SMILES CCc1ccc(S(=O)(=O)Cc2noc(C(=O)NCCCNC(=O)c3ccc(-c4c5nc(c(-c6c(F)c(F)c(F)c(F)c6F)c6ccc([nH]6)c(-c6c(F)c(F)c(F)c(F)c6F)c6nc(c(-c7c(F)c(F)c(F)c(F)c7F)c7ccc4[nH]7)C=C6)C=C5)cc3)n2)cc1
REMARK SMILES IDX 18 1 17 2 15 3 16 4 14 6 11 7 12 8 87 9 13 10 10 11 7 12
REMARK SMILES IDX 8 13 9 14 6 15 3 16 4 17 89 18 5 19 88 20 2 21 1 22 19 23
REMARK SMILES IDX 20 24 21 25 22 26 23 28 24 29 25 30 86 31 26 32 85 33 27 34
REMARK SMILES IDX 28 35 29 36 79 37 30 38 84 39 78 40 80 41 31 42 83 43 77 44
REMARK SMILES IDX 76 45 32 47 64 48 44 49 63 50 45 51 48 52 62 53 81 54 46 55
REMARK SMILES IDX 47 56 61 58 82 59 49 60 33 61 34 62 42 63 35 64 36 65 40 66
REMARK SMILES IDX 43 67 37 68 38 69 41 70 39 71 65 72 66 73 74 74 67 75 68 76
REMARK SMILES IDX 72 77 75 78 69 79 70 80 73 81 71 82 50 83 51 84 59 85 52 86
REMARK SMILES IDX 53 87 57 88 60 89 54 90 55 91 58 92 56 93
REMARK H PARENT 17 5 21 27 80 46 48 57
REMARK Flexibility Score: inf
ROOT
ATOM      1  C   UNL A   1      34.022  34.939  29.128  1.00  0.00     0.118 C 
ENDROOT
BRANCH   1   2
ATOM      2  N   UNL A   1      33.126  35.064  30.260  1.00  0.00    -0.348 N 
ATOM      3  C   UNL A   1      33.417  35.001  31.612  1.00  0.00     0.309 C 
ATOM      4  O   UNL A   1      32.489  35.281  32.377  1.00  0.00    -0.264 OA
ATOM      5  H   UNL A   1      32.180  35.214  30.037  1.00  0.00     0.163 HD
BRANCH   3   6
ATOM      6  C   UNL A   1      34.750  34.640  32.070  1.00  0.00     0.315 A 
ATOM      7  C   UNL A   1      36.647  33.803  32.419  1.00  0.00     0.187 A 
ATOM      8  N   UNL A   1      36.690  34.954  33.099  1.00  0.00    -0.061 NA
ATOM      9  N   UNL A   1      35.438  33.540  31.827  1.00  0.00    -0.186 NA
ATOM     10  O   UNL A   1      35.435  35.523  32.858  1.00  0.00    -0.329 OA
BRANCH   7  11
ATOM     11  C   UNL A   1      37.741  32.818  32.420  1.00  0.00     0.223 C 
BRANCH  11  12
ATOM     12  S   UNL A   1      37.433  31.394  33.424  1.00  0.00     0.185 S 
ATOM     13  O   UNL A   1      36.348  30.655  32.796  1.00  0.00    -0.223 OA
ATOM     14  O   UNL A   1      37.308  31.830  34.802  1.00  0.00    -0.223 OA
BRANCH  12  15
ATOM     15  C   UNL A   1      38.836  30.299  33.361  1.00  0.00     0.067 A 
ATOM     16  C   UNL A   1      41.138  28.683  33.206  1.00  0.00    -0.048 A 
ATOM     17  C   UNL A   1      41.194  29.960  33.785  1.00  0.00     0.005 A 
ATOM     18  C   UNL A   1      39.892  28.205  32.779  1.00  0.00     0.005 A 
ATOM     19  C   UNL A   1      40.056  30.768  33.855  1.00  0.00     0.020 A 
ATOM     20  C   UNL A   1      38.743  29.006  32.853  1.00  0.00     0.020 A 
BRANCH  16  21
ATOM     21  C   UNL A   1      42.410  27.867  33.122  1.00  0.00     0.032 C 
ATOM     22  C   UNL A   1      43.640  28.469  33.792  1.00  0.00     0.009 C 
ENDBRANCH  16  21
ENDBRANCH  12  15
ENDBRANCH  11  12
ENDBRANCH   7  11
ENDBRANCH   3   6
ENDBRANCH   1   2
BRANCH   1  23
ATOM     23  C   UNL A   1      33.691  33.745  28.243  1.00  0.00     0.042 C 
BRANCH  23  24
ATOM     24  C   UNL A   1      34.639  32.571  28.453  1.00  0.00     0.118 C 
BRANCH  24  25
ATOM     25  N   UNL A   1      34.017  31.290  28.131  1.00  0.00    -0.352 N 
ATOM     26  C   UNL A   1      34.573  30.054  27.922  1.00  0.00     0.251 C 
ATOM     27  H   UNL A   1      33.037  31.319  28.051  1.00  0.00     0.163 HD
ATOM     28  O   UNL A   1      33.871  29.149  27.478  1.00  0.00    -0.269 OA
BRANCH  26  29
ATOM     29  C   UNL A   1      36.003  29.807  28.204  1.00  0.00     0.039 A 
ATOM     30  C   UNL A   1      36.366  29.332  29.468  1.00  0.00     0.014 A 
ATOM     31  C   UNL A   1      36.989  30.068  27.251  1.00  0.00     0.014 A 
ATOM     32  C   UNL A   1      37.707  29.061  29.750  1.00  0.00     0.010 A 
ATOM     33  C   UNL A   1      38.310  29.707  27.498  1.00  0.00     0.010 A 
ATOM     34  C   UNL A   1      38.686  29.212  28.754  1.00  0.00    -0.014 A 
BRANCH  34  35
ATOM     35  C   UNL A   1      40.106  28.861  29.014  1.00  0.00     0.031 A 
ATOM     36  C   UNL A   1      41.018  29.844  29.698  1.00  0.00     0.074 A 
ATOM     37  C   UNL A   1      40.589  27.680  28.580  1.00  0.00     0.049 A 
ATOM     38  N   UNL A   1      42.296  29.741  29.965  1.00  0.00    -0.248 NA
ATOM     39  C   UNL A   1      40.425  31.127  30.107  1.00  0.00     0.031 C 
ATOM     40  C   UNL A   1      39.820  26.669  27.852  1.00  0.00     0.029 A 
ATOM     41  N   UNL A   1      41.844  27.135  28.678  1.00  0.00    -0.354 N 
ATOM     42  C   UNL A   1      42.658  30.944  30.556  1.00  0.00     0.074 A 
ATOM     43  C   UNL A   1      41.482  31.787  30.553  1.00  0.00     0.031 C 
ATOM     44  C   UNL A   1      40.611  25.615  27.596  1.00  0.00     0.029 A 
ATOM     45  C   UNL A   1      41.951  25.892  28.102  1.00  0.00     0.049 A 
ATOM     46  H   UNL A   1      42.596  27.590  29.119  1.00  0.00     0.167 HD
ATOM     47  C   UNL A   1      43.855  31.305  31.076  1.00  0.00     0.037 A 
ATOM     48  C   UNL A   1      43.011  25.071  27.990  1.00  0.00     0.037 A 
ATOM     49  C   UNL A   1      45.016  30.452  31.099  1.00  0.00     0.049 A 
ATOM     50  C   UNL A   1      44.328  25.493  28.585  1.00  0.00     0.074 A 
ATOM     51  C   UNL A   1      46.257  30.698  31.660  1.00  0.00     0.029 A 
ATOM     52  N   UNL A   1      45.078  29.188  30.530  1.00  0.00    -0.354 N 
ATOM     53  N   UNL A   1      44.638  26.602  29.212  1.00  0.00    -0.248 NA
ATOM     54  C   UNL A   1      45.440  24.540  28.470  1.00  0.00     0.031 C 
ATOM     55  C   UNL A   1      47.087  29.608  31.379  1.00  0.00     0.029 A 
ATOM     56  C   UNL A   1      46.345  28.653  30.705  1.00  0.00     0.049 A 
ATOM     57  H   UNL A   1      44.333  28.738  30.069  1.00  0.00     0.167 HD
ATOM     58  C   UNL A   1      45.966  26.468  29.594  1.00  0.00     0.074 A 
ATOM     59  C   UNL A   1      46.396  25.160  29.145  1.00  0.00     0.031 C 
ATOM     60  C   UNL A   1      46.757  27.345  30.259  1.00  0.00     0.037 A 
BRANCH  47  61
ATOM     61  C   UNL A   1      43.974  32.682  31.666  1.00  0.00     0.064 A 
ATOM     62  C   UNL A   1      44.171  33.817  30.864  1.00  0.00     0.173 A 
ATOM     63  C   UNL A   1      43.850  32.875  33.051  1.00  0.00     0.173 A 
ATOM     64  F   UNL A   1      44.309  33.689  29.536  1.00  0.00    -0.203 F 
ATOM     65  C   UNL A   1      44.271  35.087  31.427  1.00  0.00     0.198 A 
ATOM     66  C   UNL A   1      43.914  34.151  33.608  1.00  0.00     0.198 A 
ATOM     67  F   UNL A   1      43.656  31.829  33.866  1.00  0.00    -0.203 F 
ATOM     68  F   UNL A   1      44.513  36.147  30.644  1.00  0.00    -0.200 F 
ATOM     69  C   UNL A   1      44.133  35.254  32.796  1.00  0.00     0.200 A 
ATOM     70  F   UNL A   1      43.765  34.312  34.930  1.00  0.00    -0.200 F 
ATOM     71  F   UNL A   1      44.217  36.478  33.336  1.00  0.00    -0.200 F 
ENDBRANCH  47  61
BRANCH  48  72
ATOM     72  C   UNL A   1      42.869  23.756  27.309  1.00  0.00     0.064 A 
ATOM     73  C   UNL A   1      43.251  23.589  25.971  1.00  0.00     0.173 A 
ATOM     74  C   UNL A   1      42.336  22.644  27.978  1.00  0.00     0.173 A 
ATOM     75  F   UNL A   1      43.749  24.627  25.283  1.00  0.00    -0.203 F 
ATOM     76  C   UNL A   1      43.080  22.370  25.319  1.00  0.00     0.198 A 
ATOM     77  C   UNL A   1      42.197  21.415  27.334  1.00  0.00     0.198 A 
ATOM     78  F   UNL A   1      41.963  22.746  29.262  1.00  0.00    -0.203 F 
ATOM     79  F   UNL A   1      43.401  22.255  24.023  1.00  0.00    -0.200 F 
ATOM     80  C   UNL A   1      42.557  21.283  26.002  1.00  0.00     0.200 A 
ATOM     81  F   UNL A   1      41.709  20.363  28.005  1.00  0.00    -0.200 F 
ATOM     82  F   UNL A   1      42.395  20.110  25.376  1.00  0.00    -0.200 F 
ENDBRANCH  48  72
BRANCH  60  83
ATOM     83  C   UNL A   1      48.154  26.900  30.585  1.00  0.00     0.064 A 
ATOM     84  C   UNL A   1      49.250  27.236  29.776  1.00  0.00     0.173 A 
ATOM     85  C   UNL A   1      48.402  26.140  31.739  1.00  0.00     0.173 A 
ATOM     86  F   UNL A   1      49.068  27.950  28.655  1.00  0.00    -0.203 F 
ATOM     87  C   UNL A   1      50.533  26.793  30.087  1.00  0.00     0.198 A 
ATOM     88  C   UNL A   1      49.691  25.731  32.068  1.00  0.00     0.198 A 
ATOM     89  F   UNL A   1      47.392  25.799  32.555  1.00  0.00    -0.203 F 
ATOM     90  F   UNL A   1      51.553  27.070  29.264  1.00  0.00    -0.200 F 
ATOM     91  C   UNL A   1      50.754  26.047  31.235  1.00  0.00     0.200 A 
ATOM     92  F   UNL A   1      49.904  25.027  33.188  1.00  0.00    -0.200 F 
ATOM     93  F   UNL A   1      51.989  25.624  31.534  1.00  0.00    -0.200 F 
ENDBRANCH  60  83
ENDBRANCH  34  35
ENDBRANCH  26  29
ENDBRANCH  24  25
ENDBRANCH  23  24
ENDBRANCH   1  23
TORSDOF 14
ENDMDL
MODEL 3
REMARK VINA RESULT:     -10.8      1.265      2.385
REMARK SMILES CCc1ccc(S(=O)(=O)Cc2noc(C(=O)NCCCNC(=O)c3ccc(-c4c5nc(c(-c6c(F)c(F)c(F)c(F)c6F)c6ccc([nH]6)c(-c6c(F)c(F)c(F)c(F)c6F)c6nc(c(-c7c(F)c(F)c(F)c(F)c7F)c7ccc4[nH]7)C=C6)C=C5)cc3)n2)cc1
REMARK SMILES IDX 18 1 17 2 15 3 16 4 14 6 11 7 12 8 87 9 13 10 10 11 7 12
REMARK SMILES IDX 8 13 9 14 6 15 3 16 4 17 89 18 5 19 88 20 2 21 1 22 19 23
REMARK SMILES IDX 20 24 21 25 22 26 23 28 24 29 25 30 86 31 26 32 85 33 27 34
REMARK SMILES IDX 28 35 29 36 79 37 30 38 84 39 78 40 80 41 31 42 83 43 77 44
REMARK SMILES IDX 76 45 32 47 64 48 44 49 63 50 45 51 48 52 62 53 81 54 46 55
REMARK SMILES IDX 47 56 61 58 82 59 49 60 33 61 34 62 42 63 35 64 36 65 40 66
REMARK SMILES IDX 43 67 37 68 38 69 41 70 39 71 65 72 66 73 74 74 67 75 68 76
REMARK SMILES IDX 72 77 75 78 69 79 70 80 73 81 71 82 50 83 51 84 59 85 52 86
REMARK SMILES IDX 53 87 57 88 60 89 54 90 55 91 58 92 56 93
REMARK H PARENT 17 5 21 27 80 46 48 57
REMARK Flexibility Score: inf
ROOT
ATOM      1  C   UNL A   1      33.881  35.022  29.141  1.00  0.00     0.118 C 
ENDROOT
BRANCH   1   2
ATOM      2  N   UNL A   1      32.972  35.192  30.257  1.00  0.00    -0.348 N 
ATOM      3  C   UNL A   1      33.246  35.172  31.614  1.00  0.00     0.309 C 
ATOM      4  O   UNL A   1      32.310  35.484  32.357  1.00  0.00    -0.264 OA
ATOM      5  H   UNL A   1      32.030  35.340  30.017  1.00  0.00     0.163 HD
BRANCH   3   6
ATOM      6  C   UNL A   1      34.569  34.817  32.101  1.00  0.00     0.315 A 
ATOM      7  C   UNL A   1      36.475  34.009  32.472  1.00  0.00     0.187 A 
ATOM      8  N   UNL A   1      36.460  35.115  33.223  1.00  0.00    -0.061 NA
ATOM      9  N   UNL A   1      35.297  33.753  31.818  1.00  0.00    -0.186 NA
ATOM     10  O   UNL A   1      35.200  35.667  32.969  1.00  0.00    -0.329 OA
BRANCH   7  11
ATOM     11  C   UNL A   1      37.596  33.055  32.455  1.00  0.00     0.223 C 
BRANCH  11  12
ATOM     12  S   UNL A   1      37.338  31.617  33.455  1.00  0.00     0.185 S 
ATOM     13  O   UNL A   1      36.358  30.789  32.769  1.00  0.00    -0.223 OA
ATOM     14  O   UNL A   1      37.090  32.052  34.817  1.00  0.00    -0.223 OA
BRANCH  12  15
ATOM     15  C   UNL A   1      38.825  30.639  33.495  1.00  0.00     0.067 A 
ATOM     16  C   UNL A   1      41.254  29.212  33.507  1.00  0.00    -0.048 A 
ATOM     17  C   UNL A   1      41.170  30.492  34.075  1.00  0.00     0.005 A 
ATOM     18  C   UNL A   1      40.081  28.633  33.006  1.00  0.00     0.005 A 
ATOM     19  C   UNL A   1      39.968  31.207  34.063  1.00  0.00     0.020 A 
ATOM     20  C   UNL A   1      38.869  29.339  32.997  1.00  0.00     0.020 A 
BRANCH  16  21
ATOM     21  C   UNL A   1      42.589  28.500  33.515  1.00  0.00     0.032 C 
ATOM     22  C   UNL A   1      42.598  27.094  34.106  1.00  0.00     0.009 C 
ENDBRANCH  16  21
ENDBRANCH  12  15
ENDBRANCH  11  12
ENDBRANCH   7  11
ENDBRANCH   3   6
ENDBRANCH   1   2
BRANCH   1  23
ATOM     23  C   UNL A   1      33.546  33.806  28.287  1.00  0.00     0.042 C 
BRANCH  23  24
ATOM     24  C   UNL A   1      34.514  32.649  28.500  1.00  0.00     0.118 C 
BRANCH  24  25
ATOM     25  N   UNL A   1      33.923  31.360  28.152  1.00  0.00    -0.352 N 
ATOM     26  C   UNL A   1      34.508  30.140  27.929  1.00  0.00     0.251 C 
ATOM     27  H   UNL A   1      32.943  31.369  28.063  1.00  0.00     0.163 HD
ATOM     28  O   UNL A   1      33.830  29.227  27.464  1.00  0.00    -0.269 OA
BRANCH  26  29
ATOM     29  C   UNL A   1      35.940  29.919  28.221  1.00  0.00     0.039 A 
ATOM     30  C   UNL A   1      36.305  29.474  29.495  1.00  0.00     0.014 A 
ATOM     31  C   UNL A   1      36.926  30.176  27.266  1.00  0.00     0.014 A 
ATOM     32  C   UNL A   1      37.649  29.229  29.787  1.00  0.00     0.010 A 
ATOM     33  C   UNL A   1      38.251  29.839  27.525  1.00  0.00     0.010 A 
ATOM     34  C   UNL A   1      38.630  29.374  28.792  1.00  0.00    -0.014 A 
BRANCH  34  35
ATOM     35  C   UNL A   1      40.053  29.050  29.063  1.00  0.00     0.031 A 
ATOM     36  C   UNL A   1      40.936  30.041  29.773  1.00  0.00     0.074 A 
ATOM     37  C   UNL A   1      40.566  27.886  28.617  1.00  0.00     0.049 A 
ATOM     38  N   UNL A   1      42.213  29.960  30.053  1.00  0.00    -0.248 NA
ATOM     39  C   UNL A   1      40.311  31.305  30.194  1.00  0.00     0.031 C 
ATOM     40  C   UNL A   1      39.827  26.870  27.865  1.00  0.00     0.029 A 
ATOM     41  N   UNL A   1      41.831  27.365  28.723  1.00  0.00    -0.354 N 
ATOM     42  C   UNL A   1      42.543  31.162  30.666  1.00  0.00     0.074 A 
ATOM     43  C   UNL A   1      41.349  31.980  30.662  1.00  0.00     0.031 C 
ATOM     44  C   UNL A   1      40.643  25.836  27.603  1.00  0.00     0.029 A 
ATOM     45  C   UNL A   1      41.971  26.134  28.130  1.00  0.00     0.049 A 
ATOM     46  H   UNL A   1      42.569  27.830  29.180  1.00  0.00     0.167 HD
ATOM     47  C   UNL A   1      43.726  31.540  31.207  1.00  0.00     0.037 A 
ATOM     48  C   UNL A   1      43.050  25.337  28.018  1.00  0.00     0.037 A 
ATOM     49  C   UNL A   1      44.903  30.712  31.230  1.00  0.00     0.049 A 
ATOM     50  C   UNL A   1      44.350  25.777  28.635  1.00  0.00     0.074 A 
ATOM     51  C   UNL A   1      46.132  30.974  31.810  1.00  0.00     0.029 A 
ATOM     52  N   UNL A   1      44.999  29.458  30.644  1.00  0.00    -0.354 N 
ATOM     53  N   UNL A   1      44.629  26.883  29.282  1.00  0.00    -0.248 NA
ATOM     54  C   UNL A   1      45.484  24.849  28.519  1.00  0.00     0.031 C 
ATOM     55  C   UNL A   1      46.988  29.907  31.523  1.00  0.00     0.029 A 
ATOM     56  C   UNL A   1      46.275  28.947  30.826  1.00  0.00     0.049 A 
ATOM     57  H   UNL A   1      44.269  28.999  30.167  1.00  0.00     0.167 HD
ATOM     58  C   UNL A   1      45.955  26.771  29.678  1.00  0.00     0.074 A 
ATOM     59  C   UNL A   1      46.418  25.480  29.214  1.00  0.00     0.031 C 
ATOM     60  C   UNL A   1      46.719  27.655  30.365  1.00  0.00     0.037 A 
BRANCH  47  61
ATOM     61  C   UNL A   1      43.809  32.910  31.819  1.00  0.00     0.064 A 
ATOM     62  C   UNL A   1      43.893  34.069  31.031  1.00  0.00     0.173 A 
ATOM     63  C   UNL A   1      43.763  33.070  33.213  1.00  0.00     0.173 A 
ATOM     64  F   UNL A   1      43.953  33.974  29.694  1.00  0.00    -0.203 F 
ATOM     65  C   UNL A   1      43.960  35.332  31.615  1.00  0.00     0.198 A 
ATOM     66  C   UNL A   1      43.794  34.336  33.792  1.00  0.00     0.198 A 
ATOM     67  F   UNL A   1      43.678  31.999  34.015  1.00  0.00    -0.203 F 
ATOM     68  F   UNL A   1      44.096  36.418  30.842  1.00  0.00    -0.200 F 
ATOM     69  C   UNL A   1      43.902  35.465  32.993  1.00  0.00     0.200 A 
ATOM     70  F   UNL A   1      43.722  34.464  35.124  1.00  0.00    -0.200 F 
ATOM     71  F   UNL A   1      43.955  36.682  33.554  1.00  0.00    -0.200 F 
ENDBRANCH  47  61
BRANCH  48  72
ATOM     72  C   UNL A   1      42.943  24.030  27.316  1.00  0.00     0.064 A 
ATOM     73  C   UNL A   1      42.512  22.879  27.991  1.00  0.00     0.173 A 
ATOM     74  C   UNL A   1      43.279  23.902  25.960  1.00  0.00     0.173 A 
ATOM     75  F   UNL A   1      42.195  22.947  29.292  1.00  0.00    -0.203 F 
ATOM     76  C   UNL A   1      42.451  21.645  27.347  1.00  0.00     0.198 A 
ATOM     77  C   UNL A   1      43.186  22.673  25.308  1.00  0.00     0.198 A 
ATOM     78  F   UNL A   1      43.689  24.972  25.265  1.00  0.00    -0.203 F 
ATOM     79  F   UNL A   1      42.090  20.552  28.032  1.00  0.00    -0.200 F 
ATOM     80  C   UNL A   1      42.783  21.544  26.005  1.00  0.00     0.200 A 
ATOM     81  F   UNL A   1      43.489  22.585  24.006  1.00  0.00    -0.200 F 
ATOM     82  F   UNL A   1      42.721  20.358  25.385  1.00  0.00    -0.200 F 
ENDBRANCH  48  72
BRANCH  60  83
ATOM     83  C   UNL A   1      48.122  27.234  30.702  1.00  0.00     0.064 A 
ATOM     84  C   UNL A   1      48.420  26.491  31.854  1.00  0.00     0.173 A 
ATOM     85  C   UNL A   1      49.184  27.565  29.845  1.00  0.00     0.173 A 
ATOM     86  F   UNL A   1      47.444  26.160  32.714  1.00  0.00    -0.203 F 
ATOM     87  C   UNL A   1      49.730  26.132  32.157  1.00  0.00     0.198 A 
ATOM     88  C   UNL A   1      50.488  27.170  30.130  1.00  0.00     0.198 A 
ATOM     89  F   UNL A   1      48.955  28.265  28.723  1.00  0.00    -0.203 F 
ATOM     90  F   UNL A   1      49.998  25.480  33.297  1.00  0.00    -0.200 F 
ATOM     91  C   UNL A   1      50.762  26.466  31.292  1.00  0.00     0.200 A 
ATOM     92  F   UNL A   1      51.479  27.479  29.283  1.00  0.00    -0.200 F 
ATOM     93  F   UNL A   1      52.022  26.117  31.584  1.00  0.00    -0.200 F 
ENDBRANCH  60  83
ENDBRANCH  34  35
ENDBRANCH  26  29
ENDBRANCH  24  25
ENDBRANCH  23  24
ENDBRANCH   1  23
TORSDOF 14
ENDMDL
