MODEL 1
REMARK VINA RESULT:     -13.8      0.000      0.000
REMARK SMILES COc1ccc(-n2c(=O)[nH]c3cc(C(=O)NCCCNC(=O)c4ccc(-c5c6nc(c(-c7c(F)c(F)c(F)c(F)c7F)c7ccc([nH]7)c(-c7c(F)c(F)c(F)c(F)c7F)c7nc(c(-c8c(F)c(F)c(F)c(F)c8F)c8ccc5[nH]8)C=C7)C=C6)cc4)ccc3c2=O)cc1
REMARK SMILES IDX 18 1 17 2 16 3 14 4 15 5 13 7 7 8 8 9 89 10 9 11 10 12 88 13
REMARK SMILES IDX 90 14 11 15 87 17 12 18 86 19 6 20 3 21 4 22 92 23 5 24
REMARK SMILES IDX 91 25 2 26 1 27 19 28 20 29 21 30 22 32 23 33 24 34 85 35
REMARK SMILES IDX 25 36 84 37 26 38 27 39 28 40 78 41 29 42 83 43 77 44 79 45
REMARK SMILES IDX 30 46 82 47 76 48 75 49 31 51 63 52 43 53 62 54 44 55 47 56
REMARK SMILES IDX 61 57 80 58 45 59 46 60 60 62 81 63 48 64 32 65 33 66 41 67
REMARK SMILES IDX 34 68 35 69 39 70 42 71 36 72 37 73 40 74 38 75 64 76 65 77
REMARK SMILES IDX 73 78 66 79 67 80 71 81 74 82 68 83 69 84 72 85 70 86 49 87
REMARK SMILES IDX 50 88 58 89 51 90 52 91 56 92 59 93 53 94 54 95 57 96 55 97
REMARK H PARENT 16 6 10 16 20 31 79 50 47 61
REMARK Flexibility Score: inf
ROOT
ATOM      1  C   UNL A   1      31.431  32.046  26.765  1.00  0.00     0.042 C 
ENDROOT
BRANCH   1   2
ATOM      2  C   UNL A   1      31.690  30.842  25.878  1.00  0.00     0.118 C 
BRANCH   2   3
ATOM      3  N   UNL A   1      30.648  30.636  24.882  1.00  0.00    -0.352 N 
ATOM      4  C   UNL A   1      30.488  29.690  23.904  1.00  0.00     0.251 C 
ATOM      5  O   UNL A   1      29.578  29.843  23.089  1.00  0.00    -0.269 OA
ATOM      6  H   UNL A   1      29.924  31.302  24.918  1.00  0.00     0.163 HD
BRANCH   4   7
ATOM      7  C   UNL A   1      31.366  28.500  23.785  1.00  0.00     0.041 A 
ATOM      8  N   UNL A   1      33.953  24.323  24.842  1.00  0.00    -0.228 N 
ATOM      9  C   UNL A   1      32.929  24.374  25.798  1.00  0.00     0.333 A 
ATOM     10  C   UNL A   1      33.832  25.043  23.647  1.00  0.00     0.268 A 
ATOM     11  O   UNL A   1      32.774  23.637  26.771  1.00  0.00    -0.247 OA
ATOM     12  N   UNL A   1      31.992  25.372  25.655  1.00  0.00    -0.306 N 
ATOM     13  C   UNL A   1      32.993  26.243  23.682  1.00  0.00     0.064 A 
ATOM     14  O   UNL A   1      34.319  24.755  22.554  1.00  0.00    -0.268 OA
ATOM     15  C   UNL A   1      32.046  26.356  24.680  1.00  0.00     0.056 A 
ATOM     16  H   UNL A   1      31.234  25.388  26.285  1.00  0.00     0.171 HD
ATOM     17  C   UNL A   1      33.179  27.265  22.754  1.00  0.00     0.017 A 
ATOM     18  C   UNL A   1      31.196  27.460  24.717  1.00  0.00     0.040 A 
ATOM     19  C   UNL A   1      32.410  28.420  22.855  1.00  0.00     0.015 A 
BRANCH   8  20
ATOM     20  C   UNL A   1      35.112  23.457  25.000  1.00  0.00     0.054 A 
ATOM     21  C   UNL A   1      37.430  21.832  25.326  1.00  0.00     0.119 A 
ATOM     22  C   UNL A   1      37.471  23.178  25.653  1.00  0.00     0.048 A 
ATOM     23  C   UNL A   1      36.230  21.276  24.900  1.00  0.00     0.048 A 
ATOM     24  C   UNL A   1      36.330  23.972  25.494  1.00  0.00     0.031 A 
ATOM     25  C   UNL A   1      35.089  22.079  24.739  1.00  0.00     0.031 A 
BRANCH  21  26
ATOM     26  O   UNL A   1      38.590  21.133  25.502  1.00  0.00    -0.497 OA
ATOM     27  C   UNL A   1      39.578  21.836  26.250  1.00  0.00     0.278 C 
ENDBRANCH  21  26
ENDBRANCH   8  20
ENDBRANCH   4   7
ENDBRANCH   2   3
ENDBRANCH   1   2
BRANCH   1  28
ATOM     28  C   UNL A   1      32.687  32.744  27.252  1.00  0.00     0.118 C 
BRANCH  28  29
ATOM     29  N   UNL A   1      32.458  34.137  27.618  1.00  0.00    -0.352 N 
ATOM     30  C   UNL A   1      33.026  34.909  28.602  1.00  0.00     0.251 C 
ATOM     31  H   UNL A   1      31.785  34.599  27.068  1.00  0.00     0.163 HD
ATOM     32  O   UNL A   1      32.543  36.005  28.868  1.00  0.00    -0.269 OA
BRANCH  30  33
ATOM     33  C   UNL A   1      34.197  34.418  29.361  1.00  0.00     0.039 A 
ATOM     34  C   UNL A   1      33.997  33.805  30.601  1.00  0.00     0.014 A 
ATOM     35  C   UNL A   1      35.491  34.567  28.864  1.00  0.00     0.014 A 
ATOM     36  C   UNL A   1      35.086  33.272  31.296  1.00  0.00     0.010 A 
ATOM     37  C   UNL A   1      36.554  33.930  29.493  1.00  0.00     0.010 A 
ATOM     38  C   UNL A   1      36.368  33.288  30.724  1.00  0.00    -0.014 A 
BRANCH  38  39
ATOM     39  C   UNL A   1      37.534  32.658  31.397  1.00  0.00     0.031 A 
ATOM     40  C   UNL A   1      38.227  31.486  30.755  1.00  0.00     0.074 A 
ATOM     41  C   UNL A   1      37.911  33.085  32.619  1.00  0.00     0.049 A 
ATOM     42  N   UNL A   1      39.191  30.734  31.227  1.00  0.00    -0.248 NA
ATOM     43  C   UNL A   1      37.751  31.076  29.423  1.00  0.00     0.031 C 
ATOM     44  C   UNL A   1      37.278  34.169  33.373  1.00  0.00     0.029 A 
ATOM     45  N   UNL A   1      38.909  32.644  33.453  1.00  0.00    -0.354 N 
ATOM     46  C   UNL A   1      39.409  29.754  30.266  1.00  0.00     0.074 A 
ATOM     47  C   UNL A   1      38.449  29.971  29.209  1.00  0.00     0.031 C 
ATOM     48  C   UNL A   1      37.912  34.320  34.546  1.00  0.00     0.029 A 
ATOM     49  C   UNL A   1      38.966  33.316  34.650  1.00  0.00     0.049 A 
ATOM     50  H   UNL A   1      39.527  31.914  33.215  1.00  0.00     0.167 HD
ATOM     51  C   UNL A   1      40.345  28.776  30.258  1.00  0.00     0.037 A 
ATOM     52  C   UNL A   1      39.767  33.133  35.718  1.00  0.00     0.037 A 
ATOM     53  C   UNL A   1      41.332  28.597  31.289  1.00  0.00     0.049 A 
ATOM     54  C   UNL A   1      40.814  32.052  35.668  1.00  0.00     0.074 A 
ATOM     55  C   UNL A   1      42.384  27.699  31.326  1.00  0.00     0.029 A 
ATOM     56  N   UNL A   1      41.387  29.329  32.465  1.00  0.00    -0.354 N 
ATOM     57  N   UNL A   1      41.072  31.192  34.712  1.00  0.00    -0.248 NA
ATOM     58  C   UNL A   1      41.689  31.920  36.841  1.00  0.00     0.031 C 
ATOM     59  C   UNL A   1      43.037  27.844  32.553  1.00  0.00     0.029 A 
ATOM     60  C   UNL A   1      42.436  28.880  33.250  1.00  0.00     0.049 A 
ATOM     61  H   UNL A   1      40.772  30.059  32.706  1.00  0.00     0.167 HD
ATOM     62  C   UNL A   1      42.155  30.444  35.153  1.00  0.00     0.074 A 
ATOM     63  C   UNL A   1      42.518  30.962  36.455  1.00  0.00     0.031 C 
ATOM     64  C   UNL A   1      42.792  29.418  34.537  1.00  0.00     0.037 A 
BRANCH  51  65
ATOM     65  C   UNL A   1      40.360  27.820  29.099  1.00  0.00     0.064 A 
ATOM     66  C   UNL A   1      39.596  26.643  29.100  1.00  0.00     0.173 A 
ATOM     67  C   UNL A   1      41.091  28.126  27.942  1.00  0.00     0.173 A 
ATOM     68  F   UNL A   1      38.888  26.298  30.185  1.00  0.00    -0.203 F 
ATOM     69  C   UNL A   1      39.578  25.801  27.991  1.00  0.00     0.198 A 
ATOM     70  C   UNL A   1      41.046  27.298  26.824  1.00  0.00     0.198 A 
ATOM     71  F   UNL A   1      41.836  29.241  27.887  1.00  0.00    -0.203 F 
ATOM     72  F   UNL A   1      38.871  24.663  28.029  1.00  0.00    -0.200 F 
ATOM     73  C   UNL A   1      40.293  26.134  26.851  1.00  0.00     0.200 A 
ATOM     74  F   UNL A   1      41.724  27.630  25.717  1.00  0.00    -0.200 F 
ATOM     75  F   UNL A   1      40.258  25.332  25.777  1.00  0.00    -0.200 F 
ENDBRANCH  51  65
BRANCH  52  76
ATOM     76  C   UNL A   1      39.615  33.987  36.927  1.00  0.00     0.064 A 
ATOM     77  C   UNL A   1      38.841  33.567  38.019  1.00  0.00     0.173 A 
ATOM     78  C   UNL A   1      40.211  35.255  37.004  1.00  0.00     0.173 A 
ATOM     79  F   UNL A   1      38.236  32.371  37.990  1.00  0.00    -0.203 F 
ATOM     80  C   UNL A   1      38.637  34.396  39.121  1.00  0.00     0.198 A 
ATOM     81  C   UNL A   1      40.036  36.069  38.122  1.00  0.00     0.198 A 
ATOM     82  F   UNL A   1      40.968  35.703  35.991  1.00  0.00    -0.203 F 
ATOM     83  F   UNL A   1      37.838  33.996  40.120  1.00  0.00    -0.200 F 
ATOM     84  C   UNL A   1      39.239  35.645  39.173  1.00  0.00     0.200 A 
ATOM     85  F   UNL A   1      40.634  37.266  38.175  1.00  0.00    -0.200 F 
ATOM     86  F   UNL A   1      39.040  36.443  40.230  1.00  0.00    -0.200 F 
ENDBRANCH  52  76
BRANCH  64  87
ATOM     87  C   UNL A   1      43.975  28.818  35.238  1.00  0.00     0.064 A 
ATOM     88  C   UNL A   1      45.278  29.297  35.033  1.00  0.00     0.173 A 
ATOM     89  C   UNL A   1      43.796  27.777  36.164  1.00  0.00     0.173 A 
ATOM     90  F   UNL A   1      45.505  30.281  34.151  1.00  0.00    -0.203 F 
ATOM     91  C   UNL A   1      46.360  28.736  35.708  1.00  0.00     0.198 A 
ATOM     92  C   UNL A   1      44.874  27.244  36.862  1.00  0.00     0.198 A 
ATOM     93  F   UNL A   1      42.569  27.290  36.404  1.00  0.00    -0.203 F 
ATOM     94  F   UNL A   1      47.602  29.173  35.456  1.00  0.00    -0.200 F 
ATOM     95  C   UNL A   1      46.157  27.717  36.626  1.00  0.00     0.200 A 
ATOM     96  F   UNL A   1      44.674  26.274  37.764  1.00  0.00    -0.200 F 
ATOM     97  F   UNL A   1      47.199  27.187  37.281  1.00  0.00    -0.200 F 
ENDBRANCH  64  87
ENDBRANCH  38  39
ENDBRANCH  30  33
ENDBRANCH  28  29
ENDBRANCH   1  28
TORSDOF 12
ENDMDL
MODEL 2
REMARK VINA RESULT:     -13.7      1.154      1.822
REMARK SMILES COc1ccc(-n2c(=O)[nH]c3cc(C(=O)NCCCNC(=O)c4ccc(-c5c6nc(c(-c7c(F)c(F)c(F)c(F)c7F)c7ccc([nH]7)c(-c7c(F)c(F)c(F)c(F)c7F)c7nc(c(-c8c(F)c(F)c(F)c(F)c8F)c8ccc5[nH]8)C=C7)C=C6)cc4)ccc3c2=O)cc1
REMARK SMILES IDX 18 1 17 2 16 3 14 4 15 5 13 7 7 8 8 9 89 10 9 11 10 12 88 13
REMARK SMILES IDX 90 14 11 15 87 17 12 18 86 19 6 20 3 21 4 22 92 23 5 24
REMARK SMILES IDX 91 25 2 26 1 27 19 28 20 29 21 30 22 32 23 33 24 34 85 35
REMARK SMILES IDX 25 36 84 37 26 38 27 39 28 40 78 41 29 42 83 43 77 44 79 45
REMARK SMILES IDX 30 46 82 47 76 48 75 49 31 51 63 52 43 53 62 54 44 55 47 56
REMARK SMILES IDX 61 57 80 58 45 59 46 60 60 62 81 63 48 64 32 65 33 66 41 67
REMARK SMILES IDX 34 68 35 69 39 70 42 71 36 72 37 73 40 74 38 75 64 76 65 77
REMARK SMILES IDX 73 78 66 79 67 80 71 81 74 82 68 83 69 84 72 85 70 86 49 87
REMARK SMILES IDX 50 88 58 89 51 90 52 91 56 92 59 93 53 94 54 95 57 96 55 97
REMARK H PARENT 16 6 10 16 20 31 79 50 47 61
REMARK Flexibility Score: inf
ROOT
ATOM      1  C   UNL A   1      31.438  31.961  26.501  1.00  0.00     0.042 C 
ENDROOT
BRANCH   1   2
ATOM      2  C   UNL A   1      31.742  30.617  25.864  1.00  0.00     0.118 C 
BRANCH   2   3
ATOM      3  N   UNL A   1      30.912  30.341  24.700  1.00  0.00    -0.352 N 
ATOM      4  C   UNL A   1      30.706  29.200  23.969  1.00  0.00     0.251 C 
ATOM      5  O   UNL A   1      30.060  29.286  22.925  1.00  0.00    -0.269 OA
ATOM      6  H   UNL A   1      30.404  31.120  24.378  1.00  0.00     0.163 HD
BRANCH   4   7
ATOM      7  C   UNL A   1      31.235  27.876  24.380  1.00  0.00     0.041 A 
ATOM      8  N   UNL A   1      33.444  23.362  24.314  1.00  0.00    -0.228 N 
ATOM      9  C   UNL A   1      34.005  24.062  23.238  1.00  0.00     0.333 A 
ATOM     10  C   UNL A   1      32.828  24.062  25.361  1.00  0.00     0.268 A 
ATOM     11  O   UNL A   1      34.769  23.627  22.376  1.00  0.00    -0.247 OA
ATOM     12  N   UNL A   1      33.654  25.386  23.104  1.00  0.00    -0.306 N 
ATOM     13  C   UNL A   1      32.265  25.374  25.035  1.00  0.00     0.064 A 
ATOM     14  O   UNL A   1      32.745  23.714  26.538  1.00  0.00    -0.268 OA
ATOM     15  C   UNL A   1      32.735  26.033  23.917  1.00  0.00     0.056 A 
ATOM     16  H   UNL A   1      34.083  25.908  22.387  1.00  0.00     0.171 HD
ATOM     17  C   UNL A   1      31.247  25.921  25.812  1.00  0.00     0.017 A 
ATOM     18  C   UNL A   1      32.259  27.306  23.603  1.00  0.00     0.040 A 
ATOM     19  C   UNL A   1      30.689  27.139  25.438  1.00  0.00     0.015 A 
BRANCH   8  20
ATOM     20  C   UNL A   1      33.566  21.917  24.442  1.00  0.00     0.054 A 
ATOM     21  C   UNL A   1      33.720  19.082  24.671  1.00  0.00     0.119 A 
ATOM     22  C   UNL A   1      32.576  19.679  24.167  1.00  0.00     0.048 A 
ATOM     23  C   UNL A   1      34.810  19.878  25.001  1.00  0.00     0.048 A 
ATOM     24  C   UNL A   1      32.505  21.072  24.053  1.00  0.00     0.031 A 
ATOM     25  C   UNL A   1      34.731  21.276  24.888  1.00  0.00     0.031 A 
BRANCH  21  26
ATOM     26  O   UNL A   1      33.702  17.718  24.757  1.00  0.00    -0.497 OA
ATOM     27  C   UNL A   1      32.528  17.197  25.375  1.00  0.00     0.278 C 
ENDBRANCH  21  26
ENDBRANCH   8  20
ENDBRANCH   4   7
ENDBRANCH   2   3
ENDBRANCH   1   2
BRANCH   1  28
ATOM     28  C   UNL A   1      32.607  32.573  27.251  1.00  0.00     0.118 C 
BRANCH  28  29
ATOM     29  N   UNL A   1      32.403  33.981  27.569  1.00  0.00    -0.352 N 
ATOM     30  C   UNL A   1      32.992  34.780  28.520  1.00  0.00     0.251 C 
ATOM     31  H   UNL A   1      31.731  34.434  27.009  1.00  0.00     0.163 HD
ATOM     32  O   UNL A   1      32.528  35.892  28.751  1.00  0.00    -0.269 OA
BRANCH  30  33
ATOM     33  C   UNL A   1      34.162  34.297  29.285  1.00  0.00     0.039 A 
ATOM     34  C   UNL A   1      33.958  33.657  30.511  1.00  0.00     0.014 A 
ATOM     35  C   UNL A   1      35.460  34.482  28.809  1.00  0.00     0.014 A 
ATOM     36  C   UNL A   1      35.049  33.133  31.211  1.00  0.00     0.010 A 
ATOM     37  C   UNL A   1      36.527  33.854  29.440  1.00  0.00     0.010 A 
ATOM     38  C   UNL A   1      36.337  33.185  30.656  1.00  0.00    -0.014 A 
BRANCH  38  39
ATOM     39  C   UNL A   1      37.507  32.566  31.334  1.00  0.00     0.031 A 
ATOM     40  C   UNL A   1      38.223  31.411  30.686  1.00  0.00     0.074 A 
ATOM     41  C   UNL A   1      37.867  32.987  32.562  1.00  0.00     0.049 A 
ATOM     42  N   UNL A   1      39.193  30.669  31.159  1.00  0.00    -0.248 NA
ATOM     43  C   UNL A   1      37.764  31.007  29.346  1.00  0.00     0.031 C 
ATOM     44  C   UNL A   1      37.212  34.054  33.321  1.00  0.00     0.029 A 
ATOM     45  N   UNL A   1      38.865  32.552  33.401  1.00  0.00    -0.354 N 
ATOM     46  C   UNL A   1      39.434  29.701  30.191  1.00  0.00     0.074 A 
ATOM     47  C   UNL A   1      38.480  29.914  29.128  1.00  0.00     0.031 C 
ATOM     48  C   UNL A   1      37.834  34.203  34.502  1.00  0.00     0.029 A 
ATOM     49  C   UNL A   1      38.902  33.214  34.605  1.00  0.00     0.049 A 
ATOM     50  H   UNL A   1      39.495  31.834  33.161  1.00  0.00     0.167 HD
ATOM     51  C   UNL A   1      40.385  28.738  30.181  1.00  0.00     0.037 A 
ATOM     52  C   UNL A   1      39.696  33.032  35.678  1.00  0.00     0.037 A 
ATOM     53  C   UNL A   1      41.365  28.563  31.218  1.00  0.00     0.049 A 
ATOM     54  C   UNL A   1      40.759  31.967  35.626  1.00  0.00     0.074 A 
ATOM     55  C   UNL A   1      42.430  27.680  31.257  1.00  0.00     0.029 A 
ATOM     56  N   UNL A   1      41.399  29.284  32.403  1.00  0.00    -0.354 N 
ATOM     57  N   UNL A   1      41.038  31.120  34.664  1.00  0.00    -0.248 NA
ATOM     58  C   UNL A   1      41.626  31.836  36.806  1.00  0.00     0.031 C 
ATOM     59  C   UNL A   1      43.070  27.823  32.490  1.00  0.00     0.029 A 
ATOM     60  C   UNL A   1      42.448  28.843  33.191  1.00  0.00     0.049 A 
ATOM     61  H   UNL A   1      40.772  30.003  32.645  1.00  0.00     0.167 HD
ATOM     62  C   UNL A   1      42.128  30.384  35.107  1.00  0.00     0.074 A 
ATOM     63  C   UNL A   1      42.473  30.895  36.417  1.00  0.00     0.031 C 
ATOM     64  C   UNL A   1      42.785  29.374  34.487  1.00  0.00     0.037 A 
BRANCH  51  65
ATOM     65  C   UNL A   1      40.423  27.793  29.013  1.00  0.00     0.064 A 
ATOM     66  C   UNL A   1      39.647  26.625  28.980  1.00  0.00     0.173 A 
ATOM     67  C   UNL A   1      41.192  28.102  27.881  1.00  0.00     0.173 A 
ATOM     68  F   UNL A   1      38.903  26.277  30.039  1.00  0.00    -0.203 F 
ATOM     69  C   UNL A   1      39.653  25.794  27.861  1.00  0.00     0.198 A 
ATOM     70  C   UNL A   1      41.171  27.287  26.754  1.00  0.00     0.198 A 
ATOM     71  F   UNL A   1      41.951  29.209  27.860  1.00  0.00    -0.203 F 
ATOM     72  F   UNL A   1      38.932  24.664  27.866  1.00  0.00    -0.200 F 
ATOM     73  C   UNL A   1      40.405  26.131  26.747  1.00  0.00     0.200 A 
ATOM     74  F   UNL A   1      41.886  27.622  25.672  1.00  0.00    -0.200 F 
ATOM     75  F   UNL A   1      40.393  25.340  25.664  1.00  0.00    -0.200 F 
ENDBRANCH  51  65
BRANCH  52  76
ATOM     76  C   UNL A   1      39.521  33.872  36.894  1.00  0.00     0.064 A 
ATOM     77  C   UNL A   1      38.753  33.426  37.980  1.00  0.00     0.173 A 
ATOM     78  C   UNL A   1      40.088  35.152  36.983  1.00  0.00     0.173 A 
ATOM     79  F   UNL A   1      38.175  32.216  37.938  1.00  0.00    -0.203 F 
ATOM     80  C   UNL A   1      38.528  34.240  39.088  1.00  0.00     0.198 A 
ATOM     81  C   UNL A   1      39.892  35.952  38.107  1.00  0.00     0.198 A 
ATOM     82  F   UNL A   1      40.839  35.626  35.977  1.00  0.00    -0.203 F 
ATOM     83  F   UNL A   1      37.735  33.813  40.080  1.00  0.00    -0.200 F 
ATOM     84  C   UNL A   1      39.101  35.502  39.152  1.00  0.00     0.200 A 
ATOM     85  F   UNL A   1      40.462  37.162  38.173  1.00  0.00    -0.200 F 
ATOM     86  F   UNL A   1      38.881  36.286  40.216  1.00  0.00    -0.200 F 
ENDBRANCH  52  76
BRANCH  64  87
ATOM     87  C   UNL A   1      43.972  28.785  35.193  1.00  0.00     0.064 A 
ATOM     88  C   UNL A   1      45.264  29.307  35.031  1.00  0.00     0.173 A 
ATOM     89  C   UNL A   1      43.805  27.708  36.079  1.00  0.00     0.173 A 
ATOM     90  F   UNL A   1      45.480  30.327  34.187  1.00  0.00    -0.203 F 
ATOM     91  C   UNL A   1      46.348  28.755  35.709  1.00  0.00     0.198 A 
ATOM     92  C   UNL A   1      44.884  27.183  36.781  1.00  0.00     0.198 A 
ATOM     93  F   UNL A   1      42.588  27.178  36.277  1.00  0.00    -0.203 F 
ATOM     94  F   UNL A   1      47.581  29.235  35.498  1.00  0.00    -0.200 F 
ATOM     95  C   UNL A   1      46.156  27.700  36.588  1.00  0.00     0.200 A 
ATOM     96  F   UNL A   1      44.694  26.177  37.646  1.00  0.00    -0.200 F 
ATOM     97  F   UNL A   1      47.200  27.178  37.248  1.00  0.00    -0.200 F 
ENDBRANCH  64  87
ENDBRANCH  38  39
ENDBRANCH  30  33
ENDBRANCH  28  29
ENDBRANCH   1  28
TORSDOF 12
ENDMDL
MODEL 3
REMARK VINA RESULT:     -13.7      5.365     11.292
REMARK SMILES COc1ccc(-n2c(=O)[nH]c3cc(C(=O)NCCCNC(=O)c4ccc(-c5c6nc(c(-c7c(F)c(F)c(F)c(F)c7F)c7ccc([nH]7)c(-c7c(F)c(F)c(F)c(F)c7F)c7nc(c(-c8c(F)c(F)c(F)c(F)c8F)c8ccc5[nH]8)C=C7)C=C6)cc4)ccc3c2=O)cc1
REMARK SMILES IDX 18 1 17 2 16 3 14 4 15 5 13 7 7 8 8 9 89 10 9 11 10 12 88 13
REMARK SMILES IDX 90 14 11 15 87 17 12 18 86 19 6 20 3 21 4 22 92 23 5 24
REMARK SMILES IDX 91 25 2 26 1 27 19 28 20 29 21 30 22 32 23 33 24 34 85 35
REMARK SMILES IDX 25 36 84 37 26 38 27 39 28 40 78 41 29 42 83 43 77 44 79 45
REMARK SMILES IDX 30 46 82 47 76 48 75 49 31 51 63 52 43 53 62 54 44 55 47 56
REMARK SMILES IDX 61 57 80 58 45 59 46 60 60 62 81 63 48 64 32 65 33 66 41 67
REMARK SMILES IDX 34 68 35 69 39 70 42 71 36 72 37 73 40 74 38 75 64 76 65 77
REMARK SMILES IDX 73 78 66 79 67 80 71 81 74 82 68 83 69 84 72 85 70 86 49 87
REMARK SMILES IDX 50 88 58 89 51 90 52 91 56 92 59 93 53 94 54 95 57 96 55 97
REMARK H PARENT 16 6 10 16 20 31 79 50 47 61
REMARK Flexibility Score: inf
ROOT
ATOM      1  C   UNL A   1      38.039  19.688  24.904  1.00  0.00     0.042 C 
ENDROOT
BRANCH   1   2
ATOM      2  C   UNL A   1      36.743  20.424  25.189  1.00  0.00     0.118 C 
BRANCH   2   3
ATOM      3  N   UNL A   1      35.561  19.624  24.901  1.00  0.00    -0.352 N 
ATOM      4  C   UNL A   1      34.222  19.896  25.001  1.00  0.00     0.251 C 
ATOM      5  O   UNL A   1      33.426  18.973  24.834  1.00  0.00    -0.269 OA
ATOM      6  H   UNL A   1      35.762  18.719  24.572  1.00  0.00     0.163 HD
BRANCH   4   7
ATOM      7  C   UNL A   1      33.697  21.251  25.308  1.00  0.00     0.041 A 
ATOM      8  N   UNL A   1      32.865  26.206  25.216  1.00  0.00    -0.228 N 
ATOM      9  C   UNL A   1      33.353  25.891  23.940  1.00  0.00     0.333 A 
ATOM     10  C   UNL A   1      32.312  25.202  26.022  1.00  0.00     0.268 A 
ATOM     11  O   UNL A   1      33.647  26.671  23.036  1.00  0.00    -0.247 OA
ATOM     12  N   UNL A   1      33.549  24.558  23.660  1.00  0.00    -0.306 N 
ATOM     13  C   UNL A   1      32.788  23.836  25.795  1.00  0.00     0.064 A 
ATOM     14  O   UNL A   1      31.435  25.335  26.876  1.00  0.00    -0.268 OA
ATOM     15  C   UNL A   1      33.365  23.534  24.577  1.00  0.00     0.056 A 
ATOM     16  H   UNL A   1      33.837  24.315  22.750  1.00  0.00     0.171 HD
ATOM     17  C   UNL A   1      32.699  22.877  26.800  1.00  0.00     0.017 A 
ATOM     18  C   UNL A   1      33.785  22.233  24.305  1.00  0.00     0.040 A 
ATOM     19  C   UNL A   1      33.219  21.607  26.574  1.00  0.00     0.015 A 
BRANCH   8  20
ATOM     20  C   UNL A   1      32.816  27.576  25.706  1.00  0.00     0.054 A 
ATOM     21  C   UNL A   1      32.791  30.240  26.716  1.00  0.00     0.119 A 
ATOM     22  C   UNL A   1      33.851  29.395  27.004  1.00  0.00     0.048 A 
ATOM     23  C   UNL A   1      31.778  29.791  25.878  1.00  0.00     0.048 A 
ATOM     24  C   UNL A   1      33.862  28.088  26.504  1.00  0.00     0.031 A 
ATOM     25  C   UNL A   1      31.792  28.477  25.382  1.00  0.00     0.031 A 
BRANCH  21  26
ATOM     26  O   UNL A   1      32.857  31.495  27.251  1.00  0.00    -0.497 OA
ATOM     27  C   UNL A   1      34.044  31.739  28.001  1.00  0.00     0.278 C 
ENDBRANCH  21  26
ENDBRANCH   8  20
ENDBRANCH   4   7
ENDBRANCH   2   3
ENDBRANCH   1   2
BRANCH   1  28
ATOM     28  C   UNL A   1      39.214  20.143  25.751  1.00  0.00     0.118 C 
BRANCH  28  29
ATOM     29  N   UNL A   1      40.225  19.107  25.922  1.00  0.00    -0.352 N 
ATOM     30  C   UNL A   1      41.581  19.203  26.126  1.00  0.00     0.251 C 
ATOM     31  H   UNL A   1      39.879  18.186  25.886  1.00  0.00     0.163 HD
ATOM     32  O   UNL A   1      42.280  18.199  26.044  1.00  0.00    -0.269 OA
BRANCH  30  33
ATOM     33  C   UNL A   1      42.206  20.513  26.415  1.00  0.00     0.039 A 
ATOM     34  C   UNL A   1      42.741  21.260  25.361  1.00  0.00     0.014 A 
ATOM     35  C   UNL A   1      42.278  21.003  27.718  1.00  0.00     0.014 A 
ATOM     36  C   UNL A   1      43.270  22.529  25.610  1.00  0.00     0.010 A 
ATOM     37  C   UNL A   1      42.689  22.311  27.946  1.00  0.00     0.010 A 
ATOM     38  C   UNL A   1      43.204  23.085  26.897  1.00  0.00    -0.014 A 
BRANCH  38  39
ATOM     39  C   UNL A   1      43.682  24.464  27.180  1.00  0.00     0.031 A 
ATOM     40  C   UNL A   1      42.708  25.514  27.645  1.00  0.00     0.074 A 
ATOM     41  C   UNL A   1      44.967  24.789  26.938  1.00  0.00     0.049 A 
ATOM     42  N   UNL A   1      42.903  26.794  27.845  1.00  0.00    -0.248 NA
ATOM     43  C   UNL A   1      41.320  25.080  27.881  1.00  0.00     0.031 C 
ATOM     44  C   UNL A   1      45.991  23.877  26.424  1.00  0.00     0.029 A 
ATOM     45  N   UNL A   1      45.629  25.985  27.072  1.00  0.00    -0.354 N 
ATOM     46  C   UNL A   1      41.664  27.314  28.197  1.00  0.00     0.074 A 
ATOM     47  C   UNL A   1      40.712  26.229  28.135  1.00  0.00     0.031 C 
ATOM     48  C   UNL A   1      47.153  24.540  26.305  1.00  0.00     0.029 A 
ATOM     49  C   UNL A   1      46.948  25.932  26.688  1.00  0.00     0.049 A 
ATOM     50  H   UNL A   1      45.199  26.803  27.412  1.00  0.00     0.167 HD
ATOM     51  C   UNL A   1      41.355  28.580  28.562  1.00  0.00     0.037 A 
ATOM     52  C   UNL A   1      47.881  26.902  26.634  1.00  0.00     0.037 A 
ATOM     53  C   UNL A   1      42.316  29.645  28.671  1.00  0.00     0.049 A 
ATOM     54  C   UNL A   1      47.512  28.295  27.070  1.00  0.00     0.074 A 
ATOM     55  C   UNL A   1      42.122  30.937  29.126  1.00  0.00     0.029 A 
ATOM     56  N   UNL A   1      43.653  29.541  28.318  1.00  0.00    -0.354 N 
ATOM     57  N   UNL A   1      46.357  28.753  27.491  1.00  0.00    -0.248 NA
ATOM     58  C   UNL A   1      48.577  29.308  27.032  1.00  0.00     0.031 C 
ATOM     59  C   UNL A   1      43.325  31.633  28.988  1.00  0.00     0.029 A 
ATOM     60  C   UNL A   1      44.287  30.756  28.515  1.00  0.00     0.049 A 
ATOM     61  H   UNL A   1      44.086  28.724  27.978  1.00  0.00     0.167 HD
ATOM     62  C   UNL A   1      46.566  30.091  27.799  1.00  0.00     0.074 A 
ATOM     63  C   UNL A   1      47.961  30.368  27.533  1.00  0.00     0.031 C 
ATOM     64  C   UNL A   1      45.682  31.009  28.259  1.00  0.00     0.037 A 
BRANCH  51  65
ATOM     65  C   UNL A   1      39.920  28.896  28.878  1.00  0.00     0.064 A 
ATOM     66  C   UNL A   1      39.027  29.346  27.895  1.00  0.00     0.173 A 
ATOM     67  C   UNL A   1      39.417  28.672  30.169  1.00  0.00     0.173 A 
ATOM     68  F   UNL A   1      39.458  29.587  26.649  1.00  0.00    -0.203 F 
ATOM     69  C   UNL A   1      37.686  29.575  28.198  1.00  0.00     0.198 A 
ATOM     70  C   UNL A   1      38.071  28.872  30.459  1.00  0.00     0.198 A 
ATOM     71  F   UNL A   1      40.229  28.239  31.146  1.00  0.00    -0.203 F 
ATOM     72  F   UNL A   1      36.859  30.040  27.251  1.00  0.00    -0.200 F 
ATOM     73  C   UNL A   1      37.207  29.328  29.475  1.00  0.00     0.200 A 
ATOM     74  F   UNL A   1      37.607  28.617  31.690  1.00  0.00    -0.200 F 
ATOM     75  F   UNL A   1      35.913  29.529  29.758  1.00  0.00    -0.200 F 
ENDBRANCH  51  65
BRANCH  52  76
ATOM     76  C   UNL A   1      49.255  26.597  26.150  1.00  0.00     0.064 A 
ATOM     77  C   UNL A   1      50.235  26.093  27.018  1.00  0.00     0.173 A 
ATOM     78  C   UNL A   1      49.628  26.834  24.819  1.00  0.00     0.173 A 
ATOM     79  F   UNL A   1      49.934  25.864  28.305  1.00  0.00    -0.203 F 
ATOM     80  C   UNL A   1      51.541  25.876  26.584  1.00  0.00     0.198 A 
ATOM     81  C   UNL A   1      50.926  26.583  24.376  1.00  0.00     0.198 A 
ATOM     82  F   UNL A   1      48.729  27.308  23.943  1.00  0.00    -0.203 F 
ATOM     83  F   UNL A   1      52.473  25.458  27.452  1.00  0.00    -0.200 F 
ATOM     84  C   UNL A   1      51.885  26.118  25.262  1.00  0.00     0.200 A 
ATOM     85  F   UNL A   1      51.248  26.801  23.095  1.00  0.00    -0.200 F 
ATOM     86  F   UNL A   1      53.142  25.913  24.846  1.00  0.00    -0.200 F 
ENDBRANCH  52  76
BRANCH  64  87
ATOM     87  C   UNL A   1      46.203  32.386  28.550  1.00  0.00     0.064 A 
ATOM     88  C   UNL A   1      46.185  33.404  27.585  1.00  0.00     0.173 A 
ATOM     89  C   UNL A   1      46.686  32.703  29.830  1.00  0.00     0.173 A 
ATOM     90  F   UNL A   1      45.745  33.150  26.344  1.00  0.00    -0.203 F 
ATOM     91  C   UNL A   1      46.658  34.680  27.883  1.00  0.00     0.198 A 
ATOM     92  C   UNL A   1      47.124  33.987  30.134  1.00  0.00     0.198 A 
ATOM     93  F   UNL A   1      46.715  31.768  30.792  1.00  0.00    -0.203 F 
ATOM     94  F   UNL A   1      46.682  35.621  26.930  1.00  0.00    -0.200 F 
ATOM     95  C   UNL A   1      47.120  34.972  29.158  1.00  0.00     0.200 A 
ATOM     96  F   UNL A   1      47.550  34.273  31.372  1.00  0.00    -0.200 F 
ATOM     97  F   UNL A   1      47.564  36.203  29.444  1.00  0.00    -0.200 F 
ENDBRANCH  64  87
ENDBRANCH  38  39
ENDBRANCH  30  33
ENDBRANCH  28  29
ENDBRANCH   1  28
TORSDOF 12
ENDMDL
