MODEL 1
REMARK VINA RESULT:     -12.8      0.000      0.000
REMARK SMILES CCC(CC)COc1cc2c(cc1Cl)C=C(C(=O)NCCCNC(=O)c1ccc(-c3c4nc(c(-c5c(F)c(F)c(F)c(F)c5F)c5ccc([nH]5)c(-c5c(F)c(F)c(F)c(F)c5F)c5nc(c(-c6c(F)c(F)c(F)c(F)c6F)c6ccc3[nH]6)C=C5)C=C4)cc1)[C@@H](C(F)(F)F)O2
REMARK SMILES IDX 20 1 19 2 17 3 18 4 16 6 8 7 9 8 13 9 10 10 12 11 14 12
REMARK SMILES IDX 11 13 94 14 15 15 89 16 7 17 6 18 3 19 2 20 1 21 4 22 5 23
REMARK SMILES IDX 90 24 91 25 92 26 93 27 21 28 22 29 23 30 24 31 25 33 26 34
REMARK SMILES IDX 27 35 88 36 28 37 87 38 29 39 30 40 31 41 81 42 32 43 86 44
REMARK SMILES IDX 80 45 82 46 33 47 85 48 79 49 78 50 34 52 66 53 46 54 65 55
REMARK SMILES IDX 47 56 50 57 64 58 83 59 48 60 49 61 63 63 84 64 51 65 35 66
REMARK SMILES IDX 36 67 44 68 37 69 38 70 42 71 45 72 39 73 40 74 43 75 41 76
REMARK SMILES IDX 67 77 68 78 76 79 69 80 70 81 74 82 77 83 71 84 72 85 75 86
REMARK SMILES IDX 73 87 52 88 53 89 61 90 54 91 55 92 59 93 62 94 56 95 57 96
REMARK SMILES IDX 60 97 58 98
REMARK H PARENT 19 5 23 32 82 51 50 62
REMARK Flexibility Score: inf
ROOT
ATOM      1  C   UNL A   1      31.841  30.544  26.379  1.00  0.00     0.118 C 
ENDROOT
BRANCH   1   2
ATOM      2  N   UNL A   1      31.271  30.310  25.063  1.00  0.00    -0.352 N 
ATOM      3  C   UNL A   1      31.048  29.237  24.273  1.00  0.00     0.251 C 
ATOM      4  O   UNL A   1      30.507  29.478  23.190  1.00  0.00    -0.270 OA
ATOM      5  H   UNL A   1      30.970  31.146  24.640  1.00  0.00     0.163 HD
BRANCH   3   6
ATOM      6  C   UNL A   1      31.413  27.842  24.620  1.00  0.00     0.067 C 
ATOM      7  C   UNL A   1      33.944  23.799  26.108  1.00  0.00     0.141 A 
ATOM      8  C   UNL A   1      32.680  24.297  26.421  1.00  0.00     0.095 A 
ATOM      9  C   UNL A   1      34.722  24.415  25.117  1.00  0.00     0.083 A 
ATOM     10  C   UNL A   1      32.264  25.481  25.830  1.00  0.00     0.131 A 
ATOM     11  C   UNL A   1      34.342  25.657  24.609  1.00  0.00     0.036 A 
ATOM     12  Cl  UNL A   1      36.199  23.721  24.558  1.00  0.00    -0.080 Cl
ATOM     13  C   UNL A   1      33.125  26.210  24.997  1.00  0.00     0.019 A 
ATOM     14  O   UNL A   1      30.989  25.915  26.089  1.00  0.00    -0.475 OA
ATOM     15  C   UNL A   1      32.726  27.550  24.587  1.00  0.00     0.025 C 
ATOM     16  C   UNL A   1      30.449  26.763  25.028  1.00  0.00     0.314 C 
BRANCH   7  17
ATOM     17  O   UNL A   1      34.424  22.709  26.783  1.00  0.00    -0.492 OA
BRANCH  17  18
ATOM     18  C   UNL A   1      33.703  21.499  26.450  1.00  0.00     0.233 C 
BRANCH  18  19
ATOM     19  C   UNL A   1      33.927  21.088  24.972  1.00  0.00     0.026 C 
BRANCH  19  20
ATOM     20  C   UNL A   1      34.715  19.762  24.851  1.00  0.00     0.003 C 
ATOM     21  C   UNL A   1      33.829  18.580  24.485  1.00  0.00     0.004 C 
ENDBRANCH  19  20
BRANCH  19  22
ATOM     22  C   UNL A   1      32.595  21.033  24.191  1.00  0.00     0.003 C 
ATOM     23  C   UNL A   1      32.429  22.090  23.107  1.00  0.00     0.004 C 
ENDBRANCH  19  22
ENDBRANCH  18  19
ENDBRANCH  17  18
ENDBRANCH   7  17
BRANCH  16  24
ATOM     24  C   UNL A   1      29.980  25.917  23.816  1.00  0.00     0.429 C 
ATOM     25  F   UNL A   1      28.657  26.109  23.589  1.00  0.00    -0.167 F 
ATOM     26  F   UNL A   1      30.623  26.266  22.673  1.00  0.00    -0.167 F 
ATOM     27  F   UNL A   1      30.177  24.591  23.974  1.00  0.00    -0.167 F 
ENDBRANCH  16  24
ENDBRANCH   3   6
ENDBRANCH   1   2
BRANCH   1  28
ATOM     28  C   UNL A   1      31.540  31.950  26.869  1.00  0.00     0.042 C 
BRANCH  28  29
ATOM     29  C   UNL A   1      32.802  32.698  27.274  1.00  0.00     0.118 C 
BRANCH  29  30
ATOM     30  N   UNL A   1      32.525  34.091  27.618  1.00  0.00    -0.352 N 
ATOM     31  C   UNL A   1      33.046  34.878  28.618  1.00  0.00     0.251 C 
ATOM     32  H   UNL A   1      31.862  34.536  27.044  1.00  0.00     0.163 HD
ATOM     33  O   UNL A   1      32.516  35.949  28.896  1.00  0.00    -0.269 OA
BRANCH  31  34
ATOM     34  C   UNL A   1      34.230  34.420  29.370  1.00  0.00     0.039 A 
ATOM     35  C   UNL A   1      35.506  34.590  28.838  1.00  0.00     0.014 A 
ATOM     36  C   UNL A   1      34.063  33.802  30.613  1.00  0.00     0.014 A 
ATOM     37  C   UNL A   1      36.587  33.959  29.435  1.00  0.00     0.010 A 
ATOM     38  C   UNL A   1      35.174  33.272  31.275  1.00  0.00     0.010 A 
ATOM     39  C   UNL A   1      36.437  33.297  30.663  1.00  0.00    -0.014 A 
BRANCH  39  40
ATOM     40  C   UNL A   1      37.619  32.639  31.273  1.00  0.00     0.031 A 
ATOM     41  C   UNL A   1      38.064  32.991  32.665  1.00  0.00     0.074 A 
ATOM     42  C   UNL A   1      38.234  31.651  30.595  1.00  0.00     0.049 A 
ATOM     43  N   UNL A   1      39.049  32.490  33.368  1.00  0.00    -0.248 NA
ATOM     44  C   UNL A   1      37.311  34.045  33.360  1.00  0.00     0.031 C 
ATOM     45  C   UNL A   1      37.868  31.202  29.251  1.00  0.00     0.029 A 
ATOM     46  N   UNL A   1      39.258  30.815  30.956  1.00  0.00    -0.354 N 
ATOM     47  C   UNL A   1      39.042  33.176  34.575  1.00  0.00     0.074 A 
ATOM     48  C   UNL A   1      37.981  34.156  34.498  1.00  0.00     0.031 C 
ATOM     49  C   UNL A   1      38.590  30.119  28.937  1.00  0.00     0.029 A 
ATOM     50  C   UNL A   1      39.528  29.847  30.019  1.00  0.00     0.049 A 
ATOM     51  H   UNL A   1      39.752  30.898  31.804  1.00  0.00     0.167 HD
ATOM     52  C   UNL A   1      39.840  32.994  35.654  1.00  0.00     0.037 A 
ATOM     53  C   UNL A   1      40.435  28.854  30.027  1.00  0.00     0.037 A 
ATOM     54  C   UNL A   1      40.887  32.007  35.729  1.00  0.00     0.049 A 
ATOM     55  C   UNL A   1      41.355  28.720  31.205  1.00  0.00     0.074 A 
ATOM     56  C   UNL A   1      41.759  31.748  36.772  1.00  0.00     0.029 A 
ATOM     57  N   UNL A   1      41.200  31.110  34.716  1.00  0.00    -0.354 N 
ATOM     58  N   UNL A   1      41.362  29.396  32.326  1.00  0.00    -0.248 NA
ATOM     59  C   UNL A   1      42.407  27.701  31.106  1.00  0.00     0.031 C 
ATOM     60  C   UNL A   1      42.626  30.724  36.373  1.00  0.00     0.029 A 
ATOM     61  C   UNL A   1      42.264  30.311  35.101  1.00  0.00     0.049 A 
ATOM     62  H   UNL A   1      40.734  31.052  33.850  1.00  0.00     0.167 HD
ATOM     63  C   UNL A   1      42.414  28.886  33.071  1.00  0.00     0.074 A 
ATOM     64  C   UNL A   1      43.008  27.826  32.281  1.00  0.00     0.031 C 
ATOM     65  C   UNL A   1      42.850  29.268  34.297  1.00  0.00     0.037 A 
BRANCH  52  66
ATOM     66  C   UNL A   1      39.621  33.894  36.837  1.00  0.00     0.064 A 
ATOM     67  C   UNL A   1      40.174  35.183  36.894  1.00  0.00     0.173 A 
ATOM     68  C   UNL A   1      38.831  33.473  37.918  1.00  0.00     0.173 A 
ATOM     69  F   UNL A   1      40.949  35.629  35.893  1.00  0.00    -0.203 F 
ATOM     70  C   UNL A   1      39.969  36.004  38.000  1.00  0.00     0.198 A 
ATOM     71  C   UNL A   1      38.604  34.308  39.009  1.00  0.00     0.198 A 
ATOM     72  F   UNL A   1      38.274  32.253  37.914  1.00  0.00    -0.203 F 
ATOM     73  F   UNL A   1      40.552  37.210  38.054  1.00  0.00    -0.200 F 
ATOM     74  C   UNL A   1      39.180  35.568  39.053  1.00  0.00     0.200 A 
ATOM     75  F   UNL A   1      37.832  33.890  40.022  1.00  0.00    -0.200 F 
ATOM     76  F   UNL A   1      38.983  36.360  40.117  1.00  0.00    -0.200 F 
ENDBRANCH  52  66
BRANCH  53  77
ATOM     77  C   UNL A   1      40.489  27.912  28.882  1.00  0.00     0.064 A 
ATOM     78  C   UNL A   1      39.716  26.743  28.882  1.00  0.00     0.173 A 
ATOM     79  C   UNL A   1      41.248  28.195  27.737  1.00  0.00     0.173 A 
ATOM     80  F   UNL A   1      38.989  26.422  29.962  1.00  0.00    -0.203 F 
ATOM     81  C   UNL A   1      39.692  25.899  27.775  1.00  0.00     0.198 A 
ATOM     82  C   UNL A   1      41.201  27.364  26.620  1.00  0.00     0.198 A 
ATOM     83  F   UNL A   1      41.998  29.305  27.686  1.00  0.00    -0.203 F 
ATOM     84  F   UNL A   1      38.953  24.781  27.804  1.00  0.00    -0.200 F 
ATOM     85  C   UNL A   1      40.424  26.217  26.640  1.00  0.00     0.200 A 
ATOM     86  F   UNL A   1      41.893  27.686  25.518  1.00  0.00    -0.200 F 
ATOM     87  F   UNL A   1      40.376  25.418  25.564  1.00  0.00    -0.200 F 
ENDBRANCH  53  77
BRANCH  65  88
ATOM     88  C   UNL A   1      44.027  28.532  34.864  1.00  0.00     0.064 A 
ATOM     89  C   UNL A   1      45.336  29.005  34.691  1.00  0.00     0.173 A 
ATOM     90  C   UNL A   1      43.840  27.377  35.638  1.00  0.00     0.173 A 
ATOM     91  F   UNL A   1      45.566  30.096  33.945  1.00  0.00    -0.203 F 
ATOM     92  C   UNL A   1      46.417  28.338  35.259  1.00  0.00     0.198 A 
ATOM     93  C   UNL A   1      44.921  26.728  36.227  1.00  0.00     0.198 A 
ATOM     94  F   UNL A   1      42.607  26.889  35.837  1.00  0.00    -0.203 F 
ATOM     95  F   UNL A   1      47.663  28.786  35.051  1.00  0.00    -0.200 F 
ATOM     96  C   UNL A   1      46.208  27.206  36.034  1.00  0.00     0.200 A 
ATOM     97  F   UNL A   1      44.716  25.642  36.986  1.00  0.00    -0.200 F 
ATOM     98  F   UNL A   1      47.250  26.572  36.591  1.00  0.00    -0.200 F 
ENDBRANCH  65  88
ENDBRANCH  39  40
ENDBRANCH  31  34
ENDBRANCH  29  30
ENDBRANCH  28  29
ENDBRANCH   1  28
TORSDOF 16
ENDMDL
MODEL 2
REMARK VINA RESULT:     -12.8      1.428      2.597
REMARK SMILES CCC(CC)COc1cc2c(cc1Cl)C=C(C(=O)NCCCNC(=O)c1ccc(-c3c4nc(c(-c5c(F)c(F)c(F)c(F)c5F)c5ccc([nH]5)c(-c5c(F)c(F)c(F)c(F)c5F)c5nc(c(-c6c(F)c(F)c(F)c(F)c6F)c6ccc3[nH]6)C=C5)C=C4)cc1)[C@@H](C(F)(F)F)O2
REMARK SMILES IDX 20 1 19 2 17 3 18 4 16 6 8 7 9 8 13 9 10 10 12 11 14 12
REMARK SMILES IDX 11 13 94 14 15 15 89 16 7 17 6 18 3 19 2 20 1 21 4 22 5 23
REMARK SMILES IDX 90 24 91 25 92 26 93 27 21 28 22 29 23 30 24 31 25 33 26 34
REMARK SMILES IDX 27 35 88 36 28 37 87 38 29 39 30 40 31 41 81 42 32 43 86 44
REMARK SMILES IDX 80 45 82 46 33 47 85 48 79 49 78 50 34 52 66 53 46 54 65 55
REMARK SMILES IDX 47 56 50 57 64 58 83 59 48 60 49 61 63 63 84 64 51 65 35 66
REMARK SMILES IDX 36 67 44 68 37 69 38 70 42 71 45 72 39 73 40 74 43 75 41 76
REMARK SMILES IDX 67 77 68 78 76 79 69 80 70 81 74 82 77 83 71 84 72 85 75 86
REMARK SMILES IDX 73 87 52 88 53 89 61 90 54 91 55 92 59 93 62 94 56 95 57 96
REMARK SMILES IDX 60 97 58 98
REMARK H PARENT 19 5 23 32 82 51 50 62
REMARK Flexibility Score: inf
ROOT
ATOM      1  C   UNL A   1      31.681  30.684  26.201  1.00  0.00     0.118 C 
ENDROOT
BRANCH   1   2
ATOM      2  N   UNL A   1      31.143  30.393  24.883  1.00  0.00    -0.352 N 
ATOM      3  C   UNL A   1      30.996  29.296  24.108  1.00  0.00     0.251 C 
ATOM      4  O   UNL A   1      30.455  29.485  23.015  1.00  0.00    -0.270 OA
ATOM      5  H   UNL A   1      30.798  31.202  24.441  1.00  0.00     0.163 HD
BRANCH   3   6
ATOM      6  C   UNL A   1      31.441  27.931  24.484  1.00  0.00     0.067 C 
ATOM      7  C   UNL A   1      31.510  23.029  25.450  1.00  0.00     0.141 A 
ATOM      8  C   UNL A   1      32.342  23.862  24.702  1.00  0.00     0.095 A 
ATOM      9  C   UNL A   1      30.463  23.571  26.210  1.00  0.00     0.083 A 
ATOM     10  C   UNL A   1      32.035  25.213  24.622  1.00  0.00     0.131 A 
ATOM     11  C   UNL A   1      30.102  24.907  26.038  1.00  0.00     0.036 A 
ATOM     12  Cl  UNL A   1      29.539  22.608  27.302  1.00  0.00    -0.080 Cl
ATOM     13  C   UNL A   1      30.869  25.722  25.210  1.00  0.00     0.019 A 
ATOM     14  O   UNL A   1      32.906  26.030  23.946  1.00  0.00    -0.475 OA
ATOM     15  C   UNL A   1      30.477  27.092  24.907  1.00  0.00     0.025 C 
ATOM     16  C   UNL A   1      32.851  27.419  24.399  1.00  0.00     0.314 C 
BRANCH   7  17
ATOM     17  O   UNL A   1      31.718  21.676  25.429  1.00  0.00    -0.492 OA
BRANCH  17  18
ATOM     18  C   UNL A   1      33.048  21.321  25.877  1.00  0.00     0.233 C 
BRANCH  18  19
ATOM     19  C   UNL A   1      33.828  20.538  24.790  1.00  0.00     0.026 C 
BRANCH  19  20
ATOM     20  C   UNL A   1      35.359  20.641  24.987  1.00  0.00     0.003 C 
ATOM     21  C   UNL A   1      35.770  21.871  25.783  1.00  0.00     0.004 C 
ENDBRANCH  19  20
BRANCH  19  22
ATOM     22  C   UNL A   1      33.361  19.068  24.705  1.00  0.00     0.003 C 
ATOM     23  C   UNL A   1      32.479  18.730  23.511  1.00  0.00     0.004 C 
ENDBRANCH  19  22
ENDBRANCH  18  19
ENDBRANCH  17  18
ENDBRANCH   7  17
BRANCH  16  24
ATOM     24  C   UNL A   1      33.616  27.605  25.735  1.00  0.00     0.429 C 
ATOM     25  F   UNL A   1      34.368  28.732  25.696  1.00  0.00    -0.167 F 
ATOM     26  F   UNL A   1      32.773  27.739  26.789  1.00  0.00    -0.167 F 
ATOM     27  F   UNL A   1      34.439  26.578  26.034  1.00  0.00    -0.167 F 
ENDBRANCH  16  24
ENDBRANCH   3   6
ENDBRANCH   1   2
BRANCH   1  28
ATOM     28  C   UNL A   1      31.418  32.126  26.598  1.00  0.00     0.042 C 
BRANCH  28  29
ATOM     29  C   UNL A   1      32.607  32.747  27.318  1.00  0.00     0.118 C 
BRANCH  29  30
ATOM     30  N   UNL A   1      32.380  34.157  27.632  1.00  0.00    -0.352 N 
ATOM     31  C   UNL A   1      32.957  34.955  28.590  1.00  0.00     0.251 C 
ATOM     32  H   UNL A   1      31.709  34.604  27.068  1.00  0.00     0.163 HD
ATOM     33  O   UNL A   1      32.467  36.049  28.856  1.00  0.00    -0.269 OA
BRANCH  31  34
ATOM     34  C   UNL A   1      34.154  34.485  29.314  1.00  0.00     0.039 A 
ATOM     35  C   UNL A   1      35.418  34.632  28.746  1.00  0.00     0.014 A 
ATOM     36  C   UNL A   1      34.011  33.879  30.565  1.00  0.00     0.014 A 
ATOM     37  C   UNL A   1      36.505  33.990  29.319  1.00  0.00     0.010 A 
ATOM     38  C   UNL A   1      35.132  33.337  31.201  1.00  0.00     0.010 A 
ATOM     39  C   UNL A   1      36.378  33.339  30.555  1.00  0.00    -0.014 A 
BRANCH  39  40
ATOM     40  C   UNL A   1      37.567  32.667  31.139  1.00  0.00     0.031 A 
ATOM     41  C   UNL A   1      38.030  32.995  32.530  1.00  0.00     0.074 A 
ATOM     42  C   UNL A   1      38.170  31.689  30.435  1.00  0.00     0.049 A 
ATOM     43  N   UNL A   1      39.023  32.479  33.212  1.00  0.00    -0.248 NA
ATOM     44  C   UNL A   1      37.289  34.038  33.253  1.00  0.00     0.031 C 
ATOM     45  C   UNL A   1      37.785  31.265  29.089  1.00  0.00     0.029 A 
ATOM     46  N   UNL A   1      39.196  30.845  30.769  1.00  0.00    -0.354 N 
ATOM     47  C   UNL A   1      39.035  33.144  34.430  1.00  0.00     0.074 A 
ATOM     48  C   UNL A   1      37.975  34.128  34.383  1.00  0.00     0.031 C 
ATOM     49  C   UNL A   1      38.500  30.185  28.747  1.00  0.00     0.029 A 
ATOM     50  C   UNL A   1      39.451  29.892  29.813  1.00  0.00     0.049 A 
ATOM     51  H   UNL A   1      39.701  30.912  31.612  1.00  0.00     0.167 HD
ATOM     52  C   UNL A   1      39.846  32.942  35.496  1.00  0.00     0.037 A 
ATOM     53  C   UNL A   1      40.356  28.897  29.792  1.00  0.00     0.037 A 
ATOM     54  C   UNL A   1      40.891  31.951  35.539  1.00  0.00     0.049 A 
ATOM     55  C   UNL A   1      41.290  28.741  30.954  1.00  0.00     0.074 A 
ATOM     56  C   UNL A   1      41.776  31.672  36.566  1.00  0.00     0.029 A 
ATOM     57  N   UNL A   1      41.188  31.071  34.507  1.00  0.00    -0.354 N 
ATOM     58  N   UNL A   1      41.314  29.397  32.087  1.00  0.00    -0.248 NA
ATOM     59  C   UNL A   1      42.339  27.721  30.824  1.00  0.00     0.031 C 
ATOM     60  C   UNL A   1      42.634  30.653  36.139  1.00  0.00     0.029 A 
ATOM     61  C   UNL A   1      42.255  30.263  34.865  1.00  0.00     0.049 A 
ATOM     62  H   UNL A   1      40.710  31.029  33.647  1.00  0.00     0.167 HD
ATOM     63  C   UNL A   1      42.375  28.872  32.809  1.00  0.00     0.074 A 
ATOM     64  C   UNL A   1      42.955  27.824  31.994  1.00  0.00     0.031 C 
ATOM     65  C   UNL A   1      42.827  29.232  34.036  1.00  0.00     0.037 A 
BRANCH  52  66
ATOM     66  C   UNL A   1      39.645  33.822  36.696  1.00  0.00     0.064 A 
ATOM     67  C   UNL A   1      38.847  33.420  37.779  1.00  0.00     0.173 A 
ATOM     68  C   UNL A   1      40.274  35.074  36.777  1.00  0.00     0.173 A 
ATOM     69  F   UNL A   1      38.211  32.239  37.747  1.00  0.00    -0.203 F 
ATOM     70  C   UNL A   1      38.663  34.251  38.882  1.00  0.00     0.198 A 
ATOM     71  C   UNL A   1      40.111  35.889  37.894  1.00  0.00     0.198 A 
ATOM     72  F   UNL A   1      41.052  35.507  35.773  1.00  0.00    -0.203 F 
ATOM     73  F   UNL A   1      37.854  33.867  39.879  1.00  0.00    -0.200 F 
ATOM     74  C   UNL A   1      39.300  35.481  38.942  1.00  0.00     0.200 A 
ATOM     75  F   UNL A   1      40.736  37.074  37.955  1.00  0.00    -0.200 F 
ATOM     76  F   UNL A   1      39.123  36.278  40.004  1.00  0.00    -0.200 F 
ENDBRANCH  52  66
BRANCH  53  77
ATOM     77  C   UNL A   1      40.392  27.975  28.630  1.00  0.00     0.064 A 
ATOM     78  C   UNL A   1      41.144  28.292  27.491  1.00  0.00     0.173 A 
ATOM     79  C   UNL A   1      39.745  26.731  28.662  1.00  0.00     0.173 A 
ATOM     80  F   UNL A   1      41.765  29.477  27.407  1.00  0.00    -0.203 F 
ATOM     81  C   UNL A   1      41.256  27.394  26.432  1.00  0.00     0.198 A 
ATOM     82  C   UNL A   1      39.880  25.822  27.615  1.00  0.00     0.198 A 
ATOM     83  F   UNL A   1      39.019  26.379  29.733  1.00  0.00    -0.203 F 
ATOM     84  F   UNL A   1      41.972  27.725  25.349  1.00  0.00    -0.200 F 
ATOM     85  C   UNL A   1      40.636  26.154  26.501  1.00  0.00     0.200 A 
ATOM     86  F   UNL A   1      39.297  24.619  27.694  1.00  0.00    -0.200 F 
ATOM     87  F   UNL A   1      40.769  25.279  25.494  1.00  0.00    -0.200 F 
ENDBRANCH  53  77
BRANCH  65  88
ATOM     88  C   UNL A   1      44.010  28.484  34.575  1.00  0.00     0.064 A 
ATOM     89  C   UNL A   1      43.855  27.281  35.279  1.00  0.00     0.173 A 
ATOM     90  C   UNL A   1      45.313  28.944  34.334  1.00  0.00     0.173 A 
ATOM     91  F   UNL A   1      42.627  26.810  35.548  1.00  0.00    -0.203 F 
ATOM     92  C   UNL A   1      44.962  26.573  35.736  1.00  0.00     0.198 A 
ATOM     93  C   UNL A   1      46.419  28.220  34.769  1.00  0.00     0.198 A 
ATOM     94  F   UNL A   1      45.514  30.086  33.661  1.00  0.00    -0.203 F 
ATOM     95  F   UNL A   1      44.791  25.444  36.438  1.00  0.00    -0.200 F 
ATOM     96  C   UNL A   1      46.242  27.038  35.473  1.00  0.00     0.200 A 
ATOM     97  F   UNL A   1      47.656  28.663  34.504  1.00  0.00    -0.200 F 
ATOM     98  F   UNL A   1      47.308  26.348  35.903  1.00  0.00    -0.200 F 
ENDBRANCH  65  88
ENDBRANCH  39  40
ENDBRANCH  31  34
ENDBRANCH  29  30
ENDBRANCH  28  29
ENDBRANCH   1  28
TORSDOF 16
ENDMDL
MODEL 3
REMARK VINA RESULT:     -12.7      5.487     10.935
REMARK SMILES CCC(CC)COc1cc2c(cc1Cl)C=C(C(=O)NCCCNC(=O)c1ccc(-c3c4nc(c(-c5c(F)c(F)c(F)c(F)c5F)c5ccc([nH]5)c(-c5c(F)c(F)c(F)c(F)c5F)c5nc(c(-c6c(F)c(F)c(F)c(F)c6F)c6ccc3[nH]6)C=C5)C=C4)cc1)[C@@H](C(F)(F)F)O2
REMARK SMILES IDX 20 1 19 2 17 3 18 4 16 6 8 7 9 8 13 9 10 10 12 11 14 12
REMARK SMILES IDX 11 13 94 14 15 15 89 16 7 17 6 18 3 19 2 20 1 21 4 22 5 23
REMARK SMILES IDX 90 24 91 25 92 26 93 27 21 28 22 29 23 30 24 31 25 33 26 34
REMARK SMILES IDX 27 35 88 36 28 37 87 38 29 39 30 40 31 41 81 42 32 43 86 44
REMARK SMILES IDX 80 45 82 46 33 47 85 48 79 49 78 50 34 52 66 53 46 54 65 55
REMARK SMILES IDX 47 56 50 57 64 58 83 59 48 60 49 61 63 63 84 64 51 65 35 66
REMARK SMILES IDX 36 67 44 68 37 69 38 70 42 71 45 72 39 73 40 74 43 75 41 76
REMARK SMILES IDX 67 77 68 78 76 79 69 80 70 81 74 82 77 83 71 84 72 85 75 86
REMARK SMILES IDX 73 87 52 88 53 89 61 90 54 91 55 92 59 93 62 94 56 95 57 96
REMARK SMILES IDX 60 97 58 98
REMARK H PARENT 19 5 23 32 82 51 50 62
REMARK Flexibility Score: inf
ROOT
ATOM      1  C   UNL A   1      36.842  20.863  24.942  1.00  0.00     0.118 C 
ENDROOT
BRANCH   1   2
ATOM      2  N   UNL A   1      35.518  20.313  25.175  1.00  0.00    -0.352 N 
ATOM      3  C   UNL A   1      34.245  20.752  25.067  1.00  0.00     0.251 C 
ATOM      4  O   UNL A   1      33.372  19.930  25.361  1.00  0.00    -0.270 OA
ATOM      5  H   UNL A   1      35.559  19.382  25.491  1.00  0.00     0.163 HD
BRANCH   3   6
ATOM      6  C   UNL A   1      33.857  22.119  24.640  1.00  0.00     0.067 C 
ATOM      7  C   UNL A   1      31.805  25.945  22.167  1.00  0.00     0.141 A 
ATOM      8  C   UNL A   1      31.892  25.626  23.521  1.00  0.00     0.095 A 
ATOM      9  C   UNL A   1      32.469  25.162  21.211  1.00  0.00     0.083 A 
ATOM     10  C   UNL A   1      32.536  24.454  23.891  1.00  0.00     0.131 A 
ATOM     11  C   UNL A   1      33.021  23.936  21.582  1.00  0.00     0.036 A 
ATOM     12  Cl  UNL A   1      32.556  25.630  19.553  1.00  0.00    -0.080 Cl
ATOM     13  C   UNL A   1      33.020  23.564  22.923  1.00  0.00     0.019 A 
ATOM     14  O   UNL A   1      32.680  24.196  25.231  1.00  0.00    -0.475 OA
ATOM     15  C   UNL A   1      33.480  22.251  23.354  1.00  0.00     0.025 C 
ATOM     16  C   UNL A   1      33.822  23.333  25.525  1.00  0.00     0.314 C 
BRANCH   7  17
ATOM     17  O   UNL A   1      31.057  27.023  21.775  1.00  0.00    -0.492 OA
BRANCH  17  18
ATOM     18  C   UNL A   1      30.172  27.484  22.824  1.00  0.00     0.233 C 
BRANCH  18  19
ATOM     19  C   UNL A   1      29.928  29.012  22.736  1.00  0.00     0.026 C 
BRANCH  19  20
ATOM     20  C   UNL A   1      28.471  29.345  22.338  1.00  0.00     0.003 C 
ATOM     21  C   UNL A   1      27.844  30.405  23.232  1.00  0.00     0.004 C 
ENDBRANCH  19  20
BRANCH  19  22
ATOM     22  C   UNL A   1      30.341  29.728  24.041  1.00  0.00     0.003 C 
ATOM     23  C   UNL A   1      31.490  29.083  24.806  1.00  0.00     0.004 C 
ENDBRANCH  19  22
ENDBRANCH  18  19
ENDBRANCH  17  18
ENDBRANCH   7  17
BRANCH  16  24
ATOM     24  C   UNL A   1      35.154  24.125  25.472  1.00  0.00     0.429 C 
ATOM     25  F   UNL A   1      35.985  23.720  26.463  1.00  0.00    -0.167 F 
ATOM     26  F   UNL A   1      35.818  23.927  24.306  1.00  0.00    -0.167 F 
ATOM     27  F   UNL A   1      34.994  25.460  25.597  1.00  0.00    -0.167 F 
ENDBRANCH  16  24
ENDBRANCH   3   6
ENDBRANCH   1   2
BRANCH   1  28
ATOM     28  C   UNL A   1      37.909  19.784  25.009  1.00  0.00     0.042 C 
BRANCH  28  29
ATOM     29  C   UNL A   1      39.130  20.234  25.797  1.00  0.00     0.118 C 
BRANCH  29  30
ATOM     30  N   UNL A   1      40.137  19.179  25.894  1.00  0.00    -0.352 N 
ATOM     31  C   UNL A   1      41.501  19.266  26.041  1.00  0.00     0.251 C 
ATOM     32  H   UNL A   1      39.783  18.263  25.848  1.00  0.00     0.163 HD
ATOM     33  O   UNL A   1      42.203  18.274  25.865  1.00  0.00    -0.269 OA
BRANCH  31  34
ATOM     34  C   UNL A   1      42.121  20.559  26.389  1.00  0.00     0.039 A 
ATOM     35  C   UNL A   1      42.262  20.931  27.723  1.00  0.00     0.014 A 
ATOM     36  C   UNL A   1      42.553  21.414  25.370  1.00  0.00     0.014 A 
ATOM     37  C   UNL A   1      42.631  22.231  28.037  1.00  0.00     0.010 A 
ATOM     38  C   UNL A   1      43.040  22.683  25.695  1.00  0.00     0.010 A 
ATOM     39  C   UNL A   1      43.029  23.122  27.029  1.00  0.00    -0.014 A 
BRANCH  39  40
ATOM     40  C   UNL A   1      43.421  24.503  27.405  1.00  0.00     0.031 A 
ATOM     41  C   UNL A   1      44.810  25.010  27.134  1.00  0.00     0.074 A 
ATOM     42  C   UNL A   1      42.485  25.329  27.910  1.00  0.00     0.049 A 
ATOM     43  N   UNL A   1      45.314  26.198  27.359  1.00  0.00    -0.248 NA
ATOM     44  C   UNL A   1      45.762  24.063  26.534  1.00  0.00     0.031 C 
ATOM     45  C   UNL A   1      41.097  24.955  28.185  1.00  0.00     0.029 A 
ATOM     46  N   UNL A   1      42.541  26.659  28.234  1.00  0.00    -0.354 N 
ATOM     47  C   UNL A   1      46.638  26.135  26.948  1.00  0.00     0.074 A 
ATOM     48  C   UNL A   1      46.874  24.782  26.492  1.00  0.00     0.031 C 
ATOM     49  C   UNL A   1      40.411  26.047  28.548  1.00  0.00     0.029 A 
ATOM     50  C   UNL A   1      41.327  27.179  28.614  1.00  0.00     0.049 A 
ATOM     51  H   UNL A   1      43.369  27.191  28.198  1.00  0.00     0.167 HD
ATOM     52  C   UNL A   1      47.567  27.120  26.936  1.00  0.00     0.037 A 
ATOM     53  C   UNL A   1      40.990  28.428  28.982  1.00  0.00     0.037 A 
ATOM     54  C   UNL A   1      47.321  28.469  27.380  1.00  0.00     0.049 A 
ATOM     55  C   UNL A   1      42.054  29.484  29.030  1.00  0.00     0.074 A 
ATOM     56  C   UNL A   1      48.197  29.539  27.420  1.00  0.00     0.029 A 
ATOM     57  N   UNL A   1      46.102  28.932  27.857  1.00  0.00    -0.354 N 
ATOM     58  N   UNL A   1      43.311  29.404  28.670  1.00  0.00    -0.248 NA
ATOM     59  C   UNL A   1      41.658  30.795  29.559  1.00  0.00     0.031 C 
ATOM     60  C   UNL A   1      47.520  30.638  27.961  1.00  0.00     0.029 A 
ATOM     61  C   UNL A   1      46.209  30.267  28.213  1.00  0.00     0.049 A 
ATOM     62  H   UNL A   1      45.283  28.391  27.932  1.00  0.00     0.167 HD
ATOM     63  C   UNL A   1      43.859  30.652  28.924  1.00  0.00     0.074 A 
ATOM     64  C   UNL A   1      42.790  31.478  29.447  1.00  0.00     0.031 C 
ATOM     65  C   UNL A   1      45.136  31.071  28.743  1.00  0.00     0.037 A 
BRANCH  52  66
ATOM     66  C   UNL A   1      48.942  26.770  26.444  1.00  0.00     0.064 A 
ATOM     67  C   UNL A   1      49.920  26.243  27.302  1.00  0.00     0.173 A 
ATOM     68  C   UNL A   1      49.281  26.941  25.092  1.00  0.00     0.173 A 
ATOM     69  F   UNL A   1      49.652  26.072  28.606  1.00  0.00    -0.203 F 
ATOM     70  C   UNL A   1      51.194  25.929  26.832  1.00  0.00     0.198 A 
ATOM     71  C   UNL A   1      50.547  26.600  24.621  1.00  0.00     0.198 A 
ATOM     72  F   UNL A   1      48.384  27.436  24.227  1.00  0.00    -0.203 F 
ATOM     73  F   UNL A   1      52.126  25.478  27.683  1.00  0.00    -0.200 F 
ATOM     74  C   UNL A   1      51.504  26.102  25.492  1.00  0.00     0.200 A 
ATOM     75  F   UNL A   1      50.842  26.757  23.323  1.00  0.00    -0.200 F 
ATOM     76  F   UNL A   1      52.729  25.800  25.042  1.00  0.00    -0.200 F 
ENDBRANCH  52  66
BRANCH  53  77
ATOM     77  C   UNL A   1      39.575  28.729  29.313  1.00  0.00     0.064 A 
ATOM     78  C   UNL A   1      39.094  28.553  30.617  1.00  0.00     0.173 A 
ATOM     79  C   UNL A   1      38.699  29.269  28.359  1.00  0.00     0.173 A 
ATOM     80  F   UNL A   1      39.890  28.024  31.558  1.00  0.00    -0.203 F 
ATOM     81  C   UNL A   1      37.793  28.916  30.957  1.00  0.00     0.198 A 
ATOM     82  C   UNL A   1      37.407  29.657  28.707  1.00  0.00     0.198 A 
ATOM     83  F   UNL A   1      39.115  29.462  27.100  1.00  0.00    -0.203 F 
ATOM     84  F   UNL A   1      37.354  28.728  32.209  1.00  0.00    -0.200 F 
ATOM     85  C   UNL A   1      36.956  29.481  30.006  1.00  0.00     0.200 A 
ATOM     86  F   UNL A   1      36.609  30.221  27.791  1.00  0.00    -0.200 F 
ATOM     87  F   UNL A   1      35.714  29.857  30.342  1.00  0.00    -0.200 F 
ENDBRANCH  53  77
BRANCH  65  88
ATOM     88  C   UNL A   1      45.449  32.490  29.112  1.00  0.00     0.064 A 
ATOM     89  C   UNL A   1      45.266  33.540  28.200  1.00  0.00     0.173 A 
ATOM     90  C   UNL A   1      45.880  32.811  30.408  1.00  0.00     0.173 A 
ATOM     91  F   UNL A   1      44.872  33.281  26.944  1.00  0.00    -0.203 F 
ATOM     92  C   UNL A   1      45.518  34.858  28.568  1.00  0.00     0.198 A 
ATOM     93  C   UNL A   1      46.104  34.132  30.781  1.00  0.00     0.198 A 
ATOM     94  F   UNL A   1      46.064  31.843  31.318  1.00  0.00    -0.203 F 
ATOM     95  F   UNL A   1      45.371  35.842  27.670  1.00  0.00    -0.200 F 
ATOM     96  C   UNL A   1      45.928  35.154  29.860  1.00  0.00     0.200 A 
ATOM     97  F   UNL A   1      46.488  34.418  32.033  1.00  0.00    -0.200 F 
ATOM     98  F   UNL A   1      46.157  36.426  30.217  1.00  0.00    -0.200 F 
ENDBRANCH  65  88
ENDBRANCH  39  40
ENDBRANCH  31  34
ENDBRANCH  29  30
ENDBRANCH  28  29
ENDBRANCH   1  28
TORSDOF 16
ENDMDL
