MODEL 1
REMARK VINA RESULT:     -12.0      0.000      0.000
REMARK SMILES CCC[C@H](CNC(=O)N1CCN2C(=O)NC[C@H]2C1)C(=O)NCCCNC(=O)c1ccc(-c2c3nc(c(-c4c(F)c(F)c(F)c(F)c4F)c4ccc([nH]4)c(-c4c(F)c(F)c(F)c(F)c4F)c4nc(c(-c5c(F)c(F)c(F)c(F)c5F)c5ccc2[nH]5)C=C4)C=C3)cc1
REMARK SMILES IDX 22 1 21 2 19 3 20 4 4 6 3 7 2 8 1 9 5 10 6 11 7 12 8 14 9 15
REMARK SMILES IDX 10 16 18 17 11 18 17 19 12 20 16 21 13 22 15 23 14 24 23 26
REMARK SMILES IDX 24 27 25 28 26 29 27 31 28 32 29 33 90 34 30 35 89 36 31 37
REMARK SMILES IDX 32 38 33 39 83 40 34 41 88 42 82 43 84 44 35 45 87 46 81 47
REMARK SMILES IDX 80 48 36 50 68 51 48 52 67 53 49 54 52 55 66 56 85 57 50 58
REMARK SMILES IDX 51 59 65 61 86 62 53 63 37 64 38 65 46 66 39 67 40 68 44 69
REMARK SMILES IDX 47 70 41 71 42 72 45 73 43 74 69 75 70 76 78 77 71 78 72 79
REMARK SMILES IDX 76 80 79 81 73 82 74 83 77 84 75 85 54 86 55 87 63 88 56 89
REMARK SMILES IDX 57 90 61 91 64 92 58 93 59 94 62 95 60 96
REMARK H PARENT 21 5 6 13 15 25 25 30 84 49 52 60
REMARK Flexibility Score: inf
ROOT
ATOM      1  C   UNL A   1      32.209  27.644  26.822  1.00  0.00     0.117 C 
ENDROOT
BRANCH   1   2
ATOM      2  N   UNL A   1      31.108  26.690  26.809  1.00  0.00    -0.356 N 
ATOM      3  C   UNL A   1      30.371  26.131  25.810  1.00  0.00     0.224 C 
ATOM      4  O   UNL A   1      29.489  25.341  26.164  1.00  0.00    -0.275 OA
ATOM      5  H   UNL A   1      30.842  26.388  27.707  1.00  0.00     0.163 HD
BRANCH   3   6
ATOM      6  C   UNL A   1      30.564  26.438  24.318  1.00  0.00     0.097 C 
BRANCH   6   7
ATOM      7  C   UNL A   1      29.514  27.429  23.780  1.00  0.00     0.015 C 
BRANCH   7   8
ATOM      8  C   UNL A   1      30.081  28.612  22.982  1.00  0.00    -0.003 C 
ATOM      9  C   UNL A   1      29.664  29.978  23.502  1.00  0.00     0.004 C 
ENDBRANCH   7   8
ENDBRANCH   6   7
BRANCH   6  10
ATOM     10  C   UNL A   1      30.676  25.144  23.497  1.00  0.00     0.131 C 
BRANCH  10  11
ATOM     11  N   UNL A   1      31.400  25.344  22.246  1.00  0.00    -0.337 N 
ATOM     12  C   UNL A   1      32.683  25.017  21.953  1.00  0.00     0.317 C 
ATOM     13  H   UNL A   1      30.891  25.774  21.521  1.00  0.00     0.165 HD
ATOM     14  O   UNL A   1      33.276  25.650  21.083  1.00  0.00    -0.249 OA
BRANCH  12  15
ATOM     15  N   UNL A   1      33.288  24.059  22.708  1.00  0.00    -0.321 N 
ATOM     16  C   UNL A   1      33.015  22.617  22.593  1.00  0.00     0.143 C 
ATOM     17  C   UNL A   1      34.491  24.418  23.456  1.00  0.00     0.148 C 
ATOM     18  C   UNL A   1      33.226  21.822  23.896  1.00  0.00     0.143 C 
ATOM     19  C   UNL A   1      34.260  23.934  24.876  1.00  0.00     0.125 C 
ATOM     20  N   UNL A   1      34.085  22.491  24.860  1.00  0.00    -0.317 N 
ATOM     21  C   UNL A   1      35.408  24.147  25.853  1.00  0.00     0.144 C 
ATOM     22  C   UNL A   1      34.819  21.880  25.850  1.00  0.00     0.317 C 
ATOM     23  N   UNL A   1      35.533  22.871  26.508  1.00  0.00    -0.336 N 
ATOM     24  O   UNL A   1      34.838  20.694  26.095  1.00  0.00    -0.249 OA
ATOM     25  H   UNL A   1      36.061  22.719  27.325  1.00  0.00     0.165 HD
ENDBRANCH  12  15
ENDBRANCH  10  11
ENDBRANCH   6  10
ENDBRANCH   3   6
ENDBRANCH   1   2
BRANCH   1  26
ATOM     26  C   UNL A   1      31.731  29.092  26.765  1.00  0.00     0.042 C 
BRANCH  26  27
ATOM     27  C   UNL A   1      32.570  30.044  25.914  1.00  0.00     0.118 C 
BRANCH  27  28
ATOM     28  N   UNL A   1      32.455  31.428  26.344  1.00  0.00    -0.352 N 
ATOM     29  C   UNL A   1      33.180  32.136  27.278  1.00  0.00     0.251 C 
ATOM     30  H   UNL A   1      31.746  31.942  25.896  1.00  0.00     0.163 HD
ATOM     31  O   UNL A   1      32.785  33.251  27.612  1.00  0.00    -0.269 OA
BRANCH  29  32
ATOM     32  C   UNL A   1      34.414  31.592  27.901  1.00  0.00     0.039 A 
ATOM     33  C   UNL A   1      35.463  32.469  28.203  1.00  0.00     0.014 A 
ATOM     34  C   UNL A   1      34.593  30.228  28.119  1.00  0.00     0.014 A 
ATOM     35  C   UNL A   1      36.647  31.992  28.793  1.00  0.00     0.010 A 
ATOM     36  C   UNL A   1      35.756  29.767  28.757  1.00  0.00     0.010 A 
ATOM     37  C   UNL A   1      36.797  30.636  29.130  1.00  0.00    -0.014 A 
BRANCH  37  38
ATOM     38  C   UNL A   1      38.004  30.137  29.885  1.00  0.00     0.031 A 
ATOM     39  C   UNL A   1      38.270  30.559  31.314  1.00  0.00     0.074 A 
ATOM     40  C   UNL A   1      38.925  29.349  29.284  1.00  0.00     0.049 A 
ATOM     41  N   UNL A   1      39.283  30.265  32.098  1.00  0.00    -0.248 NA
ATOM     42  C   UNL A   1      37.295  31.469  31.931  1.00  0.00     0.031 C 
ATOM     43  C   UNL A   1      38.898  28.926  27.885  1.00  0.00     0.029 A 
ATOM     44  N   UNL A   1      40.077  28.766  29.775  1.00  0.00    -0.354 N 
ATOM     45  C   UNL A   1      39.079  30.975  33.274  1.00  0.00     0.074 A 
ATOM     46  C   UNL A   1      37.892  31.778  33.072  1.00  0.00     0.031 C 
ATOM     47  C   UNL A   1      39.940  28.115  27.642  1.00  0.00     0.029 A 
ATOM     48  C   UNL A   1      40.747  27.993  28.854  1.00  0.00     0.049 A 
ATOM     49  H   UNL A   1      40.390  28.890  30.699  1.00  0.00     0.167 HD
ATOM     50  C   UNL A   1      39.779  30.941  34.436  1.00  0.00     0.037 A 
ATOM     51  C   UNL A   1      41.882  27.269  28.957  1.00  0.00     0.037 A 
ATOM     52  C   UNL A   1      40.932  30.113  34.679  1.00  0.00     0.049 A 
ATOM     53  C   UNL A   1      42.633  27.222  30.263  1.00  0.00     0.074 A 
ATOM     54  C   UNL A   1      41.640  29.947  35.859  1.00  0.00     0.029 A 
ATOM     55  N   UNL A   1      41.551  29.315  33.729  1.00  0.00    -0.354 N 
ATOM     56  N   UNL A   1      42.363  27.818  31.397  1.00  0.00    -0.248 NA
ATOM     57  C   UNL A   1      43.847  26.390  30.303  1.00  0.00     0.031 C 
ATOM     58  C   UNL A   1      42.720  29.094  35.609  1.00  0.00     0.029 A 
ATOM     59  C   UNL A   1      42.648  28.675  34.292  1.00  0.00     0.049 A 
ATOM     60  H   UNL A   1      41.256  29.216  32.796  1.00  0.00     0.167 HD
ATOM     61  C   UNL A   1      43.349  27.411  32.289  1.00  0.00     0.074 A 
ATOM     62  C   UNL A   1      44.217  26.504  31.570  1.00  0.00     0.031 C 
ATOM     63  C   UNL A   1      43.511  27.761  33.588  1.00  0.00     0.037 A 
BRANCH  50  64
ATOM     64  C   UNL A   1      39.301  31.826  35.557  1.00  0.00     0.064 A 
ATOM     65  C   UNL A   1      38.404  31.361  36.531  1.00  0.00     0.173 A 
ATOM     66  C   UNL A   1      39.762  33.147  35.671  1.00  0.00     0.173 A 
ATOM     67  F   UNL A   1      37.931  30.107  36.473  1.00  0.00    -0.203 F 
ATOM     68  C   UNL A   1      37.940  32.202  37.540  1.00  0.00     0.198 A 
ATOM     69  C   UNL A   1      39.329  33.972  36.707  1.00  0.00     0.198 A 
ATOM     70  F   UNL A   1      40.635  33.640  34.779  1.00  0.00    -0.203 F 
ATOM     71  F   UNL A   1      37.024  31.757  38.411  1.00  0.00    -0.200 F 
ATOM     72  C   UNL A   1      38.407  33.503  37.631  1.00  0.00     0.200 A 
ATOM     73  F   UNL A   1      39.797  35.223  36.805  1.00  0.00    -0.200 F 
ATOM     74  F   UNL A   1      37.961  34.311  38.603  1.00  0.00    -0.200 F 
ENDBRANCH  50  64
BRANCH  51  75
ATOM     75  C   UNL A   1      42.372  26.485  27.790  1.00  0.00     0.064 A 
ATOM     76  C   UNL A   1      41.891  25.190  27.540  1.00  0.00     0.173 A 
ATOM     77  C   UNL A   1      43.342  26.996  26.915  1.00  0.00     0.173 A 
ATOM     78  F   UNL A   1      40.987  24.641  28.365  1.00  0.00    -0.203 F 
ATOM     79  C   UNL A   1      42.375  24.432  26.476  1.00  0.00     0.198 A 
ATOM     80  C   UNL A   1      43.801  26.249  25.830  1.00  0.00     0.198 A 
ATOM     81  F   UNL A   1      43.839  28.227  27.108  1.00  0.00    -0.203 F 
ATOM     82  F   UNL A   1      41.938  23.178  26.295  1.00  0.00    -0.200 F 
ATOM     83  C   UNL A   1      43.324  24.965  25.617  1.00  0.00     0.200 A 
ATOM     84  F   UNL A   1      44.709  26.773  24.996  1.00  0.00    -0.200 F 
ATOM     85  F   UNL A   1      43.786  24.237  24.592  1.00  0.00    -0.200 F 
ENDBRANCH  51  75
BRANCH  63  86
ATOM     86  C   UNL A   1      44.644  27.130  34.352  1.00  0.00     0.064 A 
ATOM     87  C   UNL A   1      45.900  27.745  34.461  1.00  0.00     0.173 A 
ATOM     88  C   UNL A   1      44.451  25.916  35.030  1.00  0.00     0.173 A 
ATOM     89  F   UNL A   1      46.146  28.899  33.823  1.00  0.00    -0.203 F 
ATOM     90  C   UNL A   1      46.926  27.157  35.199  1.00  0.00     0.198 A 
ATOM     91  C   UNL A   1      45.467  25.348  35.794  1.00  0.00     0.198 A 
ATOM     92  F   UNL A   1      43.268  25.286  34.967  1.00  0.00    -0.203 F 
ATOM     93  F   UNL A   1      48.132  27.739  35.250  1.00  0.00    -0.200 F 
ATOM     94  C   UNL A   1      46.706  25.964  35.873  1.00  0.00     0.200 A 
ATOM     95  F   UNL A   1      45.245  24.204  36.458  1.00  0.00    -0.200 F 
ATOM     96  F   UNL A   1      47.689  25.408  36.593  1.00  0.00    -0.200 F 
ENDBRANCH  63  86
ENDBRANCH  37  38
ENDBRANCH  29  32
ENDBRANCH  27  28
ENDBRANCH  26  27
ENDBRANCH   1  26
TORSDOF 15
ENDMDL
MODEL 2
REMARK VINA RESULT:     -12.0      1.980      7.617
REMARK SMILES CCC[C@H](CNC(=O)N1CCN2C(=O)NC[C@H]2C1)C(=O)NCCCNC(=O)c1ccc(-c2c3nc(c(-c4c(F)c(F)c(F)c(F)c4F)c4ccc([nH]4)c(-c4c(F)c(F)c(F)c(F)c4F)c4nc(c(-c5c(F)c(F)c(F)c(F)c5F)c5ccc2[nH]5)C=C4)C=C3)cc1
REMARK SMILES IDX 22 1 21 2 19 3 20 4 4 6 3 7 2 8 1 9 5 10 6 11 7 12 8 14 9 15
REMARK SMILES IDX 10 16 18 17 11 18 17 19 12 20 16 21 13 22 15 23 14 24 23 26
REMARK SMILES IDX 24 27 25 28 26 29 27 31 28 32 29 33 90 34 30 35 89 36 31 37
REMARK SMILES IDX 32 38 33 39 83 40 34 41 88 42 82 43 84 44 35 45 87 46 81 47
REMARK SMILES IDX 80 48 36 50 68 51 48 52 67 53 49 54 52 55 66 56 85 57 50 58
REMARK SMILES IDX 51 59 65 61 86 62 53 63 37 64 38 65 46 66 39 67 40 68 44 69
REMARK SMILES IDX 47 70 41 71 42 72 45 73 43 74 69 75 70 76 78 77 71 78 72 79
REMARK SMILES IDX 76 80 79 81 73 82 74 83 77 84 75 85 54 86 55 87 63 88 56 89
REMARK SMILES IDX 57 90 61 91 64 92 58 93 59 94 62 95 60 96
REMARK H PARENT 21 5 6 13 15 25 25 30 84 49 52 60
REMARK Flexibility Score: inf
ROOT
ATOM      1  C   UNL A   1      31.269  31.011  25.912  1.00  0.00     0.117 C 
ENDROOT
BRANCH   1   2
ATOM      2  N   UNL A   1      32.556  30.382  26.175  1.00  0.00    -0.356 N 
ATOM      3  C   UNL A   1      33.221  29.342  25.598  1.00  0.00     0.224 C 
ATOM      4  O   UNL A   1      34.322  29.066  26.086  1.00  0.00    -0.275 OA
ATOM      5  H   UNL A   1      33.046  30.793  26.923  1.00  0.00     0.163 HD
BRANCH   3   6
ATOM      6  C   UNL A   1      32.679  28.516  24.424  1.00  0.00     0.097 C 
BRANCH   6   7
ATOM      7  C   UNL A   1      31.416  27.716  24.800  1.00  0.00     0.015 C 
BRANCH   7   8
ATOM      8  C   UNL A   1      30.232  27.874  23.834  1.00  0.00    -0.003 C 
ATOM      9  C   UNL A   1      30.314  29.096  22.933  1.00  0.00     0.004 C 
ENDBRANCH   7   8
ENDBRANCH   6   7
BRANCH   6  10
ATOM     10  C   UNL A   1      33.789  27.663  23.789  1.00  0.00     0.131 C 
BRANCH  10  11
ATOM     11  N   UNL A   1      33.336  26.975  22.584  1.00  0.00    -0.337 N 
ATOM     12  C   UNL A   1      33.393  25.651  22.297  1.00  0.00     0.317 C 
ATOM     13  H   UNL A   1      32.938  27.547  21.889  1.00  0.00     0.165 HD
ATOM     14  O   UNL A   1      33.427  25.296  21.122  1.00  0.00    -0.249 OA
BRANCH  12  15
ATOM     15  N   UNL A   1      33.507  24.776  23.334  1.00  0.00    -0.321 N 
ATOM     16  C   UNL A   1      32.365  24.214  24.075  1.00  0.00     0.143 C 
ATOM     17  C   UNL A   1      34.788  24.103  23.541  1.00  0.00     0.148 C 
ATOM     18  C   UNL A   1      32.673  23.849  25.540  1.00  0.00     0.143 C 
ATOM     19  C   UNL A   1      35.125  24.292  25.010  1.00  0.00     0.125 C 
ATOM     20  N   UNL A   1      34.089  23.666  25.816  1.00  0.00    -0.317 N 
ATOM     21  C   UNL A   1      36.407  23.629  25.494  1.00  0.00     0.144 C 
ATOM     22  C   UNL A   1      34.624  22.910  26.832  1.00  0.00     0.317 C 
ATOM     23  N   UNL A   1      36.004  22.963  26.706  1.00  0.00    -0.336 N 
ATOM     24  O   UNL A   1      34.000  22.308  27.677  1.00  0.00    -0.249 OA
ATOM     25  H   UNL A   1      36.633  22.591  27.367  1.00  0.00     0.165 HD
ENDBRANCH  12  15
ENDBRANCH  10  11
ENDBRANCH   6  10
ENDBRANCH   3   6
ENDBRANCH   1   2
BRANCH   1  26
ATOM     26  C   UNL A   1      31.204  32.448  26.420  1.00  0.00     0.042 C 
BRANCH  26  27
ATOM     27  C   UNL A   1      32.410  32.933  27.224  1.00  0.00     0.118 C 
BRANCH  27  28
ATOM     28  N   UNL A   1      32.288  34.322  27.633  1.00  0.00    -0.352 N 
ATOM     29  C   UNL A   1      32.951  35.026  28.615  1.00  0.00     0.251 C 
ATOM     30  H   UNL A   1      31.625  34.845  27.127  1.00  0.00     0.163 HD
ATOM     31  O   UNL A   1      32.553  36.151  28.908  1.00  0.00    -0.269 OA
BRANCH  29  32
ATOM     32  C   UNL A   1      34.124  34.466  29.336  1.00  0.00     0.039 A 
ATOM     33  C   UNL A   1      33.935  33.914  30.608  1.00  0.00     0.014 A 
ATOM     34  C   UNL A   1      35.415  34.544  28.821  1.00  0.00     0.014 A 
ATOM     35  C   UNL A   1      35.019  33.374  31.323  1.00  0.00     0.010 A 
ATOM     36  C   UNL A   1      36.484  33.955  29.516  1.00  0.00     0.010 A 
ATOM     37  C   UNL A   1      36.309  33.337  30.767  1.00  0.00    -0.014 A 
BRANCH  37  38
ATOM     38  C   UNL A   1      37.451  32.640  31.464  1.00  0.00     0.031 A 
ATOM     39  C   UNL A   1      38.172  31.473  30.823  1.00  0.00     0.074 A 
ATOM     40  C   UNL A   1      37.824  32.992  32.716  1.00  0.00     0.049 A 
ATOM     41  N   UNL A   1      39.143  30.726  31.298  1.00  0.00    -0.248 NA
ATOM     42  C   UNL A   1      37.712  31.059  29.490  1.00  0.00     0.031 C 
ATOM     43  C   UNL A   1      37.181  34.017  33.536  1.00  0.00     0.029 A 
ATOM     44  N   UNL A   1      38.835  32.517  33.528  1.00  0.00    -0.354 N 
ATOM     45  C   UNL A   1      39.380  29.747  30.341  1.00  0.00     0.074 A 
ATOM     46  C   UNL A   1      38.398  29.943  29.297  1.00  0.00     0.031 C 
ATOM     47  C   UNL A   1      37.837  34.135  34.701  1.00  0.00     0.029 A 
ATOM     48  C   UNL A   1      38.924  33.159  34.742  1.00  0.00     0.049 A 
ATOM     49  H   UNL A   1      39.440  31.787  33.262  1.00  0.00     0.167 HD
ATOM     50  C   UNL A   1      40.346  28.794  30.301  1.00  0.00     0.037 A 
ATOM     51  C   UNL A   1      39.772  32.989  35.779  1.00  0.00     0.037 A 
ATOM     52  C   UNL A   1      41.365  28.612  31.303  1.00  0.00     0.049 A 
ATOM     53  C   UNL A   1      40.855  31.944  35.707  1.00  0.00     0.074 A 
ATOM     54  C   UNL A   1      42.438  27.735  31.290  1.00  0.00     0.029 A 
ATOM     55  N   UNL A   1      41.440  29.313  32.497  1.00  0.00    -0.354 N 
ATOM     56  N   UNL A   1      41.129  31.098  34.746  1.00  0.00    -0.248 NA
ATOM     57  C   UNL A   1      41.755  31.837  36.866  1.00  0.00     0.031 C 
ATOM     58  C   UNL A   1      43.128  27.865  32.500  1.00  0.00     0.029 A 
ATOM     59  C   UNL A   1      42.526  28.868  33.239  1.00  0.00     0.049 A 
ATOM     60  H   UNL A   1      40.816  30.021  32.776  1.00  0.00     0.167 HD
ATOM     61  C   UNL A   1      42.245  30.385  35.168  1.00  0.00     0.074 A 
ATOM     62  C   UNL A   1      42.610  30.906  36.467  1.00  0.00     0.031 C 
ATOM     63  C   UNL A   1      42.905  29.389  34.528  1.00  0.00     0.037 A 
BRANCH  50  64
ATOM     64  C   UNL A   1      40.358  27.872  29.111  1.00  0.00     0.064 A 
ATOM     65  C   UNL A   1      41.150  28.136  27.982  1.00  0.00     0.173 A 
ATOM     66  C   UNL A   1      39.585  26.701  29.107  1.00  0.00     0.173 A 
ATOM     67  F   UNL A   1      41.909  29.241  27.931  1.00  0.00    -0.203 F 
ATOM     68  C   UNL A   1      41.122  27.295  26.873  1.00  0.00     0.198 A 
ATOM     69  C   UNL A   1      39.593  25.839  28.013  1.00  0.00     0.198 A 
ATOM     70  F   UNL A   1      38.823  26.387  30.166  1.00  0.00    -0.203 F 
ATOM     71  F   UNL A   1      41.826  27.611  25.778  1.00  0.00    -0.200 F 
ATOM     72  C   UNL A   1      40.349  26.145  26.891  1.00  0.00     0.200 A 
ATOM     73  F   UNL A   1      38.862  24.716  28.040  1.00  0.00    -0.200 F 
ATOM     74  F   UNL A   1      40.324  25.335  25.823  1.00  0.00    -0.200 F 
ENDBRANCH  50  64
BRANCH  51  75
ATOM     75  C   UNL A   1      39.661  33.862  36.981  1.00  0.00     0.064 A 
ATOM     76  C   UNL A   1      38.904  33.461  38.093  1.00  0.00     0.173 A 
ATOM     77  C   UNL A   1      40.283  35.117  37.039  1.00  0.00     0.173 A 
ATOM     78  F   UNL A   1      38.261  32.283  38.076  1.00  0.00    -0.203 F 
ATOM     79  C   UNL A   1      38.759  34.288  39.205  1.00  0.00     0.198 A 
ATOM     80  C   UNL A   1      40.165  35.930  38.166  1.00  0.00     0.198 A 
ATOM     81  F   UNL A   1      41.016  35.552  36.003  1.00  0.00    -0.203 F 
ATOM     82  F   UNL A   1      37.985  33.902  40.228  1.00  0.00    -0.200 F 
ATOM     83  C   UNL A   1      39.396  35.518  39.244  1.00  0.00     0.200 A 
ATOM     84  F   UNL A   1      40.792  37.113  38.205  1.00  0.00    -0.200 F 
ATOM     85  F   UNL A   1      39.259  36.312  40.314  1.00  0.00    -0.200 F 
ENDBRANCH  51  75
BRANCH  63  86
ATOM     86  C   UNL A   1      44.128  28.815  35.190  1.00  0.00     0.064 A 
ATOM     87  C   UNL A   1      45.407  29.351  34.980  1.00  0.00     0.173 A 
ATOM     88  C   UNL A   1      44.009  27.745  36.091  1.00  0.00     0.173 A 
ATOM     89  F   UNL A   1      45.583  30.366  34.120  1.00  0.00    -0.203 F 
ATOM     90  C   UNL A   1      46.523  28.823  35.628  1.00  0.00     0.198 A 
ATOM     91  C   UNL A   1      45.120  27.241  36.762  1.00  0.00     0.198 A 
ATOM     92  F   UNL A   1      42.810  27.197  36.336  1.00  0.00    -0.203 F 
ATOM     93  F   UNL A   1      47.741  29.321  35.376  1.00  0.00    -0.200 F 
ATOM     94  C   UNL A   1      46.377  27.775  36.525  1.00  0.00     0.200 A 
ATOM     95  F   UNL A   1      44.974  26.240  37.642  1.00  0.00    -0.200 F 
ATOM     96  F   UNL A   1      47.449  27.278  37.157  1.00  0.00    -0.200 F 
ENDBRANCH  63  86
ENDBRANCH  37  38
ENDBRANCH  29  32
ENDBRANCH  27  28
ENDBRANCH  26  27
ENDBRANCH   1  26
TORSDOF 15
ENDMDL
MODEL 3
REMARK VINA RESULT:     -12.0      3.936      9.066
REMARK SMILES CCC[C@H](CNC(=O)N1CCN2C(=O)NC[C@H]2C1)C(=O)NCCCNC(=O)c1ccc(-c2c3nc(c(-c4c(F)c(F)c(F)c(F)c4F)c4ccc([nH]4)c(-c4c(F)c(F)c(F)c(F)c4F)c4nc(c(-c5c(F)c(F)c(F)c(F)c5F)c5ccc2[nH]5)C=C4)C=C3)cc1
REMARK SMILES IDX 22 1 21 2 19 3 20 4 4 6 3 7 2 8 1 9 5 10 6 11 7 12 8 14 9 15
REMARK SMILES IDX 10 16 18 17 11 18 17 19 12 20 16 21 13 22 15 23 14 24 23 26
REMARK SMILES IDX 24 27 25 28 26 29 27 31 28 32 29 33 90 34 30 35 89 36 31 37
REMARK SMILES IDX 32 38 33 39 83 40 34 41 88 42 82 43 84 44 35 45 87 46 81 47
REMARK SMILES IDX 80 48 36 50 68 51 48 52 67 53 49 54 52 55 66 56 85 57 50 58
REMARK SMILES IDX 51 59 65 61 86 62 53 63 37 64 38 65 46 66 39 67 40 68 44 69
REMARK SMILES IDX 47 70 41 71 42 72 45 73 43 74 69 75 70 76 78 77 71 78 72 79
REMARK SMILES IDX 76 80 79 81 73 82 74 83 77 84 75 85 54 86 55 87 63 88 56 89
REMARK SMILES IDX 57 90 61 91 64 92 58 93 59 94 62 95 60 96
REMARK H PARENT 21 5 6 13 15 25 25 30 84 49 52 60
REMARK Flexibility Score: inf
ROOT
ATOM      1  C   UNL A   1      35.004  24.136  24.403  1.00  0.00     0.117 C 
ENDROOT
BRANCH   1   2
ATOM      2  N   UNL A   1      34.479  24.121  23.045  1.00  0.00    -0.356 N 
ATOM      3  C   UNL A   1      33.369  23.568  22.480  1.00  0.00     0.224 C 
ATOM      4  O   UNL A   1      33.229  23.755  21.267  1.00  0.00    -0.275 OA
ATOM      5  H   UNL A   1      35.042  24.611  22.403  1.00  0.00     0.163 HD
BRANCH   3   6
ATOM      6  C   UNL A   1      32.331  22.740  23.250  1.00  0.00     0.097 C 
BRANCH   6   7
ATOM      7  C   UNL A   1      32.092  21.357  22.613  1.00  0.00     0.015 C 
BRANCH   7   8
ATOM      8  C   UNL A   1      32.446  20.158  23.504  1.00  0.00    -0.003 C 
ATOM      9  C   UNL A   1      33.434  20.472  24.617  1.00  0.00     0.004 C 
ENDBRANCH   7   8
ENDBRANCH   6   7
BRANCH   6  10
ATOM     10  C   UNL A   1      31.044  23.547  23.484  1.00  0.00     0.131 C 
BRANCH  10  11
ATOM     11  N   UNL A   1      30.749  23.714  24.904  1.00  0.00    -0.337 N 
ATOM     12  C   UNL A   1      30.660  24.865  25.616  1.00  0.00     0.317 C 
ATOM     13  H   UNL A   1      30.596  22.884  25.410  1.00  0.00     0.165 HD
ATOM     14  O   UNL A   1      30.881  24.837  26.825  1.00  0.00    -0.249 OA
BRANCH  12  15
ATOM     15  N   UNL A   1      30.421  26.021  24.938  1.00  0.00    -0.321 N 
ATOM     16  C   UNL A   1      29.088  26.467  24.501  1.00  0.00     0.143 C 
ATOM     17  C   UNL A   1      31.472  27.037  24.902  1.00  0.00     0.148 C 
ATOM     18  C   UNL A   1      29.093  27.345  23.234  1.00  0.00     0.143 C 
ATOM     19  C   UNL A   1      31.631  27.420  23.441  1.00  0.00     0.125 C 
ATOM     20  N   UNL A   1      30.376  27.973  22.959  1.00  0.00    -0.317 N 
ATOM     21  C   UNL A   1      32.645  28.516  23.142  1.00  0.00     0.144 C 
ATOM     22  C   UNL A   1      30.573  29.124  22.234  1.00  0.00     0.317 C 
ATOM     23  N   UNL A   1      31.933  29.400  22.256  1.00  0.00    -0.336 N 
ATOM     24  O   UNL A   1      29.715  29.777  21.683  1.00  0.00    -0.249 OA
ATOM     25  H   UNL A   1      32.359  30.114  21.729  1.00  0.00     0.165 HD
ENDBRANCH  12  15
ENDBRANCH  10  11
ENDBRANCH   6  10
ENDBRANCH   3   6
ENDBRANCH   1   2
BRANCH   1  26
ATOM     26  C   UNL A   1      36.150  23.147  24.599  1.00  0.00     0.042 C 
BRANCH  26  27
ATOM     27  C   UNL A   1      36.716  23.046  26.015  1.00  0.00     0.118 C 
BRANCH  27  28
ATOM     28  N   UNL A   1      37.942  22.268  26.074  1.00  0.00    -0.352 N 
ATOM     29  C   UNL A   1      39.233  22.655  26.359  1.00  0.00     0.251 C 
ATOM     30  H   UNL A   1      37.832  21.309  25.878  1.00  0.00     0.163 HD
ATOM     31  O   UNL A   1      40.146  21.855  26.169  1.00  0.00    -0.269 OA
BRANCH  29  32
ATOM     32  C   UNL A   1      39.557  24.009  26.878  1.00  0.00     0.039 A 
ATOM     33  C   UNL A   1      39.235  24.321  28.204  1.00  0.00     0.014 A 
ATOM     34  C   UNL A   1      40.095  25.004  26.065  1.00  0.00     0.014 A 
ATOM     35  C   UNL A   1      39.525  25.591  28.732  1.00  0.00     0.010 A 
ATOM     36  C   UNL A   1      40.431  26.252  26.613  1.00  0.00     0.010 A 
ATOM     37  C   UNL A   1      40.178  26.568  27.960  1.00  0.00    -0.014 A 
BRANCH  37  38
ATOM     38  C   UNL A   1      40.616  27.883  28.554  1.00  0.00     0.031 A 
ATOM     39  C   UNL A   1      42.061  28.140  28.922  1.00  0.00     0.074 A 
ATOM     40  C   UNL A   1      39.717  28.853  28.841  1.00  0.00     0.049 A 
ATOM     41  N   UNL A   1      42.607  29.195  29.486  1.00  0.00    -0.248 NA
ATOM     42  C   UNL A   1      43.016  27.052  28.666  1.00  0.00     0.031 C 
ATOM     43  C   UNL A   1      38.270  28.750  28.658  1.00  0.00     0.029 A 
ATOM     44  N   UNL A   1      39.887  30.122  29.358  1.00  0.00    -0.354 N 
ATOM     45  C   UNL A   1      43.947  28.880  29.676  1.00  0.00     0.074 A 
ATOM     46  C   UNL A   1      44.115  27.509  29.246  1.00  0.00     0.031 C 
ATOM     47  C   UNL A   1      37.692  29.912  29.001  1.00  0.00     0.029 A 
ATOM     48  C   UNL A   1      38.717  30.837  29.478  1.00  0.00     0.049 A 
ATOM     49  H   UNL A   1      40.765  30.484  29.616  1.00  0.00     0.167 HD
ATOM     50  C   UNL A   1      44.961  29.661  30.127  1.00  0.00     0.037 A 
ATOM     51  C   UNL A   1      38.482  32.090  29.923  1.00  0.00     0.037 A 
ATOM     52  C   UNL A   1      44.829  31.042  30.513  1.00  0.00     0.049 A 
ATOM     53  C   UNL A   1      39.623  32.953  30.395  1.00  0.00     0.074 A 
ATOM     54  C   UNL A   1      45.824  31.932  30.887  1.00  0.00     0.029 A 
ATOM     55  N   UNL A   1      43.631  31.737  30.579  1.00  0.00    -0.354 N 
ATOM     56  N   UNL A   1      40.900  32.672  30.467  1.00  0.00    -0.248 NA
ATOM     57  C   UNL A   1      39.289  34.315  30.841  1.00  0.00     0.031 C 
ATOM     58  C   UNL A   1      45.223  33.145  31.234  1.00  0.00     0.029 A 
ATOM     59  C   UNL A   1      43.861  33.035  31.013  1.00  0.00     0.049 A 
ATOM     60  H   UNL A   1      42.748  31.365  30.351  1.00  0.00     0.167 HD
ATOM     61  C   UNL A   1      41.522  33.825  30.933  1.00  0.00     0.074 A 
ATOM     62  C   UNL A   1      40.485  34.817  31.114  1.00  0.00     0.031 C 
ATOM     63  C   UNL A   1      42.837  34.035  31.185  1.00  0.00     0.037 A 
BRANCH  50  64
ATOM     64  C   UNL A   1      46.328  29.036  30.212  1.00  0.00     0.064 A 
ATOM     65  C   UNL A   1      47.211  29.040  29.120  1.00  0.00     0.173 A 
ATOM     66  C   UNL A   1      46.770  28.444  31.406  1.00  0.00     0.173 A 
ATOM     67  F   UNL A   1      46.842  29.593  27.955  1.00  0.00    -0.203 F 
ATOM     68  C   UNL A   1      48.457  28.425  29.201  1.00  0.00     0.198 A 
ATOM     69  C   UNL A   1      48.035  27.867  31.496  1.00  0.00     0.198 A 
ATOM     70  F   UNL A   1      45.977  28.426  32.488  1.00  0.00    -0.203 F 
ATOM     71  F   UNL A   1      49.248  28.375  28.121  1.00  0.00    -0.200 F 
ATOM     72  C   UNL A   1      48.870  27.845  30.390  1.00  0.00     0.200 A 
ATOM     73  F   UNL A   1      48.442  27.325  32.652  1.00  0.00    -0.200 F 
ATOM     74  F   UNL A   1      50.071  27.253  30.467  1.00  0.00    -0.200 F 
ENDBRANCH  50  64
BRANCH  51  75
ATOM     75  C   UNL A   1      37.095  32.634  29.912  1.00  0.00     0.064 A 
ATOM     76  C   UNL A   1      36.599  33.315  28.789  1.00  0.00     0.173 A 
ATOM     77  C   UNL A   1      36.247  32.509  31.022  1.00  0.00     0.173 A 
ATOM     78  F   UNL A   1      37.381  33.490  27.713  1.00  0.00    -0.203 F 
ATOM     79  C   UNL A   1      35.318  33.865  28.785  1.00  0.00     0.198 A 
ATOM     80  C   UNL A   1      34.954  33.031  31.004  1.00  0.00     0.198 A 
ATOM     81  F   UNL A   1      36.671  31.872  32.123  1.00  0.00    -0.203 F 
ATOM     82  F   UNL A   1      34.892  34.557  27.720  1.00  0.00    -0.200 F 
ATOM     83  C   UNL A   1      34.494  33.716  29.889  1.00  0.00     0.200 A 
ATOM     84  F   UNL A   1      34.156  32.875  32.069  1.00  0.00    -0.200 F 
ATOM     85  F   UNL A   1      33.262  34.242  29.884  1.00  0.00    -0.200 F 
ENDBRANCH  51  75
BRANCH  63  86
ATOM     86  C   UNL A   1      43.257  35.406  31.638  1.00  0.00     0.064 A 
ATOM     87  C   UNL A   1      43.649  36.402  30.731  1.00  0.00     0.173 A 
ATOM     88  C   UNL A   1      43.214  35.746  33.001  1.00  0.00     0.173 A 
ATOM     89  F   UNL A   1      43.721  36.130  29.419  1.00  0.00    -0.203 F 
ATOM     90  C   UNL A   1      44.005  37.676  31.171  1.00  0.00     0.198 A 
ATOM     91  C   UNL A   1      43.538  37.029  33.434  1.00  0.00     0.198 A 
ATOM     92  F   UNL A   1      42.841  34.836  33.913  1.00  0.00    -0.203 F 
ATOM     93  F   UNL A   1      44.421  38.596  30.290  1.00  0.00    -0.200 F 
ATOM     94  C   UNL A   1      43.940  37.991  32.521  1.00  0.00     0.200 A 
ATOM     95  F   UNL A   1      43.458  37.335  34.737  1.00  0.00    -0.200 F 
ATOM     96  F   UNL A   1      44.270  39.220  32.940  1.00  0.00    -0.200 F 
ENDBRANCH  63  86
ENDBRANCH  37  38
ENDBRANCH  29  32
ENDBRANCH  27  28
ENDBRANCH  26  27
ENDBRANCH   1  26
TORSDOF 15
ENDMDL
