MODEL 1
REMARK VINA RESULT:     -10.0      0.000      0.000
REMARK SMILES O=C(/C=C/Nc1cc(Cl)ccc1Cl)NCCCNC(=O)c1ccc(-c2c3nc(c(-c4c(F)c(F)c(F)c(F)c4F)c4ccc([nH]4)c(-c4c(F)c(F)c(F)c(F)c4F)c4nc(c(-c5c(F)c(F)c(F)c(F)c5F)c5ccc2[nH]5)C=C4)C=C3)cc1
REMARK SMILES IDX 16 1 15 2 14 3 1 4 2 5 3 7 4 8 5 9 6 11 7 12 12 13 8 14
REMARK SMILES IDX 11 15 13 16 9 17 10 18 17 19 18 20 19 21 20 23 21 24 22 25
REMARK SMILES IDX 83 26 23 27 82 28 24 29 25 30 26 31 76 32 27 33 81 34 75 35
REMARK SMILES IDX 77 36 28 37 80 38 74 39 73 40 29 42 61 43 41 44 60 45 42 46
REMARK SMILES IDX 45 47 59 48 78 49 43 50 44 51 58 53 79 54 46 55 30 56 31 57
REMARK SMILES IDX 39 58 32 59 33 60 37 61 40 62 34 63 35 64 38 65 36 66 62 67
REMARK SMILES IDX 63 68 71 69 64 70 65 71 69 72 72 73 66 74 67 75 70 76 68 77
REMARK SMILES IDX 47 78 48 79 56 80 49 81 50 82 54 83 57 84 51 85 52 86 55 87
REMARK SMILES IDX 53 88
REMARK H PARENT 14 6 5 10 18 22 77 41 45 52
REMARK Flexibility Score: inf
ROOT
ATOM      1  C   UNL A   1      34.244  34.481  28.263  1.00  0.00     0.042 C 
ENDROOT
BRANCH   1   2
ATOM      2  C   UNL A   1      34.008  34.863  29.721  1.00  0.00     0.118 C 
BRANCH   2   3
ATOM      3  N   UNL A   1      35.104  34.476  30.587  1.00  0.00    -0.352 N 
ATOM      4  O   UNL A   1      33.950  32.866  31.749  1.00  0.00    -0.270 OA
ATOM      5  C   UNL A   1      34.979  33.498  31.539  1.00  0.00     0.245 C 
ATOM      6  H   UNL A   1      35.972  34.933  30.487  1.00  0.00     0.163 HD
BRANCH   5   7
ATOM      7  C   UNL A   1      36.218  33.155  32.282  1.00  0.00     0.089 C 
ATOM      8  C   UNL A   1      36.293  32.265  33.281  1.00  0.00     0.088 C 
BRANCH   8   9
ATOM      9  N   UNL A   1      37.409  31.974  34.024  1.00  0.00    -0.360 N 
ATOM     10  H   UNL A   1      37.527  32.499  34.848  1.00  0.00     0.166 HD
BRANCH   9  11
ATOM     11  C   UNL A   1      38.409  31.014  33.755  1.00  0.00     0.058 A 
ATOM     12  C   UNL A   1      38.117  29.798  33.120  1.00  0.00     0.048 A 
ATOM     13  C   UNL A   1      39.731  31.224  34.203  1.00  0.00     0.064 A 
ATOM     14  C   UNL A   1      39.110  28.831  32.939  1.00  0.00     0.043 A 
ATOM     15  C   UNL A   1      40.719  30.249  34.031  1.00  0.00     0.024 A 
ATOM     16  Cl  UNL A   1      40.166  32.692  35.008  1.00  0.00    -0.082 Cl
ATOM     17  Cl  UNL A   1      38.722  27.354  32.144  1.00  0.00    -0.084 Cl
ATOM     18  C   UNL A   1      40.406  29.048  33.398  1.00  0.00     0.022 A 
ENDBRANCH   9  11
ENDBRANCH   8   9
ENDBRANCH   5   7
ENDBRANCH   2   3
ENDBRANCH   1   2
BRANCH   1  19
ATOM     19  C   UNL A   1      34.980  33.159  28.060  1.00  0.00     0.118 C 
BRANCH  19  20
ATOM     20  N   UNL A   1      34.089  32.025  27.850  1.00  0.00    -0.352 N 
ATOM     21  C   UNL A   1      34.350  30.676  27.824  1.00  0.00     0.251 C 
ATOM     22  H   UNL A   1      33.146  32.265  27.702  1.00  0.00     0.163 HD
ATOM     23  O   UNL A   1      33.458  29.893  27.503  1.00  0.00    -0.269 OA
BRANCH  21  24
ATOM     24  C   UNL A   1      35.697  30.154  28.140  1.00  0.00     0.039 A 
ATOM     25  C   UNL A   1      36.658  30.125  27.125  1.00  0.00     0.014 A 
ATOM     26  C   UNL A   1      36.020  29.686  29.416  1.00  0.00     0.014 A 
ATOM     27  C   UNL A   1      37.963  29.716  27.409  1.00  0.00     0.010 A 
ATOM     28  C   UNL A   1      37.338  29.346  29.717  1.00  0.00     0.010 A 
ATOM     29  C   UNL A   1      38.327  29.373  28.722  1.00  0.00    -0.014 A 
BRANCH  29  30
ATOM     30  C   UNL A   1      39.743  29.091  29.079  1.00  0.00     0.031 A 
ATOM     31  C   UNL A   1      40.572  30.116  29.799  1.00  0.00     0.074 A 
ATOM     32  C   UNL A   1      40.305  27.930  28.684  1.00  0.00     0.049 A 
ATOM     33  N   UNL A   1      41.845  30.081  30.112  1.00  0.00    -0.248 NA
ATOM     34  C   UNL A   1      39.889  31.354  30.203  1.00  0.00     0.031 C 
ATOM     35  C   UNL A   1      39.619  26.869  27.947  1.00  0.00     0.029 A 
ATOM     36  N   UNL A   1      41.586  27.457  28.832  1.00  0.00    -0.354 N 
ATOM     37  C   UNL A   1      42.113  31.290  30.740  1.00  0.00     0.074 A 
ATOM     38  C   UNL A   1      40.886  32.057  30.719  1.00  0.00     0.031 C 
ATOM     39  C   UNL A   1      40.479  25.863  27.722  1.00  0.00     0.029 A 
ATOM     40  C   UNL A   1      41.788  26.227  28.253  1.00  0.00     0.049 A 
ATOM     41  H   UNL A   1      42.292  27.951  29.308  1.00  0.00     0.167 HD
ATOM     42  C   UNL A   1      43.275  31.713  31.297  1.00  0.00     0.037 A 
ATOM     43  C   UNL A   1      42.906  25.484  28.143  1.00  0.00     0.037 A 
ATOM     44  C   UNL A   1      44.492  30.943  31.324  1.00  0.00     0.049 A 
ATOM     45  C   UNL A   1      44.191  25.997  28.735  1.00  0.00     0.074 A 
ATOM     46  C   UNL A   1      45.702  31.264  31.914  1.00  0.00     0.029 A 
ATOM     47  N   UNL A   1      44.659  29.704  30.723  1.00  0.00    -0.354 N 
ATOM     48  N   UNL A   1      44.417  27.111  29.386  1.00  0.00    -0.248 NA
ATOM     49  C   UNL A   1      45.378  25.146  28.576  1.00  0.00     0.031 C 
ATOM     50  C   UNL A   1      46.618  30.248  31.620  1.00  0.00     0.029 A 
ATOM     51  C   UNL A   1      45.962  29.264  30.900  1.00  0.00     0.049 A 
ATOM     52  H   UNL A   1      43.956  29.209  30.243  1.00  0.00     0.167 HD
ATOM     53  C   UNL A   1      45.760  27.084  29.737  1.00  0.00     0.074 A 
ATOM     54  C   UNL A   1      46.295  25.832  29.243  1.00  0.00     0.031 C 
ATOM     55  C   UNL A   1      46.486  28.015  30.404  1.00  0.00     0.037 A 
BRANCH  42  56
ATOM     56  C   UNL A   1      43.289  33.080  31.921  1.00  0.00     0.064 A 
ATOM     57  C   UNL A   1      43.256  33.255  33.314  1.00  0.00     0.173 A 
ATOM     58  C   UNL A   1      43.383  34.228  31.120  1.00  0.00     0.173 A 
ATOM     59  F   UNL A   1      43.159  32.192  34.126  1.00  0.00    -0.203 F 
ATOM     60  C   UNL A   1      43.287  34.528  33.878  1.00  0.00     0.198 A 
ATOM     61  C   UNL A   1      43.447  35.497  31.689  1.00  0.00     0.198 A 
ATOM     62  F   UNL A   1      43.427  34.119  29.784  1.00  0.00    -0.203 F 
ATOM     63  F   UNL A   1      43.204  34.672  35.208  1.00  0.00    -0.200 F 
ATOM     64  C   UNL A   1      43.391  35.648  33.066  1.00  0.00     0.200 A 
ATOM     65  F   UNL A   1      43.564  36.577  30.903  1.00  0.00    -0.200 F 
ATOM     66  F   UNL A   1      43.429  36.871  33.611  1.00  0.00    -0.200 F 
ENDBRANCH  42  56
BRANCH  43  67
ATOM     67  C   UNL A   1      42.862  24.171  27.445  1.00  0.00     0.064 A 
ATOM     68  C   UNL A   1      43.163  24.071  26.079  1.00  0.00     0.173 A 
ATOM     69  C   UNL A   1      42.505  22.995  28.120  1.00  0.00     0.173 A 
ATOM     70  F   UNL A   1      43.487  25.172  25.383  1.00  0.00    -0.203 F 
ATOM     71  C   UNL A   1      43.086  22.851  25.412  1.00  0.00     0.198 A 
ATOM     72  C   UNL A   1      42.461  21.770  27.459  1.00  0.00     0.198 A 
ATOM     73  F   UNL A   1      42.209  23.034  29.428  1.00  0.00    -0.203 F 
ATOM     74  F   UNL A   1      43.328  22.795  24.095  1.00  0.00    -0.200 F 
ATOM     75  C   UNL A   1      42.741  21.700  26.103  1.00  0.00     0.200 A 
ATOM     76  F   UNL A   1      42.141  20.657  28.135  1.00  0.00    -0.200 F 
ATOM     77  F   UNL A   1      42.670  20.526  25.461  1.00  0.00    -0.200 F 
ENDBRANCH  43  67
BRANCH  55  78
ATOM     78  C   UNL A   1      47.932  27.704  30.666  1.00  0.00     0.064 A 
ATOM     79  C   UNL A   1      48.343  27.019  31.819  1.00  0.00     0.173 A 
ATOM     80  C   UNL A   1      48.918  28.065  29.732  1.00  0.00     0.173 A 
ATOM     81  F   UNL A   1      47.444  26.667  32.750  1.00  0.00    -0.203 F 
ATOM     82  C   UNL A   1      49.687  26.732  32.041  1.00  0.00     0.198 A 
ATOM     83  C   UNL A   1      50.256  27.744  29.942  1.00  0.00     0.198 A 
ATOM     84  F   UNL A   1      48.580  28.715  28.609  1.00  0.00    -0.203 F 
ATOM     85  F   UNL A   1      50.061  26.124  33.177  1.00  0.00    -0.200 F 
ATOM     86  C   UNL A   1      50.641  27.087  31.100  1.00  0.00     0.200 A 
ATOM     87  F   UNL A   1      51.175  28.075  29.024  1.00  0.00    -0.200 F 
ATOM     88  F   UNL A   1      51.933  26.801  31.312  1.00  0.00    -0.200 F 
ENDBRANCH  55  78
ENDBRANCH  29  30
ENDBRANCH  21  24
ENDBRANCH  19  20
ENDBRANCH   1  19
TORSDOF 12
ENDMDL
MODEL 2
REMARK VINA RESULT:      -9.9      0.150      1.655
REMARK SMILES O=C(/C=C/Nc1cc(Cl)ccc1Cl)NCCCNC(=O)c1ccc(-c2c3nc(c(-c4c(F)c(F)c(F)c(F)c4F)c4ccc([nH]4)c(-c4c(F)c(F)c(F)c(F)c4F)c4nc(c(-c5c(F)c(F)c(F)c(F)c5F)c5ccc2[nH]5)C=C4)C=C3)cc1
REMARK SMILES IDX 16 1 15 2 14 3 1 4 2 5 3 7 4 8 5 9 6 11 7 12 12 13 8 14
REMARK SMILES IDX 11 15 13 16 9 17 10 18 17 19 18 20 19 21 20 23 21 24 22 25
REMARK SMILES IDX 83 26 23 27 82 28 24 29 25 30 26 31 76 32 27 33 81 34 75 35
REMARK SMILES IDX 77 36 28 37 80 38 74 39 73 40 29 42 61 43 41 44 60 45 42 46
REMARK SMILES IDX 45 47 59 48 78 49 43 50 44 51 58 53 79 54 46 55 30 56 31 57
REMARK SMILES IDX 39 58 32 59 33 60 37 61 40 62 34 63 35 64 38 65 36 66 62 67
REMARK SMILES IDX 63 68 71 69 64 70 65 71 69 72 72 73 66 74 67 75 70 76 68 77
REMARK SMILES IDX 47 78 48 79 56 80 49 81 50 82 54 83 57 84 51 85 52 86 55 87
REMARK SMILES IDX 53 88
REMARK H PARENT 14 6 5 10 18 22 77 41 45 52
REMARK Flexibility Score: inf
ROOT
ATOM      1  C   UNL A   1      34.126  34.446  28.533  1.00  0.00     0.042 C 
ENDROOT
BRANCH   1   2
ATOM      2  C   UNL A   1      34.008  34.845  30.000  1.00  0.00     0.118 C 
BRANCH   2   3
ATOM      3  N   UNL A   1      35.114  34.363  30.804  1.00  0.00    -0.352 N 
ATOM      4  O   UNL A   1      33.980  32.613  31.768  1.00  0.00    -0.270 OA
ATOM      5  C   UNL A   1      35.003  33.274  31.630  1.00  0.00     0.245 C 
ATOM      6  H   UNL A   1      35.978  34.835  30.754  1.00  0.00     0.163 HD
BRANCH   5   7
ATOM      7  C   UNL A   1      36.251  32.852  32.316  1.00  0.00     0.089 C 
ATOM      8  C   UNL A   1      36.311  32.331  33.548  1.00  0.00     0.088 C 
BRANCH   8   9
ATOM      9  N   UNL A   1      37.452  31.990  34.229  1.00  0.00    -0.360 N 
ATOM     10  H   UNL A   1      37.603  32.461  35.079  1.00  0.00     0.166 HD
BRANCH   9  11
ATOM     11  C   UNL A   1      38.436  31.046  33.862  1.00  0.00     0.058 A 
ATOM     12  C   UNL A   1      38.105  29.834  33.237  1.00  0.00     0.048 A 
ATOM     13  C   UNL A   1      39.789  31.267  34.198  1.00  0.00     0.064 A 
ATOM     14  C   UNL A   1      39.089  28.883  32.959  1.00  0.00     0.043 A 
ATOM     15  C   UNL A   1      40.770  30.307  33.929  1.00  0.00     0.024 A 
ATOM     16  Cl  UNL A   1      40.275  32.730  34.984  1.00  0.00    -0.082 Cl
ATOM     17  Cl  UNL A   1      38.652  27.411  32.180  1.00  0.00    -0.084 Cl
ATOM     18  C   UNL A   1      40.418  29.110  33.308  1.00  0.00     0.022 A 
ENDBRANCH   9  11
ENDBRANCH   8   9
ENDBRANCH   5   7
ENDBRANCH   2   3
ENDBRANCH   1   2
BRANCH   1  19
ATOM     19  C   UNL A   1      34.893  33.150  28.283  1.00  0.00     0.118 C 
BRANCH  19  20
ATOM     20  N   UNL A   1      34.031  32.013  27.988  1.00  0.00    -0.352 N 
ATOM     21  C   UNL A   1      34.322  30.674  27.879  1.00  0.00     0.251 C 
ATOM     22  H   UNL A   1      33.084  32.241  27.843  1.00  0.00     0.163 HD
ATOM     23  O   UNL A   1      33.452  29.894  27.497  1.00  0.00    -0.269 OA
BRANCH  21  24
ATOM     24  C   UNL A   1      35.677  30.162  28.179  1.00  0.00     0.039 A 
ATOM     25  C   UNL A   1      36.618  30.119  27.146  1.00  0.00     0.014 A 
ATOM     26  C   UNL A   1      36.025  29.717  29.456  1.00  0.00     0.014 A 
ATOM     27  C   UNL A   1      37.930  29.719  27.414  1.00  0.00     0.010 A 
ATOM     28  C   UNL A   1      37.350  29.387  29.738  1.00  0.00     0.010 A 
ATOM     29  C   UNL A   1      38.320  29.400  28.725  1.00  0.00    -0.014 A 
BRANCH  29  30
ATOM     30  C   UNL A   1      39.744  29.129  29.060  1.00  0.00     0.031 A 
ATOM     31  C   UNL A   1      40.579  30.165  29.756  1.00  0.00     0.074 A 
ATOM     32  C   UNL A   1      40.305  27.968  28.665  1.00  0.00     0.049 A 
ATOM     33  N   UNL A   1      41.857  30.140  30.048  1.00  0.00    -0.248 NA
ATOM     34  C   UNL A   1      39.897  31.403  30.160  1.00  0.00     0.031 C 
ATOM     35  C   UNL A   1      39.613  26.896  27.950  1.00  0.00     0.029 A 
ATOM     36  N   UNL A   1      41.591  27.503  28.796  1.00  0.00    -0.354 N 
ATOM     37  C   UNL A   1      42.130  31.356  30.659  1.00  0.00     0.074 A 
ATOM     38  C   UNL A   1      40.898  32.116  30.653  1.00  0.00     0.031 C 
ATOM     39  C   UNL A   1      40.474  25.893  27.719  1.00  0.00     0.029 A 
ATOM     40  C   UNL A   1      41.790  26.268  28.225  1.00  0.00     0.049 A 
ATOM     41  H   UNL A   1      42.302  28.005  29.255  1.00  0.00     0.167 HD
ATOM     42  C   UNL A   1      43.298  31.791  31.193  1.00  0.00     0.037 A 
ATOM     43  C   UNL A   1      42.910  25.531  28.103  1.00  0.00     0.037 A 
ATOM     44  C   UNL A   1      44.520  31.028  31.205  1.00  0.00     0.049 A 
ATOM     45  C   UNL A   1      44.202  26.056  28.667  1.00  0.00     0.074 A 
ATOM     46  C   UNL A   1      45.738  31.361  31.772  1.00  0.00     0.029 A 
ATOM     47  N   UNL A   1      44.684  29.783  30.614  1.00  0.00    -0.354 N 
ATOM     48  N   UNL A   1      44.433  27.177  29.305  1.00  0.00    -0.248 NA
ATOM     49  C   UNL A   1      45.391  25.210  28.496  1.00  0.00     0.031 C 
ATOM     50  C   UNL A   1      46.655  30.347  31.472  1.00  0.00     0.029 A 
ATOM     51  C   UNL A   1      45.992  29.352  30.772  1.00  0.00     0.049 A 
ATOM     52  H   UNL A   1      43.975  29.281  30.150  1.00  0.00     0.167 HD
ATOM     53  C   UNL A   1      45.782  27.161  29.632  1.00  0.00     0.074 A 
ATOM     54  C   UNL A   1      46.316  25.908  29.141  1.00  0.00     0.031 C 
ATOM     55  C   UNL A   1      46.514  28.102  30.278  1.00  0.00     0.037 A 
BRANCH  42  56
ATOM     56  C   UNL A   1      43.316  33.163  31.805  1.00  0.00     0.064 A 
ATOM     57  C   UNL A   1      43.355  34.323  31.014  1.00  0.00     0.173 A 
ATOM     58  C   UNL A   1      43.246  33.323  33.197  1.00  0.00     0.173 A 
ATOM     59  F   UNL A   1      43.430  34.227  29.678  1.00  0.00    -0.203 F 
ATOM     60  C   UNL A   1      43.354  35.588  31.595  1.00  0.00     0.198 A 
ATOM     61  C   UNL A   1      43.212  34.591  33.773  1.00  0.00     0.198 A 
ATOM     62  F   UNL A   1      43.197  32.250  34.000  1.00  0.00    -0.203 F 
ATOM     63  F   UNL A   1      43.442  36.678  30.822  1.00  0.00    -0.200 F 
ATOM     64  C   UNL A   1      43.274  35.722  32.973  1.00  0.00     0.200 A 
ATOM     65  F   UNL A   1      43.118  34.717  35.104  1.00  0.00    -0.200 F 
ATOM     66  F   UNL A   1      43.264  36.940  33.531  1.00  0.00    -0.200 F 
ENDBRANCH  42  56
BRANCH  43  67
ATOM     67  C   UNL A   1      42.861  24.212  27.417  1.00  0.00     0.064 A 
ATOM     68  C   UNL A   1      43.161  24.097  26.052  1.00  0.00     0.173 A 
ATOM     69  C   UNL A   1      42.500  23.043  28.104  1.00  0.00     0.173 A 
ATOM     70  F   UNL A   1      43.489  25.190  25.345  1.00  0.00    -0.203 F 
ATOM     71  C   UNL A   1      43.080  22.871  25.396  1.00  0.00     0.198 A 
ATOM     72  C   UNL A   1      42.452  21.812  27.454  1.00  0.00     0.198 A 
ATOM     73  F   UNL A   1      42.205  23.096  29.412  1.00  0.00    -0.203 F 
ATOM     74  F   UNL A   1      43.321  22.801  24.080  1.00  0.00    -0.200 F 
ATOM     75  C   UNL A   1      42.732  21.727  26.099  1.00  0.00     0.200 A 
ATOM     76  F   UNL A   1      42.129  20.707  28.141  1.00  0.00    -0.200 F 
ATOM     77  F   UNL A   1      42.656  20.548  25.469  1.00  0.00    -0.200 F 
ENDBRANCH  43  67
BRANCH  55  78
ATOM     78  C   UNL A   1      47.966  27.801  30.518  1.00  0.00     0.064 A 
ATOM     79  C   UNL A   1      48.951  28.116  29.570  1.00  0.00     0.173 A 
ATOM     80  C   UNL A   1      48.383  27.223  31.728  1.00  0.00     0.173 A 
ATOM     81  F   UNL A   1      48.606  28.654  28.391  1.00  0.00    -0.203 F 
ATOM     82  C   UNL A   1      50.294  27.838  29.812  1.00  0.00     0.198 A 
ATOM     83  C   UNL A   1      49.730  26.979  31.980  1.00  0.00     0.198 A 
ATOM     84  F   UNL A   1      47.484  26.908  32.672  1.00  0.00    -0.203 F 
ATOM     85  F   UNL A   1      51.211  28.098  28.869  1.00  0.00    -0.200 F 
ATOM     86  C   UNL A   1      50.683  27.277  31.019  1.00  0.00     0.200 A 
ATOM     87  F   UNL A   1      50.106  26.452  33.154  1.00  0.00    -0.200 F 
ATOM     88  F   UNL A   1      51.977  27.019  31.255  1.00  0.00    -0.200 F 
ENDBRANCH  55  78
ENDBRANCH  29  30
ENDBRANCH  21  24
ENDBRANCH  19  20
ENDBRANCH   1  19
TORSDOF 12
ENDMDL
MODEL 3
REMARK VINA RESULT:      -9.7      1.593      2.988
REMARK SMILES O=C(/C=C/Nc1cc(Cl)ccc1Cl)NCCCNC(=O)c1ccc(-c2c3nc(c(-c4c(F)c(F)c(F)c(F)c4F)c4ccc([nH]4)c(-c4c(F)c(F)c(F)c(F)c4F)c4nc(c(-c5c(F)c(F)c(F)c(F)c5F)c5ccc2[nH]5)C=C4)C=C3)cc1
REMARK SMILES IDX 16 1 15 2 14 3 1 4 2 5 3 7 4 8 5 9 6 11 7 12 12 13 8 14
REMARK SMILES IDX 11 15 13 16 9 17 10 18 17 19 18 20 19 21 20 23 21 24 22 25
REMARK SMILES IDX 83 26 23 27 82 28 24 29 25 30 26 31 76 32 27 33 81 34 75 35
REMARK SMILES IDX 77 36 28 37 80 38 74 39 73 40 29 42 61 43 41 44 60 45 42 46
REMARK SMILES IDX 45 47 59 48 78 49 43 50 44 51 58 53 79 54 46 55 30 56 31 57
REMARK SMILES IDX 39 58 32 59 33 60 37 61 40 62 34 63 35 64 38 65 36 66 62 67
REMARK SMILES IDX 63 68 71 69 64 70 65 71 69 72 72 73 66 74 67 75 70 76 68 77
REMARK SMILES IDX 47 78 48 79 56 80 49 81 50 82 54 83 57 84 51 85 52 86 55 87
REMARK SMILES IDX 53 88
REMARK H PARENT 14 6 5 10 18 22 77 41 45 52
REMARK Flexibility Score: inf
ROOT
ATOM      1  C   UNL A   1      34.702  34.684  27.885  1.00  0.00     0.042 C 
ENDROOT
BRANCH   1   2
ATOM      2  C   UNL A   1      33.864  35.589  28.782  1.00  0.00     0.118 C 
BRANCH   2   3
ATOM      3  N   UNL A   1      34.017  35.281  30.191  1.00  0.00    -0.352 N 
ATOM      4  O   UNL A   1      32.274  36.585  30.924  1.00  0.00    -0.270 OA
ATOM      5  C   UNL A   1      33.197  35.813  31.153  1.00  0.00     0.245 C 
ATOM      6  H   UNL A   1      34.736  34.665  30.466  1.00  0.00     0.163 HD
BRANCH   5   7
ATOM      7  C   UNL A   1      33.425  35.327  32.538  1.00  0.00     0.089 C 
ATOM      8  C   UNL A   1      34.532  34.702  32.960  1.00  0.00     0.088 C 
BRANCH   8   9
ATOM      9  N   UNL A   1      34.744  34.189  34.214  1.00  0.00    -0.360 N 
ATOM     10  H   UNL A   1      33.996  34.274  34.847  1.00  0.00     0.166 HD
BRANCH   9  11
ATOM     11  C   UNL A   1      35.903  33.552  34.710  1.00  0.00     0.058 A 
ATOM     12  C   UNL A   1      36.517  33.954  35.905  1.00  0.00     0.048 A 
ATOM     13  C   UNL A   1      36.528  32.533  33.958  1.00  0.00     0.064 A 
ATOM     14  C   UNL A   1      37.707  33.361  36.331  1.00  0.00     0.043 A 
ATOM     15  C   UNL A   1      37.726  31.950  34.381  1.00  0.00     0.024 A 
ATOM     16  Cl  UNL A   1      35.840  31.991  32.465  1.00  0.00    -0.082 Cl
ATOM     17  Cl  UNL A   1      38.428  33.869  37.809  1.00  0.00    -0.084 Cl
ATOM     18  C   UNL A   1      38.318  32.367  35.572  1.00  0.00     0.022 A 
ENDBRANCH   9  11
ENDBRANCH   8   9
ENDBRANCH   5   7
ENDBRANCH   2   3
ENDBRANCH   1   2
BRANCH   1  19
ATOM     19  C   UNL A   1      35.004  33.307  28.470  1.00  0.00     0.118 C 
BRANCH  19  20
ATOM     20  N   UNL A   1      34.139  32.255  27.954  1.00  0.00    -0.352 N 
ATOM     21  C   UNL A   1      34.375  30.913  27.769  1.00  0.00     0.251 C 
ATOM     22  H   UNL A   1      33.238  32.553  27.694  1.00  0.00     0.163 HD
ATOM     23  O   UNL A   1      33.534  30.224  27.197  1.00  0.00    -0.269 OA
BRANCH  21  24
ATOM     24  C   UNL A   1      35.643  30.294  28.215  1.00  0.00     0.039 A 
ATOM     25  C   UNL A   1      36.725  30.276  27.330  1.00  0.00     0.014 A 
ATOM     26  C   UNL A   1      35.773  29.727  29.485  1.00  0.00     0.014 A 
ATOM     27  C   UNL A   1      37.960  29.774  27.748  1.00  0.00     0.010 A 
ATOM     28  C   UNL A   1      37.023  29.292  29.925  1.00  0.00     0.010 A 
ATOM     29  C   UNL A   1      38.133  29.326  29.068  1.00  0.00    -0.014 A 
BRANCH  29  30
ATOM     30  C   UNL A   1      39.475  28.939  29.580  1.00  0.00     0.031 A 
ATOM     31  C   UNL A   1      40.210  29.821  30.549  1.00  0.00     0.074 A 
ATOM     32  C   UNL A   1      40.064  27.822  29.109  1.00  0.00     0.049 A 
ATOM     33  N   UNL A   1      41.421  29.691  31.032  1.00  0.00    -0.248 NA
ATOM     34  C   UNL A   1      39.501  31.019  31.022  1.00  0.00     0.031 C 
ATOM     35  C   UNL A   1      39.473  26.900  28.139  1.00  0.00     0.029 A 
ATOM     36  N   UNL A   1      41.299  27.280  29.370  1.00  0.00    -0.354 N 
ATOM     37  C   UNL A   1      41.620  30.791  31.856  1.00  0.00     0.074 A 
ATOM     38  C   UNL A   1      40.425  31.604  31.769  1.00  0.00     0.031 C 
ATOM     39  C   UNL A   1      40.335  25.900  27.899  1.00  0.00     0.029 A 
ATOM     40  C   UNL A   1      41.558  26.133  28.658  1.00  0.00     0.049 A 
ATOM     41  H   UNL A   1      41.937  27.675  30.007  1.00  0.00     0.167 HD
ATOM     42  C   UNL A   1      42.695  31.085  32.628  1.00  0.00     0.037 A 
ATOM     43  C   UNL A   1      42.665  25.367  28.605  1.00  0.00     0.037 A 
ATOM     44  C   UNL A   1      43.878  30.269  32.719  1.00  0.00     0.049 A 
ATOM     45  C   UNL A   1      43.859  25.741  29.440  1.00  0.00     0.074 A 
ATOM     46  C   UNL A   1      44.995  30.456  33.516  1.00  0.00     0.029 A 
ATOM     47  N   UNL A   1      44.107  29.118  31.980  1.00  0.00    -0.354 N 
ATOM     48  N   UNL A   1      44.010  26.745  30.269  1.00  0.00    -0.248 NA
ATOM     49  C   UNL A   1      45.039  24.871  29.335  1.00  0.00     0.031 C 
ATOM     50  C   UNL A   1      45.923  29.453  33.215  1.00  0.00     0.029 A 
ATOM     51  C   UNL A   1      45.360  28.604  32.277  1.00  0.00     0.049 A 
ATOM     52  H   UNL A   1      43.471  28.723  31.339  1.00  0.00     0.167 HD
ATOM     53  C   UNL A   1      45.286  26.615  30.800  1.00  0.00     0.074 A 
ATOM     54  C   UNL A   1      45.862  25.421  30.216  1.00  0.00     0.031 C 
ATOM     55  C   UNL A   1      45.925  27.415  31.689  1.00  0.00     0.037 A 
BRANCH  42  56
ATOM     56  C   UNL A   1      42.646  32.352  33.435  1.00  0.00     0.064 A 
ATOM     57  C   UNL A   1      43.135  33.567  32.931  1.00  0.00     0.173 A 
ATOM     58  C   UNL A   1      42.061  32.361  34.710  1.00  0.00     0.173 A 
ATOM     59  F   UNL A   1      43.710  33.613  31.720  1.00  0.00    -0.203 F 
ATOM     60  C   UNL A   1      43.067  34.736  33.684  1.00  0.00     0.198 A 
ATOM     61  C   UNL A   1      41.966  33.539  35.448  1.00  0.00     0.198 A 
ATOM     62  F   UNL A   1      41.570  31.230  35.239  1.00  0.00    -0.203 F 
ATOM     63  F   UNL A   1      43.586  35.874  33.202  1.00  0.00    -0.200 F 
ATOM     64  C   UNL A   1      42.476  34.723  34.939  1.00  0.00     0.200 A 
ATOM     65  F   UNL A   1      41.379  33.527  36.653  1.00  0.00    -0.200 F 
ATOM     66  F   UNL A   1      42.403  35.851  35.659  1.00  0.00    -0.200 F 
ENDBRANCH  42  56
BRANCH  43  67
ATOM     67  C   UNL A   1      42.697  24.165  27.729  1.00  0.00     0.064 A 
ATOM     68  C   UNL A   1      42.405  22.893  28.239  1.00  0.00     0.173 A 
ATOM     69  C   UNL A   1      43.033  24.260  26.370  1.00  0.00     0.173 A 
ATOM     70  F   UNL A   1      42.101  22.747  29.538  1.00  0.00    -0.203 F 
ATOM     71  C   UNL A   1      42.470  21.760  27.431  1.00  0.00     0.198 A 
ATOM     72  C   UNL A   1      43.066  23.130  25.556  1.00  0.00     0.198 A 
ATOM     73  F   UNL A   1      43.320  25.454  25.830  1.00  0.00    -0.203 F 
ATOM     74  F   UNL A   1      42.238  20.550  27.959  1.00  0.00    -0.200 F 
ATOM     75  C   UNL A   1      42.794  21.880  26.088  1.00  0.00     0.200 A 
ATOM     76  F   UNL A   1      43.365  23.253  24.255  1.00  0.00    -0.200 F 
ATOM     77  F   UNL A   1      42.854  20.790  25.311  1.00  0.00    -0.200 F 
ENDBRANCH  43  67
BRANCH  55  78
ATOM     78  C   UNL A   1      47.310  27.012  32.108  1.00  0.00     0.064 A 
ATOM     79  C   UNL A   1      48.450  27.478  31.436  1.00  0.00     0.173 A 
ATOM     80  C   UNL A   1      47.502  26.175  33.221  1.00  0.00     0.173 A 
ATOM     81  F   UNL A   1      48.322  28.265  30.357  1.00  0.00    -0.203 F 
ATOM     82  C   UNL A   1      49.727  27.100  31.844  1.00  0.00     0.198 A 
ATOM     83  C   UNL A   1      48.781  25.829  33.645  1.00  0.00     0.198 A 
ATOM     84  F   UNL A   1      46.447  25.707  33.904  1.00  0.00    -0.203 F 
ATOM     85  F   UNL A   1      50.798  27.515  31.152  1.00  0.00    -0.200 F 
ATOM     86  C   UNL A   1      49.892  26.283  32.952  1.00  0.00     0.200 A 
ATOM     87  F   UNL A   1      48.939  25.052  34.726  1.00  0.00    -0.200 F 
ATOM     88  F   UNL A   1      51.122  25.929  33.348  1.00  0.00    -0.200 F 
ENDBRANCH  55  78
ENDBRANCH  29  30
ENDBRANCH  21  24
ENDBRANCH  19  20
ENDBRANCH   1  19
TORSDOF 12
ENDMDL
