MODEL 1
REMARK VINA RESULT:     -11.7      0.000      0.000
REMARK SMILES C=C(C)CN(CC)c1ccc(F)cc1C(=O)NCCCNC(=O)c1ccc(-c2c3nc(c(-c4c(F)c(F)c(F)c(F)c4F)c4ccc([nH]4)c(-c4c(F)c(F)c(F)c(F)c4F)c4nc(c(-c5c(F)c(F)c(F)c(F)c5F)c5ccc2[nH]5)C=C4)C=C3)cc1
REMARK SMILES IDX 18 1 17 2 15 3 16 4 14 6 8 7 9 8 10 9 13 10 11 11 12 12 5 13
REMARK SMILES IDX 4 14 2 15 1 16 3 17 6 18 7 19 19 20 20 21 21 22 22 23 23 25
REMARK SMILES IDX 24 26 25 27 86 28 26 29 85 30 27 31 28 32 29 33 79 34 30 35
REMARK SMILES IDX 84 36 78 37 80 38 31 39 83 40 77 41 76 42 32 44 64 45 44 46
REMARK SMILES IDX 63 47 45 48 48 49 62 50 81 51 46 52 47 53 61 55 82 56 49 57
REMARK SMILES IDX 33 58 34 59 42 60 35 61 36 62 40 63 43 64 37 65 38 66 41 67
REMARK SMILES IDX 39 68 65 69 66 70 74 71 67 72 68 73 72 74 75 75 69 76 70 77
REMARK SMILES IDX 73 78 71 79 50 80 51 81 59 82 52 83 53 84 57 85 60 86 54 87
REMARK SMILES IDX 55 88 58 89 56 90
REMARK H PARENT 17 5 21 24 80 43 48 54
REMARK Flexibility Score: inf
ROOT
ATOM      1  C   UNL A   1      32.272  27.797  27.057  1.00  0.00     0.118 C 
ENDROOT
BRANCH   1   2
ATOM      2  N   UNL A   1      31.285  26.759  26.993  1.00  0.00    -0.352 N 
ATOM      3  C   UNL A   1      31.441  25.476  26.538  1.00  0.00     0.253 C 
ATOM      4  O   UNL A   1      30.486  24.710  26.690  1.00  0.00    -0.269 OA
ATOM      5  H   UNL A   1      30.385  26.997  27.313  1.00  0.00     0.163 HD
BRANCH   3   6
ATOM      6  C   UNL A   1      32.638  24.992  25.787  1.00  0.00     0.066 A 
ATOM      7  C   UNL A   1      33.249  25.558  24.636  1.00  0.00     0.050 A 
ATOM      8  C   UNL A   1      34.472  24.984  24.213  1.00  0.00     0.030 A 
ATOM      9  C   UNL A   1      35.047  23.884  24.849  1.00  0.00     0.041 A 
ATOM     10  C   UNL A   1      33.240  23.885  26.427  1.00  0.00     0.055 A 
ATOM     11  C   UNL A   1      34.421  23.340  25.951  1.00  0.00     0.124 A 
ATOM     12  F   UNL A   1      34.970  22.293  26.578  1.00  0.00    -0.207 F 
BRANCH   7  13
ATOM     13  N   UNL A   1      32.774  26.660  23.925  1.00  0.00    -0.367 N 
BRANCH  13  14
ATOM     14  C   UNL A   1      31.582  26.517  23.065  1.00  0.00     0.146 C 
BRANCH  14  15
ATOM     15  C   UNL A   1      30.354  27.267  23.516  1.00  0.00    -0.061 C 
ATOM     16  C   UNL A   1      30.311  28.601  23.659  1.00  0.00     0.009 C 
ATOM     17  C   UNL A   1      29.183  26.399  23.900  1.00  0.00     0.041 C 
ENDBRANCH  14  15
ENDBRANCH  13  14
BRANCH  13  18
ATOM     18  C   UNL A   1      33.698  27.767  23.644  1.00  0.00     0.113 C 
ATOM     19  C   UNL A   1      33.822  28.090  22.162  1.00  0.00     0.027 C 
ENDBRANCH  13  18
ENDBRANCH   7  13
ENDBRANCH   3   6
ENDBRANCH   1   2
BRANCH   1  20
ATOM     20  C   UNL A   1      31.735  29.201  27.218  1.00  0.00     0.042 C 
BRANCH  20  21
ATOM     21  C   UNL A   1      32.421  30.231  26.330  1.00  0.00     0.118 C 
BRANCH  21  22
ATOM     22  N   UNL A   1      32.460  31.590  26.868  1.00  0.00    -0.352 N 
ATOM     23  C   UNL A   1      33.420  32.308  27.548  1.00  0.00     0.251 C 
ATOM     24  H   UNL A   1      31.630  32.096  26.711  1.00  0.00     0.163 HD
ATOM     25  O   UNL A   1      33.164  33.447  27.918  1.00  0.00    -0.269 OA
BRANCH  23  26
ATOM     26  C   UNL A   1      34.724  31.702  27.910  1.00  0.00     0.039 A 
ATOM     27  C   UNL A   1      35.847  32.528  28.028  1.00  0.00     0.014 A 
ATOM     28  C   UNL A   1      34.853  30.346  28.178  1.00  0.00     0.014 A 
ATOM     29  C   UNL A   1      37.037  32.016  28.554  1.00  0.00     0.010 A 
ATOM     30  C   UNL A   1      35.970  29.879  28.859  1.00  0.00     0.010 A 
ATOM     31  C   UNL A   1      37.081  30.707  29.062  1.00  0.00    -0.014 A 
BRANCH  31  32
ATOM     32  C   UNL A   1      38.254  30.183  29.813  1.00  0.00     0.031 A 
ATOM     33  C   UNL A   1      38.503  30.610  31.237  1.00  0.00     0.074 A 
ATOM     34  C   UNL A   1      39.156  29.400  29.186  1.00  0.00     0.049 A 
ATOM     35  N   UNL A   1      39.540  30.378  32.003  1.00  0.00    -0.248 NA
ATOM     36  C   UNL A   1      37.478  31.458  31.866  1.00  0.00     0.031 C 
ATOM     37  C   UNL A   1      39.087  28.972  27.787  1.00  0.00     0.029 A 
ATOM     38  N   UNL A   1      40.313  28.821  29.647  1.00  0.00    -0.354 N 
ATOM     39  C   UNL A   1      39.307  31.083  33.177  1.00  0.00     0.074 A 
ATOM     40  C   UNL A   1      38.071  31.810  32.996  1.00  0.00     0.031 C 
ATOM     41  C   UNL A   1      40.111  28.147  27.525  1.00  0.00     0.029 A 
ATOM     42  C   UNL A   1      40.941  28.027  28.718  1.00  0.00     0.049 A 
ATOM     43  H   UNL A   1      40.661  28.961  30.557  1.00  0.00     0.167 HD
ATOM     44  C   UNL A   1      40.033  31.095  34.320  1.00  0.00     0.037 A 
ATOM     45  C   UNL A   1      42.055  27.277  28.817  1.00  0.00     0.037 A 
ATOM     46  C   UNL A   1      41.225  30.317  34.528  1.00  0.00     0.049 A 
ATOM     47  C   UNL A   1      42.814  27.259  30.113  1.00  0.00     0.074 A 
ATOM     48  C   UNL A   1      41.997  30.208  35.670  1.00  0.00     0.029 A 
ATOM     49  N   UNL A   1      41.804  29.494  33.573  1.00  0.00    -0.354 N 
ATOM     50  N   UNL A   1      42.565  27.904  31.226  1.00  0.00    -0.248 NA
ATOM     51  C   UNL A   1      44.010  26.406  30.167  1.00  0.00     0.031 C 
ATOM     52  C   UNL A   1      43.057  29.337  35.400  1.00  0.00     0.029 A 
ATOM     53  C   UNL A   1      42.923  28.873  34.101  1.00  0.00     0.049 A 
ATOM     54  H   UNL A   1      41.469  29.369  32.654  1.00  0.00     0.167 HD
ATOM     55  C   UNL A   1      43.558  27.525  32.117  1.00  0.00     0.074 A 
ATOM     56  C   UNL A   1      44.405  26.579  31.421  1.00  0.00     0.031 C 
ATOM     57  C   UNL A   1      43.753  27.930  33.395  1.00  0.00     0.037 A 
BRANCH  44  58
ATOM     58  C   UNL A   1      39.533  31.951  35.448  1.00  0.00     0.064 A 
ATOM     59  C   UNL A   1      39.999  33.264  35.611  1.00  0.00     0.173 A 
ATOM     60  C   UNL A   1      38.607  31.463  36.383  1.00  0.00     0.173 A 
ATOM     61  F   UNL A   1      40.889  33.781  34.751  1.00  0.00    -0.203 F 
ATOM     62  C   UNL A   1      39.552  34.057  36.668  1.00  0.00     0.198 A 
ATOM     63  C   UNL A   1      38.138  32.269  37.417  1.00  0.00     0.198 A 
ATOM     64  F   UNL A   1      38.120  30.219  36.263  1.00  0.00    -0.203 F 
ATOM     65  F   UNL A   1      40.024  35.302  36.815  1.00  0.00    -0.200 F 
ATOM     66  C   UNL A   1      38.615  33.562  37.563  1.00  0.00     0.200 A 
ATOM     67  F   UNL A   1      37.209  31.798  38.260  1.00  0.00    -0.200 F 
ATOM     68  F   UNL A   1      38.166  34.334  38.561  1.00  0.00    -0.200 F 
ENDBRANCH  44  58
BRANCH  45  69
ATOM     69  C   UNL A   1      42.469  26.424  27.674  1.00  0.00     0.064 A 
ATOM     70  C   UNL A   1      41.941  25.141  27.479  1.00  0.00     0.173 A 
ATOM     71  C   UNL A   1      43.445  26.875  26.774  1.00  0.00     0.173 A 
ATOM     72  F   UNL A   1      41.011  24.662  28.318  1.00  0.00    -0.203 F 
ATOM     73  C   UNL A   1      42.387  24.334  26.434  1.00  0.00     0.198 A 
ATOM     74  C   UNL A   1      43.873  26.076  25.717  1.00  0.00     0.198 A 
ATOM     75  F   UNL A   1      43.965  28.103  26.913  1.00  0.00    -0.203 F 
ATOM     76  F   UNL A   1      41.890  23.097  26.286  1.00  0.00    -0.200 F 
ATOM     77  C   UNL A   1      43.350  24.802  25.553  1.00  0.00     0.200 A 
ATOM     78  F   UNL A   1      44.790  26.540  24.858  1.00  0.00    -0.200 F 
ATOM     79  F   UNL A   1      43.773  24.028  24.545  1.00  0.00    -0.200 F 
ENDBRANCH  45  69
BRANCH  57  80
ATOM     80  C   UNL A   1      44.915  27.340  34.136  1.00  0.00     0.064 A 
ATOM     81  C   UNL A   1      46.175  27.953  34.085  1.00  0.00     0.173 A 
ATOM     82  C   UNL A   1      44.794  26.138  34.847  1.00  0.00     0.173 A 
ATOM     83  F   UNL A   1      46.343  29.101  33.411  1.00  0.00    -0.203 F 
ATOM     84  C   UNL A   1      47.276  27.378  34.712  1.00  0.00     0.198 A 
ATOM     85  C   UNL A   1      45.892  25.579  35.495  1.00  0.00     0.198 A 
ATOM     86  F   UNL A   1      43.606  25.521  34.936  1.00  0.00    -0.203 F 
ATOM     87  F   UNL A   1      48.477  27.967  34.629  1.00  0.00    -0.200 F 
ATOM     88  C   UNL A   1      47.133  26.194  35.421  1.00  0.00     0.200 A 
ATOM     89  F   UNL A   1      45.747  24.448  36.200  1.00  0.00    -0.200 F 
ATOM     90  F   UNL A   1      48.191  25.650  36.037  1.00  0.00    -0.200 F 
ENDBRANCH  57  80
ENDBRANCH  31  32
ENDBRANCH  23  26
ENDBRANCH  21  22
ENDBRANCH  20  21
ENDBRANCH   1  20
TORSDOF 14
ENDMDL
MODEL 2
REMARK VINA RESULT:     -11.7      1.361      2.691
REMARK SMILES C=C(C)CN(CC)c1ccc(F)cc1C(=O)NCCCNC(=O)c1ccc(-c2c3nc(c(-c4c(F)c(F)c(F)c(F)c4F)c4ccc([nH]4)c(-c4c(F)c(F)c(F)c(F)c4F)c4nc(c(-c5c(F)c(F)c(F)c(F)c5F)c5ccc2[nH]5)C=C4)C=C3)cc1
REMARK SMILES IDX 18 1 17 2 15 3 16 4 14 6 8 7 9 8 10 9 13 10 11 11 12 12 5 13
REMARK SMILES IDX 4 14 2 15 1 16 3 17 6 18 7 19 19 20 20 21 21 22 22 23 23 25
REMARK SMILES IDX 24 26 25 27 86 28 26 29 85 30 27 31 28 32 29 33 79 34 30 35
REMARK SMILES IDX 84 36 78 37 80 38 31 39 83 40 77 41 76 42 32 44 64 45 44 46
REMARK SMILES IDX 63 47 45 48 48 49 62 50 81 51 46 52 47 53 61 55 82 56 49 57
REMARK SMILES IDX 33 58 34 59 42 60 35 61 36 62 40 63 43 64 37 65 38 66 41 67
REMARK SMILES IDX 39 68 65 69 66 70 74 71 67 72 68 73 72 74 75 75 69 76 70 77
REMARK SMILES IDX 73 78 71 79 50 80 51 81 59 82 52 83 53 84 57 85 60 86 54 87
REMARK SMILES IDX 55 88 58 89 56 90
REMARK H PARENT 17 5 21 24 80 43 48 54
REMARK Flexibility Score: inf
ROOT
ATOM      1  C   UNL A   1      32.113  27.882  27.040  1.00  0.00     0.118 C 
ENDROOT
BRANCH   1   2
ATOM      2  N   UNL A   1      31.049  26.924  27.133  1.00  0.00    -0.352 N 
ATOM      3  C   UNL A   1      30.627  26.040  26.175  1.00  0.00     0.253 C 
ATOM      4  O   UNL A   1      29.772  25.218  26.514  1.00  0.00    -0.269 OA
ATOM      5  H   UNL A   1      30.562  26.900  27.989  1.00  0.00     0.163 HD
BRANCH   3   6
ATOM      6  C   UNL A   1      31.055  26.085  24.745  1.00  0.00     0.066 A 
ATOM      7  C   UNL A   1      31.850  25.150  24.030  1.00  0.00     0.050 A 
ATOM      8  C   UNL A   1      31.979  25.353  22.636  1.00  0.00     0.030 A 
ATOM      9  C   UNL A   1      31.401  26.438  21.976  1.00  0.00     0.041 A 
ATOM     10  C   UNL A   1      30.466  27.172  24.060  1.00  0.00     0.055 A 
ATOM     11  C   UNL A   1      30.651  27.343  22.698  1.00  0.00     0.124 A 
ATOM     12  F   UNL A   1      30.080  28.380  22.075  1.00  0.00    -0.207 F 
BRANCH   7  13
ATOM     13  N   UNL A   1      32.468  24.026  24.578  1.00  0.00    -0.367 N 
BRANCH  13  14
ATOM     14  C   UNL A   1      31.699  22.777  24.747  1.00  0.00     0.146 C 
BRANCH  14  15
ATOM     15  C   UNL A   1      32.157  21.606  23.915  1.00  0.00    -0.061 C 
ATOM     16  C   UNL A   1      32.167  21.611  22.572  1.00  0.00     0.009 C 
ATOM     17  C   UNL A   1      32.516  20.369  24.698  1.00  0.00     0.041 C 
ENDBRANCH  14  15
ENDBRANCH  13  14
BRANCH  13  18
ATOM     18  C   UNL A   1      33.663  24.216  25.412  1.00  0.00     0.113 C 
ATOM     19  C   UNL A   1      34.954  24.292  24.609  1.00  0.00     0.027 C 
ENDBRANCH  13  18
ENDBRANCH   7  13
ENDBRANCH   3   6
ENDBRANCH   1   2
BRANCH   1  20
ATOM     20  C   UNL A   1      31.713  29.324  27.253  1.00  0.00     0.042 C 
BRANCH  20  21
ATOM     21  C   UNL A   1      32.479  30.313  26.384  1.00  0.00     0.118 C 
BRANCH  21  22
ATOM     22  N   UNL A   1      32.528  31.683  26.892  1.00  0.00    -0.352 N 
ATOM     23  C   UNL A   1      33.490  32.404  27.567  1.00  0.00     0.251 C 
ATOM     24  H   UNL A   1      31.705  32.194  26.717  1.00  0.00     0.163 HD
ATOM     25  O   UNL A   1      33.243  33.555  27.910  1.00  0.00    -0.269 OA
BRANCH  23  26
ATOM     26  C   UNL A   1      34.783  31.793  27.954  1.00  0.00     0.039 A 
ATOM     27  C   UNL A   1      35.878  32.625  28.210  1.00  0.00     0.014 A 
ATOM     28  C   UNL A   1      34.927  30.421  28.113  1.00  0.00     0.014 A 
ATOM     29  C   UNL A   1      37.046  32.090  28.763  1.00  0.00     0.010 A 
ATOM     30  C   UNL A   1      36.011  29.916  28.818  1.00  0.00     0.010 A 
ATOM     31  C   UNL A   1      37.089  30.743  29.158  1.00  0.00    -0.014 A 
BRANCH  31  32
ATOM     32  C   UNL A   1      38.228  30.177  29.932  1.00  0.00     0.031 A 
ATOM     33  C   UNL A   1      38.456  30.584  31.365  1.00  0.00     0.074 A 
ATOM     34  C   UNL A   1      39.119  29.371  29.320  1.00  0.00     0.049 A 
ATOM     35  N   UNL A   1      39.467  30.313  32.154  1.00  0.00    -0.248 NA
ATOM     36  C   UNL A   1      37.443  31.458  31.978  1.00  0.00     0.031 C 
ATOM     37  C   UNL A   1      39.070  28.957  27.916  1.00  0.00     0.029 A 
ATOM     38  N   UNL A   1      40.247  28.752  29.802  1.00  0.00    -0.354 N 
ATOM     39  C   UNL A   1      39.228  31.016  33.328  1.00  0.00     0.074 A 
ATOM     40  C   UNL A   1      38.020  31.782  33.125  1.00  0.00     0.031 C 
ATOM     41  C   UNL A   1      40.074  28.103  27.670  1.00  0.00     0.029 A 
ATOM     42  C   UNL A   1      40.872  27.947  28.881  1.00  0.00     0.049 A 
ATOM     43  H   UNL A   1      40.577  28.874  30.721  1.00  0.00     0.167 HD
ATOM     44  C   UNL A   1      39.927  30.996  34.488  1.00  0.00     0.037 A 
ATOM     45  C   UNL A   1      41.959  27.162  29.000  1.00  0.00     0.037 A 
ATOM     46  C   UNL A   1      41.089  30.179  34.716  1.00  0.00     0.049 A 
ATOM     47  C   UNL A   1      42.687  27.109  30.313  1.00  0.00     0.074 A 
ATOM     48  C   UNL A   1      41.830  30.037  35.875  1.00  0.00     0.029 A 
ATOM     49  N   UNL A   1      41.665  29.346  33.768  1.00  0.00    -0.354 N 
ATOM     50  N   UNL A   1      42.431  27.753  31.425  1.00  0.00    -0.248 NA
ATOM     51  C   UNL A   1      43.854  26.219  30.387  1.00  0.00     0.031 C 
ATOM     52  C   UNL A   1      42.868  29.135  35.622  1.00  0.00     0.029 A 
ATOM     53  C   UNL A   1      42.751  28.686  34.317  1.00  0.00     0.049 A 
ATOM     54  H   UNL A   1      41.347  29.240  32.841  1.00  0.00     0.167 HD
ATOM     55  C   UNL A   1      43.391  27.336  32.336  1.00  0.00     0.074 A 
ATOM     56  C   UNL A   1      44.225  26.369  31.652  1.00  0.00     0.031 C 
ATOM     57  C   UNL A   1      43.567  27.724  33.622  1.00  0.00     0.037 A 
BRANCH  44  58
ATOM     58  C   UNL A   1      39.427  31.858  35.612  1.00  0.00     0.064 A 
ATOM     59  C   UNL A   1      38.484  31.367  36.526  1.00  0.00     0.173 A 
ATOM     60  C   UNL A   1      39.868  33.181  35.770  1.00  0.00     0.173 A 
ATOM     61  F   UNL A   1      38.025  30.112  36.419  1.00  0.00    -0.203 F 
ATOM     62  C   UNL A   1      38.005  32.169  37.561  1.00  0.00     0.198 A 
ATOM     63  C   UNL A   1      39.412  33.968  36.824  1.00  0.00     0.198 A 
ATOM     64  F   UNL A   1      40.780  33.693  34.930  1.00  0.00    -0.203 F 
ATOM     65  F   UNL A   1      37.091  31.685  38.412  1.00  0.00    -0.200 F 
ATOM     66  C   UNL A   1      38.476  33.465  37.714  1.00  0.00     0.200 A 
ATOM     67  F   UNL A   1      39.894  35.208  36.988  1.00  0.00    -0.200 F 
ATOM     68  F   UNL A   1      38.035  34.225  38.724  1.00  0.00    -0.200 F 
ENDBRANCH  44  58
BRANCH  45  69
ATOM     69  C   UNL A   1      42.374  26.306  27.859  1.00  0.00     0.064 A 
ATOM     70  C   UNL A   1      43.319  26.734  26.918  1.00  0.00     0.173 A 
ATOM     71  C   UNL A   1      41.787  25.046  27.672  1.00  0.00     0.173 A 
ATOM     72  F   UNL A   1      43.901  27.935  27.049  1.00  0.00    -0.203 F 
ATOM     73  C   UNL A   1      43.650  25.939  25.822  1.00  0.00     0.198 A 
ATOM     74  C   UNL A   1      42.135  24.244  26.589  1.00  0.00     0.198 A 
ATOM     75  F   UNL A   1      40.890  24.589  28.557  1.00  0.00    -0.203 F 
ATOM     76  F   UNL A   1      44.533  26.384  24.917  1.00  0.00    -0.200 F 
ATOM     77  C   UNL A   1      43.060  24.695  25.659  1.00  0.00     0.200 A 
ATOM     78  F   UNL A   1      41.576  23.034  26.447  1.00  0.00    -0.200 F 
ATOM     79  F   UNL A   1      43.384  23.929  24.609  1.00  0.00    -0.200 F 
ENDBRANCH  45  69
BRANCH  57  80
ATOM     80  C   UNL A   1      44.693  27.091  34.385  1.00  0.00     0.064 A 
ATOM     81  C   UNL A   1      45.972  27.667  34.371  1.00  0.00     0.173 A 
ATOM     82  C   UNL A   1      44.519  25.887  35.080  1.00  0.00     0.173 A 
ATOM     83  F   UNL A   1      46.190  28.816  33.714  1.00  0.00    -0.203 F 
ATOM     84  C   UNL A   1      47.039  27.053  35.019  1.00  0.00     0.198 A 
ATOM     85  C   UNL A   1      45.584  25.288  35.748  1.00  0.00     0.198 A 
ATOM     86  F   UNL A   1      43.311  25.305  35.132  1.00  0.00    -0.203 F 
ATOM     87  F   UNL A   1      48.259  27.607  34.972  1.00  0.00    -0.200 F 
ATOM     88  C   UNL A   1      46.843  25.867  35.711  1.00  0.00     0.200 A 
ATOM     89  F   UNL A   1      45.388  24.155  36.436  1.00  0.00    -0.200 F 
ATOM     90  F   UNL A   1      47.869  25.285  36.346  1.00  0.00    -0.200 F 
ENDBRANCH  57  80
ENDBRANCH  31  32
ENDBRANCH  23  26
ENDBRANCH  21  22
ENDBRANCH  20  21
ENDBRANCH   1  20
TORSDOF 14
ENDMDL
MODEL 3
REMARK VINA RESULT:     -11.6      1.351      2.447
REMARK SMILES C=C(C)CN(CC)c1ccc(F)cc1C(=O)NCCCNC(=O)c1ccc(-c2c3nc(c(-c4c(F)c(F)c(F)c(F)c4F)c4ccc([nH]4)c(-c4c(F)c(F)c(F)c(F)c4F)c4nc(c(-c5c(F)c(F)c(F)c(F)c5F)c5ccc2[nH]5)C=C4)C=C3)cc1
REMARK SMILES IDX 18 1 17 2 15 3 16 4 14 6 8 7 9 8 10 9 13 10 11 11 12 12 5 13
REMARK SMILES IDX 4 14 2 15 1 16 3 17 6 18 7 19 19 20 20 21 21 22 22 23 23 25
REMARK SMILES IDX 24 26 25 27 86 28 26 29 85 30 27 31 28 32 29 33 79 34 30 35
REMARK SMILES IDX 84 36 78 37 80 38 31 39 83 40 77 41 76 42 32 44 64 45 44 46
REMARK SMILES IDX 63 47 45 48 48 49 62 50 81 51 46 52 47 53 61 55 82 56 49 57
REMARK SMILES IDX 33 58 34 59 42 60 35 61 36 62 40 63 43 64 37 65 38 66 41 67
REMARK SMILES IDX 39 68 65 69 66 70 74 71 67 72 68 73 72 74 75 75 69 76 70 77
REMARK SMILES IDX 73 78 71 79 50 80 51 81 59 82 52 83 53 84 57 85 60 86 54 87
REMARK SMILES IDX 55 88 58 89 56 90
REMARK H PARENT 17 5 21 24 80 43 48 54
REMARK Flexibility Score: inf
ROOT
ATOM      1  C   UNL A   1      32.235  28.038  27.077  1.00  0.00     0.118 C 
ENDROOT
BRANCH   1   2
ATOM      2  N   UNL A   1      31.249  27.000  27.166  1.00  0.00    -0.352 N 
ATOM      3  C   UNL A   1      30.780  26.197  26.160  1.00  0.00     0.253 C 
ATOM      4  O   UNL A   1      30.021  25.281  26.486  1.00  0.00    -0.269 OA
ATOM      5  H   UNL A   1      30.862  26.846  28.059  1.00  0.00     0.163 HD
BRANCH   3   6
ATOM      6  C   UNL A   1      31.045  26.429  24.709  1.00  0.00     0.066 A 
ATOM      7  C   UNL A   1      31.879  25.686  23.832  1.00  0.00     0.050 A 
ATOM      8  C   UNL A   1      31.831  26.027  22.459  1.00  0.00     0.030 A 
ATOM      9  C   UNL A   1      31.047  27.072  21.970  1.00  0.00     0.041 A 
ATOM     10  C   UNL A   1      30.247  27.477  24.196  1.00  0.00     0.055 A 
ATOM     11  C   UNL A   1      30.263  27.793  22.848  1.00  0.00     0.124 A 
ATOM     12  F   UNL A   1      29.496  28.788  22.389  1.00  0.00    -0.207 F 
BRANCH   7  13
ATOM     13  N   UNL A   1      32.696  24.617  24.202  1.00  0.00    -0.367 N 
BRANCH  13  14
ATOM     14  C   UNL A   1      32.116  23.266  24.342  1.00  0.00     0.146 C 
BRANCH  14  15
ATOM     15  C   UNL A   1      32.549  22.257  23.310  1.00  0.00    -0.061 C 
ATOM     16  C   UNL A   1      32.903  22.584  22.056  1.00  0.00     0.009 C 
ATOM     17  C   UNL A   1      32.463  20.817  23.751  1.00  0.00     0.041 C 
ENDBRANCH  14  15
ENDBRANCH  13  14
BRANCH  13  18
ATOM     18  C   UNL A   1      33.952  24.905  24.910  1.00  0.00     0.113 C 
ATOM     19  C   UNL A   1      34.101  24.135  26.213  1.00  0.00     0.027 C 
ENDBRANCH  13  18
ENDBRANCH   7  13
ENDBRANCH   3   6
ENDBRANCH   1   2
BRANCH   1  20
ATOM     20  C   UNL A   1      31.717  29.448  27.251  1.00  0.00     0.042 C 
BRANCH  20  21
ATOM     21  C   UNL A   1      32.404  30.474  26.359  1.00  0.00     0.118 C 
BRANCH  21  22
ATOM     22  N   UNL A   1      32.457  31.832  26.899  1.00  0.00    -0.352 N 
ATOM     23  C   UNL A   1      33.420  32.534  27.592  1.00  0.00     0.251 C 
ATOM     24  H   UNL A   1      31.637  32.350  26.732  1.00  0.00     0.163 HD
ATOM     25  O   UNL A   1      33.177  33.677  27.959  1.00  0.00    -0.269 OA
BRANCH  23  26
ATOM     26  C   UNL A   1      34.709  31.908  27.970  1.00  0.00     0.039 A 
ATOM     27  C   UNL A   1      35.818  32.728  28.207  1.00  0.00     0.014 A 
ATOM     28  C   UNL A   1      34.836  30.536  28.138  1.00  0.00     0.014 A 
ATOM     29  C   UNL A   1      36.985  32.181  28.750  1.00  0.00     0.010 A 
ATOM     30  C   UNL A   1      35.922  30.022  28.835  1.00  0.00     0.010 A 
ATOM     31  C   UNL A   1      37.015  30.837  29.157  1.00  0.00    -0.014 A 
BRANCH  31  32
ATOM     32  C   UNL A   1      38.154  30.262  29.922  1.00  0.00     0.031 A 
ATOM     33  C   UNL A   1      38.377  30.643  31.363  1.00  0.00     0.074 A 
ATOM     34  C   UNL A   1      39.050  29.471  29.297  1.00  0.00     0.049 A 
ATOM     35  N   UNL A   1      39.387  30.362  32.149  1.00  0.00    -0.248 NA
ATOM     36  C   UNL A   1      37.359  31.501  31.990  1.00  0.00     0.031 C 
ATOM     37  C   UNL A   1      39.006  29.084  27.885  1.00  0.00     0.029 A 
ATOM     38  N   UNL A   1      40.180  28.849  29.770  1.00  0.00    -0.354 N 
ATOM     39  C   UNL A   1      39.143  31.042  33.335  1.00  0.00     0.074 A 
ATOM     40  C   UNL A   1      37.932  31.806  33.144  1.00  0.00     0.031 C 
ATOM     41  C   UNL A   1      40.015  28.239  27.626  1.00  0.00     0.029 A 
ATOM     42  C   UNL A   1      40.811  28.064  28.836  1.00  0.00     0.049 A 
ATOM     43  H   UNL A   1      40.508  28.956  30.692  1.00  0.00     0.167 HD
ATOM     44  C   UNL A   1      39.839  31.003  34.496  1.00  0.00     0.037 A 
ATOM     45  C   UNL A   1      41.902  27.282  28.942  1.00  0.00     0.037 A 
ATOM     46  C   UNL A   1      41.005  30.188  34.712  1.00  0.00     0.049 A 
ATOM     47  C   UNL A   1      42.627  27.208  30.256  1.00  0.00     0.074 A 
ATOM     48  C   UNL A   1      41.744  30.028  35.869  1.00  0.00     0.029 A 
ATOM     49  N   UNL A   1      41.587  29.375  33.749  1.00  0.00    -0.354 N 
ATOM     50  N   UNL A   1      42.365  27.830  31.379  1.00  0.00    -0.248 NA
ATOM     51  C   UNL A   1      43.798  26.323  30.316  1.00  0.00     0.031 C 
ATOM     52  C   UNL A   1      42.787  29.136  35.602  1.00  0.00     0.029 A 
ATOM     53  C   UNL A   1      42.675  28.711  34.288  1.00  0.00     0.049 A 
ATOM     54  H   UNL A   1      41.272  29.285  32.820  1.00  0.00     0.167 HD
ATOM     55  C   UNL A   1      43.325  27.400  32.284  1.00  0.00     0.074 A 
ATOM     56  C   UNL A   1      44.165  26.450  31.584  1.00  0.00     0.031 C 
ATOM     57  C   UNL A   1      43.497  27.766  33.578  1.00  0.00     0.037 A 
BRANCH  44  58
ATOM     58  C   UNL A   1      39.333  31.842  35.635  1.00  0.00     0.064 A 
ATOM     59  C   UNL A   1      39.780  33.161  35.806  1.00  0.00     0.173 A 
ATOM     60  C   UNL A   1      38.421  31.331  36.571  1.00  0.00     0.173 A 
ATOM     61  F   UNL A   1      40.656  33.698  34.945  1.00  0.00    -0.203 F 
ATOM     62  C   UNL A   1      39.326  33.937  36.872  1.00  0.00     0.198 A 
ATOM     63  C   UNL A   1      37.945  32.120  37.614  1.00  0.00     0.198 A 
ATOM     64  F   UNL A   1      37.953  30.081  36.443  1.00  0.00    -0.203 F 
ATOM     65  F   UNL A   1      39.780  35.188  37.027  1.00  0.00    -0.200 F 
ATOM     66  C   UNL A   1      38.403  33.419  37.768  1.00  0.00     0.200 A 
ATOM     67  F   UNL A   1      37.029  31.628  38.459  1.00  0.00    -0.200 F 
ATOM     68  F   UNL A   1      37.949  34.176  38.776  1.00  0.00    -0.200 F 
ENDBRANCH  44  58
BRANCH  45  69
ATOM     69  C   UNL A   1      42.322  26.450  27.786  1.00  0.00     0.064 A 
ATOM     70  C   UNL A   1      41.786  25.176  27.558  1.00  0.00     0.173 A 
ATOM     71  C   UNL A   1      43.314  26.910  26.908  1.00  0.00     0.173 A 
ATOM     72  F   UNL A   1      40.842  24.688  28.376  1.00  0.00    -0.203 F 
ATOM     73  C   UNL A   1      42.238  24.386  26.502  1.00  0.00     0.198 A 
ATOM     74  C   UNL A   1      43.748  26.130  25.840  1.00  0.00     0.198 A 
ATOM     75  F   UNL A   1      43.843  28.130  27.079  1.00  0.00    -0.203 F 
ATOM     76  F   UNL A   1      41.732  23.158  26.322  1.00  0.00    -0.200 F 
ATOM     77  C   UNL A   1      43.216  24.864  25.643  1.00  0.00     0.200 A 
ATOM     78  F   UNL A   1      44.680  26.603  25.002  1.00  0.00    -0.200 F 
ATOM     79  F   UNL A   1      43.645  24.107  24.625  1.00  0.00    -0.200 F 
ENDBRANCH  45  69
BRANCH  57  80
ATOM     80  C   UNL A   1      44.624  27.124  34.331  1.00  0.00     0.064 A 
ATOM     81  C   UNL A   1      44.419  25.925  35.029  1.00  0.00     0.173 A 
ATOM     82  C   UNL A   1      45.888  27.725  34.409  1.00  0.00     0.173 A 
ATOM     83  F   UNL A   1      43.225  25.314  34.990  1.00  0.00    -0.203 F 
ATOM     84  C   UNL A   1      45.439  25.355  35.786  1.00  0.00     0.198 A 
ATOM     85  C   UNL A   1      46.913  27.140  35.147  1.00  0.00     0.198 A 
ATOM     86  F   UNL A   1      46.135  28.866  33.747  1.00  0.00    -0.203 F 
ATOM     87  F   UNL A   1      45.214  24.222  36.466  1.00  0.00    -0.200 F 
ATOM     88  C   UNL A   1      46.686  25.960  35.840  1.00  0.00     0.200 A 
ATOM     89  F   UNL A   1      48.124  27.712  35.179  1.00  0.00    -0.200 F 
ATOM     90  F   UNL A   1      47.670  25.403  36.558  1.00  0.00    -0.200 F 
ENDBRANCH  57  80
ENDBRANCH  31  32
ENDBRANCH  23  26
ENDBRANCH  21  22
ENDBRANCH  20  21
ENDBRANCH   1  20
TORSDOF 14
ENDMDL
