MODEL 1
REMARK VINA RESULT:     -10.2      0.000      0.000
REMARK SMILES C[C@H]1[C@@H](C(=O)NCCCNC(=O)c2ccc(-c3c4nc(c(-c5c(F)c(F)c(F)c(F)c5F)c5ccc([nH]5)c(-c5c(F)c(F)c(F)c(F)c5F)c5nc(c(-c6c(F)c(F)c(F)c(F)c6F)c6ccc3[nH]6)C=C5)C=C4)cc2)CC[N@@H+]1CC(F)(F)F
REMARK SMILES IDX 8 1 7 2 6 3 4 4 5 5 3 7 1 8 2 9 78 10 76 11 77 12 79 14
REMARK SMILES IDX 80 15 81 16 82 17 83 18 9 19 10 20 11 21 12 23 13 24 14 25
REMARK SMILES IDX 75 26 15 27 74 28 16 29 17 30 18 31 68 32 19 33 73 34 67 35
REMARK SMILES IDX 69 36 20 37 72 38 66 39 65 40 21 42 53 43 33 44 52 45 34 46
REMARK SMILES IDX 37 47 51 48 70 49 35 50 36 51 50 53 71 54 38 55 22 56 23 57
REMARK SMILES IDX 31 58 24 59 25 60 29 61 32 62 26 63 27 64 30 65 28 66 54 67
REMARK SMILES IDX 55 68 63 69 56 70 57 71 61 72 64 73 58 74 59 75 62 76 60 77
REMARK SMILES IDX 39 78 40 79 48 80 41 81 42 82 46 83 49 84 43 85 44 86 47 87
REMARK SMILES IDX 45 88
REMARK H PARENT 6 6 78 13 10 22 69 41 37 52
REMARK Flexibility Score: inf
ROOT
ATOM      1  C   UNL A   1      33.450  33.837  28.301  1.00  0.00     0.042 C 
ENDROOT
BRANCH   1   2
ATOM      2  C   UNL A   1      34.003  34.947  29.200  1.00  0.00     0.117 C 
BRANCH   2   3
ATOM      3  N   UNL A   1      33.243  35.006  30.435  1.00  0.00    -0.356 N 
ATOM      4  C   UNL A   1      33.611  34.767  31.723  1.00  0.00     0.229 C 
ATOM      5  O   UNL A   1      32.693  34.610  32.531  1.00  0.00    -0.275 OA
ATOM      6  H   UNL A   1      32.300  35.265  30.320  1.00  0.00     0.163 HD
BRANCH   4   7
ATOM      7  C   UNL A   1      35.079  34.820  32.144  1.00  0.00     0.142 C 
ATOM      8  C   UNL A   1      35.432  32.316  31.405  1.00  0.00     0.076 C 
ATOM      9  C   UNL A   1      35.903  33.519  32.202  1.00  0.00     0.193 C 
ATOM     10  N   UNL A   1      35.990  33.099  33.618  1.00  0.00    -0.325 N 
ATOM     11  C   UNL A   1      35.175  35.325  33.590  1.00  0.00     0.081 C 
ATOM     12  C   UNL A   1      35.198  34.047  34.406  1.00  0.00     0.263 C 
ATOM     13  H   UNL A   1      35.601  32.163  33.731  1.00  0.00     0.348 HD
BRANCH  10  14
ATOM     14  C   UNL A   1      37.390  32.943  34.093  1.00  0.00     0.379 C 
BRANCH  14  15
ATOM     15  C   UNL A   1      38.048  31.552  34.213  1.00  0.00     0.438 C 
ATOM     16  F   UNL A   1      37.779  30.970  35.402  1.00  0.00    -0.165 F 
ATOM     17  F   UNL A   1      37.584  30.725  33.246  1.00  0.00    -0.165 F 
ATOM     18  F   UNL A   1      39.391  31.612  34.077  1.00  0.00    -0.165 F 
ENDBRANCH  14  15
ENDBRANCH  10  14
ENDBRANCH   4   7
ENDBRANCH   2   3
ENDBRANCH   1   2
BRANCH   1  19
ATOM     19  C   UNL A   1      34.451  32.728  28.001  1.00  0.00     0.118 C 
BRANCH  19  20
ATOM     20  N   UNL A   1      33.796  31.454  27.769  1.00  0.00    -0.352 N 
ATOM     21  C   UNL A   1      34.319  30.187  27.716  1.00  0.00     0.251 C 
ATOM     22  H   UNL A   1      32.824  31.507  27.629  1.00  0.00     0.163 HD
ATOM     23  O   UNL A   1      33.618  29.275  27.273  1.00  0.00    -0.269 OA
BRANCH  21  24
ATOM     24  C   UNL A   1      35.704  29.885  28.160  1.00  0.00     0.039 A 
ATOM     25  C   UNL A   1      36.749  30.077  27.249  1.00  0.00     0.014 A 
ATOM     26  C   UNL A   1      35.986  29.336  29.414  1.00  0.00     0.014 A 
ATOM     27  C   UNL A   1      38.062  29.751  27.601  1.00  0.00     0.010 A 
ATOM     28  C   UNL A   1      37.308  29.093  29.798  1.00  0.00     0.010 A 
ATOM     29  C   UNL A   1      38.358  29.270  28.886  1.00  0.00    -0.014 A 
BRANCH  29  30
ATOM     30  C   UNL A   1      39.750  28.903  29.264  1.00  0.00     0.031 A 
ATOM     31  C   UNL A   1      40.567  29.819  30.139  1.00  0.00     0.074 A 
ATOM     32  C   UNL A   1      40.295  27.762  28.802  1.00  0.00     0.049 A 
ATOM     33  N   UNL A   1      41.804  29.688  30.551  1.00  0.00    -0.248 NA
ATOM     34  C   UNL A   1      39.917  31.060  30.588  1.00  0.00     0.031 C 
ATOM     35  C   UNL A   1      39.636  26.811  27.907  1.00  0.00     0.029 A 
ATOM     36  N   UNL A   1      41.535  27.210  29.019  1.00  0.00    -0.354 N 
ATOM     37  C   UNL A   1      42.083  30.833  31.288  1.00  0.00     0.074 A 
ATOM     38  C   UNL A   1      40.905  31.671  31.223  1.00  0.00     0.031 C 
ATOM     39  C   UNL A   1      40.466  25.783  27.670  1.00  0.00     0.029 A 
ATOM     40  C   UNL A   1      41.724  26.013  28.374  1.00  0.00     0.049 A 
ATOM     41  H   UNL A   1      42.221  27.632  29.584  1.00  0.00     0.167 HD
ATOM     42  C   UNL A   1      43.205  31.148  31.977  1.00  0.00     0.037 A 
ATOM     43  C   UNL A   1      42.792  25.192  28.352  1.00  0.00     0.037 A 
ATOM     44  C   UNL A   1      44.365  30.300  32.075  1.00  0.00     0.049 A 
ATOM     45  C   UNL A   1      44.014  25.546  29.154  1.00  0.00     0.074 A 
ATOM     46  C   UNL A   1      45.528  30.507  32.797  1.00  0.00     0.029 A 
ATOM     47  N   UNL A   1      44.504  29.079  31.433  1.00  0.00    -0.354 N 
ATOM     48  N   UNL A   1      44.241  26.603  29.893  1.00  0.00    -0.248 NA
ATOM     49  C   UNL A   1      45.126  24.585  29.124  1.00  0.00     0.031 C 
ATOM     50  C   UNL A   1      46.384  29.424  32.567  1.00  0.00     0.029 A 
ATOM     51  C   UNL A   1      45.739  28.526  31.733  1.00  0.00     0.049 A 
ATOM     52  H   UNL A   1      43.826  28.667  30.851  1.00  0.00     0.167 HD
ATOM     53  C   UNL A   1      45.508  26.429  30.431  1.00  0.00     0.074 A 
ATOM     54  C   UNL A   1      45.995  25.153  29.949  1.00  0.00     0.031 C 
ATOM     55  C   UNL A   1      46.209  27.254  31.247  1.00  0.00     0.037 A 
BRANCH  42  56
ATOM     56  C   UNL A   1      43.229  32.467  32.693  1.00  0.00     0.064 A 
ATOM     57  C   UNL A   1      43.682  33.636  32.062  1.00  0.00     0.173 A 
ATOM     58  C   UNL A   1      42.767  32.573  34.014  1.00  0.00     0.173 A 
ATOM     59  F   UNL A   1      44.144  33.587  30.804  1.00  0.00    -0.203 F 
ATOM     60  C   UNL A   1      43.703  34.853  32.737  1.00  0.00     0.198 A 
ATOM     61  C   UNL A   1      42.763  33.798  34.676  1.00  0.00     0.198 A 
ATOM     62  F   UNL A   1      42.317  31.487  34.661  1.00  0.00    -0.203 F 
ATOM     63  F   UNL A   1      44.187  35.946  32.130  1.00  0.00    -0.200 F 
ATOM     64  C   UNL A   1      43.238  34.935  34.040  1.00  0.00     0.200 A 
ATOM     65  F   UNL A   1      42.302  33.877  35.933  1.00  0.00    -0.200 F 
ATOM     66  F   UNL A   1      43.255  36.109  34.688  1.00  0.00    -0.200 F 
ENDBRANCH  42  56
BRANCH  43  67
ATOM     67  C   UNL A   1      42.736  23.932  27.568  1.00  0.00     0.064 A 
ATOM     68  C   UNL A   1      43.121  23.905  26.221  1.00  0.00     0.173 A 
ATOM     69  C   UNL A   1      42.306  22.731  28.151  1.00  0.00     0.173 A 
ATOM     70  F   UNL A   1      43.518  25.033  25.615  1.00  0.00    -0.203 F 
ATOM     71  C   UNL A   1      43.062  22.726  25.480  1.00  0.00     0.198 A 
ATOM     72  C   UNL A   1      42.272  21.548  27.416  1.00  0.00     0.198 A 
ATOM     73  F   UNL A   1      41.932  22.705  29.438  1.00  0.00    -0.203 F 
ATOM     74  F   UNL A   1      43.399  22.735  24.183  1.00  0.00    -0.200 F 
ATOM     75  C   UNL A   1      42.644  21.547  26.080  1.00  0.00     0.200 A 
ATOM     76  F   UNL A   1      41.879  20.408  28.002  1.00  0.00    -0.200 F 
ATOM     77  F   UNL A   1      42.595  20.414  25.368  1.00  0.00    -0.200 F 
ENDBRANCH  43  67
BRANCH  55  78
ATOM     78  C   UNL A   1      47.567  26.793  31.686  1.00  0.00     0.064 A 
ATOM     79  C   UNL A   1      47.734  25.968  32.808  1.00  0.00     0.173 A 
ATOM     80  C   UNL A   1      48.710  27.155  30.959  1.00  0.00     0.173 A 
ATOM     81  F   UNL A   1      46.671  25.607  33.544  1.00  0.00    -0.203 F 
ATOM     82  C   UNL A   1      49.000  25.545  33.203  1.00  0.00     0.198 A 
ATOM     83  C   UNL A   1      49.972  26.709  31.341  1.00  0.00     0.198 A 
ATOM     84  F   UNL A   1      48.603  27.938  29.875  1.00  0.00    -0.203 F 
ATOM     85  F   UNL A   1      49.140  24.796  34.304  1.00  0.00    -0.200 F 
ATOM     86  C   UNL A   1      50.116  25.911  32.466  1.00  0.00     0.200 A 
ATOM     87  F   UNL A   1      51.050  27.055  30.624  1.00  0.00    -0.200 F 
ATOM     88  F   UNL A   1      51.334  25.501  32.846  1.00  0.00    -0.200 F 
ENDBRANCH  55  78
ENDBRANCH  29  30
ENDBRANCH  21  24
ENDBRANCH  19  20
ENDBRANCH   1  19
TORSDOF 12
ENDMDL
MODEL 2
REMARK VINA RESULT:     -10.1      3.129     10.747
REMARK SMILES C[C@H]1[C@@H](C(=O)NCCCNC(=O)c2ccc(-c3c4nc(c(-c5c(F)c(F)c(F)c(F)c5F)c5ccc([nH]5)c(-c5c(F)c(F)c(F)c(F)c5F)c5nc(c(-c6c(F)c(F)c(F)c(F)c6F)c6ccc3[nH]6)C=C5)C=C4)cc2)CC[N@@H+]1CC(F)(F)F
REMARK SMILES IDX 8 1 7 2 6 3 4 4 5 5 3 7 1 8 2 9 78 10 76 11 77 12 79 14
REMARK SMILES IDX 80 15 81 16 82 17 83 18 9 19 10 20 11 21 12 23 13 24 14 25
REMARK SMILES IDX 75 26 15 27 74 28 16 29 17 30 18 31 68 32 19 33 73 34 67 35
REMARK SMILES IDX 69 36 20 37 72 38 66 39 65 40 21 42 53 43 33 44 52 45 34 46
REMARK SMILES IDX 37 47 51 48 70 49 35 50 36 51 50 53 71 54 38 55 22 56 23 57
REMARK SMILES IDX 31 58 24 59 25 60 29 61 32 62 26 63 27 64 30 65 28 66 54 67
REMARK SMILES IDX 55 68 63 69 56 70 57 71 61 72 64 73 58 74 59 75 62 76 60 77
REMARK SMILES IDX 39 78 40 79 48 80 41 81 42 82 46 83 49 84 43 85 44 86 47 87
REMARK SMILES IDX 45 88
REMARK H PARENT 6 6 78 13 10 22 69 41 37 52
REMARK Flexibility Score: inf
ROOT
ATOM      1  C   UNL A   1      40.853  20.356  26.867  1.00  0.00     0.042 C 
ENDROOT
BRANCH   1   2
ATOM      2  C   UNL A   1      42.336  20.251  26.500  1.00  0.00     0.117 C 
BRANCH   2   3
ATOM      3  N   UNL A   1      42.629  21.121  25.375  1.00  0.00    -0.356 N 
ATOM      4  C   UNL A   1      43.561  22.100  25.222  1.00  0.00     0.229 C 
ATOM      5  O   UNL A   1      43.392  22.869  24.272  1.00  0.00    -0.275 OA
ATOM      6  H   UNL A   1      42.055  20.975  24.588  1.00  0.00     0.163 HD
BRANCH   4   7
ATOM      7  C   UNL A   1      44.803  22.149  26.110  1.00  0.00     0.142 C 
ATOM      8  C   UNL A   1      43.630  23.852  27.741  1.00  0.00     0.076 C 
ATOM      9  C   UNL A   1      44.904  23.210  27.223  1.00  0.00     0.193 C 
ATOM     10  N   UNL A   1      45.776  24.300  26.734  1.00  0.00    -0.325 N 
ATOM     11  C   UNL A   1      46.032  22.470  25.249  1.00  0.00     0.081 C 
ATOM     12  C   UNL A   1      46.148  23.979  25.354  1.00  0.00     0.263 C 
ATOM     13  H   UNL A   1      45.270  25.186  26.747  1.00  0.00     0.348 HD
BRANCH  10  14
ATOM     14  C   UNL A   1      46.937  24.561  27.625  1.00  0.00     0.379 C 
BRANCH  14  15
ATOM     15  C   UNL A   1      46.806  25.454  28.877  1.00  0.00     0.438 C 
ATOM     16  F   UNL A   1      45.907  24.958  29.755  1.00  0.00    -0.165 F 
ATOM     17  F   UNL A   1      47.994  25.540  29.521  1.00  0.00    -0.165 F 
ATOM     18  F   UNL A   1      46.428  26.714  28.565  1.00  0.00    -0.165 F 
ENDBRANCH  14  15
ENDBRANCH  10  14
ENDBRANCH   4   7
ENDBRANCH   2   3
ENDBRANCH   1   2
BRANCH   1  19
ATOM     19  C   UNL A   1      40.402  21.768  27.222  1.00  0.00     0.118 C 
BRANCH  19  20
ATOM     20  N   UNL A   1      39.419  22.276  26.283  1.00  0.00    -0.352 N 
ATOM     21  C   UNL A   1      38.807  23.503  26.220  1.00  0.00     0.251 C 
ATOM     22  H   UNL A   1      39.150  21.642  25.581  1.00  0.00     0.163 HD
ATOM     23  O   UNL A   1      37.830  23.639  25.480  1.00  0.00    -0.269 OA
BRANCH  21  24
ATOM     24  C   UNL A   1      39.275  24.661  27.022  1.00  0.00     0.039 A 
ATOM     25  C   UNL A   1      38.860  24.755  28.355  1.00  0.00     0.014 A 
ATOM     26  C   UNL A   1      40.036  25.697  26.471  1.00  0.00     0.014 A 
ATOM     27  C   UNL A   1      39.226  25.858  29.133  1.00  0.00     0.010 A 
ATOM     28  C   UNL A   1      40.476  26.753  27.272  1.00  0.00     0.010 A 
ATOM     29  C   UNL A   1      40.052  26.861  28.605  1.00  0.00    -0.014 A 
BRANCH  29  30
ATOM     30  C   UNL A   1      40.432  28.048  29.419  1.00  0.00     0.031 A 
ATOM     31  C   UNL A   1      41.800  28.133  30.046  1.00  0.00     0.074 A 
ATOM     32  C   UNL A   1      39.544  29.039  29.623  1.00  0.00     0.049 A 
ATOM     33  N   UNL A   1      42.306  29.068  30.813  1.00  0.00    -0.248 NA
ATOM     34  C   UNL A   1      42.712  27.004  29.803  1.00  0.00     0.031 C 
ATOM     35  C   UNL A   1      38.171  29.060  29.118  1.00  0.00     0.029 A 
ATOM     36  N   UNL A   1      39.663  30.220  30.314  1.00  0.00    -0.354 N 
ATOM     37  C   UNL A   1      43.580  28.632  31.155  1.00  0.00     0.074 A 
ATOM     38  C   UNL A   1      43.752  27.326  30.557  1.00  0.00     0.031 C 
ATOM     39  C   UNL A   1      37.582  30.207  29.495  1.00  0.00     0.029 A 
ATOM     40  C   UNL A   1      38.525  30.989  30.288  1.00  0.00     0.049 A 
ATOM     41  H   UNL A   1      40.485  30.490  30.782  1.00  0.00     0.167 HD
ATOM     42  C   UNL A   1      44.531  29.270  31.878  1.00  0.00     0.037 A 
ATOM     43  C   UNL A   1      38.271  32.190  30.843  1.00  0.00     0.037 A 
ATOM     44  C   UNL A   1      44.378  30.586  32.442  1.00  0.00     0.049 A 
ATOM     45  C   UNL A   1      39.354  32.895  31.612  1.00  0.00     0.074 A 
ATOM     46  C   UNL A   1      45.305  31.339  33.142  1.00  0.00     0.029 A 
ATOM     47  N   UNL A   1      43.220  31.345  32.367  1.00  0.00    -0.354 N 
ATOM     48  N   UNL A   1      40.573  32.496  31.877  1.00  0.00    -0.248 NA
ATOM     49  C   UNL A   1      39.026  34.222  32.151  1.00  0.00     0.031 C 
ATOM     50  C   UNL A   1      44.698  32.543  33.517  1.00  0.00     0.029 A 
ATOM     51  C   UNL A   1      43.406  32.556  33.017  1.00  0.00     0.049 A 
ATOM     52  H   UNL A   1      42.390  31.067  31.917  1.00  0.00     0.167 HD
ATOM     53  C   UNL A   1      41.164  33.526  32.596  1.00  0.00     0.074 A 
ATOM     54  C   UNL A   1      40.176  34.579  32.708  1.00  0.00     0.031 C 
ATOM     55  C   UNL A   1      42.413  33.594  33.119  1.00  0.00     0.037 A 
BRANCH  42  56
ATOM     56  C   UNL A   1      45.833  28.554  32.091  1.00  0.00     0.064 A 
ATOM     57  C   UNL A   1      46.909  28.708  31.202  1.00  0.00     0.173 A 
ATOM     58  C   UNL A   1      46.020  27.728  33.210  1.00  0.00     0.173 A 
ATOM     59  F   UNL A   1      46.776  29.477  30.111  1.00  0.00    -0.203 F 
ATOM     60  C   UNL A   1      48.110  28.036  31.408  1.00  0.00     0.198 A 
ATOM     61  C   UNL A   1      47.234  27.080  33.427  1.00  0.00     0.198 A 
ATOM     62  F   UNL A   1      45.027  27.553  34.094  1.00  0.00    -0.203 F 
ATOM     63  F   UNL A   1      49.105  28.158  30.518  1.00  0.00    -0.200 F 
ATOM     64  C   UNL A   1      48.275  27.228  32.522  1.00  0.00     0.200 A 
ATOM     65  F   UNL A   1      47.395  26.309  34.512  1.00  0.00    -0.200 F 
ATOM     66  F   UNL A   1      49.433  26.585  32.721  1.00  0.00    -0.200 F 
ENDBRANCH  42  56
BRANCH  43  67
ATOM     67  C   UNL A   1      36.939  32.819  30.657  1.00  0.00     0.064 A 
ATOM     68  C   UNL A   1      36.642  33.547  29.496  1.00  0.00     0.173 A 
ATOM     69  C   UNL A   1      35.935  32.699  31.629  1.00  0.00     0.173 A 
ATOM     70  F   UNL A   1      37.577  33.707  28.549  1.00  0.00    -0.203 F 
ATOM     71  C   UNL A   1      35.396  34.146  29.323  1.00  0.00     0.198 A 
ATOM     72  C   UNL A   1      34.681  33.277  31.442  1.00  0.00     0.198 A 
ATOM     73  F   UNL A   1      36.169  32.009  32.755  1.00  0.00    -0.203 F 
ATOM     74  F   UNL A   1      35.150  34.869  28.221  1.00  0.00    -0.200 F 
ATOM     75  C   UNL A   1      34.414  34.004  30.292  1.00  0.00     0.200 A 
ATOM     76  F   UNL A   1      33.731  33.129  32.376  1.00  0.00    -0.200 F 
ATOM     77  F   UNL A   1      33.215  34.575  30.120  1.00  0.00    -0.200 F 
ENDBRANCH  43  67
BRANCH  55  78
ATOM     78  C   UNL A   1      42.786  34.853  33.842  1.00  0.00     0.064 A 
ATOM     79  C   UNL A   1      43.260  35.980  33.156  1.00  0.00     0.173 A 
ATOM     80  C   UNL A   1      42.639  34.944  35.234  1.00  0.00     0.173 A 
ATOM     81  F   UNL A   1      43.431  35.937  31.825  1.00  0.00    -0.203 F 
ATOM     82  C   UNL A   1      43.599  37.144  33.840  1.00  0.00     0.198 A 
ATOM     83  C   UNL A   1      42.955  36.118  35.912  1.00  0.00     0.198 A 
ATOM     84  F   UNL A   1      42.184  33.895  35.937  1.00  0.00    -0.203 F 
ATOM     85  F   UNL A   1      44.093  38.193  33.169  1.00  0.00    -0.200 F 
ATOM     86  C   UNL A   1      43.442  37.213  35.216  1.00  0.00     0.200 A 
ATOM     87  F   UNL A   1      42.794  36.187  37.241  1.00  0.00    -0.200 F 
ATOM     88  F   UNL A   1      43.767  38.336  35.872  1.00  0.00    -0.200 F 
ENDBRANCH  55  78
ENDBRANCH  29  30
ENDBRANCH  21  24
ENDBRANCH  19  20
ENDBRANCH   1  19
TORSDOF 12
ENDMDL
MODEL 3
REMARK VINA RESULT:     -10.1      3.351     10.650
REMARK SMILES C[C@H]1[C@@H](C(=O)NCCCNC(=O)c2ccc(-c3c4nc(c(-c5c(F)c(F)c(F)c(F)c5F)c5ccc([nH]5)c(-c5c(F)c(F)c(F)c(F)c5F)c5nc(c(-c6c(F)c(F)c(F)c(F)c6F)c6ccc3[nH]6)C=C5)C=C4)cc2)CC[N@@H+]1CC(F)(F)F
REMARK SMILES IDX 8 1 7 2 6 3 4 4 5 5 3 7 1 8 2 9 78 10 76 11 77 12 79 14
REMARK SMILES IDX 80 15 81 16 82 17 83 18 9 19 10 20 11 21 12 23 13 24 14 25
REMARK SMILES IDX 75 26 15 27 74 28 16 29 17 30 18 31 68 32 19 33 73 34 67 35
REMARK SMILES IDX 69 36 20 37 72 38 66 39 65 40 21 42 53 43 33 44 52 45 34 46
REMARK SMILES IDX 37 47 51 48 70 49 35 50 36 51 50 53 71 54 38 55 22 56 23 57
REMARK SMILES IDX 31 58 24 59 25 60 29 61 32 62 26 63 27 64 30 65 28 66 54 67
REMARK SMILES IDX 55 68 63 69 56 70 57 71 61 72 64 73 58 74 59 75 62 76 60 77
REMARK SMILES IDX 39 78 40 79 48 80 41 81 42 82 46 83 49 84 43 85 44 86 47 87
REMARK SMILES IDX 45 88
REMARK H PARENT 6 6 78 13 10 22 69 41 37 52
REMARK Flexibility Score: inf
ROOT
ATOM      1  C   UNL A   1      41.770  21.904  27.537  1.00  0.00     0.042 C 
ENDROOT
BRANCH   1   2
ATOM      2  C   UNL A   1      42.951  22.732  28.049  1.00  0.00     0.117 C 
BRANCH   2   3
ATOM      3  N   UNL A   1      44.183  22.262  27.443  1.00  0.00    -0.356 N 
ATOM      4  C   UNL A   1      45.162  22.930  26.774  1.00  0.00     0.229 C 
ATOM      5  O   UNL A   1      45.944  22.238  26.119  1.00  0.00    -0.275 OA
ATOM      6  H   UNL A   1      44.337  21.294  27.533  1.00  0.00     0.163 HD
BRANCH   4   7
ATOM      7  C   UNL A   1      45.338  24.439  26.941  1.00  0.00     0.142 C 
ATOM      8  C   UNL A   1      43.618  24.904  25.001  1.00  0.00     0.076 C 
ATOM      9  C   UNL A   1      44.745  25.397  25.889  1.00  0.00     0.193 C 
ATOM     10  N   UNL A   1      45.845  25.831  24.999  1.00  0.00    -0.325 N 
ATOM     11  C   UNL A   1      46.832  24.786  26.883  1.00  0.00     0.081 C 
ATOM     12  C   UNL A   1      47.057  25.126  25.422  1.00  0.00     0.263 C 
ATOM     13  H   UNL A   1      45.633  25.583  24.033  1.00  0.00     0.348 HD
BRANCH  10  14
ATOM     14  C   UNL A   1      45.997  27.309  24.942  1.00  0.00     0.379 C 
BRANCH  14  15
ATOM     15  C   UNL A   1      45.585  28.207  26.128  1.00  0.00     0.438 C 
ATOM     16  F   UNL A   1      44.242  28.273  26.266  1.00  0.00    -0.165 F 
ATOM     17  F   UNL A   1      46.085  27.717  27.287  1.00  0.00    -0.165 F 
ATOM     18  F   UNL A   1      46.049  29.470  25.995  1.00  0.00    -0.165 F 
ENDBRANCH  14  15
ENDBRANCH  10  14
ENDBRANCH   4   7
ENDBRANCH   2   3
ENDBRANCH   1   2
BRANCH   1  19
ATOM     19  C   UNL A   1      41.506  22.059  26.043  1.00  0.00     0.118 C 
BRANCH  19  20
ATOM     20  N   UNL A   1      40.087  22.090  25.743  1.00  0.00    -0.352 N 
ATOM     21  C   UNL A   1      39.111  22.956  26.165  1.00  0.00     0.251 C 
ATOM     22  H   UNL A   1      39.776  21.376  25.141  1.00  0.00     0.163 HD
ATOM     23  O   UNL A   1      37.931  22.657  25.976  1.00  0.00    -0.269 OA
BRANCH  21  24
ATOM     24  C   UNL A   1      39.433  24.231  26.854  1.00  0.00     0.039 A 
ATOM     25  C   UNL A   1      40.099  25.227  26.131  1.00  0.00     0.014 A 
ATOM     26  C   UNL A   1      39.175  24.436  28.214  1.00  0.00     0.014 A 
ATOM     27  C   UNL A   1      40.476  26.421  26.753  1.00  0.00     0.010 A 
ATOM     28  C   UNL A   1      39.471  25.663  28.813  1.00  0.00     0.010 A 
ATOM     29  C   UNL A   1      40.151  26.659  28.097  1.00  0.00    -0.014 A 
BRANCH  29  30
ATOM     30  C   UNL A   1      40.563  27.919  28.773  1.00  0.00     0.031 A 
ATOM     31  C   UNL A   1      41.986  28.106  29.231  1.00  0.00     0.074 A 
ATOM     32  C   UNL A   1      39.657  28.888  29.003  1.00  0.00     0.049 A 
ATOM     33  N   UNL A   1      42.529  29.117  29.864  1.00  0.00    -0.248 NA
ATOM     34  C   UNL A   1      42.917  26.997  28.970  1.00  0.00     0.031 C 
ATOM     35  C   UNL A   1      38.237  28.818  28.658  1.00  0.00     0.029 A 
ATOM     36  N   UNL A   1      39.796  30.124  29.587  1.00  0.00    -0.354 N 
ATOM     37  C   UNL A   1      43.853  28.759  30.089  1.00  0.00     0.074 A 
ATOM     38  C   UNL A   1      44.018  27.417  29.574  1.00  0.00     0.031 C 
ATOM     39  C   UNL A   1      37.641  29.966  29.014  1.00  0.00     0.029 A 
ATOM     40  C   UNL A   1      38.628  30.844  29.635  1.00  0.00     0.049 A 
ATOM     41  H   UNL A   1      40.652  30.461  29.936  1.00  0.00     0.167 HD
ATOM     42  C   UNL A   1      44.847  29.488  30.649  1.00  0.00     0.037 A 
ATOM     43  C   UNL A   1      38.381  32.075  30.125  1.00  0.00     0.037 A 
ATOM     44  C   UNL A   1      44.696  30.837  31.129  1.00  0.00     0.049 A 
ATOM     45  C   UNL A   1      39.508  32.879  30.711  1.00  0.00     0.074 A 
ATOM     46  C   UNL A   1      45.659  31.677  31.661  1.00  0.00     0.029 A 
ATOM     47  N   UNL A   1      43.503  31.543  31.130  1.00  0.00    -0.354 N 
ATOM     48  N   UNL A   1      40.767  32.550  30.864  1.00  0.00    -0.248 NA
ATOM     49  C   UNL A   1      39.180  34.231  31.184  1.00  0.00     0.031 C 
ATOM     50  C   UNL A   1      45.041  32.883  32.012  1.00  0.00     0.029 A 
ATOM     51  C   UNL A   1      43.703  32.807  31.664  1.00  0.00     0.049 A 
ATOM     52  H   UNL A   1      42.642  31.198  30.801  1.00  0.00     0.167 HD
ATOM     53  C   UNL A   1      41.385  33.655  31.431  1.00  0.00     0.074 A 
ATOM     54  C   UNL A   1      40.367  34.674  31.578  1.00  0.00     0.031 C 
ATOM     55  C   UNL A   1      42.679  33.811  31.802  1.00  0.00     0.037 A 
BRANCH  42  56
ATOM     56  C   UNL A   1      46.197  28.841  30.764  1.00  0.00     0.064 A 
ATOM     57  C   UNL A   1      46.493  27.938  31.798  1.00  0.00     0.173 A 
ATOM     58  C   UNL A   1      47.198  29.102  29.817  1.00  0.00     0.173 A 
ATOM     59  F   UNL A   1      45.574  27.664  32.736  1.00  0.00    -0.203 F 
ATOM     60  C   UNL A   1      47.749  27.348  31.897  1.00  0.00     0.198 A 
ATOM     61  C   UNL A   1      48.445  28.488  29.903  1.00  0.00     0.198 A 
ATOM     62  F   UNL A   1      46.966  29.952  28.805  1.00  0.00    -0.203 F 
ATOM     63  F   UNL A   1      48.024  26.528  32.921  1.00  0.00    -0.200 F 
ATOM     64  C   UNL A   1      48.722  27.617  30.947  1.00  0.00     0.200 A 
ATOM     65  F   UNL A   1      49.381  28.740  28.976  1.00  0.00    -0.200 F 
ATOM     66  F   UNL A   1      49.930  27.045  31.041  1.00  0.00    -0.200 F 
ENDBRANCH  42  56
BRANCH  43  67
ATOM     67  C   UNL A   1      37.008  32.636  30.046  1.00  0.00     0.064 A 
ATOM     68  C   UNL A   1      36.571  33.312  28.899  1.00  0.00     0.173 A 
ATOM     69  C   UNL A   1      36.105  32.500  31.110  1.00  0.00     0.173 A 
ATOM     70  F   UNL A   1      37.407  33.485  27.865  1.00  0.00    -0.203 F 
ATOM     71  C   UNL A   1      35.286  33.847  28.826  1.00  0.00     0.198 A 
ATOM     72  C   UNL A   1      34.812  33.013  31.025  1.00  0.00     0.198 A 
ATOM     73  F   UNL A   1      36.474  31.857  32.228  1.00  0.00    -0.203 F 
ATOM     74  F   UNL A   1      34.906  34.523  27.732  1.00  0.00    -0.200 F 
ATOM     75  C   UNL A   1      34.406  33.691  29.886  1.00  0.00     0.200 A 
ATOM     76  F   UNL A   1      33.960  32.851  32.047  1.00  0.00    -0.200 F 
ATOM     77  F   UNL A   1      33.169  34.200  29.811  1.00  0.00    -0.200 F 
ENDBRANCH  43  67
BRANCH  55  78
ATOM     78  C   UNL A   1      43.070  35.137  32.383  1.00  0.00     0.064 A 
ATOM     79  C   UNL A   1      43.569  36.172  31.579  1.00  0.00     0.173 A 
ATOM     80  C   UNL A   1      42.918  35.385  33.755  1.00  0.00     0.173 A 
ATOM     81  F   UNL A   1      43.747  35.977  30.263  1.00  0.00    -0.203 F 
ATOM     82  C   UNL A   1      43.925  37.399  32.131  1.00  0.00     0.198 A 
ATOM     83  C   UNL A   1      43.251  36.622  34.300  1.00  0.00     0.198 A 
ATOM     84  F   UNL A   1      42.440  34.429  34.567  1.00  0.00    -0.203 F 
ATOM     85  F   UNL A   1      44.443  38.357  31.351  1.00  0.00    -0.200 F 
ATOM     86  C   UNL A   1      43.761  37.624  33.489  1.00  0.00     0.200 A 
ATOM     87  F   UNL A   1      43.083  36.842  35.612  1.00  0.00    -0.200 F 
ATOM     88  F   UNL A   1      44.103  38.807  34.019  1.00  0.00    -0.200 F 
ENDBRANCH  55  78
ENDBRANCH  29  30
ENDBRANCH  21  24
ENDBRANCH  19  20
ENDBRANCH   1  19
TORSDOF 12
ENDMDL
