MODEL 1
REMARK VINA RESULT:     -13.9      0.000      0.000
REMARK SMILES CS(=O)(=O)c1ccc(C(=O)N2C[C@@H](C(=O)NCCCNC(=O)c3ccc(-c4c5nc(c(-c6c(F)c(F)c(F)c(F)c6F)c6ccc([nH]6)c(-c6c(F)c(F)c(F)c(F)c6F)c6nc(c(-c7c(F)c(F)c(F)c(F)c7F)c7ccc4[nH]7)C=C6)C=C5)cc3)[C@H](c3ccncc3)C2)cc1
REMARK SMILES IDX 17 1 16 2 14 3 15 4 13 6 11 7 12 8 93 9 86 10 9 11 10 12
REMARK SMILES IDX 8 13 5 14 6 15 95 16 7 17 94 18 2 19 1 20 3 21 4 22 87 23
REMARK SMILES IDX 88 24 92 25 89 26 91 27 90 28 18 29 19 30 20 31 21 32 22 34
REMARK SMILES IDX 23 35 24 36 85 37 25 38 84 39 26 40 27 41 28 42 78 43 29 44
REMARK SMILES IDX 83 45 77 46 79 47 30 48 82 49 76 50 75 51 31 53 63 54 43 55
REMARK SMILES IDX 62 56 44 57 47 58 61 59 80 60 45 61 46 62 60 64 81 65 48 66
REMARK SMILES IDX 32 67 33 68 41 69 34 70 35 71 39 72 42 73 36 74 37 75 40 76
REMARK SMILES IDX 38 77 64 78 65 79 73 80 66 81 67 82 71 83 74 84 68 85 69 86
REMARK SMILES IDX 72 87 70 88 49 89 50 90 58 91 51 92 52 93 56 94 59 95 53 96
REMARK SMILES IDX 54 97 57 98 55 99
REMARK H PARENT 16 5 20 33 79 52 47 63
REMARK Flexibility Score: inf
ROOT
ATOM      1  C   UNL A   1      31.485  30.697  26.415  1.00  0.00     0.117 C 
ENDROOT
BRANCH   1   2
ATOM      2  N   UNL A   1      32.424  30.339  25.365  1.00  0.00    -0.356 N 
ATOM      3  C   UNL A   1      32.534  29.204  24.623  1.00  0.00     0.225 C 
ATOM      4  O   UNL A   1      33.450  29.134  23.805  1.00  0.00    -0.275 OA
ATOM      5  H   UNL A   1      33.090  31.034  25.155  1.00  0.00     0.163 HD
BRANCH   3   6
ATOM      6  C   UNL A   1      31.546  28.080  24.816  1.00  0.00     0.107 C 
ATOM      7  N   UNL A   1      31.303  25.798  24.918  1.00  0.00    -0.337 N 
ATOM      8  C   UNL A   1      32.266  26.821  25.264  1.00  0.00     0.134 C 
ATOM      9  C   UNL A   1      30.687  26.126  23.642  1.00  0.00     0.129 C 
ATOM     10  C   UNL A   1      30.838  27.662  23.494  1.00  0.00     0.053 C 
BRANCH   7  11
ATOM     11  C   UNL A   1      30.943  24.649  25.592  1.00  0.00     0.253 C 
ATOM     12  O   UNL A   1      30.091  24.664  26.480  1.00  0.00    -0.269 OA
BRANCH  11  13
ATOM     13  C   UNL A   1      31.685  23.374  25.364  1.00  0.00     0.040 A 
ATOM     14  C   UNL A   1      32.639  20.762  24.988  1.00  0.00     0.067 A 
ATOM     15  C   UNL A   1      32.050  21.451  23.922  1.00  0.00     0.021 A 
ATOM     16  C   UNL A   1      32.785  21.377  26.231  1.00  0.00     0.021 A 
ATOM     17  C   UNL A   1      31.575  22.753  24.112  1.00  0.00     0.015 A 
ATOM     18  C   UNL A   1      32.286  22.671  26.419  1.00  0.00     0.015 A 
BRANCH  14  19
ATOM     19  S   UNL A   1      33.102  19.065  24.717  1.00  0.00     0.175 S 
ATOM     20  C   UNL A   1      32.453  18.586  23.142  1.00  0.00     0.163 C 
ATOM     21  O   UNL A   1      32.410  18.284  25.721  1.00  0.00    -0.224 OA
ATOM     22  O   UNL A   1      34.550  19.054  24.613  1.00  0.00    -0.224 OA
ENDBRANCH  14  19
ENDBRANCH  11  13
ENDBRANCH   7  11
BRANCH  10  23
ATOM     23  C   UNL A   1      29.588  28.511  23.283  1.00  0.00    -0.039 A 
ATOM     24  C   UNL A   1      28.328  27.909  23.455  1.00  0.00     0.024 A 
ATOM     25  C   UNL A   1      29.599  29.855  22.904  1.00  0.00     0.024 A 
ATOM     26  C   UNL A   1      27.176  28.641  23.208  1.00  0.00     0.111 A 
ATOM     27  C   UNL A   1      28.391  30.512  22.695  1.00  0.00     0.111 A 
ATOM     28  N   UNL A   1      27.181  29.930  22.823  1.00  0.00    -0.265 NA
ENDBRANCH  10  23
ENDBRANCH   3   6
ENDBRANCH   1   2
BRANCH   1  29
ATOM     29  C   UNL A   1      31.378  32.209  26.578  1.00  0.00     0.042 C 
BRANCH  29  30
ATOM     30  C   UNL A   1      32.629  32.854  27.169  1.00  0.00     0.118 C 
BRANCH  30  31
ATOM     31  N   UNL A   1      32.400  34.224  27.607  1.00  0.00    -0.352 N 
ATOM     32  C   UNL A   1      32.995  34.942  28.614  1.00  0.00     0.251 C 
ATOM     33  H   UNL A   1      31.710  34.711  27.102  1.00  0.00     0.163 HD
ATOM     34  O   UNL A   1      32.535  36.035  28.932  1.00  0.00    -0.269 OA
BRANCH  32  35
ATOM     35  C   UNL A   1      34.168  34.402  29.334  1.00  0.00     0.039 A 
ATOM     36  C   UNL A   1      33.962  33.725  30.540  1.00  0.00     0.014 A 
ATOM     37  C   UNL A   1      35.465  34.580  28.846  1.00  0.00     0.014 A 
ATOM     38  C   UNL A   1      35.048  33.171  31.220  1.00  0.00     0.010 A 
ATOM     39  C   UNL A   1      36.537  33.963  29.483  1.00  0.00     0.010 A 
ATOM     40  C   UNL A   1      36.340  33.256  30.679  1.00  0.00    -0.014 A 
BRANCH  40  41
ATOM     41  C   UNL A   1      37.498  32.615  31.349  1.00  0.00     0.031 A 
ATOM     42  C   UNL A   1      38.238  31.495  30.674  1.00  0.00     0.074 A 
ATOM     43  C   UNL A   1      37.846  33.000  32.592  1.00  0.00     0.049 A 
ATOM     44  N   UNL A   1      39.228  30.765  31.124  1.00  0.00    -0.248 NA
ATOM     45  C   UNL A   1      37.788  31.127  29.323  1.00  0.00     0.031 C 
ATOM     46  C   UNL A   1      37.182  34.048  33.369  1.00  0.00     0.029 A 
ATOM     47  N   UNL A   1      38.839  32.549  33.423  1.00  0.00    -0.354 N 
ATOM     48  C   UNL A   1      39.506  29.847  30.122  1.00  0.00     0.074 A 
ATOM     49  C   UNL A   1      38.548  30.074  29.061  1.00  0.00     0.031 C 
ATOM     50  C   UNL A   1      37.805  34.180  34.551  1.00  0.00     0.029 A 
ATOM     51  C   UNL A   1      38.887  33.204  34.629  1.00  0.00     0.049 A 
ATOM     52  H   UNL A   1      39.460  31.825  33.179  1.00  0.00     0.167 HD
ATOM     53  C   UNL A   1      40.487  28.913  30.077  1.00  0.00     0.037 A 
ATOM     54  C   UNL A   1      39.710  33.033  35.681  1.00  0.00     0.037 A 
ATOM     55  C   UNL A   1      41.457  28.706  31.119  1.00  0.00     0.049 A 
ATOM     56  C   UNL A   1      40.783  31.982  35.612  1.00  0.00     0.074 A 
ATOM     57  C   UNL A   1      42.525  27.826  31.145  1.00  0.00     0.029 A 
ATOM     58  N   UNL A   1      41.475  29.392  32.326  1.00  0.00    -0.354 N 
ATOM     59  N   UNL A   1      41.074  31.159  34.634  1.00  0.00    -0.248 NA
ATOM     60  C   UNL A   1      41.644  31.838  36.793  1.00  0.00     0.031 C 
ATOM     61  C   UNL A   1      43.167  27.955  32.381  1.00  0.00     0.029 A 
ATOM     62  C   UNL A   1      42.525  28.942  33.110  1.00  0.00     0.049 A 
ATOM     63  H   UNL A   1      40.836  30.095  32.586  1.00  0.00     0.167 HD
ATOM     64  C   UNL A   1      42.167  30.423  35.069  1.00  0.00     0.074 A 
ATOM     65  C   UNL A   1      42.493  30.902  36.396  1.00  0.00     0.031 C 
ATOM     66  C   UNL A   1      42.841  29.438  34.425  1.00  0.00     0.037 A 
BRANCH  53  67
ATOM     67  C   UNL A   1      40.558  28.047  28.853  1.00  0.00     0.064 A 
ATOM     68  C   UNL A   1      41.342  28.405  27.746  1.00  0.00     0.173 A 
ATOM     69  C   UNL A   1      39.848  26.838  28.792  1.00  0.00     0.173 A 
ATOM     70  F   UNL A   1      42.028  29.558  27.750  1.00  0.00    -0.203 F 
ATOM     71  C   UNL A   1      41.385  27.604  26.609  1.00  0.00     0.198 A 
ATOM     72  C   UNL A   1      39.917  26.024  27.664  1.00  0.00     0.198 A 
ATOM     73  F   UNL A   1      39.088  26.447  29.824  1.00  0.00    -0.203 F 
ATOM     74  F   UNL A   1      42.096  27.994  25.542  1.00  0.00    -0.200 F 
ATOM     75  C   UNL A   1      40.678  26.411  26.570  1.00  0.00     0.200 A 
ATOM     76  F   UNL A   1      39.241  24.868  27.632  1.00  0.00    -0.200 F 
ATOM     77  F   UNL A   1      40.719  25.640  25.475  1.00  0.00    -0.200 F 
ENDBRANCH  53  67
BRANCH  54  78
ATOM     78  C   UNL A   1      39.579  33.907  36.874  1.00  0.00     0.064 A 
ATOM     79  C   UNL A   1      38.817  33.498  37.977  1.00  0.00     0.173 A 
ATOM     80  C   UNL A   1      40.210  35.157  36.941  1.00  0.00     0.173 A 
ATOM     81  F   UNL A   1      38.182  32.318  37.950  1.00  0.00    -0.203 F 
ATOM     82  C   UNL A   1      38.679  34.313  39.098  1.00  0.00     0.198 A 
ATOM     83  C   UNL A   1      40.090  35.961  38.073  1.00  0.00     0.198 A 
ATOM     84  F   UNL A   1      40.956  35.589  35.915  1.00  0.00    -0.203 F 
ATOM     85  F   UNL A   1      37.917  33.912  40.125  1.00  0.00    -0.200 F 
ATOM     86  C   UNL A   1      39.320  35.542  39.148  1.00  0.00     0.200 A 
ATOM     87  F   UNL A   1      40.725  37.140  38.124  1.00  0.00    -0.200 F 
ATOM     88  F   UNL A   1      39.193  36.322  40.229  1.00  0.00    -0.200 F 
ENDBRANCH  54  78
BRANCH  66  89
ATOM     89  C   UNL A   1      44.019  28.839  35.133  1.00  0.00     0.064 A 
ATOM     90  C   UNL A   1      45.312  29.355  34.975  1.00  0.00     0.173 A 
ATOM     91  C   UNL A   1      43.844  27.756  36.008  1.00  0.00     0.173 A 
ATOM     92  F   UNL A   1      45.532  30.379  34.136  1.00  0.00    -0.203 F 
ATOM     93  C   UNL A   1      46.393  28.794  35.649  1.00  0.00     0.198 A 
ATOM     94  C   UNL A   1      44.923  27.213  36.701  1.00  0.00     0.198 A 
ATOM     95  F   UNL A   1      42.625  27.228  36.197  1.00  0.00    -0.203 F 
ATOM     96  F   UNL A   1      47.628  29.275  35.449  1.00  0.00    -0.200 F 
ATOM     97  C   UNL A   1      46.197  27.729  36.516  1.00  0.00     0.200 A 
ATOM     98  F   UNL A   1      44.730  26.192  37.546  1.00  0.00    -0.200 F 
ATOM     99  F   UNL A   1      47.238  27.194  37.169  1.00  0.00    -0.200 F 
ENDBRANCH  66  89
ENDBRANCH  40  41
ENDBRANCH  32  35
ENDBRANCH  30  31
ENDBRANCH  29  30
ENDBRANCH   1  29
TORSDOF 14
ENDMDL
MODEL 2
REMARK VINA RESULT:     -13.6      0.784      7.137
REMARK SMILES CS(=O)(=O)c1ccc(C(=O)N2C[C@@H](C(=O)NCCCNC(=O)c3ccc(-c4c5nc(c(-c6c(F)c(F)c(F)c(F)c6F)c6ccc([nH]6)c(-c6c(F)c(F)c(F)c(F)c6F)c6nc(c(-c7c(F)c(F)c(F)c(F)c7F)c7ccc4[nH]7)C=C6)C=C5)cc3)[C@H](c3ccncc3)C2)cc1
REMARK SMILES IDX 17 1 16 2 14 3 15 4 13 6 11 7 12 8 93 9 86 10 9 11 10 12
REMARK SMILES IDX 8 13 5 14 6 15 95 16 7 17 94 18 2 19 1 20 3 21 4 22 87 23
REMARK SMILES IDX 88 24 92 25 89 26 91 27 90 28 18 29 19 30 20 31 21 32 22 34
REMARK SMILES IDX 23 35 24 36 85 37 25 38 84 39 26 40 27 41 28 42 78 43 29 44
REMARK SMILES IDX 83 45 77 46 79 47 30 48 82 49 76 50 75 51 31 53 63 54 43 55
REMARK SMILES IDX 62 56 44 57 47 58 61 59 80 60 45 61 46 62 60 64 81 65 48 66
REMARK SMILES IDX 32 67 33 68 41 69 34 70 35 71 39 72 42 73 36 74 37 75 40 76
REMARK SMILES IDX 38 77 64 78 65 79 73 80 66 81 67 82 71 83 74 84 68 85 69 86
REMARK SMILES IDX 72 87 70 88 49 89 50 90 58 91 51 92 52 93 56 94 59 95 53 96
REMARK SMILES IDX 54 97 57 98 55 99
REMARK H PARENT 16 5 20 33 79 52 47 63
REMARK Flexibility Score: inf
ROOT
ATOM      1  C   UNL A   1      31.654  30.634  26.694  1.00  0.00     0.117 C 
ENDROOT
BRANCH   1   2
ATOM      2  N   UNL A   1      32.474  30.371  25.525  1.00  0.00    -0.356 N 
ATOM      3  C   UNL A   1      32.493  29.307  24.675  1.00  0.00     0.225 C 
ATOM      4  O   UNL A   1      33.319  29.310  23.763  1.00  0.00    -0.275 OA
ATOM      5  H   UNL A   1      33.125  31.078  25.311  1.00  0.00     0.163 HD
BRANCH   3   6
ATOM      6  C   UNL A   1      31.515  28.174  24.866  1.00  0.00     0.107 C 
ATOM      7  N   UNL A   1      31.290  25.890  24.947  1.00  0.00    -0.337 N 
ATOM      8  C   UNL A   1      32.249  26.916  25.293  1.00  0.00     0.134 C 
ATOM      9  C   UNL A   1      30.657  26.227  23.680  1.00  0.00     0.129 C 
ATOM     10  C   UNL A   1      30.796  27.766  23.547  1.00  0.00     0.053 C 
BRANCH   7  11
ATOM     11  C   UNL A   1      30.945  24.731  25.611  1.00  0.00     0.253 C 
ATOM     12  O   UNL A   1      30.091  24.728  26.499  1.00  0.00    -0.269 OA
BRANCH  11  13
ATOM     13  C   UNL A   1      31.704  23.468  25.375  1.00  0.00     0.040 A 
ATOM     14  C   UNL A   1      32.701  20.871  25.008  1.00  0.00     0.067 A 
ATOM     15  C   UNL A   1      32.050  21.525  23.956  1.00  0.00     0.021 A 
ATOM     16  C   UNL A   1      32.886  21.514  26.232  1.00  0.00     0.021 A 
ATOM     17  C   UNL A   1      31.554  22.820  24.142  1.00  0.00     0.015 A 
ATOM     18  C   UNL A   1      32.366  22.800  26.417  1.00  0.00     0.015 A 
BRANCH  14  19
ATOM     19  S   UNL A   1      33.190  19.179  24.750  1.00  0.00     0.175 S 
ATOM     20  C   UNL A   1      32.528  18.671  23.189  1.00  0.00     0.163 C 
ATOM     21  O   UNL A   1      32.525  18.398  25.771  1.00  0.00    -0.224 OA
ATOM     22  O   UNL A   1      34.636  19.193  24.626  1.00  0.00    -0.224 OA
ENDBRANCH  14  19
ENDBRANCH  11  13
ENDBRANCH   7  11
BRANCH  10  23
ATOM     23  C   UNL A   1      29.538  28.607  23.359  1.00  0.00    -0.039 A 
ATOM     24  C   UNL A   1      29.657  30.008  23.359  1.00  0.00     0.024 A 
ATOM     25  C   UNL A   1      28.251  28.083  23.207  1.00  0.00     0.024 A 
ATOM     26  C   UNL A   1      28.520  30.797  23.253  1.00  0.00     0.111 A 
ATOM     27  C   UNL A   1      27.173  28.953  23.090  1.00  0.00     0.111 A 
ATOM     28  N   UNL A   1      27.278  30.298  23.126  1.00  0.00    -0.265 NA
ENDBRANCH  10  23
ENDBRANCH   3   6
ENDBRANCH   1   2
BRANCH   1  29
ATOM     29  C   UNL A   1      31.403  32.127  26.876  1.00  0.00     0.042 C 
BRANCH  29  30
ATOM     30  C   UNL A   1      32.675  32.970  26.865  1.00  0.00     0.118 C 
BRANCH  30  31
ATOM     31  N   UNL A   1      32.537  34.203  27.626  1.00  0.00    -0.352 N 
ATOM     32  C   UNL A   1      33.186  34.619  28.761  1.00  0.00     0.251 C 
ATOM     33  H   UNL A   1      31.874  34.838  27.271  1.00  0.00     0.163 HD
ATOM     34  O   UNL A   1      32.799  35.627  29.345  1.00  0.00    -0.269 OA
BRANCH  32  35
ATOM     35  C   UNL A   1      34.330  33.853  29.300  1.00  0.00     0.039 A 
ATOM     36  C   UNL A   1      35.626  34.284  29.005  1.00  0.00     0.014 A 
ATOM     37  C   UNL A   1      34.135  32.702  30.068  1.00  0.00     0.014 A 
ATOM     38  C   UNL A   1      36.723  33.602  29.533  1.00  0.00     0.010 A 
ATOM     39  C   UNL A   1      35.224  32.067  30.657  1.00  0.00     0.010 A 
ATOM     40  C   UNL A   1      36.530  32.509  30.393  1.00  0.00    -0.014 A 
BRANCH  40  41
ATOM     41  C   UNL A   1      37.679  31.812  31.021  1.00  0.00     0.031 A 
ATOM     42  C   UNL A   1      38.103  32.161  32.420  1.00  0.00     0.074 A 
ATOM     43  C   UNL A   1      38.380  30.908  30.310  1.00  0.00     0.049 A 
ATOM     44  N   UNL A   1      39.120  31.715  33.114  1.00  0.00    -0.248 NA
ATOM     45  C   UNL A   1      37.292  33.167  33.123  1.00  0.00     0.031 C 
ATOM     46  C   UNL A   1      38.092  30.510  28.931  1.00  0.00     0.029 A 
ATOM     47  N   UNL A   1      39.482  30.165  30.647  1.00  0.00    -0.354 N 
ATOM     48  C   UNL A   1      39.078  32.395  34.323  1.00  0.00     0.074 A 
ATOM     49  C   UNL A   1      37.969  33.322  34.250  1.00  0.00     0.031 C 
ATOM     50  C   UNL A   1      38.977  29.575  28.550  1.00  0.00     0.029 A 
ATOM     51  C   UNL A   1      39.913  29.333  29.644  1.00  0.00     0.049 A 
ATOM     52  H   UNL A   1      39.922  30.220  31.526  1.00  0.00     0.167 HD
ATOM     53  C   UNL A   1      39.877  32.243  35.407  1.00  0.00     0.037 A 
ATOM     54  C   UNL A   1      40.949  28.474  29.609  1.00  0.00     0.037 A 
ATOM     55  C   UNL A   1      40.961  31.301  35.490  1.00  0.00     0.049 A 
ATOM     56  C   UNL A   1      41.829  28.333  30.821  1.00  0.00     0.074 A 
ATOM     57  C   UNL A   1      41.792  31.030  36.563  1.00  0.00     0.029 A 
ATOM     58  N   UNL A   1      41.366  30.473  34.452  1.00  0.00    -0.354 N 
ATOM     59  N   UNL A   1      41.743  28.938  31.980  1.00  0.00    -0.248 NA
ATOM     60  C   UNL A   1      42.947  27.386  30.718  1.00  0.00     0.031 C 
ATOM     61  C   UNL A   1      42.722  30.064  36.163  1.00  0.00     0.029 A 
ATOM     62  C   UNL A   1      42.446  29.703  34.855  1.00  0.00     0.049 A 
ATOM     63  H   UNL A   1      40.946  30.437  33.562  1.00  0.00     0.167 HD
ATOM     64  C   UNL A   1      42.775  28.425  32.754  1.00  0.00     0.074 A 
ATOM     65  C   UNL A   1      43.468  27.452  31.935  1.00  0.00     0.031 C 
ATOM     66  C   UNL A   1      43.117  28.732  34.030  1.00  0.00     0.037 A 
BRANCH  53  67
ATOM     67  C   UNL A   1      39.599  33.119  36.595  1.00  0.00     0.064 A 
ATOM     68  C   UNL A   1      40.259  34.345  36.773  1.00  0.00     0.173 A 
ATOM     69  C   UNL A   1      38.651  32.737  37.556  1.00  0.00     0.173 A 
ATOM     70  F   UNL A   1      41.184  34.748  35.888  1.00  0.00    -0.203 F 
ATOM     71  C   UNL A   1      40.007  35.139  37.887  1.00  0.00     0.198 A 
ATOM     72  C   UNL A   1      38.381  33.549  38.655  1.00  0.00     0.198 A 
ATOM     73  F   UNL A   1      37.989  31.578  37.432  1.00  0.00    -0.203 F 
ATOM     74  F   UNL A   1      40.690  36.278  38.066  1.00  0.00    -0.200 F 
ATOM     75  C   UNL A   1      39.064  34.743  38.825  1.00  0.00     0.200 A 
ATOM     76  F   UNL A   1      37.462  33.170  39.555  1.00  0.00    -0.200 F 
ATOM     77  F   UNL A   1      38.822  35.509  39.899  1.00  0.00    -0.200 F 
ENDBRANCH  53  67
BRANCH  54  78
ATOM     78  C   UNL A   1      41.187  27.648  28.398  1.00  0.00     0.064 A 
ATOM     79  C   UNL A   1      42.084  28.074  27.409  1.00  0.00     0.173 A 
ATOM     80  C   UNL A   1      40.534  26.422  28.205  1.00  0.00     0.173 A 
ATOM     81  F   UNL A   1      42.718  29.248  27.543  1.00  0.00    -0.203 F 
ATOM     82  C   UNL A   1      42.308  27.313  26.264  1.00  0.00     0.198 A 
ATOM     83  C   UNL A   1      40.777  25.650  27.071  1.00  0.00     0.198 A 
ATOM     84  F   UNL A   1      39.673  25.967  29.127  1.00  0.00    -0.203 F 
ATOM     85  F   UNL A   1      43.145  27.761  25.318  1.00  0.00    -0.200 F 
ATOM     86  C   UNL A   1      41.658  26.099  26.098  1.00  0.00     0.200 A 
ATOM     87  F   UNL A   1      40.160  24.470  26.923  1.00  0.00    -0.200 F 
ATOM     88  F   UNL A   1      41.880  25.364  25.001  1.00  0.00    -0.200 F 
ENDBRANCH  54  78
BRANCH  66  89
ATOM     89  C   UNL A   1      44.269  27.984  34.628  1.00  0.00     0.064 A 
ATOM     90  C   UNL A   1      45.578  28.484  34.576  1.00  0.00     0.173 A 
ATOM     91  C   UNL A   1      44.055  26.766  35.292  1.00  0.00     0.173 A 
ATOM     92  F   UNL A   1      45.835  29.635  33.937  1.00  0.00    -0.203 F 
ATOM     93  C   UNL A   1      46.635  27.781  35.147  1.00  0.00     0.198 A 
ATOM     94  C   UNL A   1      45.111  26.078  35.885  1.00  0.00     0.198 A 
ATOM     95  F   UNL A   1      42.821  26.247  35.373  1.00  0.00    -0.203 F 
ATOM     96  F   UNL A   1      47.884  28.255  35.048  1.00  0.00    -0.200 F 
ATOM     97  C   UNL A   1      46.400  26.583  35.807  1.00  0.00     0.200 A 
ATOM     98  F   UNL A   1      44.880  24.928  36.531  1.00  0.00    -0.200 F 
ATOM     99  F   UNL A   1      47.418  25.911  36.361  1.00  0.00    -0.200 F 
ENDBRANCH  66  89
ENDBRANCH  40  41
ENDBRANCH  32  35
ENDBRANCH  30  31
ENDBRANCH  29  30
ENDBRANCH   1  29
TORSDOF 14
ENDMDL
MODEL 3
REMARK VINA RESULT:     -13.3      5.807     11.322
REMARK SMILES CS(=O)(=O)c1ccc(C(=O)N2C[C@@H](C(=O)NCCCNC(=O)c3ccc(-c4c5nc(c(-c6c(F)c(F)c(F)c(F)c6F)c6ccc([nH]6)c(-c6c(F)c(F)c(F)c(F)c6F)c6nc(c(-c7c(F)c(F)c(F)c(F)c7F)c7ccc4[nH]7)C=C6)C=C5)cc3)[C@H](c3ccncc3)C2)cc1
REMARK SMILES IDX 17 1 16 2 14 3 15 4 13 6 11 7 12 8 93 9 86 10 9 11 10 12
REMARK SMILES IDX 8 13 5 14 6 15 95 16 7 17 94 18 2 19 1 20 3 21 4 22 87 23
REMARK SMILES IDX 88 24 92 25 89 26 91 27 90 28 18 29 19 30 20 31 21 32 22 34
REMARK SMILES IDX 23 35 24 36 85 37 25 38 84 39 26 40 27 41 28 42 78 43 29 44
REMARK SMILES IDX 83 45 77 46 79 47 30 48 82 49 76 50 75 51 31 53 63 54 43 55
REMARK SMILES IDX 62 56 44 57 47 58 61 59 80 60 45 61 46 62 60 64 81 65 48 66
REMARK SMILES IDX 32 67 33 68 41 69 34 70 35 71 39 72 42 73 36 74 37 75 40 76
REMARK SMILES IDX 38 77 64 78 65 79 73 80 66 81 67 82 71 83 74 84 68 85 69 86
REMARK SMILES IDX 72 87 70 88 49 89 50 90 58 91 51 92 52 93 56 94 59 95 53 96
REMARK SMILES IDX 54 97 57 98 55 99
REMARK H PARENT 16 5 20 33 79 52 47 63
REMARK Flexibility Score: inf
ROOT
ATOM      1  C   UNL A   1      43.239  22.159  27.041  1.00  0.00     0.117 C 
ENDROOT
BRANCH   1   2
ATOM      2  N   UNL A   1      44.476  21.953  26.308  1.00  0.00    -0.356 N 
ATOM      3  C   UNL A   1      45.390  22.847  25.839  1.00  0.00     0.225 C 
ATOM      4  O   UNL A   1      46.354  22.413  25.211  1.00  0.00    -0.275 OA
ATOM      5  H   UNL A   1      44.690  21.010  26.118  1.00  0.00     0.163 HD
BRANCH   3   6
ATOM      6  C   UNL A   1      45.204  24.321  26.102  1.00  0.00     0.107 C 
ATOM      7  N   UNL A   1      44.424  26.294  25.223  1.00  0.00    -0.337 N 
ATOM      8  C   UNL A   1      44.120  24.880  25.198  1.00  0.00     0.134 C 
ATOM      9  C   UNL A   1      45.866  26.480  25.188  1.00  0.00     0.129 C 
ATOM     10  C   UNL A   1      46.464  25.163  25.749  1.00  0.00     0.053 C 
BRANCH   7  11
ATOM     11  C   UNL A   1      43.581  27.387  25.262  1.00  0.00     0.253 C 
ATOM     12  O   UNL A   1      42.784  27.616  24.352  1.00  0.00    -0.269 OA
BRANCH  11  13
ATOM     13  C   UNL A   1      43.716  28.408  26.341  1.00  0.00     0.040 A 
ATOM     14  C   UNL A   1      44.056  30.644  28.002  1.00  0.00     0.067 A 
ATOM     15  C   UNL A   1      42.826  30.421  27.374  1.00  0.00     0.021 A 
ATOM     16  C   UNL A   1      45.108  29.744  27.834  1.00  0.00     0.021 A 
ATOM     17  C   UNL A   1      42.659  29.306  26.546  1.00  0.00     0.015 A 
ATOM     18  C   UNL A   1      44.940  28.644  26.986  1.00  0.00     0.015 A 
BRANCH  14  19
ATOM     19  S   UNL A   1      44.244  32.148  28.934  1.00  0.00     0.175 S 
ATOM     20  C   UNL A   1      44.418  33.472  27.771  1.00  0.00     0.163 C 
ATOM     21  O   UNL A   1      45.500  32.037  29.646  1.00  0.00    -0.224 OA
ATOM     22  O   UNL A   1      42.989  32.347  29.637  1.00  0.00    -0.224 OA
ENDBRANCH  14  19
ENDBRANCH  11  13
ENDBRANCH   7  11
BRANCH  10  23
ATOM     23  C   UNL A   1      47.398  25.231  26.954  1.00  0.00    -0.039 A 
ATOM     24  C   UNL A   1      46.840  25.433  28.229  1.00  0.00     0.024 A 
ATOM     25  C   UNL A   1      48.790  25.128  26.883  1.00  0.00     0.024 A 
ATOM     26  C   UNL A   1      47.672  25.562  29.332  1.00  0.00     0.111 A 
ATOM     27  C   UNL A   1      49.540  25.253  28.047  1.00  0.00     0.111 A 
ATOM     28  N   UNL A   1      49.013  25.484  29.267  1.00  0.00    -0.265 NA
ENDBRANCH  10  23
ENDBRANCH   3   6
ENDBRANCH   1   2
BRANCH   1  29
ATOM     29  C   UNL A   1      42.026  22.085  26.121  1.00  0.00     0.042 C 
BRANCH  29  30
ATOM     30  C   UNL A   1      40.699  21.949  26.863  1.00  0.00     0.118 C 
BRANCH  30  31
ATOM     31  N   UNL A   1      39.564  22.403  26.072  1.00  0.00    -0.352 N 
ATOM     32  C   UNL A   1      38.857  23.578  26.132  1.00  0.00     0.251 C 
ATOM     33  H   UNL A   1      39.256  21.767  25.387  1.00  0.00     0.163 HD
ATOM     34  O   UNL A   1      37.820  23.694  25.486  1.00  0.00    -0.269 OA
BRANCH  32  35
ATOM     35  C   UNL A   1      39.319  24.693  26.986  1.00  0.00     0.039 A 
ATOM     36  C   UNL A   1      40.144  25.672  26.423  1.00  0.00     0.014 A 
ATOM     37  C   UNL A   1      38.969  24.767  28.336  1.00  0.00     0.014 A 
ATOM     38  C   UNL A   1      40.562  26.757  27.196  1.00  0.00     0.010 A 
ATOM     39  C   UNL A   1      39.322  25.886  29.085  1.00  0.00     0.010 A 
ATOM     40  C   UNL A   1      40.124  26.890  28.523  1.00  0.00    -0.014 A 
BRANCH  40  41
ATOM     41  C   UNL A   1      40.500  28.070  29.342  1.00  0.00     0.031 A 
ATOM     42  C   UNL A   1      41.854  28.141  29.989  1.00  0.00     0.074 A 
ATOM     43  C   UNL A   1      39.599  29.049  29.553  1.00  0.00     0.049 A 
ATOM     44  N   UNL A   1      42.341  29.051  30.795  1.00  0.00    -0.248 NA
ATOM     45  C   UNL A   1      42.774  27.025  29.719  1.00  0.00     0.031 C 
ATOM     46  C   UNL A   1      38.239  29.077  29.011  1.00  0.00     0.029 A 
ATOM     47  N   UNL A   1      39.690  30.205  30.284  1.00  0.00    -0.354 N 
ATOM     48  C   UNL A   1      43.612  28.611  31.136  1.00  0.00     0.074 A 
ATOM     49  C   UNL A   1      43.802  27.328  30.495  1.00  0.00     0.031 C 
ATOM     50  C   UNL A   1      37.634  30.209  29.405  1.00  0.00     0.029 A 
ATOM     51  C   UNL A   1      38.548  30.967  30.254  1.00  0.00     0.049 A 
ATOM     52  H   UNL A   1      40.498  30.466  30.783  1.00  0.00     0.167 HD
ATOM     53  C   UNL A   1      44.547  29.232  31.896  1.00  0.00     0.037 A 
ATOM     54  C   UNL A   1      38.270  32.143  30.846  1.00  0.00     0.037 A 
ATOM     55  C   UNL A   1      44.368  30.521  32.509  1.00  0.00     0.049 A 
ATOM     56  C   UNL A   1      39.320  32.806  31.694  1.00  0.00     0.074 A 
ATOM     57  C   UNL A   1      45.274  31.261  33.248  1.00  0.00     0.029 A 
ATOM     58  N   UNL A   1      43.197  31.264  32.452  1.00  0.00    -0.354 N 
ATOM     59  N   UNL A   1      40.540  32.409  31.961  1.00  0.00    -0.248 NA
ATOM     60  C   UNL A   1      38.953  34.083  32.321  1.00  0.00     0.031 C 
ATOM     61  C   UNL A   1      44.640  32.435  33.669  1.00  0.00     0.029 A 
ATOM     62  C   UNL A   1      43.352  32.446  33.159  1.00  0.00     0.049 A 
ATOM     63  H   UNL A   1      42.377  30.992  31.979  1.00  0.00     0.167 HD
ATOM     64  C   UNL A   1      41.096  33.399  32.760  1.00  0.00     0.074 A 
ATOM     65  C   UNL A   1      40.083  34.420  32.927  1.00  0.00     0.031 C 
ATOM     66  C   UNL A   1      42.336  33.456  33.306  1.00  0.00     0.037 A 
BRANCH  53  67
ATOM     67  C   UNL A   1      45.852  28.519  32.099  1.00  0.00     0.064 A 
ATOM     68  C   UNL A   1      45.992  27.504  33.058  1.00  0.00     0.173 A 
ATOM     69  C   UNL A   1      46.972  28.842  31.317  1.00  0.00     0.173 A 
ATOM     70  F   UNL A   1      44.955  27.168  33.841  1.00  0.00    -0.203 F 
ATOM     71  C   UNL A   1      47.212  26.863  33.251  1.00  0.00     0.198 A 
ATOM     72  C   UNL A   1      48.183  28.179  31.493  1.00  0.00     0.198 A 
ATOM     73  F   UNL A   1      46.891  29.801  30.383  1.00  0.00    -0.203 F 
ATOM     74  F   UNL A   1      47.337  25.937  34.211  1.00  0.00    -0.200 F 
ATOM     75  C   UNL A   1      48.305  27.197  32.465  1.00  0.00     0.200 A 
ATOM     76  F   UNL A   1      49.235  28.495  30.726  1.00  0.00    -0.200 F 
ATOM     77  F   UNL A   1      49.481  26.579  32.652  1.00  0.00    -0.200 F 
ENDBRANCH  53  67
BRANCH  54  78
ATOM     78  C   UNL A   1      36.953  32.792  30.624  1.00  0.00     0.064 A 
ATOM     79  C   UNL A   1      36.689  33.479  29.431  1.00  0.00     0.173 A 
ATOM     80  C   UNL A   1      35.935  32.736  31.586  1.00  0.00     0.173 A 
ATOM     81  F   UNL A   1      37.639  33.573  28.489  1.00  0.00    -0.203 F 
ATOM     82  C   UNL A   1      35.461  34.100  29.214  1.00  0.00     0.198 A 
ATOM     83  C   UNL A   1      34.698  33.337  31.358  1.00  0.00     0.198 A 
ATOM     84  F   UNL A   1      36.136  32.084  32.739  1.00  0.00    -0.203 F 
ATOM     85  F   UNL A   1      35.248  34.779  28.079  1.00  0.00    -0.200 F 
ATOM     86  C   UNL A   1      34.464  34.024  30.176  1.00  0.00     0.200 A 
ATOM     87  F   UNL A   1      33.733  33.247  32.282  1.00  0.00    -0.200 F 
ATOM     88  F   UNL A   1      33.281  34.614  29.964  1.00  0.00    -0.200 F 
ENDBRANCH  54  78
BRANCH  66  89
ATOM     89  C   UNL A   1      42.676  34.679  34.104  1.00  0.00     0.064 A 
ATOM     90  C   UNL A   1      43.120  35.858  33.488  1.00  0.00     0.173 A 
ATOM     91  C   UNL A   1      42.523  34.681  35.498  1.00  0.00     0.173 A 
ATOM     92  F   UNL A   1      43.299  35.899  32.159  1.00  0.00    -0.203 F 
ATOM     93  C   UNL A   1      43.421  36.988  34.244  1.00  0.00     0.198 A 
ATOM     94  C   UNL A   1      42.799  35.821  36.248  1.00  0.00     0.198 A 
ATOM     95  F   UNL A   1      42.096  33.579  36.134  1.00  0.00    -0.203 F 
ATOM     96  F   UNL A   1      43.886  38.090  33.640  1.00  0.00    -0.200 F 
ATOM     97  C   UNL A   1      43.254  36.971  35.620  1.00  0.00     0.200 A 
ATOM     98  F   UNL A   1      42.627  35.806  37.576  1.00  0.00    -0.200 F 
ATOM     99  F   UNL A   1      43.539  38.062  36.345  1.00  0.00    -0.200 F 
ENDBRANCH  66  89
ENDBRANCH  40  41
ENDBRANCH  32  35
ENDBRANCH  30  31
ENDBRANCH  29  30
ENDBRANCH   1  29
TORSDOF 14
ENDMDL
