MODEL 1
REMARK VINA RESULT:     -12.3      0.000      0.000
REMARK SMILES CN(CC(=O)NCCCNC(=O)c1ccc(-c2c3nc(c(-c4c(F)c(F)c(F)c(F)c4F)c4ccc([nH]4)c(-c4c(F)c(F)c(F)c(F)c4F)c4nc(c(-c5c(F)c(F)c(F)c(F)c5F)c5ccc2[nH]5)C=C4)C=C3)cc1)C(=O)N[C@@H]1C[C@H]1c1ccccc1
REMARK SMILES IDX 7 1 6 2 4 3 5 4 3 6 2 7 1 8 76 9 77 10 78 11 79 13 80 14
REMARK SMILES IDX 81 15 82 16 83 17 87 18 84 19 86 20 85 21 8 22 9 23 10 24
REMARK SMILES IDX 11 25 12 27 13 28 14 29 75 30 15 31 74 32 16 33 17 34 18 35
REMARK SMILES IDX 68 36 19 37 73 38 67 39 69 40 20 41 72 42 66 43 65 44 21 46
REMARK SMILES IDX 53 47 33 48 52 49 34 50 37 51 51 52 70 53 35 54 36 55 50 57
REMARK SMILES IDX 71 58 38 59 22 60 23 61 31 62 24 63 25 64 29 65 32 66 26 67
REMARK SMILES IDX 27 68 30 69 28 70 54 71 55 72 63 73 56 74 57 75 61 76 64 77
REMARK SMILES IDX 58 78 59 79 62 80 60 81 39 82 40 83 48 84 41 85 42 86 46 87
REMARK SMILES IDX 49 88 43 89 44 90 47 91 45 92
REMARK H PARENT 6 5 78 12 10 26 69 45 37 56
REMARK Flexibility Score: inf
ROOT
ATOM      1  C   UNL A   1      31.689  30.637  26.028  1.00  0.00     0.117 C 
ENDROOT
BRANCH   1   2
ATOM      2  N   UNL A   1      32.413  29.780  26.938  1.00  0.00    -0.354 N 
ATOM      3  C   UNL A   1      33.617  29.187  26.714  1.00  0.00     0.239 C 
ATOM      4  O   UNL A   1      34.441  29.278  27.631  1.00  0.00    -0.273 OA
ATOM      5  H   UNL A   1      31.993  29.608  27.811  1.00  0.00     0.163 HD
BRANCH   3   6
ATOM      6  C   UNL A   1      33.995  28.519  25.376  1.00  0.00     0.220 C 
BRANCH   6   7
ATOM      7  N   UNL A   1      33.372  27.244  25.019  1.00  0.00    -0.319 N 
ATOM      8  C   UNL A   1      33.139  26.319  26.121  1.00  0.00     0.149 C 
BRANCH   7   9
ATOM      9  C   UNL A   1      32.927  26.818  23.798  1.00  0.00     0.317 C 
ATOM     10  O   UNL A   1      33.424  25.818  23.262  1.00  0.00    -0.249 OA
ATOM     11  N   UNL A   1      31.970  27.427  23.065  1.00  0.00    -0.335 N 
ATOM     12  H   UNL A   1      32.095  27.294  22.098  1.00  0.00     0.165 HD
BRANCH  11  13
ATOM     13  C   UNL A   1      30.820  28.215  23.361  1.00  0.00     0.092 C 
ATOM     14  C   UNL A   1      29.468  27.528  23.409  1.00  0.00     0.036 C 
ATOM     15  C   UNL A   1      29.725  28.593  22.400  1.00  0.00     0.044 C 
BRANCH  15  16
ATOM     16  C   UNL A   1      29.120  29.985  22.442  1.00  0.00    -0.043 A 
ATOM     17  C   UNL A   1      28.616  30.545  21.255  1.00  0.00     0.004 A 
ATOM     18  C   UNL A   1      29.161  30.834  23.566  1.00  0.00     0.004 A 
ATOM     19  C   UNL A   1      28.230  31.885  21.172  1.00  0.00     0.000 A 
ATOM     20  C   UNL A   1      28.770  32.175  23.495  1.00  0.00     0.000 A 
ATOM     21  C   UNL A   1      28.320  32.705  22.292  1.00  0.00     0.000 A 
ENDBRANCH  15  16
ENDBRANCH  11  13
ENDBRANCH   7   9
ENDBRANCH   6   7
ENDBRANCH   3   6
ENDBRANCH   1   2
BRANCH   1  22
ATOM     22  C   UNL A   1      31.437  32.038  26.564  1.00  0.00     0.042 C 
BRANCH  22  23
ATOM     23  C   UNL A   1      32.624  32.666  27.293  1.00  0.00     0.118 C 
BRANCH  23  24
ATOM     24  N   UNL A   1      32.423  34.072  27.626  1.00  0.00    -0.352 N 
ATOM     25  C   UNL A   1      33.007  34.875  28.573  1.00  0.00     0.251 C 
ATOM     26  H   UNL A   1      31.748  34.526  27.072  1.00  0.00     0.163 HD
ATOM     27  O   UNL A   1      32.528  35.979  28.810  1.00  0.00    -0.269 OA
BRANCH  25  28
ATOM     28  C   UNL A   1      34.189  34.416  29.332  1.00  0.00     0.039 A 
ATOM     29  C   UNL A   1      34.001  33.839  30.591  1.00  0.00     0.014 A 
ATOM     30  C   UNL A   1      35.479  34.581  28.827  1.00  0.00     0.014 A 
ATOM     31  C   UNL A   1      35.097  33.341  31.299  1.00  0.00     0.010 A 
ATOM     32  C   UNL A   1      36.562  34.014  29.493  1.00  0.00     0.010 A 
ATOM     33  C   UNL A   1      36.380  33.377  30.730  1.00  0.00    -0.014 A 
BRANCH  33  34
ATOM     34  C   UNL A   1      37.538  32.718  31.386  1.00  0.00     0.031 A 
ATOM     35  C   UNL A   1      38.219  31.548  30.736  1.00  0.00     0.074 A 
ATOM     36  C   UNL A   1      37.910  33.120  32.617  1.00  0.00     0.049 A 
ATOM     37  N   UNL A   1      39.168  30.778  31.205  1.00  0.00    -0.248 NA
ATOM     38  C   UNL A   1      37.750  31.175  29.393  1.00  0.00     0.031 C 
ATOM     39  C   UNL A   1      37.290  34.210  33.373  1.00  0.00     0.029 A 
ATOM     40  N   UNL A   1      38.884  32.646  33.459  1.00  0.00    -0.354 N 
ATOM     41  C   UNL A   1      39.398  29.822  30.223  1.00  0.00     0.074 A 
ATOM     42  C   UNL A   1      38.457  30.079  29.155  1.00  0.00     0.031 C 
ATOM     43  C   UNL A   1      37.906  34.330  34.558  1.00  0.00     0.029 A 
ATOM     44  C   UNL A   1      38.932  33.298  34.667  1.00  0.00     0.049 A 
ATOM     45  H   UNL A   1      39.490  31.907  33.221  1.00  0.00     0.167 HD
ATOM     46  C   UNL A   1      40.323  28.833  30.211  1.00  0.00     0.037 A 
ATOM     47  C   UNL A   1      39.705  33.079  35.747  1.00  0.00     0.037 A 
ATOM     48  C   UNL A   1      41.271  28.597  31.270  1.00  0.00     0.049 A 
ATOM     49  C   UNL A   1      40.714  31.966  35.712  1.00  0.00     0.074 A 
ATOM     50  C   UNL A   1      42.298  27.672  31.318  1.00  0.00     0.029 A 
ATOM     51  N   UNL A   1      41.299  29.288  32.472  1.00  0.00    -0.354 N 
ATOM     52  N   UNL A   1      40.976  31.118  34.747  1.00  0.00    -0.248 NA
ATOM     53  C   UNL A   1      41.537  31.779  36.915  1.00  0.00     0.031 C 
ATOM     54  C   UNL A   1      42.914  27.767  32.570  1.00  0.00     0.029 A 
ATOM     55  C   UNL A   1      42.305  28.786  33.283  1.00  0.00     0.049 A 
ATOM     56  H   UNL A   1      40.693  30.026  32.715  1.00  0.00     0.167 HD
ATOM     57  C   UNL A   1      42.002  30.309  35.218  1.00  0.00     0.074 A 
ATOM     58  C   UNL A   1      42.331  30.784  36.547  1.00  0.00     0.031 C 
ATOM     59  C   UNL A   1      42.614  29.265  34.607  1.00  0.00     0.037 A 
BRANCH  46  60
ATOM     60  C   UNL A   1      40.358  27.928  29.013  1.00  0.00     0.064 A 
ATOM     61  C   UNL A   1      41.124  28.236  27.878  1.00  0.00     0.173 A 
ATOM     62  C   UNL A   1      39.648  26.717  29.014  1.00  0.00     0.173 A 
ATOM     63  F   UNL A   1      41.814  29.385  27.821  1.00  0.00    -0.203 F 
ATOM     64  C   UNL A   1      41.154  27.381  26.779  1.00  0.00     0.198 A 
ATOM     65  C   UNL A   1      39.705  25.851  27.926  1.00  0.00     0.198 A 
ATOM     66  F   UNL A   1      38.905  26.370  30.076  1.00  0.00    -0.203 F 
ATOM     67  F   UNL A   1      41.853  27.721  25.688  1.00  0.00    -0.200 F 
ATOM     68  C   UNL A   1      40.451  26.187  26.807  1.00  0.00     0.200 A 
ATOM     69  F   UNL A   1      39.036  24.689  27.960  1.00  0.00    -0.200 F 
ATOM     70  F   UNL A   1      40.488  25.361  25.751  1.00  0.00    -0.200 F 
ENDBRANCH  46  60
BRANCH  47  71
ATOM     71  C   UNL A   1      39.557  33.940  36.950  1.00  0.00     0.064 A 
ATOM     72  C   UNL A   1      38.760  33.535  38.029  1.00  0.00     0.173 A 
ATOM     73  C   UNL A   1      40.210  35.178  37.049  1.00  0.00     0.173 A 
ATOM     74  F   UNL A   1      38.099  32.369  37.973  1.00  0.00    -0.203 F 
ATOM     75  C   UNL A   1      38.608  34.343  39.155  1.00  0.00     0.198 A 
ATOM     76  C   UNL A   1      40.081  35.970  38.186  1.00  0.00     0.198 A 
ATOM     77  F   UNL A   1      40.988  35.608  36.045  1.00  0.00    -0.203 F 
ATOM     78  F   UNL A   1      37.807  33.951  40.155  1.00  0.00    -0.200 F 
ATOM     79  C   UNL A   1      39.275  35.556  39.236  1.00  0.00     0.200 A 
ATOM     80  F   UNL A   1      40.738  37.135  38.267  1.00  0.00    -0.200 F 
ATOM     81  F   UNL A   1      39.134  36.328  40.322  1.00  0.00    -0.200 F 
ENDBRANCH  47  71
BRANCH  59  82
ATOM     82  C   UNL A   1      43.708  28.573  35.366  1.00  0.00     0.064 A 
ATOM     83  C   UNL A   1      43.432  27.533  36.265  1.00  0.00     0.173 A 
ATOM     84  C   UNL A   1      45.050  28.931  35.166  1.00  0.00     0.173 A 
ATOM     85  F   UNL A   1      42.164  27.166  36.506  1.00  0.00    -0.203 F 
ATOM     86  C   UNL A   1      44.458  26.893  36.956  1.00  0.00     0.198 A 
ATOM     87  C   UNL A   1      46.076  28.268  35.834  1.00  0.00     0.198 A 
ATOM     88  F   UNL A   1      45.368  29.915  34.312  1.00  0.00    -0.203 F 
ATOM     89  F   UNL A   1      44.167  25.935  37.847  1.00  0.00    -0.200 F 
ATOM     90  C   UNL A   1      45.778  27.255  36.734  1.00  0.00     0.200 A 
ATOM     91  F   UNL A   1      47.351  28.609  35.609  1.00  0.00    -0.200 F 
ATOM     92  F   UNL A   1      46.764  26.633  37.393  1.00  0.00    -0.200 F 
ENDBRANCH  59  82
ENDBRANCH  33  34
ENDBRANCH  25  28
ENDBRANCH  23  24
ENDBRANCH  22  23
ENDBRANCH   1  22
TORSDOF 14
ENDMDL
MODEL 2
REMARK VINA RESULT:     -12.3      0.344      2.027
REMARK SMILES CN(CC(=O)NCCCNC(=O)c1ccc(-c2c3nc(c(-c4c(F)c(F)c(F)c(F)c4F)c4ccc([nH]4)c(-c4c(F)c(F)c(F)c(F)c4F)c4nc(c(-c5c(F)c(F)c(F)c(F)c5F)c5ccc2[nH]5)C=C4)C=C3)cc1)C(=O)N[C@@H]1C[C@H]1c1ccccc1
REMARK SMILES IDX 7 1 6 2 4 3 5 4 3 6 2 7 1 8 76 9 77 10 78 11 79 13 80 14
REMARK SMILES IDX 81 15 82 16 83 17 87 18 84 19 86 20 85 21 8 22 9 23 10 24
REMARK SMILES IDX 11 25 12 27 13 28 14 29 75 30 15 31 74 32 16 33 17 34 18 35
REMARK SMILES IDX 68 36 19 37 73 38 67 39 69 40 20 41 72 42 66 43 65 44 21 46
REMARK SMILES IDX 53 47 33 48 52 49 34 50 37 51 51 52 70 53 35 54 36 55 50 57
REMARK SMILES IDX 71 58 38 59 22 60 23 61 31 62 24 63 25 64 29 65 32 66 26 67
REMARK SMILES IDX 27 68 30 69 28 70 54 71 55 72 63 73 56 74 57 75 61 76 64 77
REMARK SMILES IDX 58 78 59 79 62 80 60 81 39 82 40 83 48 84 41 85 42 86 46 87
REMARK SMILES IDX 49 88 43 89 44 90 47 91 45 92
REMARK H PARENT 6 5 78 12 10 26 69 45 37 56
REMARK Flexibility Score: inf
ROOT
ATOM      1  C   UNL A   1      31.749  30.464  26.657  1.00  0.00     0.117 C 
ENDROOT
BRANCH   1   2
ATOM      2  N   UNL A   1      32.796  29.938  27.502  1.00  0.00    -0.354 N 
ATOM      3  C   UNL A   1      33.628  28.899  27.217  1.00  0.00     0.239 C 
ATOM      4  O   UNL A   1      34.826  29.089  27.452  1.00  0.00    -0.273 OA
ATOM      5  H   UNL A   1      32.922  30.376  28.375  1.00  0.00     0.163 HD
BRANCH   3   6
ATOM      6  C   UNL A   1      33.151  27.592  26.553  1.00  0.00     0.220 C 
BRANCH   6   7
ATOM      7  N   UNL A   1      33.047  27.533  25.094  1.00  0.00    -0.319 N 
ATOM      8  C   UNL A   1      33.839  28.513  24.361  1.00  0.00     0.149 C 
BRANCH   7   9
ATOM      9  C   UNL A   1      32.349  26.650  24.318  1.00  0.00     0.317 C 
ATOM     10  O   UNL A   1      32.727  25.476  24.207  1.00  0.00    -0.249 OA
ATOM     11  N   UNL A   1      31.246  26.952  23.598  1.00  0.00    -0.335 N 
ATOM     12  H   UNL A   1      31.156  26.392  22.794  1.00  0.00     0.165 HD
BRANCH  11  13
ATOM     13  C   UNL A   1      30.181  27.891  23.729  1.00  0.00     0.092 C 
ATOM     14  C   UNL A   1      28.759  27.398  23.537  1.00  0.00     0.036 C 
ATOM     15  C   UNL A   1      29.321  28.425  22.615  1.00  0.00     0.044 C 
BRANCH  15  16
ATOM     16  C   UNL A   1      28.912  29.888  22.602  1.00  0.00    -0.043 A 
ATOM     17  C   UNL A   1      28.383  30.436  21.421  1.00  0.00     0.004 A 
ATOM     18  C   UNL A   1      29.167  30.791  23.653  1.00  0.00     0.004 A 
ATOM     19  C   UNL A   1      28.173  31.809  21.270  1.00  0.00     0.000 A 
ATOM     20  C   UNL A   1      28.953  32.167  23.514  1.00  0.00     0.000 A 
ATOM     21  C   UNL A   1      28.471  32.677  22.314  1.00  0.00     0.000 A 
ENDBRANCH  15  16
ENDBRANCH  11  13
ENDBRANCH   7   9
ENDBRANCH   6   7
ENDBRANCH   3   6
ENDBRANCH   1   2
BRANCH   1  22
ATOM     22  C   UNL A   1      31.527  31.962  26.807  1.00  0.00     0.042 C 
BRANCH  22  23
ATOM     23  C   UNL A   1      32.781  32.761  27.157  1.00  0.00     0.118 C 
BRANCH  23  24
ATOM     24  N   UNL A   1      32.497  34.127  27.584  1.00  0.00    -0.352 N 
ATOM     25  C   UNL A   1      33.016  34.889  28.601  1.00  0.00     0.251 C 
ATOM     26  H   UNL A   1      31.811  34.585  27.046  1.00  0.00     0.163 HD
ATOM     27  O   UNL A   1      32.474  35.947  28.904  1.00  0.00    -0.269 OA
BRANCH  25  28
ATOM     28  C   UNL A   1      34.203  34.438  29.355  1.00  0.00     0.039 A 
ATOM     29  C   UNL A   1      34.024  33.860  30.616  1.00  0.00     0.014 A 
ATOM     30  C   UNL A   1      35.491  34.612  28.846  1.00  0.00     0.014 A 
ATOM     31  C   UNL A   1      35.126  33.369  31.319  1.00  0.00     0.010 A 
ATOM     32  C   UNL A   1      36.580  34.053  29.509  1.00  0.00     0.010 A 
ATOM     33  C   UNL A   1      36.407  33.414  30.746  1.00  0.00    -0.014 A 
BRANCH  33  34
ATOM     34  C   UNL A   1      37.571  32.764  31.399  1.00  0.00     0.031 A 
ATOM     35  C   UNL A   1      38.251  31.592  30.751  1.00  0.00     0.074 A 
ATOM     36  C   UNL A   1      37.950  33.174  32.624  1.00  0.00     0.049 A 
ATOM     37  N   UNL A   1      39.207  30.828  31.217  1.00  0.00    -0.248 NA
ATOM     38  C   UNL A   1      37.775  31.209  29.413  1.00  0.00     0.031 C 
ATOM     39  C   UNL A   1      37.332  34.267  33.378  1.00  0.00     0.029 A 
ATOM     40  N   UNL A   1      38.931  32.708  33.463  1.00  0.00    -0.354 N 
ATOM     41  C   UNL A   1      39.434  29.867  30.240  1.00  0.00     0.074 A 
ATOM     42  C   UNL A   1      38.484  30.114  29.177  1.00  0.00     0.031 C 
ATOM     43  C   UNL A   1      37.955  34.396  34.558  1.00  0.00     0.029 A 
ATOM     44  C   UNL A   1      38.986  33.368  34.666  1.00  0.00     0.049 A 
ATOM     45  H   UNL A   1      39.538  31.970  33.225  1.00  0.00     0.167 HD
ATOM     46  C   UNL A   1      40.362  28.881  30.227  1.00  0.00     0.037 A 
ATOM     47  C   UNL A   1      39.767  33.158  35.742  1.00  0.00     0.037 A 
ATOM     48  C   UNL A   1      41.317  28.654  31.281  1.00  0.00     0.049 A 
ATOM     49  C   UNL A   1      40.779  32.048  35.707  1.00  0.00     0.074 A 
ATOM     50  C   UNL A   1      42.348  27.733  31.328  1.00  0.00     0.029 A 
ATOM     51  N   UNL A   1      41.351  29.353  32.479  1.00  0.00    -0.354 N 
ATOM     52  N   UNL A   1      41.038  31.195  34.746  1.00  0.00    -0.248 NA
ATOM     53  C   UNL A   1      41.611  31.872  36.905  1.00  0.00     0.031 C 
ATOM     54  C   UNL A   1      42.972  27.838  32.575  1.00  0.00     0.029 A 
ATOM     55  C   UNL A   1      42.365  28.860  33.286  1.00  0.00     0.049 A 
ATOM     56  H   UNL A   1      40.745  30.090  32.721  1.00  0.00     0.167 HD
ATOM     57  C   UNL A   1      42.070  30.393  35.214  1.00  0.00     0.074 A 
ATOM     58  C   UNL A   1      42.406  30.877  36.537  1.00  0.00     0.031 C 
ATOM     59  C   UNL A   1      42.681  29.348  34.605  1.00  0.00     0.037 A 
BRANCH  46  60
ATOM     60  C   UNL A   1      40.391  27.968  29.034  1.00  0.00     0.064 A 
ATOM     61  C   UNL A   1      39.637  26.786  28.992  1.00  0.00     0.173 A 
ATOM     62  C   UNL A   1      41.153  28.300  27.904  1.00  0.00     0.173 A 
ATOM     63  F   UNL A   1      38.899  26.417  30.050  1.00  0.00    -0.203 F 
ATOM     64  C   UNL A   1      39.667  25.956  27.874  1.00  0.00     0.198 A 
ATOM     65  C   UNL A   1      41.157  27.483  26.776  1.00  0.00     0.198 A 
ATOM     66  F   UNL A   1      41.888  29.423  27.889  1.00  0.00    -0.203 F 
ATOM     67  F   UNL A   1      38.977  24.807  27.876  1.00  0.00    -0.200 F 
ATOM     68  C   UNL A   1      40.421  26.309  26.766  1.00  0.00     0.200 A 
ATOM     69  F   UNL A   1      41.875  27.833  25.699  1.00  0.00    -0.200 F 
ATOM     70  F   UNL A   1      40.442  25.513  25.687  1.00  0.00    -0.200 F 
ENDBRANCH  46  60
BRANCH  47  71
ATOM     71  C   UNL A   1      39.624  34.025  36.941  1.00  0.00     0.064 A 
ATOM     72  C   UNL A   1      40.280  35.261  37.016  1.00  0.00     0.173 A 
ATOM     73  C   UNL A   1      38.826  33.642  38.030  1.00  0.00     0.173 A 
ATOM     74  F   UNL A   1      41.071  35.661  36.009  1.00  0.00    -0.203 F 
ATOM     75  C   UNL A   1      40.158  36.074  38.142  1.00  0.00     0.198 A 
ATOM     76  C   UNL A   1      38.682  34.468  39.142  1.00  0.00     0.198 A 
ATOM     77  F   UNL A   1      38.172  32.471  38.005  1.00  0.00    -0.203 F 
ATOM     78  F   UNL A   1      40.830  37.231  38.206  1.00  0.00    -0.200 F 
ATOM     79  C   UNL A   1      39.354  35.680  39.201  1.00  0.00     0.200 A 
ATOM     80  F   UNL A   1      37.891  34.091  40.156  1.00  0.00    -0.200 F 
ATOM     81  F   UNL A   1      39.231  36.465  40.279  1.00  0.00    -0.200 F 
ENDBRANCH  47  71
BRANCH  59  82
ATOM     82  C   UNL A   1      43.783  28.664  35.361  1.00  0.00     0.064 A 
ATOM     83  C   UNL A   1      45.124  29.042  35.202  1.00  0.00     0.173 A 
ATOM     84  C   UNL A   1      43.491  27.643  36.278  1.00  0.00     0.173 A 
ATOM     85  F   UNL A   1      45.457  29.999  34.323  1.00  0.00    -0.203 F 
ATOM     86  C   UNL A   1      46.136  28.405  35.916  1.00  0.00     0.198 A 
ATOM     87  C   UNL A   1      44.502  27.031  37.014  1.00  0.00     0.198 A 
ATOM     88  F   UNL A   1      42.224  27.249  36.471  1.00  0.00    -0.203 F 
ATOM     89  F   UNL A   1      47.415  28.749  35.713  1.00  0.00    -0.200 F 
ATOM     90  C   UNL A   1      45.823  27.407  36.827  1.00  0.00     0.200 A 
ATOM     91  F   UNL A   1      44.197  26.076  37.902  1.00  0.00    -0.200 F 
ATOM     92  F   UNL A   1      46.798  26.801  37.519  1.00  0.00    -0.200 F 
ENDBRANCH  59  82
ENDBRANCH  33  34
ENDBRANCH  25  28
ENDBRANCH  23  24
ENDBRANCH  22  23
ENDBRANCH   1  22
TORSDOF 14
ENDMDL
MODEL 3
REMARK VINA RESULT:     -12.2      0.150      1.614
REMARK SMILES CN(CC(=O)NCCCNC(=O)c1ccc(-c2c3nc(c(-c4c(F)c(F)c(F)c(F)c4F)c4ccc([nH]4)c(-c4c(F)c(F)c(F)c(F)c4F)c4nc(c(-c5c(F)c(F)c(F)c(F)c5F)c5ccc2[nH]5)C=C4)C=C3)cc1)C(=O)N[C@@H]1C[C@H]1c1ccccc1
REMARK SMILES IDX 7 1 6 2 4 3 5 4 3 6 2 7 1 8 76 9 77 10 78 11 79 13 80 14
REMARK SMILES IDX 81 15 82 16 83 17 87 18 84 19 86 20 85 21 8 22 9 23 10 24
REMARK SMILES IDX 11 25 12 27 13 28 14 29 75 30 15 31 74 32 16 33 17 34 18 35
REMARK SMILES IDX 68 36 19 37 73 38 67 39 69 40 20 41 72 42 66 43 65 44 21 46
REMARK SMILES IDX 53 47 33 48 52 49 34 50 37 51 51 52 70 53 35 54 36 55 50 57
REMARK SMILES IDX 71 58 38 59 22 60 23 61 31 62 24 63 25 64 29 65 32 66 26 67
REMARK SMILES IDX 27 68 30 69 28 70 54 71 55 72 63 73 56 74 57 75 61 76 64 77
REMARK SMILES IDX 58 78 59 79 62 80 60 81 39 82 40 83 48 84 41 85 42 86 46 87
REMARK SMILES IDX 49 88 43 89 44 90 47 91 45 92
REMARK H PARENT 6 5 78 12 10 26 69 45 37 56
REMARK Flexibility Score: inf
ROOT
ATOM      1  C   UNL A   1      31.659  30.598  25.988  1.00  0.00     0.117 C 
ENDROOT
BRANCH   1   2
ATOM      2  N   UNL A   1      32.379  29.733  26.893  1.00  0.00    -0.354 N 
ATOM      3  C   UNL A   1      33.598  29.165  26.682  1.00  0.00     0.239 C 
ATOM      4  O   UNL A   1      34.401  29.249  27.618  1.00  0.00    -0.273 OA
ATOM      5  H   UNL A   1      31.944  29.534  27.753  1.00  0.00     0.163 HD
BRANCH   3   6
ATOM      6  C   UNL A   1      34.015  28.534  25.338  1.00  0.00     0.220 C 
BRANCH   6   7
ATOM      7  N   UNL A   1      33.434  27.249  24.947  1.00  0.00    -0.319 N 
ATOM      8  C   UNL A   1      33.265  26.275  26.018  1.00  0.00     0.149 C 
BRANCH   7   9
ATOM      9  C   UNL A   1      32.976  26.852  23.721  1.00  0.00     0.317 C 
ATOM     10  O   UNL A   1      33.467  25.863  23.158  1.00  0.00    -0.249 OA
ATOM     11  N   UNL A   1      32.012  27.478  23.012  1.00  0.00    -0.335 N 
ATOM     12  H   UNL A   1      32.127  27.367  22.041  1.00  0.00     0.165 HD
BRANCH  11  13
ATOM     13  C   UNL A   1      30.867  28.261  23.338  1.00  0.00     0.092 C 
ATOM     14  C   UNL A   1      29.534  27.554  23.500  1.00  0.00     0.036 C 
ATOM     15  C   UNL A   1      29.709  28.571  22.426  1.00  0.00     0.044 C 
BRANCH  15  16
ATOM     16  C   UNL A   1      29.080  29.953  22.436  1.00  0.00    -0.043 A 
ATOM     17  C   UNL A   1      28.518  30.454  21.249  1.00  0.00     0.004 A 
ATOM     18  C   UNL A   1      29.151  30.848  23.522  1.00  0.00     0.004 A 
ATOM     19  C   UNL A   1      28.104  31.783  21.128  1.00  0.00     0.000 A 
ATOM     20  C   UNL A   1      28.732  32.178  23.412  1.00  0.00     0.000 A 
ATOM     21  C   UNL A   1      28.224  32.650  22.208  1.00  0.00     0.000 A 
ENDBRANCH  15  16
ENDBRANCH  11  13
ENDBRANCH   7   9
ENDBRANCH   6   7
ENDBRANCH   3   6
ENDBRANCH   1   2
BRANCH   1  22
ATOM     22  C   UNL A   1      31.414  31.998  26.531  1.00  0.00     0.042 C 
BRANCH  22  23
ATOM     23  C   UNL A   1      32.608  32.621  27.252  1.00  0.00     0.118 C 
BRANCH  23  24
ATOM     24  N   UNL A   1      32.412  34.028  27.586  1.00  0.00    -0.352 N 
ATOM     25  C   UNL A   1      33.002  34.828  28.534  1.00  0.00     0.251 C 
ATOM     26  H   UNL A   1      31.738  34.485  27.034  1.00  0.00     0.163 HD
ATOM     27  O   UNL A   1      32.528  35.934  28.773  1.00  0.00    -0.269 OA
BRANCH  25  28
ATOM     28  C   UNL A   1      34.184  34.364  29.288  1.00  0.00     0.039 A 
ATOM     29  C   UNL A   1      33.992  33.731  30.520  1.00  0.00     0.014 A 
ATOM     30  C   UNL A   1      35.477  34.578  28.809  1.00  0.00     0.014 A 
ATOM     31  C   UNL A   1      35.090  33.227  31.222  1.00  0.00     0.010 A 
ATOM     32  C   UNL A   1      36.563  34.008  29.466  1.00  0.00     0.010 A 
ATOM     33  C   UNL A   1      36.380  33.315  30.673  1.00  0.00    -0.014 A 
BRANCH  33  34
ATOM     34  C   UNL A   1      37.543  32.655  31.317  1.00  0.00     0.031 A 
ATOM     35  C   UNL A   1      38.230  31.499  30.649  1.00  0.00     0.074 A 
ATOM     36  C   UNL A   1      37.914  33.042  32.553  1.00  0.00     0.049 A 
ATOM     37  N   UNL A   1      39.186  30.729  31.105  1.00  0.00    -0.248 NA
ATOM     38  C   UNL A   1      37.762  31.142  29.301  1.00  0.00     0.031 C 
ATOM     39  C   UNL A   1      37.289  34.116  33.326  1.00  0.00     0.029 A 
ATOM     40  N   UNL A   1      38.894  32.562  33.386  1.00  0.00    -0.354 N 
ATOM     41  C   UNL A   1      39.421  29.789  30.109  1.00  0.00     0.074 A 
ATOM     42  C   UNL A   1      38.476  30.055  29.046  1.00  0.00     0.031 C 
ATOM     43  C   UNL A   1      37.906  34.223  34.512  1.00  0.00     0.029 A 
ATOM     44  C   UNL A   1      38.940  33.198  34.603  1.00  0.00     0.049 A 
ATOM     45  H   UNL A   1      39.504  31.831  33.136  1.00  0.00     0.167 HD
ATOM     46  C   UNL A   1      40.352  28.806  30.080  1.00  0.00     0.037 A 
ATOM     47  C   UNL A   1      39.716  32.968  35.679  1.00  0.00     0.037 A 
ATOM     48  C   UNL A   1      41.304  28.562  31.134  1.00  0.00     0.049 A 
ATOM     49  C   UNL A   1      40.733  31.862  35.626  1.00  0.00     0.074 A 
ATOM     50  C   UNL A   1      42.337  27.644  31.167  1.00  0.00     0.029 A 
ATOM     51  N   UNL A   1      41.329  29.236  32.346  1.00  0.00    -0.354 N 
ATOM     52  N   UNL A   1      40.999  31.030  34.648  1.00  0.00    -0.248 NA
ATOM     53  C   UNL A   1      41.559  31.664  36.824  1.00  0.00     0.031 C 
ATOM     54  C   UNL A   1      42.955  27.724  32.419  1.00  0.00     0.029 A 
ATOM     55  C   UNL A   1      42.341  28.729  33.148  1.00  0.00     0.049 A 
ATOM     56  H   UNL A   1      40.720  29.966  32.600  1.00  0.00     0.167 HD
ATOM     57  C   UNL A   1      42.031  30.222  35.106  1.00  0.00     0.074 A 
ATOM     58  C   UNL A   1      42.359  30.680  36.440  1.00  0.00     0.031 C 
ATOM     59  C   UNL A   1      42.649  29.191  34.478  1.00  0.00     0.037 A 
BRANCH  46  60
ATOM     60  C   UNL A   1      40.391  27.919  28.869  1.00  0.00     0.064 A 
ATOM     61  C   UNL A   1      41.176  28.234  27.750  1.00  0.00     0.173 A 
ATOM     62  C   UNL A   1      39.665  26.718  28.843  1.00  0.00     0.173 A 
ATOM     63  F   UNL A   1      41.882  29.374  27.719  1.00  0.00    -0.203 F 
ATOM     64  C   UNL A   1      41.210  27.396  26.638  1.00  0.00     0.198 A 
ATOM     65  C   UNL A   1      39.725  25.868  27.743  1.00  0.00     0.198 A 
ATOM     66  F   UNL A   1      38.903  26.365  29.890  1.00  0.00    -0.203 F 
ATOM     67  F   UNL A   1      41.928  27.742  25.561  1.00  0.00    -0.200 F 
ATOM     68  C   UNL A   1      40.490  26.211  26.639  1.00  0.00     0.200 A 
ATOM     69  F   UNL A   1      39.040  24.715  27.750  1.00  0.00    -0.200 F 
ATOM     70  F   UNL A   1      40.530  25.400  25.571  1.00  0.00    -0.200 F 
ENDBRANCH  46  60
BRANCH  47  71
ATOM     71  C   UNL A   1      39.564  33.810  36.894  1.00  0.00     0.064 A 
ATOM     72  C   UNL A   1      40.223  35.042  37.002  1.00  0.00     0.173 A 
ATOM     73  C   UNL A   1      38.756  33.406  37.968  1.00  0.00     0.173 A 
ATOM     74  F   UNL A   1      41.024  35.461  36.011  1.00  0.00    -0.203 F 
ATOM     75  C   UNL A   1      40.093  35.831  38.144  1.00  0.00     0.198 A 
ATOM     76  C   UNL A   1      38.604  34.209  39.096  1.00  0.00     0.198 A 
ATOM     77  F   UNL A   1      38.100  32.237  37.912  1.00  0.00    -0.203 F 
ATOM     78  F   UNL A   1      40.768  36.985  38.238  1.00  0.00    -0.200 F 
ATOM     79  C   UNL A   1      39.278  35.417  39.186  1.00  0.00     0.200 A 
ATOM     80  F   UNL A   1      37.803  33.812  40.095  1.00  0.00    -0.200 F 
ATOM     81  F   UNL A   1      39.148  36.180  40.280  1.00  0.00    -0.200 F 
ENDBRANCH  47  71
BRANCH  59  82
ATOM     82  C   UNL A   1      43.750  28.496  35.225  1.00  0.00     0.064 A 
ATOM     83  C   UNL A   1      45.070  28.966  35.188  1.00  0.00     0.173 A 
ATOM     84  C   UNL A   1      43.475  27.367  36.012  1.00  0.00     0.173 A 
ATOM     85  F   UNL A   1      45.389  30.031  34.437  1.00  0.00    -0.203 F 
ATOM     86  C   UNL A   1      46.080  28.317  35.894  1.00  0.00     0.198 A 
ATOM     87  C   UNL A   1      44.481  26.739  36.740  1.00  0.00     0.198 A 
ATOM     88  F   UNL A   1      42.227  26.881  36.084  1.00  0.00    -0.203 F 
ATOM     89  F   UNL A   1      47.344  28.754  35.806  1.00  0.00    -0.200 F 
ATOM     90  C   UNL A   1      45.783  27.210  36.675  1.00  0.00     0.200 A 
ATOM     91  F   UNL A   1      44.190  25.678  37.504  1.00  0.00    -0.200 F 
ATOM     92  F   UNL A   1      46.755  26.591  37.358  1.00  0.00    -0.200 F 
ENDBRANCH  59  82
ENDBRANCH  33  34
ENDBRANCH  25  28
ENDBRANCH  23  24
ENDBRANCH  22  23
ENDBRANCH   1  22
TORSDOF 14
ENDMDL
