MODEL 1
REMARK VINA RESULT:     -12.7      0.000      0.000
REMARK SMILES CN(CC(N)=O)c1ccc(S(N)(=O)=O)cc1C(=O)NCCCNC(=O)c1ccc(-c2c3nc(c(-c4c(F)c(F)c(F)c(F)c4F)c4ccc([nH]4)c(-c4c(F)c(F)c(F)c(F)c4F)c4nc(c(-c5c(F)c(F)c(F)c(F)c5F)c5ccc2[nH]5)C=C4)C=C3)cc1
REMARK SMILES IDX 20 1 19 2 17 3 18 4 16 6 7 7 8 8 9 9 15 10 10 11 2 12 1 13
REMARK SMILES IDX 3 14 4 15 5 16 6 17 11 20 13 21 14 22 12 23 21 26 22 27
REMARK SMILES IDX 23 28 24 29 25 31 26 32 27 33 88 34 28 35 87 36 29 37 30 38
REMARK SMILES IDX 31 39 81 40 32 41 86 42 80 43 82 44 33 45 85 46 79 47 78 48
REMARK SMILES IDX 34 50 66 51 46 52 65 53 47 54 50 55 64 56 83 57 48 58 49 59
REMARK SMILES IDX 63 61 84 62 51 63 35 64 36 65 44 66 37 67 38 68 42 69 45 70
REMARK SMILES IDX 39 71 40 72 43 73 41 74 67 75 68 76 76 77 69 78 70 79 74 80
REMARK SMILES IDX 77 81 71 82 72 83 75 84 73 85 52 86 53 87 61 88 54 89 55 90
REMARK SMILES IDX 59 91 62 92 56 93 57 94 60 95 58 96
REMARK H PARENT 19 5 5 18 5 19 12 24 12 25 23 30 82 49 50 60
REMARK Flexibility Score: inf
ROOT
ATOM      1  C   UNL A   1      31.866  30.281  26.657  1.00  0.00     0.118 C 
ENDROOT
BRANCH   1   2
ATOM      2  N   UNL A   1      32.850  29.827  25.718  1.00  0.00    -0.352 N 
ATOM      3  C   UNL A   1      32.640  29.299  24.463  1.00  0.00     0.253 C 
ATOM      4  O   UNL A   1      33.655  29.095  23.790  1.00  0.00    -0.269 OA
ATOM      5  H   UNL A   1      33.789  29.904  26.005  1.00  0.00     0.163 HD
BRANCH   3   6
ATOM      6  C   UNL A   1      31.303  28.871  23.903  1.00  0.00     0.064 A 
ATOM      7  C   UNL A   1      30.802  27.556  23.685  1.00  0.00     0.050 A 
ATOM      8  C   UNL A   1      29.488  27.424  23.175  1.00  0.00     0.028 A 
ATOM      9  C   UNL A   1      28.673  28.521  22.907  1.00  0.00     0.024 A 
ATOM     10  C   UNL A   1      30.456  29.977  23.629  1.00  0.00     0.037 A 
ATOM     11  C   UNL A   1      29.157  29.797  23.150  1.00  0.00     0.083 A 
BRANCH   7  12
ATOM     12  N   UNL A   1      31.465  26.383  24.038  1.00  0.00    -0.365 N 
ATOM     13  C   UNL A   1      31.345  25.970  25.432  1.00  0.00     0.144 C 
BRANCH  12  14
ATOM     14  C   UNL A   1      31.827  25.367  23.028  1.00  0.00     0.215 C 
BRANCH  14  15
ATOM     15  C   UNL A   1      32.590  25.867  21.809  1.00  0.00     0.236 C 
ATOM     16  N   UNL A   1      31.866  25.883  20.644  1.00  0.00    -0.368 N 
ATOM     17  O   UNL A   1      33.754  26.250  21.828  1.00  0.00    -0.273 OA
ATOM     18  H   UNL A   1      30.931  25.573  20.640  1.00  0.00     0.159 HD
ATOM     19  H   UNL A   1      32.280  26.205  19.810  1.00  0.00     0.159 HD
ENDBRANCH  14  15
ENDBRANCH  12  14
ENDBRANCH   7  12
BRANCH  11  20
ATOM     20  S   UNL A   1      28.077  31.180  22.937  1.00  0.00     0.238 S 
ATOM     21  O   UNL A   1      27.813  31.341  21.522  1.00  0.00    -0.207 OA
ATOM     22  O   UNL A   1      27.034  31.145  23.927  1.00  0.00    -0.207 OA
BRANCH  20  23
ATOM     23  N   UNL A   1      29.059  32.474  23.369  1.00  0.00    -0.225 NA
ATOM     24  H   UNL A   1      28.864  33.268  22.760  1.00  0.00     0.137 HD
ATOM     25  H   UNL A   1      30.038  32.206  23.273  1.00  0.00     0.137 HD
ENDBRANCH  20  23
ENDBRANCH  11  20
ENDBRANCH   3   6
ENDBRANCH   1   2
BRANCH   1  26
ATOM     26  C   UNL A   1      31.592  31.766  26.734  1.00  0.00     0.042 C 
BRANCH  26  27
ATOM     27  C   UNL A   1      32.782  32.614  27.144  1.00  0.00     0.118 C 
BRANCH  27  28
ATOM     28  N   UNL A   1      32.445  33.966  27.588  1.00  0.00    -0.352 N 
ATOM     29  C   UNL A   1      32.987  34.814  28.528  1.00  0.00     0.251 C 
ATOM     30  H   UNL A   1      31.671  34.349  27.116  1.00  0.00     0.163 HD
ATOM     31  O   UNL A   1      32.443  35.895  28.738  1.00  0.00    -0.269 OA
BRANCH  29  32
ATOM     32  C   UNL A   1      34.170  34.434  29.337  1.00  0.00     0.039 A 
ATOM     33  C   UNL A   1      33.980  33.889  30.614  1.00  0.00     0.014 A 
ATOM     34  C   UNL A   1      35.466  34.599  28.863  1.00  0.00     0.014 A 
ATOM     35  C   UNL A   1      35.074  33.406  31.342  1.00  0.00     0.010 A 
ATOM     36  C   UNL A   1      36.528  33.980  29.509  1.00  0.00     0.010 A 
ATOM     37  C   UNL A   1      36.352  33.380  30.762  1.00  0.00    -0.014 A 
BRANCH  37  38
ATOM     38  C   UNL A   1      37.526  32.759  31.435  1.00  0.00     0.031 A 
ATOM     39  C   UNL A   1      38.252  31.614  30.775  1.00  0.00     0.074 A 
ATOM     40  C   UNL A   1      37.868  33.142  32.681  1.00  0.00     0.049 A 
ATOM     41  N   UNL A   1      39.183  30.830  31.260  1.00  0.00    -0.248 NA
ATOM     42  C   UNL A   1      37.838  31.269  29.405  1.00  0.00     0.031 C 
ATOM     43  C   UNL A   1      37.207  34.191  33.461  1.00  0.00     0.029 A 
ATOM     44  N   UNL A   1      38.852  32.680  33.521  1.00  0.00    -0.354 N 
ATOM     45  C   UNL A   1      39.429  29.883  30.273  1.00  0.00     0.074 A 
ATOM     46  C   UNL A   1      38.502  30.144  29.196  1.00  0.00     0.031 C 
ATOM     47  C   UNL A   1      37.826  34.318  34.645  1.00  0.00     0.029 A 
ATOM     48  C   UNL A   1      38.894  33.328  34.733  1.00  0.00     0.049 A 
ATOM     49  H   UNL A   1      39.470  31.954  33.278  1.00  0.00     0.167 HD
ATOM     50  C   UNL A   1      40.368  28.907  30.249  1.00  0.00     0.037 A 
ATOM     51  C   UNL A   1      39.698  33.140  35.797  1.00  0.00     0.037 A 
ATOM     52  C   UNL A   1      41.328  28.690  31.297  1.00  0.00     0.049 A 
ATOM     53  C   UNL A   1      40.752  32.068  35.736  1.00  0.00     0.074 A 
ATOM     54  C   UNL A   1      42.373  27.783  31.337  1.00  0.00     0.029 A 
ATOM     55  N   UNL A   1      41.366  29.399  32.489  1.00  0.00    -0.354 N 
ATOM     56  N   UNL A   1      41.018  31.222  34.770  1.00  0.00    -0.248 NA
ATOM     57  C   UNL A   1      41.620  31.927  36.912  1.00  0.00     0.031 C 
ATOM     58  C   UNL A   1      43.016  27.915  32.572  1.00  0.00     0.029 A 
ATOM     59  C   UNL A   1      42.405  28.938  33.279  1.00  0.00     0.049 A 
ATOM     60  H   UNL A   1      40.745  30.123  32.736  1.00  0.00     0.167 HD
ATOM     61  C   UNL A   1      42.100  30.471  35.208  1.00  0.00     0.074 A 
ATOM     62  C   UNL A   1      42.451  30.971  36.520  1.00  0.00     0.031 C 
ATOM     63  C   UNL A   1      42.745  29.457  34.580  1.00  0.00     0.037 A 
BRANCH  50  64
ATOM     64  C   UNL A   1      40.408  28.013  29.040  1.00  0.00     0.064 A 
ATOM     65  C   UNL A   1      41.190  28.325  27.917  1.00  0.00     0.173 A 
ATOM     66  C   UNL A   1      39.668  26.821  29.010  1.00  0.00     0.173 A 
ATOM     67  F   UNL A   1      41.908  29.458  27.888  1.00  0.00    -0.203 F 
ATOM     68  C   UNL A   1      41.196  27.502  26.794  1.00  0.00     0.198 A 
ATOM     69  C   UNL A   1      39.705  25.981  27.899  1.00  0.00     0.198 A 
ATOM     70  F   UNL A   1      38.909  26.468  30.058  1.00  0.00    -0.203 F 
ATOM     71  F   UNL A   1      41.898  27.857  25.708  1.00  0.00    -0.200 F 
ATOM     72  C   UNL A   1      40.459  26.327  26.789  1.00  0.00     0.200 A 
ATOM     73  F   UNL A   1      39.004  24.839  27.901  1.00  0.00    -0.200 F 
ATOM     74  F   UNL A   1      40.468  25.535  25.708  1.00  0.00    -0.200 F 
ENDBRANCH  50  64
BRANCH  51  75
ATOM     75  C   UNL A   1      39.564  34.012  36.994  1.00  0.00     0.064 A 
ATOM     76  C   UNL A   1      38.801  33.600  38.096  1.00  0.00     0.173 A 
ATOM     77  C   UNL A   1      40.194  35.262  37.069  1.00  0.00     0.173 A 
ATOM     78  F   UNL A   1      38.163  32.421  38.065  1.00  0.00    -0.203 F 
ATOM     79  C   UNL A   1      38.653  34.415  39.217  1.00  0.00     0.198 A 
ATOM     80  C   UNL A   1      40.071  36.063  38.203  1.00  0.00     0.198 A 
ATOM     81  F   UNL A   1      40.945  35.699  36.047  1.00  0.00    -0.203 F 
ATOM     82  F   UNL A   1      37.880  34.017  40.236  1.00  0.00    -0.200 F 
ATOM     83  C   UNL A   1      39.294  35.644  39.272  1.00  0.00     0.200 A 
ATOM     84  F   UNL A   1      40.707  37.242  38.259  1.00  0.00    -0.200 F 
ATOM     85  F   UNL A   1      39.159  36.424  40.352  1.00  0.00    -0.200 F 
ENDBRANCH  51  75
BRANCH  63  86
ATOM     86  C   UNL A   1      43.919  28.847  35.286  1.00  0.00     0.064 A 
ATOM     87  C   UNL A   1      43.765  27.785  36.189  1.00  0.00     0.173 A 
ATOM     88  C   UNL A   1      45.220  29.303  35.021  1.00  0.00     0.173 A 
ATOM     89  F   UNL A   1      42.541  27.324  36.487  1.00  0.00    -0.203 F 
ATOM     90  C   UNL A   1      44.869  27.218  36.820  1.00  0.00     0.198 A 
ATOM     91  C   UNL A   1      46.324  28.713  35.630  1.00  0.00     0.198 A 
ATOM     92  F   UNL A   1      45.421  30.312  34.160  1.00  0.00    -0.203 F 
ATOM     93  F   UNL A   1      44.695  26.236  37.716  1.00  0.00    -0.200 F 
ATOM     94  C   UNL A   1      46.147  27.676  36.535  1.00  0.00     0.200 A 
ATOM     95  F   UNL A   1      47.558  29.147  35.342  1.00  0.00    -0.200 F 
ATOM     96  F   UNL A   1      47.209  27.123  37.136  1.00  0.00    -0.200 F 
ENDBRANCH  63  86
ENDBRANCH  37  38
ENDBRANCH  29  32
ENDBRANCH  27  28
ENDBRANCH  26  27
ENDBRANCH   1  26
TORSDOF 15
ENDMDL
MODEL 2
REMARK VINA RESULT:     -12.6      6.663     11.837
REMARK SMILES CN(CC(N)=O)c1ccc(S(N)(=O)=O)cc1C(=O)NCCCNC(=O)c1ccc(-c2c3nc(c(-c4c(F)c(F)c(F)c(F)c4F)c4ccc([nH]4)c(-c4c(F)c(F)c(F)c(F)c4F)c4nc(c(-c5c(F)c(F)c(F)c(F)c5F)c5ccc2[nH]5)C=C4)C=C3)cc1
REMARK SMILES IDX 20 1 19 2 17 3 18 4 16 6 7 7 8 8 9 9 15 10 10 11 2 12 1 13
REMARK SMILES IDX 3 14 4 15 5 16 6 17 11 20 13 21 14 22 12 23 21 26 22 27
REMARK SMILES IDX 23 28 24 29 25 31 26 32 27 33 88 34 28 35 87 36 29 37 30 38
REMARK SMILES IDX 31 39 81 40 32 41 86 42 80 43 82 44 33 45 85 46 79 47 78 48
REMARK SMILES IDX 34 50 66 51 46 52 65 53 47 54 50 55 64 56 83 57 48 58 49 59
REMARK SMILES IDX 63 61 84 62 51 63 35 64 36 65 44 66 37 67 38 68 42 69 45 70
REMARK SMILES IDX 39 71 40 72 43 73 41 74 67 75 68 76 76 77 69 78 70 79 74 80
REMARK SMILES IDX 77 81 71 82 72 83 75 84 73 85 52 86 53 87 61 88 54 89 55 90
REMARK SMILES IDX 59 91 62 92 56 93 57 94 60 95 58 96
REMARK H PARENT 19 5 5 18 5 19 12 24 12 25 23 30 82 49 50 60
REMARK Flexibility Score: inf
ROOT
ATOM      1  C   UNL A   1      37.073  21.361  24.832  1.00  0.00     0.118 C 
ENDROOT
BRANCH   1   2
ATOM      2  N   UNL A   1      36.280  21.776  25.952  1.00  0.00    -0.352 N 
ATOM      3  C   UNL A   1      34.968  21.453  26.225  1.00  0.00     0.253 C 
ATOM      4  O   UNL A   1      34.538  21.831  27.318  1.00  0.00    -0.269 OA
ATOM      5  H   UNL A   1      36.727  22.362  26.605  1.00  0.00     0.163 HD
BRANCH   3   6
ATOM      6  C   UNL A   1      34.015  20.772  25.269  1.00  0.00     0.064 A 
ATOM      7  C   UNL A   1      32.988  21.346  24.467  1.00  0.00     0.050 A 
ATOM      8  C   UNL A   1      32.249  20.485  23.621  1.00  0.00     0.028 A 
ATOM      9  C   UNL A   1      32.507  19.119  23.530  1.00  0.00     0.024 A 
ATOM     10  C   UNL A   1      34.267  19.379  25.159  1.00  0.00     0.037 A 
ATOM     11  C   UNL A   1      33.528  18.572  24.291  1.00  0.00     0.083 A 
BRANCH   7  12
ATOM     12  N   UNL A   1      32.724  22.710  24.369  1.00  0.00    -0.365 N 
ATOM     13  C   UNL A   1      33.498  23.445  23.374  1.00  0.00     0.144 C 
BRANCH  12  14
ATOM     14  C   UNL A   1      31.446  23.285  24.837  1.00  0.00     0.215 C 
BRANCH  14  15
ATOM     15  C   UNL A   1      31.085  23.036  26.295  1.00  0.00     0.236 C 
ATOM     16  N   UNL A   1      30.009  22.207  26.487  1.00  0.00    -0.368 N 
ATOM     17  O   UNL A   1      31.694  23.505  27.250  1.00  0.00    -0.273 OA
ATOM     18  H   UNL A   1      29.529  21.835  25.712  1.00  0.00     0.159 HD
ATOM     19  H   UNL A   1      29.717  21.982  27.401  1.00  0.00     0.159 HD
ENDBRANCH  14  15
ENDBRANCH  12  14
ENDBRANCH   7  12
BRANCH  11  20
ATOM     20  S   UNL A   1      33.942  16.868  24.076  1.00  0.00     0.238 S 
ATOM     21  O   UNL A   1      34.012  16.589  22.657  1.00  0.00    -0.207 OA
ATOM     22  O   UNL A   1      34.982  16.495  24.998  1.00  0.00    -0.207 OA
BRANCH  20  23
ATOM     23  N   UNL A   1      32.558  16.088  24.627  1.00  0.00    -0.225 NA
ATOM     24  H   UNL A   1      31.743  16.675  24.448  1.00  0.00     0.137 HD
ATOM     25  H   UNL A   1      32.639  15.918  25.629  1.00  0.00     0.137 HD
ENDBRANCH  20  23
ENDBRANCH  11  20
ENDBRANCH   3   6
ENDBRANCH   1   2
BRANCH   1  26
ATOM     26  C   UNL A   1      37.958  20.148  25.002  1.00  0.00     0.042 C 
BRANCH  26  27
ATOM     27  C   UNL A   1      39.047  20.293  26.048  1.00  0.00     0.118 C 
BRANCH  27  28
ATOM     28  N   UNL A   1      40.095  19.275  25.986  1.00  0.00    -0.352 N 
ATOM     29  C   UNL A   1      41.465  19.319  26.121  1.00  0.00     0.251 C 
ATOM     30  H   UNL A   1      39.749  18.370  25.812  1.00  0.00     0.163 HD
ATOM     31  O   UNL A   1      42.113  18.290  25.951  1.00  0.00    -0.269 OA
BRANCH  29  32
ATOM     32  C   UNL A   1      42.184  20.585  26.404  1.00  0.00     0.039 A 
ATOM     33  C   UNL A   1      42.627  21.374  25.335  1.00  0.00     0.014 A 
ATOM     34  C   UNL A   1      42.428  21.015  27.703  1.00  0.00     0.014 A 
ATOM     35  C   UNL A   1      43.193  22.632  25.577  1.00  0.00     0.010 A 
ATOM     36  C   UNL A   1      42.839  22.319  27.939  1.00  0.00     0.010 A 
ATOM     37  C   UNL A   1      43.236  23.148  26.881  1.00  0.00    -0.014 A 
BRANCH  37  38
ATOM     38  C   UNL A   1      43.704  24.528  27.183  1.00  0.00     0.031 A 
ATOM     39  C   UNL A   1      42.730  25.556  27.699  1.00  0.00     0.074 A 
ATOM     40  C   UNL A   1      44.968  24.890  26.887  1.00  0.00     0.049 A 
ATOM     41  N   UNL A   1      42.891  26.846  27.864  1.00  0.00    -0.248 NA
ATOM     42  C   UNL A   1      41.375  25.080  28.022  1.00  0.00     0.031 C 
ATOM     43  C   UNL A   1      45.995  24.013  26.320  1.00  0.00     0.029 A 
ATOM     44  N   UNL A   1      45.604  26.102  27.008  1.00  0.00    -0.354 N 
ATOM     45  C   UNL A   1      41.653  27.332  28.267  1.00  0.00     0.074 A 
ATOM     46  C   UNL A   1      40.735  26.217  28.250  1.00  0.00     0.031 C 
ATOM     47  C   UNL A   1      47.138  24.702  26.179  1.00  0.00     0.029 A 
ATOM     48  C   UNL A   1      46.915  26.083  26.595  1.00  0.00     0.049 A 
ATOM     49  H   UNL A   1      45.162  26.909  27.358  1.00  0.00     0.167 HD
ATOM     50  C   UNL A   1      41.318  28.587  28.652  1.00  0.00     0.037 A 
ATOM     51  C   UNL A   1      47.832  27.068  26.551  1.00  0.00     0.037 A 
ATOM     52  C   UNL A   1      42.249  29.680  28.725  1.00  0.00     0.049 A 
ATOM     53  C   UNL A   1      47.445  28.447  27.011  1.00  0.00     0.074 A 
ATOM     54  C   UNL A   1      42.034  30.969  29.179  1.00  0.00     0.029 A 
ATOM     55  N   UNL A   1      43.581  29.606  28.342  1.00  0.00    -0.354 N 
ATOM     56  N   UNL A   1      46.287  28.879  27.452  1.00  0.00    -0.248 NA
ATOM     57  C   UNL A   1      48.492  29.477  26.970  1.00  0.00     0.031 C 
ATOM     58  C   UNL A   1      43.225  31.688  29.030  1.00  0.00     0.029 A 
ATOM     59  C   UNL A   1      44.195  30.832  28.532  1.00  0.00     0.049 A 
ATOM     60  H   UNL A   1      44.023  28.801  27.987  1.00  0.00     0.167 HD
ATOM     61  C   UNL A   1      46.475  30.218  27.769  1.00  0.00     0.074 A 
ATOM     62  C   UNL A   1      47.861  30.523  27.483  1.00  0.00     0.031 C 
ATOM     63  C   UNL A   1      45.580  31.114  28.252  1.00  0.00     0.037 A 
BRANCH  50  64
ATOM     64  C   UNL A   1      39.886  28.834  29.039  1.00  0.00     0.064 A 
ATOM     65  C   UNL A   1      38.931  29.259  28.103  1.00  0.00     0.173 A 
ATOM     66  C   UNL A   1      39.459  28.629  30.360  1.00  0.00     0.173 A 
ATOM     67  F   UNL A   1      39.287  29.482  26.828  1.00  0.00    -0.203 F 
ATOM     68  C   UNL A   1      37.615  29.511  28.482  1.00  0.00     0.198 A 
ATOM     69  C   UNL A   1      38.134  28.847  30.729  1.00  0.00     0.198 A 
ATOM     70  F   UNL A   1      40.327  28.217  31.297  1.00  0.00    -0.203 F 
ATOM     71  F   UNL A   1      36.739  29.981  27.583  1.00  0.00    -0.200 F 
ATOM     72  C   UNL A   1      37.216  29.298  29.793  1.00  0.00     0.200 A 
ATOM     73  F   UNL A   1      37.746  28.627  31.993  1.00  0.00    -0.200 F 
ATOM     74  F   UNL A   1      35.948  29.539  30.156  1.00  0.00    -0.200 F 
ENDBRANCH  50  64
BRANCH  51  75
ATOM     75  C   UNL A   1      49.216  26.777  26.092  1.00  0.00     0.064 A 
ATOM     76  C   UNL A   1      50.174  26.274  26.983  1.00  0.00     0.173 A 
ATOM     77  C   UNL A   1      49.610  26.990  24.764  1.00  0.00     0.173 A 
ATOM     78  F   UNL A   1      49.851  26.071  28.269  1.00  0.00    -0.203 F 
ATOM     79  C   UNL A   1      51.480  26.014  26.569  1.00  0.00     0.198 A 
ATOM     80  C   UNL A   1      50.908  26.702  24.343  1.00  0.00     0.198 A 
ATOM     81  F   UNL A   1      48.731  27.461  23.867  1.00  0.00    -0.203 F 
ATOM     82  F   UNL A   1      52.386  25.577  27.452  1.00  0.00    -0.200 F 
ATOM     83  C   UNL A   1      51.844  26.223  25.247  1.00  0.00     0.200 A 
ATOM     84  F   UNL A   1      51.251  26.888  23.060  1.00  0.00    -0.200 F 
ATOM     85  F   UNL A   1      53.096  25.967  24.847  1.00  0.00    -0.200 F 
ENDBRANCH  51  75
BRANCH  63  86
ATOM     86  C   UNL A   1      46.080  32.499  28.539  1.00  0.00     0.064 A 
ATOM     87  C   UNL A   1      46.641  32.837  29.779  1.00  0.00     0.173 A 
ATOM     88  C   UNL A   1      46.036  33.488  27.544  1.00  0.00     0.173 A 
ATOM     89  F   UNL A   1      46.693  31.931  30.767  1.00  0.00    -0.203 F 
ATOM     90  C   UNL A   1      47.118  34.123  30.020  1.00  0.00     0.198 A 
ATOM     91  C   UNL A   1      46.541  34.763  27.779  1.00  0.00     0.198 A 
ATOM     92  F   UNL A   1      45.514  33.213  26.339  1.00  0.00    -0.203 F 
ATOM     93  F   UNL A   1      47.607  34.438  31.228  1.00  0.00    -0.200 F 
ATOM     94  C   UNL A   1      47.075  35.081  29.019  1.00  0.00     0.200 A 
ATOM     95  F   UNL A   1      46.513  35.683  26.805  1.00  0.00    -0.200 F 
ATOM     96  F   UNL A   1      47.543  36.316  29.251  1.00  0.00    -0.200 F 
ENDBRANCH  63  86
ENDBRANCH  37  38
ENDBRANCH  29  32
ENDBRANCH  27  28
ENDBRANCH  26  27
ENDBRANCH   1  26
TORSDOF 15
ENDMDL
MODEL 3
REMARK VINA RESULT:     -12.6      0.842      2.304
REMARK SMILES CN(CC(N)=O)c1ccc(S(N)(=O)=O)cc1C(=O)NCCCNC(=O)c1ccc(-c2c3nc(c(-c4c(F)c(F)c(F)c(F)c4F)c4ccc([nH]4)c(-c4c(F)c(F)c(F)c(F)c4F)c4nc(c(-c5c(F)c(F)c(F)c(F)c5F)c5ccc2[nH]5)C=C4)C=C3)cc1
REMARK SMILES IDX 20 1 19 2 17 3 18 4 16 6 7 7 8 8 9 9 15 10 10 11 2 12 1 13
REMARK SMILES IDX 3 14 4 15 5 16 6 17 11 20 13 21 14 22 12 23 21 26 22 27
REMARK SMILES IDX 23 28 24 29 25 31 26 32 27 33 88 34 28 35 87 36 29 37 30 38
REMARK SMILES IDX 31 39 81 40 32 41 86 42 80 43 82 44 33 45 85 46 79 47 78 48
REMARK SMILES IDX 34 50 66 51 46 52 65 53 47 54 50 55 64 56 83 57 48 58 49 59
REMARK SMILES IDX 63 61 84 62 51 63 35 64 36 65 44 66 37 67 38 68 42 69 45 70
REMARK SMILES IDX 39 71 40 72 43 73 41 74 67 75 68 76 76 77 69 78 70 79 74 80
REMARK SMILES IDX 77 81 71 82 72 83 75 84 73 85 52 86 53 87 61 88 54 89 55 90
REMARK SMILES IDX 59 91 62 92 56 93 57 94 60 95 58 96
REMARK H PARENT 19 5 5 18 5 19 12 24 12 25 23 30 82 49 50 60
REMARK Flexibility Score: inf
ROOT
ATOM      1  C   UNL A   1      31.825  30.322  26.688  1.00  0.00     0.118 C 
ENDROOT
BRANCH   1   2
ATOM      2  N   UNL A   1      32.817  29.838  25.772  1.00  0.00    -0.352 N 
ATOM      3  C   UNL A   1      32.615  29.228  24.553  1.00  0.00     0.253 C 
ATOM      4  O   UNL A   1      33.630  29.010  23.886  1.00  0.00    -0.269 OA
ATOM      5  H   UNL A   1      33.754  29.956  26.047  1.00  0.00     0.163 HD
BRANCH   3   6
ATOM      6  C   UNL A   1      31.286  28.733  24.028  1.00  0.00     0.064 A 
ATOM      7  C   UNL A   1      30.742  27.418  24.066  1.00  0.00     0.050 A 
ATOM      8  C   UNL A   1      29.447  27.221  23.529  1.00  0.00     0.028 A 
ATOM      9  C   UNL A   1      28.688  28.262  22.998  1.00  0.00     0.024 A 
ATOM     10  C   UNL A   1      30.496  29.781  23.488  1.00  0.00     0.037 A 
ATOM     11  C   UNL A   1      29.213  29.545  22.992  1.00  0.00     0.083 A 
BRANCH   7  12
ATOM     12  N   UNL A   1      31.342  26.326  24.688  1.00  0.00    -0.365 N 
ATOM     13  C   UNL A   1      32.366  25.628  23.918  1.00  0.00     0.144 C 
BRANCH  12  14
ATOM     14  C   UNL A   1      31.338  26.177  26.158  1.00  0.00     0.215 C 
BRANCH  14  15
ATOM     15  C   UNL A   1      30.755  24.882  26.706  1.00  0.00     0.236 C 
ATOM     16  N   UNL A   1      29.410  24.720  26.487  1.00  0.00    -0.368 N 
ATOM     17  O   UNL A   1      31.404  24.020  27.287  1.00  0.00    -0.273 OA
ATOM     18  H   UNL A   1      28.899  25.419  26.019  1.00  0.00     0.159 HD
ATOM     19  H   UNL A   1      28.955  23.902  26.798  1.00  0.00     0.159 HD
ENDBRANCH  14  15
ENDBRANCH  12  14
ENDBRANCH   7  12
BRANCH  11  20
ATOM     20  S   UNL A   1      28.200  30.884  22.441  1.00  0.00     0.238 S 
ATOM     21  O   UNL A   1      27.788  30.616  21.078  1.00  0.00    -0.207 OA
ATOM     22  O   UNL A   1      27.275  31.258  23.477  1.00  0.00    -0.207 OA
BRANCH  20  23
ATOM     23  N   UNL A   1      29.299  32.152  22.345  1.00  0.00    -0.225 NA
ATOM     24  H   UNL A   1      30.204  31.845  22.703  1.00  0.00     0.137 HD
ATOM     25  H   UNL A   1      28.963  32.937  22.902  1.00  0.00     0.137 HD
ENDBRANCH  20  23
ENDBRANCH  11  20
ENDBRANCH   3   6
ENDBRANCH   1   2
BRANCH   1  26
ATOM     26  C   UNL A   1      31.572  31.812  26.734  1.00  0.00     0.042 C 
BRANCH  26  27
ATOM     27  C   UNL A   1      32.767  32.650  27.148  1.00  0.00     0.118 C 
BRANCH  27  28
ATOM     28  N   UNL A   1      32.439  34.004  27.594  1.00  0.00    -0.352 N 
ATOM     29  C   UNL A   1      32.989  34.849  28.532  1.00  0.00     0.251 C 
ATOM     30  H   UNL A   1      31.665  34.391  27.125  1.00  0.00     0.163 HD
ATOM     31  O   UNL A   1      32.451  35.933  28.745  1.00  0.00    -0.269 OA
BRANCH  29  32
ATOM     32  C   UNL A   1      34.173  34.463  29.336  1.00  0.00     0.039 A 
ATOM     33  C   UNL A   1      33.985  33.904  30.608  1.00  0.00     0.014 A 
ATOM     34  C   UNL A   1      35.469  34.635  28.863  1.00  0.00     0.014 A 
ATOM     35  C   UNL A   1      35.081  33.415  31.330  1.00  0.00     0.010 A 
ATOM     36  C   UNL A   1      36.532  34.011  29.502  1.00  0.00     0.010 A 
ATOM     37  C   UNL A   1      36.358  33.398  30.750  1.00  0.00    -0.014 A 
BRANCH  37  38
ATOM     38  C   UNL A   1      37.533  32.772  31.415  1.00  0.00     0.031 A 
ATOM     39  C   UNL A   1      38.263  31.637  30.742  1.00  0.00     0.074 A 
ATOM     40  C   UNL A   1      37.873  33.140  32.666  1.00  0.00     0.049 A 
ATOM     41  N   UNL A   1      39.196  30.850  31.217  1.00  0.00    -0.248 NA
ATOM     42  C   UNL A   1      37.851  31.309  29.367  1.00  0.00     0.031 C 
ATOM     43  C   UNL A   1      37.208  34.176  33.459  1.00  0.00     0.029 A 
ATOM     44  N   UNL A   1      38.857  32.670  33.501  1.00  0.00    -0.354 N 
ATOM     45  C   UNL A   1      39.446  29.917  30.218  1.00  0.00     0.074 A 
ATOM     46  C   UNL A   1      38.519  30.188  29.143  1.00  0.00     0.031 C 
ATOM     47  C   UNL A   1      37.825  34.291  34.645  1.00  0.00     0.029 A 
ATOM     48  C   UNL A   1      38.896  33.302  34.721  1.00  0.00     0.049 A 
ATOM     49  H   UNL A   1      39.479  31.949  33.249  1.00  0.00     0.167 HD
ATOM     50  C   UNL A   1      40.388  28.944  30.182  1.00  0.00     0.037 A 
ATOM     51  C   UNL A   1      39.700  33.104  35.783  1.00  0.00     0.037 A 
ATOM     52  C   UNL A   1      41.348  28.716  31.228  1.00  0.00     0.049 A 
ATOM     53  C   UNL A   1      40.757  32.035  35.710  1.00  0.00     0.074 A 
ATOM     54  C   UNL A   1      42.395  27.812  31.258  1.00  0.00     0.029 A 
ATOM     55  N   UNL A   1      41.383  29.410  32.429  1.00  0.00    -0.354 N 
ATOM     56  N   UNL A   1      41.027  31.202  34.733  1.00  0.00    -0.248 NA
ATOM     57  C   UNL A   1      41.626  31.882  36.885  1.00  0.00     0.031 C 
ATOM     58  C   UNL A   1      43.038  27.930  32.495  1.00  0.00     0.029 A 
ATOM     59  C   UNL A   1      42.423  28.943  33.214  1.00  0.00     0.049 A 
ATOM     60  H   UNL A   1      40.760  30.129  32.685  1.00  0.00     0.167 HD
ATOM     61  C   UNL A   1      42.111  30.449  35.162  1.00  0.00     0.074 A 
ATOM     62  C   UNL A   1      42.459  30.934  36.481  1.00  0.00     0.031 C 
ATOM     63  C   UNL A   1      42.760  29.446  34.522  1.00  0.00     0.037 A 
BRANCH  50  64
ATOM     64  C   UNL A   1      40.432  28.066  28.962  1.00  0.00     0.064 A 
ATOM     65  C   UNL A   1      39.721  26.857  28.896  1.00  0.00     0.173 A 
ATOM     66  C   UNL A   1      41.181  28.444  27.838  1.00  0.00     0.173 A 
ATOM     67  F   UNL A   1      38.997  26.441  29.947  1.00  0.00    -0.203 F 
ATOM     68  C   UNL A   1      39.793  26.042  27.770  1.00  0.00     0.198 A 
ATOM     69  C   UNL A   1      41.222  27.643  26.699  1.00  0.00     0.198 A 
ATOM     70  F   UNL A   1      41.876  29.593  27.841  1.00  0.00    -0.203 F 
ATOM     71  F   UNL A   1      39.159  24.860  27.759  1.00  0.00    -0.200 F 
ATOM     72  C   UNL A   1      40.538  26.438  26.670  1.00  0.00     0.200 A 
ATOM     73  F   UNL A   1      41.931  28.035  25.631  1.00  0.00    -0.200 F 
ATOM     74  F   UNL A   1      40.605  25.653  25.586  1.00  0.00    -0.200 F 
ENDBRANCH  50  64
BRANCH  51  75
ATOM     75  C   UNL A   1      39.563  33.959  36.992  1.00  0.00     0.064 A 
ATOM     76  C   UNL A   1      40.199  35.207  37.060  1.00  0.00     0.173 A 
ATOM     77  C   UNL A   1      38.797  33.557  38.095  1.00  0.00     0.173 A 
ATOM     78  F   UNL A   1      40.959  35.627  36.038  1.00  0.00    -0.203 F 
ATOM     79  C   UNL A   1      40.093  36.010  38.194  1.00  0.00     0.198 A 
ATOM     80  C   UNL A   1      38.667  34.375  39.217  1.00  0.00     0.198 A 
ATOM     81  F   UNL A   1      38.159  32.378  38.078  1.00  0.00    -0.203 F 
ATOM     82  F   UNL A   1      40.750  37.176  38.251  1.00  0.00    -0.200 F 
ATOM     83  C   UNL A   1      39.322  35.596  39.270  1.00  0.00     0.200 A 
ATOM     84  F   UNL A   1      37.906  33.978  40.247  1.00  0.00    -0.200 F 
ATOM     85  F   UNL A   1      39.214  36.371  40.357  1.00  0.00    -0.200 F 
ENDBRANCH  51  75
BRANCH  63  86
ATOM     86  C   UNL A   1      43.936  28.830  35.222  1.00  0.00     0.064 A 
ATOM     87  C   UNL A   1      45.239  29.314  35.037  1.00  0.00     0.173 A 
ATOM     88  C   UNL A   1      43.748  27.769  36.121  1.00  0.00     0.173 A 
ATOM     89  F   UNL A   1      45.472  30.316  34.176  1.00  0.00    -0.203 F 
ATOM     90  C   UNL A   1      46.315  28.743  35.711  1.00  0.00     0.198 A 
ATOM     91  C   UNL A   1      44.822  27.220  36.816  1.00  0.00     0.198 A 
ATOM     92  F   UNL A   1      42.520  27.274  36.337  1.00  0.00    -0.203 F 
ATOM     93  F   UNL A   1      47.558  29.190  35.484  1.00  0.00    -0.200 F 
ATOM     94  C   UNL A   1      46.105  27.703  36.605  1.00  0.00     0.200 A 
ATOM     95  F   UNL A   1      44.615  26.227  37.691  1.00  0.00    -0.200 F 
ATOM     96  F   UNL A   1      47.142  27.160  37.259  1.00  0.00    -0.200 F 
ENDBRANCH  63  86
ENDBRANCH  37  38
ENDBRANCH  29  32
ENDBRANCH  27  28
ENDBRANCH  26  27
ENDBRANCH   1  26
TORSDOF 15
ENDMDL
