MODEL 1
REMARK VINA RESULT:     -12.9      0.000      0.000
REMARK SMILES Cc1nn(C)c(C)c1CN(C)C(=O)[C@@H]1CC=CC[C@@H]1C(=O)NCCCNC(=O)c1ccc(-c2c3nc(c(-c4c(F)c(F)c(F)c(F)c4F)c4ccc([nH]4)c(-c4c(F)c(F)c(F)c(F)c4F)c4nc(c(-c5c(F)c(F)c(F)c(F)c5F)c5ccc2[nH]5)C=C4)C=C3)cc1
REMARK SMILES IDX 23 1 22 2 20 3 21 4 19 6 14 7 15 8 16 9 18 10 17 11 12 12
REMARK SMILES IDX 13 13 10 14 11 15 9 16 8 17 1 18 2 19 3 20 4 21 6 22 5 23
REMARK SMILES IDX 7 24 24 25 25 26 26 27 27 28 28 30 29 31 30 32 91 33 31 34
REMARK SMILES IDX 90 35 32 36 33 37 34 38 84 39 35 40 89 41 83 42 85 43 36 44
REMARK SMILES IDX 88 45 82 46 81 47 37 49 69 50 49 51 68 52 50 53 53 54 67 55
REMARK SMILES IDX 86 56 51 57 52 58 66 60 87 61 54 62 38 63 39 64 47 65 40 66
REMARK SMILES IDX 41 67 45 68 48 69 42 70 43 71 46 72 44 73 70 74 71 75 79 76
REMARK SMILES IDX 72 77 73 78 77 79 80 80 74 81 75 82 78 83 76 84 55 85 56 86
REMARK SMILES IDX 64 87 57 88 58 89 62 90 65 91 59 92 60 93 63 94 61 95
REMARK H PARENT 22 5 26 29 85 48 53 59
REMARK Flexibility Score: inf
ROOT
ATOM      1  C   UNL A   1      31.980  30.475  27.001  1.00  0.00     0.117 C 
ENDROOT
BRANCH   1   2
ATOM      2  N   UNL A   1      32.745  29.990  25.869  1.00  0.00    -0.356 N 
ATOM      3  C   UNL A   1      32.380  29.202  24.822  1.00  0.00     0.224 C 
ATOM      4  O   UNL A   1      33.229  29.021  23.955  1.00  0.00    -0.275 OA
ATOM      5  H   UNL A   1      33.687  30.280  25.857  1.00  0.00     0.163 HD
BRANCH   3   6
ATOM      6  C   UNL A   1      30.973  28.604  24.786  1.00  0.00     0.095 C 
ATOM      7  C   UNL A   1      30.957  27.056  24.859  1.00  0.00     0.095 C 
ATOM      8  C   UNL A   1      31.581  26.417  23.603  1.00  0.00     0.041 C 
ATOM      9  C   UNL A   1      31.168  27.106  22.330  1.00  0.00    -0.030 C 
ATOM     10  C   UNL A   1      30.219  29.079  23.531  1.00  0.00     0.041 C 
ATOM     11  C   UNL A   1      30.537  28.288  22.298  1.00  0.00    -0.030 C 
BRANCH   7  12
ATOM     12  C   UNL A   1      31.620  26.578  26.156  1.00  0.00     0.226 C 
ATOM     13  O   UNL A   1      31.402  27.138  27.229  1.00  0.00    -0.275 OA
BRANCH  12  14
ATOM     14  N   UNL A   1      32.414  25.432  26.081  1.00  0.00    -0.341 N 
ATOM     15  C   UNL A   1      33.817  25.437  25.698  1.00  0.00     0.147 C 
BRANCH  14  16
ATOM     16  C   UNL A   1      31.818  24.157  26.482  1.00  0.00     0.158 C 
BRANCH  16  17
ATOM     17  C   UNL A   1      32.333  22.986  25.709  1.00  0.00     0.015 A 
ATOM     18  C   UNL A   1      30.974  23.269  23.465  1.00  0.00     0.069 C 
ATOM     19  C   UNL A   1      31.953  22.624  24.379  1.00  0.00     0.065 A 
ATOM     20  N   UNL A   1      32.622  21.552  23.946  1.00  0.00    -0.178 NA
ATOM     21  N   UNL A   1      33.371  21.182  24.993  1.00  0.00    -0.272 N 
ATOM     22  C   UNL A   1      33.300  22.048  26.053  1.00  0.00     0.040 A 
ATOM     23  C   UNL A   1      34.136  19.962  24.871  1.00  0.00     0.174 C 
ATOM     24  C   UNL A   1      34.124  21.888  27.276  1.00  0.00     0.067 C 
ENDBRANCH  16  17
ENDBRANCH  14  16
ENDBRANCH  12  14
ENDBRANCH   7  12
ENDBRANCH   3   6
ENDBRANCH   1   2
BRANCH   1  25
ATOM     25  C   UNL A   1      31.698  31.966  26.916  1.00  0.00     0.042 C 
BRANCH  25  26
ATOM     26  C   UNL A   1      32.888  32.859  27.250  1.00  0.00     0.118 C 
BRANCH  26  27
ATOM     27  N   UNL A   1      32.507  34.208  27.647  1.00  0.00    -0.352 N 
ATOM     28  C   UNL A   1      32.999  35.021  28.638  1.00  0.00     0.251 C 
ATOM     29  H   UNL A   1      31.775  34.601  27.119  1.00  0.00     0.163 HD
ATOM     30  O   UNL A   1      32.427  36.074  28.906  1.00  0.00    -0.269 OA
BRANCH  28  31
ATOM     31  C   UNL A   1      34.188  34.616  29.417  1.00  0.00     0.039 A 
ATOM     32  C   UNL A   1      34.006  34.112  30.707  1.00  0.00     0.014 A 
ATOM     33  C   UNL A   1      35.473  34.715  28.880  1.00  0.00     0.014 A 
ATOM     34  C   UNL A   1      35.100  33.606  31.413  1.00  0.00     0.010 A 
ATOM     35  C   UNL A   1      36.546  34.130  29.545  1.00  0.00     0.010 A 
ATOM     36  C   UNL A   1      36.367  33.554  30.811  1.00  0.00    -0.014 A 
BRANCH  36  37
ATOM     37  C   UNL A   1      37.506  32.863  31.468  1.00  0.00     0.031 A 
ATOM     38  C   UNL A   1      38.155  31.675  30.818  1.00  0.00     0.074 A 
ATOM     39  C   UNL A   1      37.894  33.257  32.698  1.00  0.00     0.049 A 
ATOM     40  N   UNL A   1      39.093  30.888  31.282  1.00  0.00    -0.248 NA
ATOM     41  C   UNL A   1      37.668  31.303  29.481  1.00  0.00     0.031 C 
ATOM     42  C   UNL A   1      37.306  34.360  33.459  1.00  0.00     0.029 A 
ATOM     43  N   UNL A   1      38.866  32.763  33.533  1.00  0.00    -0.354 N 
ATOM     44  C   UNL A   1      39.296  29.924  30.304  1.00  0.00     0.074 A 
ATOM     45  C   UNL A   1      38.350  30.193  29.243  1.00  0.00     0.031 C 
ATOM     46  C   UNL A   1      37.940  34.473  34.637  1.00  0.00     0.029 A 
ATOM     47  C   UNL A   1      38.949  33.424  34.734  1.00  0.00     0.049 A 
ATOM     48  H   UNL A   1      39.449  32.005  33.294  1.00  0.00     0.167 HD
ATOM     49  C   UNL A   1      40.204  28.920  30.284  1.00  0.00     0.037 A 
ATOM     50  C   UNL A   1      39.740  33.201  35.801  1.00  0.00     0.037 A 
ATOM     51  C   UNL A   1      41.162  28.672  31.330  1.00  0.00     0.049 A 
ATOM     52  C   UNL A   1      40.733  32.073  35.757  1.00  0.00     0.074 A 
ATOM     53  C   UNL A   1      42.173  27.728  31.367  1.00  0.00     0.029 A 
ATOM     54  N   UNL A   1      41.224  29.371  32.527  1.00  0.00    -0.354 N 
ATOM     55  N   UNL A   1      40.966  31.215  34.793  1.00  0.00    -0.248 NA
ATOM     56  C   UNL A   1      41.571  31.881  36.948  1.00  0.00     0.031 C 
ATOM     57  C   UNL A   1      42.816  27.824  32.606  1.00  0.00     0.029 A 
ATOM     58  C   UNL A   1      42.237  28.859  33.322  1.00  0.00     0.049 A 
ATOM     59  H   UNL A   1      40.635  30.120  32.775  1.00  0.00     0.167 HD
ATOM     60  C   UNL A   1      41.989  30.396  35.251  1.00  0.00     0.074 A 
ATOM     61  C   UNL A   1      42.345  30.872  36.571  1.00  0.00     0.031 C 
ATOM     62  C   UNL A   1      42.577  29.342  34.635  1.00  0.00     0.037 A 
BRANCH  49  63
ATOM     63  C   UNL A   1      40.212  28.013  29.089  1.00  0.00     0.064 A 
ATOM     64  C   UNL A   1      40.951  28.322  27.937  1.00  0.00     0.173 A 
ATOM     65  C   UNL A   1      39.513  26.796  29.112  1.00  0.00     0.173 A 
ATOM     66  F   UNL A   1      41.629  29.478  27.860  1.00  0.00    -0.203 F 
ATOM     67  C   UNL A   1      40.969  27.461  26.843  1.00  0.00     0.198 A 
ATOM     68  C   UNL A   1      39.557  25.924  28.028  1.00  0.00     0.198 A 
ATOM     69  F   UNL A   1      38.796  26.449  30.192  1.00  0.00    -0.203 F 
ATOM     70  F   UNL A   1      41.647  27.798  25.737  1.00  0.00    -0.200 F 
ATOM     71  C   UNL A   1      40.279  26.259  26.893  1.00  0.00     0.200 A 
ATOM     72  F   UNL A   1      38.900  24.757  28.082  1.00  0.00    -0.200 F 
ATOM     73  F   UNL A   1      40.305  25.426  25.843  1.00  0.00    -0.200 F 
ENDBRANCH  49  63
BRANCH  50  74
ATOM     74  C   UNL A   1      39.634  34.073  37.001  1.00  0.00     0.064 A 
ATOM     75  C   UNL A   1      38.852  33.693  38.100  1.00  0.00     0.173 A 
ATOM     76  C   UNL A   1      40.305  35.303  37.071  1.00  0.00     0.173 A 
ATOM     77  F   UNL A   1      38.175  32.535  38.070  1.00  0.00    -0.203 F 
ATOM     78  C   UNL A   1      38.729  34.518  39.215  1.00  0.00     0.198 A 
ATOM     79  C   UNL A   1      40.203  36.114  38.200  1.00  0.00     0.198 A 
ATOM     80  F   UNL A   1      41.071  35.711  36.049  1.00  0.00    -0.203 F 
ATOM     81  F   UNL A   1      37.938  34.151  40.233  1.00  0.00    -0.200 F 
ATOM     82  C   UNL A   1      39.409  35.725  39.267  1.00  0.00     0.200 A 
ATOM     83  F   UNL A   1      40.875  37.273  38.252  1.00  0.00    -0.200 F 
ATOM     84  F   UNL A   1      39.293  36.517  40.342  1.00  0.00    -0.200 F 
ENDBRANCH  50  74
BRANCH  62  85
ATOM     85  C   UNL A   1      43.679  28.643  35.375  1.00  0.00     0.064 A 
ATOM     86  C   UNL A   1      45.023  28.999  35.193  1.00  0.00     0.173 A 
ATOM     87  C   UNL A   1      43.385  27.633  36.304  1.00  0.00     0.173 A 
ATOM     88  F   UNL A   1      45.356  29.945  34.304  1.00  0.00    -0.203 F 
ATOM     89  C   UNL A   1      46.036  28.353  35.899  1.00  0.00     0.198 A 
ATOM     90  C   UNL A   1      44.397  27.011  37.029  1.00  0.00     0.198 A 
ATOM     91  F   UNL A   1      42.114  27.259  36.518  1.00  0.00    -0.203 F 
ATOM     92  F   UNL A   1      47.316  28.677  35.676  1.00  0.00    -0.200 F 
ATOM     93  C   UNL A   1      45.721  27.366  36.821  1.00  0.00     0.200 A 
ATOM     94  F   UNL A   1      44.091  26.066  37.929  1.00  0.00    -0.200 F 
ATOM     95  F   UNL A   1      46.696  26.751  37.505  1.00  0.00    -0.200 F 
ENDBRANCH  62  85
ENDBRANCH  36  37
ENDBRANCH  28  31
ENDBRANCH  26  27
ENDBRANCH  25  26
ENDBRANCH   1  25
TORSDOF 14
ENDMDL
MODEL 2
REMARK VINA RESULT:     -12.7      0.548      1.715
REMARK SMILES Cc1nn(C)c(C)c1CN(C)C(=O)[C@@H]1CC=CC[C@@H]1C(=O)NCCCNC(=O)c1ccc(-c2c3nc(c(-c4c(F)c(F)c(F)c(F)c4F)c4ccc([nH]4)c(-c4c(F)c(F)c(F)c(F)c4F)c4nc(c(-c5c(F)c(F)c(F)c(F)c5F)c5ccc2[nH]5)C=C4)C=C3)cc1
REMARK SMILES IDX 23 1 22 2 20 3 21 4 19 6 14 7 15 8 16 9 18 10 17 11 12 12
REMARK SMILES IDX 13 13 10 14 11 15 9 16 8 17 1 18 2 19 3 20 4 21 6 22 5 23
REMARK SMILES IDX 7 24 24 25 25 26 26 27 27 28 28 30 29 31 30 32 91 33 31 34
REMARK SMILES IDX 90 35 32 36 33 37 34 38 84 39 35 40 89 41 83 42 85 43 36 44
REMARK SMILES IDX 88 45 82 46 81 47 37 49 69 50 49 51 68 52 50 53 53 54 67 55
REMARK SMILES IDX 86 56 51 57 52 58 66 60 87 61 54 62 38 63 39 64 47 65 40 66
REMARK SMILES IDX 41 67 45 68 48 69 42 70 43 71 46 72 44 73 70 74 71 75 79 76
REMARK SMILES IDX 72 77 73 78 77 79 80 80 74 81 75 82 78 83 76 84 55 85 56 86
REMARK SMILES IDX 64 87 57 88 58 89 62 90 65 91 59 92 60 93 63 94 61 95
REMARK H PARENT 22 5 26 29 85 48 53 59
REMARK Flexibility Score: inf
ROOT
ATOM      1  C   UNL A   1      31.969  30.338  27.018  1.00  0.00     0.117 C 
ENDROOT
BRANCH   1   2
ATOM      2  N   UNL A   1      32.718  29.758  25.922  1.00  0.00    -0.356 N 
ATOM      3  C   UNL A   1      32.309  29.003  24.866  1.00  0.00     0.224 C 
ATOM      4  O   UNL A   1      33.166  28.719  24.035  1.00  0.00    -0.275 OA
ATOM      5  H   UNL A   1      33.686  29.942  25.944  1.00  0.00     0.163 HD
BRANCH   3   6
ATOM      6  C   UNL A   1      30.846  28.563  24.780  1.00  0.00     0.095 C 
ATOM      7  C   UNL A   1      30.659  27.026  24.827  1.00  0.00     0.095 C 
ATOM      8  C   UNL A   1      31.249  26.338  23.581  1.00  0.00     0.041 C 
ATOM      9  C   UNL A   1      30.953  27.084  22.307  1.00  0.00    -0.030 C 
ATOM     10  C   UNL A   1      30.188  29.134  23.510  1.00  0.00     0.041 C 
ATOM     11  C   UNL A   1      30.457  28.328  22.275  1.00  0.00    -0.030 C 
BRANCH   7  12
ATOM     12  C   UNL A   1      31.225  26.461  26.135  1.00  0.00     0.226 C 
ATOM     13  O   UNL A   1      31.147  27.090  27.189  1.00  0.00    -0.275 OA
BRANCH  12  14
ATOM     14  N   UNL A   1      31.759  25.171  26.096  1.00  0.00    -0.341 N 
ATOM     15  C   UNL A   1      30.961  23.963  25.957  1.00  0.00     0.147 C 
BRANCH  14  16
ATOM     16  C   UNL A   1      33.215  25.031  26.126  1.00  0.00     0.158 C 
BRANCH  16  17
ATOM     17  C   UNL A   1      33.709  23.778  25.478  1.00  0.00     0.015 A 
ATOM     18  C   UNL A   1      34.028  24.622  23.000  1.00  0.00     0.069 C 
ATOM     19  C   UNL A   1      34.068  23.627  24.103  1.00  0.00     0.065 A 
ATOM     20  N   UNL A   1      34.516  22.397  23.838  1.00  0.00    -0.178 NA
ATOM     21  N   UNL A   1      34.385  21.739  24.997  1.00  0.00    -0.272 N 
ATOM     22  C   UNL A   1      33.979  22.534  26.038  1.00  0.00     0.040 A 
ATOM     23  C   UNL A   1      34.684  20.325  25.002  1.00  0.00     0.174 C 
ATOM     24  C   UNL A   1      33.868  22.037  27.430  1.00  0.00     0.067 C 
ENDBRANCH  16  17
ENDBRANCH  14  16
ENDBRANCH  12  14
ENDBRANCH   7  12
ENDBRANCH   3   6
ENDBRANCH   1   2
BRANCH   1  25
ATOM     25  C   UNL A   1      31.753  31.833  26.849  1.00  0.00     0.042 C 
BRANCH  25  26
ATOM     26  C   UNL A   1      32.939  32.698  27.266  1.00  0.00     0.118 C 
BRANCH  26  27
ATOM     27  N   UNL A   1      32.564  34.059  27.626  1.00  0.00    -0.352 N 
ATOM     28  C   UNL A   1      33.055  34.894  28.599  1.00  0.00     0.251 C 
ATOM     29  H   UNL A   1      31.839  34.444  27.082  1.00  0.00     0.163 HD
ATOM     30  O   UNL A   1      32.489  35.957  28.836  1.00  0.00    -0.269 OA
BRANCH  28  31
ATOM     31  C   UNL A   1      34.236  34.500  29.397  1.00  0.00     0.039 A 
ATOM     32  C   UNL A   1      34.039  33.986  30.680  1.00  0.00     0.014 A 
ATOM     33  C   UNL A   1      35.529  34.620  28.882  1.00  0.00     0.014 A 
ATOM     34  C   UNL A   1      35.127  33.492  31.402  1.00  0.00     0.010 A 
ATOM     35  C   UNL A   1      36.598  34.046  29.562  1.00  0.00     0.010 A 
ATOM     36  C   UNL A   1      36.405  33.461  30.822  1.00  0.00    -0.014 A 
BRANCH  36  37
ATOM     37  C   UNL A   1      37.542  32.781  31.495  1.00  0.00     0.031 A 
ATOM     38  C   UNL A   1      38.219  31.607  30.849  1.00  0.00     0.074 A 
ATOM     39  C   UNL A   1      37.903  33.172  32.734  1.00  0.00     0.049 A 
ATOM     40  N   UNL A   1      39.160  30.831  31.325  1.00  0.00    -0.248 NA
ATOM     41  C   UNL A   1      37.761  31.237  29.501  1.00  0.00     0.031 C 
ATOM     42  C   UNL A   1      37.286  34.262  33.491  1.00  0.00     0.029 A 
ATOM     43  N   UNL A   1      38.867  32.687  33.583  1.00  0.00    -0.354 N 
ATOM     44  C   UNL A   1      39.394  29.875  30.345  1.00  0.00     0.074 A 
ATOM     45  C   UNL A   1      38.463  30.138  29.268  1.00  0.00     0.031 C 
ATOM     46  C   UNL A   1      37.898  34.376  34.680  1.00  0.00     0.029 A 
ATOM     47  C   UNL A   1      38.919  33.342  34.789  1.00  0.00     0.049 A 
ATOM     48  H   UNL A   1      39.464  31.939  33.349  1.00  0.00     0.167 HD
ATOM     49  C   UNL A   1      40.316  28.884  30.334  1.00  0.00     0.037 A 
ATOM     50  C   UNL A   1      39.694  33.123  35.869  1.00  0.00     0.037 A 
ATOM     51  C   UNL A   1      41.259  28.643  31.395  1.00  0.00     0.049 A 
ATOM     52  C   UNL A   1      40.704  32.009  35.835  1.00  0.00     0.074 A 
ATOM     53  C   UNL A   1      42.283  27.714  31.444  1.00  0.00     0.029 A 
ATOM     54  N   UNL A   1      41.290  29.335  32.597  1.00  0.00    -0.354 N 
ATOM     55  N   UNL A   1      40.966  31.161  34.870  1.00  0.00    -0.248 NA
ATOM     56  C   UNL A   1      41.524  31.821  37.039  1.00  0.00     0.031 C 
ATOM     57  C   UNL A   1      42.902  27.811  32.695  1.00  0.00     0.029 A 
ATOM     58  C   UNL A   1      42.296  28.833  33.407  1.00  0.00     0.049 A 
ATOM     59  H   UNL A   1      40.686  30.074  32.839  1.00  0.00     0.167 HD
ATOM     60  C   UNL A   1      41.992  30.354  35.341  1.00  0.00     0.074 A 
ATOM     61  C   UNL A   1      42.318  30.826  36.670  1.00  0.00     0.031 C 
ATOM     62  C   UNL A   1      42.606  29.312  34.729  1.00  0.00     0.037 A 
BRANCH  49  63
ATOM     63  C   UNL A   1      40.359  27.985  29.133  1.00  0.00     0.064 A 
ATOM     64  C   UNL A   1      39.624  26.791  29.084  1.00  0.00     0.173 A 
ATOM     65  C   UNL A   1      41.103  28.344  28.000  1.00  0.00     0.173 A 
ATOM     66  F   UNL A   1      38.903  26.397  30.145  1.00  0.00    -0.203 F 
ATOM     67  C   UNL A   1      39.653  25.978  27.954  1.00  0.00     0.198 A 
ATOM     68  C   UNL A   1      41.108  27.543  26.861  1.00  0.00     0.198 A 
ATOM     69  F   UNL A   1      41.819  29.480  27.993  1.00  0.00    -0.203 F 
ATOM     70  F   UNL A   1      38.977  24.820  27.946  1.00  0.00    -0.200 F 
ATOM     71  C   UNL A   1      40.388  26.358  26.841  1.00  0.00     0.200 A 
ATOM     72  F   UNL A   1      41.808  27.918  25.782  1.00  0.00    -0.200 F 
ATOM     73  F   UNL A   1      40.408  25.579  25.751  1.00  0.00    -0.200 F 
ENDBRANCH  49  63
BRANCH  50  74
ATOM     74  C   UNL A   1      39.555  33.986  37.072  1.00  0.00     0.064 A 
ATOM     75  C   UNL A   1      38.767  33.582  38.159  1.00  0.00     0.173 A 
ATOM     76  C   UNL A   1      40.199  35.229  37.157  1.00  0.00     0.173 A 
ATOM     77  F   UNL A   1      38.116  32.411  38.114  1.00  0.00    -0.203 F 
ATOM     78  C   UNL A   1      38.613  34.399  39.277  1.00  0.00     0.198 A 
ATOM     79  C   UNL A   1      40.066  36.031  38.289  1.00  0.00     0.198 A 
ATOM     80  F   UNL A   1      40.969  35.658  36.147  1.00  0.00    -0.203 F 
ATOM     81  F   UNL A   1      37.817  34.009  40.283  1.00  0.00    -0.200 F 
ATOM     82  C   UNL A   1      39.267  35.619  39.344  1.00  0.00     0.200 A 
ATOM     83  F   UNL A   1      40.713  37.203  38.356  1.00  0.00    -0.200 F 
ATOM     84  F   UNL A   1      39.121  36.402  40.422  1.00  0.00    -0.200 F 
ENDBRANCH  50  74
BRANCH  62  85
ATOM     85  C   UNL A   1      43.705  28.623  35.484  1.00  0.00     0.064 A 
ATOM     86  C   UNL A   1      43.442  27.530  36.322  1.00  0.00     0.173 A 
ATOM     87  C   UNL A   1      45.037  29.037  35.339  1.00  0.00     0.173 A 
ATOM     88  F   UNL A   1      42.183  27.108  36.508  1.00  0.00    -0.203 F 
ATOM     89  C   UNL A   1      44.473  26.888  37.005  1.00  0.00     0.198 A 
ATOM     90  C   UNL A   1      46.068  28.374  35.999  1.00  0.00     0.198 A 
ATOM     91  F   UNL A   1      45.341  30.075  34.545  1.00  0.00    -0.203 F 
ATOM     92  F   UNL A   1      44.195  25.875  37.837  1.00  0.00    -0.200 F 
ATOM     93  C   UNL A   1      45.784  27.306  36.836  1.00  0.00     0.200 A 
ATOM     94  F   UNL A   1      47.336  28.771  35.826  1.00  0.00    -0.200 F 
ATOM     95  F   UNL A   1      46.776  26.683  37.488  1.00  0.00    -0.200 F 
ENDBRANCH  62  85
ENDBRANCH  36  37
ENDBRANCH  28  31
ENDBRANCH  26  27
ENDBRANCH  25  26
ENDBRANCH   1  25
TORSDOF 14
ENDMDL
MODEL 3
REMARK VINA RESULT:     -12.7      5.754     11.346
REMARK SMILES Cc1nn(C)c(C)c1CN(C)C(=O)[C@@H]1CC=CC[C@@H]1C(=O)NCCCNC(=O)c1ccc(-c2c3nc(c(-c4c(F)c(F)c(F)c(F)c4F)c4ccc([nH]4)c(-c4c(F)c(F)c(F)c(F)c4F)c4nc(c(-c5c(F)c(F)c(F)c(F)c5F)c5ccc2[nH]5)C=C4)C=C3)cc1
REMARK SMILES IDX 23 1 22 2 20 3 21 4 19 6 14 7 15 8 16 9 18 10 17 11 12 12
REMARK SMILES IDX 13 13 10 14 11 15 9 16 8 17 1 18 2 19 3 20 4 21 6 22 5 23
REMARK SMILES IDX 7 24 24 25 25 26 26 27 27 28 28 30 29 31 30 32 91 33 31 34
REMARK SMILES IDX 90 35 32 36 33 37 34 38 84 39 35 40 89 41 83 42 85 43 36 44
REMARK SMILES IDX 88 45 82 46 81 47 37 49 69 50 49 51 68 52 50 53 53 54 67 55
REMARK SMILES IDX 86 56 51 57 52 58 66 60 87 61 54 62 38 63 39 64 47 65 40 66
REMARK SMILES IDX 41 67 45 68 48 69 42 70 43 71 46 72 44 73 70 74 71 75 79 76
REMARK SMILES IDX 72 77 73 78 77 79 80 80 74 81 75 82 78 83 76 84 55 85 56 86
REMARK SMILES IDX 64 87 57 88 58 89 62 90 65 91 59 92 60 93 63 94 61 95
REMARK H PARENT 22 5 26 29 85 48 53 59
REMARK Flexibility Score: inf
ROOT
ATOM      1  C   UNL A   1      37.476  21.463  24.777  1.00  0.00     0.117 C 
ENDROOT
BRANCH   1   2
ATOM      2  N   UNL A   1      36.496  21.717  25.814  1.00  0.00    -0.356 N 
ATOM      3  C   UNL A   1      35.144  21.564  25.816  1.00  0.00     0.224 C 
ATOM      4  O   UNL A   1      34.573  21.781  26.880  1.00  0.00    -0.275 OA
ATOM      5  H   UNL A   1      36.873  22.058  26.658  1.00  0.00     0.163 HD
BRANCH   3   6
ATOM      6  C   UNL A   1      34.434  21.141  24.529  1.00  0.00     0.095 C 
ATOM      7  C   UNL A   1      33.595  22.273  23.886  1.00  0.00     0.095 C 
ATOM      8  C   UNL A   1      32.396  22.670  24.768  1.00  0.00     0.041 C 
ATOM      9  C   UNL A   1      31.699  21.482  25.376  1.00  0.00    -0.030 C 
ATOM     10  C   UNL A   1      33.546  19.910  24.785  1.00  0.00     0.041 C 
ATOM     11  C   UNL A   1      32.203  20.241  25.363  1.00  0.00    -0.030 C 
BRANCH   7  12
ATOM     12  C   UNL A   1      34.492  23.467  23.537  1.00  0.00     0.226 C 
ATOM     13  O   UNL A   1      35.390  23.369  22.703  1.00  0.00    -0.275 OA
BRANCH  12  14
ATOM     14  N   UNL A   1      34.193  24.688  24.145  1.00  0.00    -0.341 N 
ATOM     15  C   UNL A   1      34.789  25.145  25.391  1.00  0.00     0.147 C 
BRANCH  14  16
ATOM     16  C   UNL A   1      33.279  25.595  23.449  1.00  0.00     0.158 C 
BRANCH  16  17
ATOM     17  C   UNL A   1      33.003  26.858  24.199  1.00  0.00     0.015 A 
ATOM     18  C   UNL A   1      34.383  28.577  22.751  1.00  0.00     0.069 C 
ATOM     19  C   UNL A   1      33.493  28.158  23.865  1.00  0.00     0.065 A 
ATOM     20  N   UNL A   1      33.034  29.092  24.702  1.00  0.00    -0.178 NA
ATOM     21  N   UNL A   1      32.318  28.408  25.604  1.00  0.00    -0.272 N 
ATOM     22  C   UNL A   1      32.197  27.074  25.312  1.00  0.00     0.040 A 
ATOM     23  C   UNL A   1      31.778  29.141  26.726  1.00  0.00     0.174 C 
ATOM     24  C   UNL A   1      31.364  26.149  26.118  1.00  0.00     0.067 C 
ENDBRANCH  16  17
ENDBRANCH  14  16
ENDBRANCH  12  14
ENDBRANCH   7  12
ENDBRANCH   3   6
ENDBRANCH   1   2
BRANCH   1  25
ATOM     25  C   UNL A   1      38.238  20.166  25.001  1.00  0.00     0.042 C 
BRANCH  25  26
ATOM     26  C   UNL A   1      39.271  20.221  26.121  1.00  0.00     0.118 C 
BRANCH  26  27
ATOM     27  N   UNL A   1      40.263  19.157  26.046  1.00  0.00    -0.352 N 
ATOM     28  C   UNL A   1      41.634  19.205  26.113  1.00  0.00     0.251 C 
ATOM     29  H   UNL A   1      39.890  18.254  25.926  1.00  0.00     0.163 HD
ATOM     30  O   UNL A   1      42.294  18.198  25.872  1.00  0.00    -0.269 OA
BRANCH  28  31
ATOM     31  C   UNL A   1      42.323  20.474  26.428  1.00  0.00     0.039 A 
ATOM     32  C   UNL A   1      42.854  21.229  25.380  1.00  0.00     0.014 A 
ATOM     33  C   UNL A   1      42.435  20.928  27.744  1.00  0.00     0.014 A 
ATOM     34  C   UNL A   1      43.398  22.489  25.641  1.00  0.00     0.010 A 
ATOM     35  C   UNL A   1      42.893  22.219  27.992  1.00  0.00     0.010 A 
ATOM     36  C   UNL A   1      43.363  23.019  26.940  1.00  0.00    -0.014 A 
BRANCH  36  37
ATOM     37  C   UNL A   1      43.771  24.421  27.213  1.00  0.00     0.031 A 
ATOM     38  C   UNL A   1      42.766  25.426  27.700  1.00  0.00     0.074 A 
ATOM     39  C   UNL A   1      45.032  24.807  26.934  1.00  0.00     0.049 A 
ATOM     40  N   UNL A   1      42.913  26.711  27.900  1.00  0.00    -0.248 NA
ATOM     41  C   UNL A   1      41.409  24.928  27.972  1.00  0.00     0.031 C 
ATOM     42  C   UNL A   1      46.084  23.938  26.403  1.00  0.00     0.029 A 
ATOM     43  N   UNL A   1      45.640  26.033  27.041  1.00  0.00    -0.354 N 
ATOM     44  C   UNL A   1      41.669  27.176  28.305  1.00  0.00     0.074 A 
ATOM     45  C   UNL A   1      40.766  26.046  28.275  1.00  0.00     0.031 C 
ATOM     46  C   UNL A   1      47.211  24.652  26.251  1.00  0.00     0.029 A 
ATOM     47  C   UNL A   1      46.951  26.036  26.631  1.00  0.00     0.049 A 
ATOM     48  H   UNL A   1      45.179  26.835  27.380  1.00  0.00     0.167 HD
ATOM     49  C   UNL A   1      41.318  28.426  28.689  1.00  0.00     0.037 A 
ATOM     50  C   UNL A   1      47.839  27.045  26.554  1.00  0.00     0.037 A 
ATOM     51  C   UNL A   1      42.227  29.542  28.743  1.00  0.00     0.049 A 
ATOM     52  C   UNL A   1      47.421  28.426  26.977  1.00  0.00     0.074 A 
ATOM     53  C   UNL A   1      41.986  30.828  29.192  1.00  0.00     0.029 A 
ATOM     54  N   UNL A   1      43.551  29.504  28.331  1.00  0.00    -0.354 N 
ATOM     55  N   UNL A   1      46.261  28.836  27.431  1.00  0.00    -0.248 NA
ATOM     56  C   UNL A   1      48.434  29.485  26.876  1.00  0.00     0.031 C 
ATOM     57  C   UNL A   1      43.150  31.582  29.007  1.00  0.00     0.029 A 
ATOM     58  C   UNL A   1      44.131  30.753  28.487  1.00  0.00     0.049 A 
ATOM     59  H   UNL A   1      44.011  28.707  27.980  1.00  0.00     0.167 HD
ATOM     60  C   UNL A   1      46.410  30.191  27.689  1.00  0.00     0.074 A 
ATOM     61  C   UNL A   1      47.778  30.531  27.359  1.00  0.00     0.031 C 
ATOM     62  C   UNL A   1      45.493  31.076  28.152  1.00  0.00     0.037 A 
BRANCH  49  63
ATOM     63  C   UNL A   1      39.890  28.657  29.088  1.00  0.00     0.064 A 
ATOM     64  C   UNL A   1      39.457  28.466  30.408  1.00  0.00     0.173 A 
ATOM     65  C   UNL A   1      38.955  29.122  28.151  1.00  0.00     0.173 A 
ATOM     66  F   UNL A   1      40.309  28.013  31.340  1.00  0.00    -0.203 F 
ATOM     67  C   UNL A   1      38.134  28.706  30.770  1.00  0.00     0.198 A 
ATOM     68  C   UNL A   1      37.640  29.389  28.523  1.00  0.00     0.198 A 
ATOM     69  F   UNL A   1      39.319  29.328  26.876  1.00  0.00    -0.203 F 
ATOM     70  F   UNL A   1      37.732  28.474  32.028  1.00  0.00    -0.200 F 
ATOM     71  C   UNL A   1      37.229  29.175  29.829  1.00  0.00     0.200 A 
ATOM     72  F   UNL A   1      36.770  29.855  27.616  1.00  0.00    -0.200 F 
ATOM     73  F   UNL A   1      35.958  29.415  30.182  1.00  0.00    -0.200 F 
ENDBRANCH  49  63
BRANCH  50  74
ATOM     74  C   UNL A   1      49.220  26.785  26.068  1.00  0.00     0.064 A 
ATOM     75  C   UNL A   1      49.557  26.978  24.721  1.00  0.00     0.173 A 
ATOM     76  C   UNL A   1      50.227  26.334  26.935  1.00  0.00     0.173 A 
ATOM     77  F   UNL A   1      48.622  27.389  23.851  1.00  0.00    -0.203 F 
ATOM     78  C   UNL A   1      50.842  26.711  24.256  1.00  0.00     0.198 A 
ATOM     79  C   UNL A   1      51.519  26.095  26.472  1.00  0.00     0.198 A 
ATOM     80  F   UNL A   1      49.958  26.139  28.234  1.00  0.00    -0.203 F 
ATOM     81  F   UNL A   1      51.125  26.861  22.954  1.00  0.00    -0.200 F 
ATOM     82  C   UNL A   1      51.824  26.276  25.132  1.00  0.00     0.200 A 
ATOM     83  F   UNL A   1      52.469  25.689  27.326  1.00  0.00    -0.200 F 
ATOM     84  F   UNL A   1      53.061  26.023  24.684  1.00  0.00    -0.200 F 
ENDBRANCH  50  74
BRANCH  62  85
ATOM     85  C   UNL A   1      45.946  32.493  28.347  1.00  0.00     0.064 A 
ATOM     86  C   UNL A   1      45.805  33.452  27.333  1.00  0.00     0.173 A 
ATOM     87  C   UNL A   1      46.491  32.905  29.572  1.00  0.00     0.173 A 
ATOM     88  F   UNL A   1      45.307  33.104  26.138  1.00  0.00    -0.203 F 
ATOM     89  C   UNL A   1      46.214  34.769  27.533  1.00  0.00     0.198 A 
ATOM     90  C   UNL A   1      46.871  34.228  29.778  1.00  0.00     0.198 A 
ATOM     91  F   UNL A   1      46.642  32.027  30.575  1.00  0.00    -0.203 F 
ATOM     92  F   UNL A   1      46.113  35.658  26.536  1.00  0.00    -0.200 F 
ATOM     93  C   UNL A   1      46.738  35.156  28.757  1.00  0.00     0.200 A 
ATOM     94  F   UNL A   1      47.366  34.604  30.965  1.00  0.00    -0.200 F 
ATOM     95  F   UNL A   1      47.124  36.425  28.950  1.00  0.00    -0.200 F 
ENDBRANCH  62  85
ENDBRANCH  36  37
ENDBRANCH  28  31
ENDBRANCH  26  27
ENDBRANCH  25  26
ENDBRANCH   1  25
TORSDOF 14
ENDMDL
