MODEL 1
REMARK VINA RESULT:     -11.4      0.000      0.000
REMARK SMILES CSCCC(=O)N1[C@H](C)CCC[C@@H]1C(=O)NCCCNC(=O)c1ccc(-c2c3nc(c(-c4c(F)c(F)c(F)c(F)c4F)c4ccc([nH]4)c(-c4c(F)c(F)c(F)c(F)c4F)c4nc(c(-c5c(F)c(F)c(F)c(F)c5F)c5ccc2[nH]5)C=C4)C=C3)cc1
REMARK SMILES IDX 17 1 16 2 14 3 15 4 13 6 7 7 8 8 9 9 10 10 12 11 11 12 5 13
REMARK SMILES IDX 6 14 4 15 3 16 2 17 1 18 18 19 19 20 20 21 21 22 22 24 23 25
REMARK SMILES IDX 24 26 85 27 25 28 84 29 26 30 27 31 28 32 78 33 29 34 83 35
REMARK SMILES IDX 77 36 79 37 30 38 82 39 76 40 75 41 31 43 63 44 43 45 62 46
REMARK SMILES IDX 44 47 47 48 61 49 80 50 45 51 46 52 60 54 81 55 48 56 32 57
REMARK SMILES IDX 33 58 41 59 34 60 35 61 39 62 42 63 36 64 37 65 40 66 38 67
REMARK SMILES IDX 64 68 65 69 73 70 66 71 67 72 71 73 74 74 68 75 69 76 72 77
REMARK SMILES IDX 70 78 49 79 50 80 58 81 51 82 52 83 56 84 59 85 53 86 54 87
REMARK SMILES IDX 57 88 55 89
REMARK H PARENT 16 5 20 23 79 42 47 53
REMARK Flexibility Score: inf
ROOT
ATOM      1  C   UNL A   1      32.103  30.464  26.182  1.00  0.00     0.117 C 
ENDROOT
BRANCH   1   2
ATOM      2  N   UNL A   1      31.556  30.091  24.898  1.00  0.00    -0.354 N 
ATOM      3  C   UNL A   1      30.987  28.961  24.398  1.00  0.00     0.242 C 
ATOM      4  O   UNL A   1      30.194  29.167  23.468  1.00  0.00    -0.273 OA
ATOM      5  H   UNL A   1      31.607  30.817  24.235  1.00  0.00     0.163 HD
BRANCH   3   6
ATOM      6  C   UNL A   1      31.311  27.492  24.823  1.00  0.00     0.174 C 
ATOM      7  N   UNL A   1      32.608  26.853  24.475  1.00  0.00    -0.328 N 
ATOM      8  C   UNL A   1      32.720  26.191  23.185  1.00  0.00     0.082 C 
ATOM      9  C   UNL A   1      33.516  26.995  22.157  1.00  0.00     0.031 C 
ATOM     10  C   UNL A   1      31.401  25.568  22.704  1.00  0.00     0.025 C 
ATOM     11  C   UNL A   1      30.112  26.552  24.624  1.00  0.00     0.035 C 
ATOM     12  C   UNL A   1      30.461  25.276  23.867  1.00  0.00     0.005 C 
BRANCH   7  13
ATOM     13  C   UNL A   1      33.504  26.513  25.501  1.00  0.00     0.224 C 
ATOM     14  O   UNL A   1      33.658  27.218  26.500  1.00  0.00    -0.275 OA
BRANCH  13  15
ATOM     15  C   UNL A   1      34.326  25.225  25.363  1.00  0.00     0.111 C 
BRANCH  15  16
ATOM     16  C   UNL A   1      33.777  24.007  26.120  1.00  0.00     0.079 C 
BRANCH  16  17
ATOM     17  S   UNL A   1      33.054  22.699  25.033  1.00  0.00    -0.165 SA
ATOM     18  C   UNL A   1      34.168  22.764  23.592  1.00  0.00     0.085 C 
ENDBRANCH  16  17
ENDBRANCH  15  16
ENDBRANCH  13  15
ENDBRANCH   7  13
ENDBRANCH   3   6
ENDBRANCH   1   2
BRANCH   1  19
ATOM     19  C   UNL A   1      31.572  31.763  26.764  1.00  0.00     0.042 C 
BRANCH  19  20
ATOM     20  C   UNL A   1      32.691  32.675  27.255  1.00  0.00     0.118 C 
BRANCH  20  21
ATOM     21  N   UNL A   1      32.323  34.031  27.646  1.00  0.00    -0.352 N 
ATOM     22  C   UNL A   1      32.956  34.869  28.552  1.00  0.00     0.251 C 
ATOM     23  H   UNL A   1      31.521  34.399  27.210  1.00  0.00     0.163 HD
ATOM     24  O   UNL A   1      32.528  35.994  28.745  1.00  0.00    -0.269 OA
BRANCH  22  25
ATOM     25  C   UNL A   1      34.114  34.367  29.339  1.00  0.00     0.039 A 
ATOM     26  C   UNL A   1      33.877  33.620  30.497  1.00  0.00     0.014 A 
ATOM     27  C   UNL A   1      35.422  34.567  28.907  1.00  0.00     0.014 A 
ATOM     28  C   UNL A   1      34.943  32.983  31.142  1.00  0.00     0.010 A 
ATOM     29  C   UNL A   1      36.456  33.826  29.459  1.00  0.00     0.010 A 
ATOM     30  C   UNL A   1      36.233  33.032  30.591  1.00  0.00    -0.014 A 
BRANCH  30  31
ATOM     31  C   UNL A   1      37.376  32.284  31.178  1.00  0.00     0.031 A 
ATOM     32  C   UNL A   1      37.868  32.632  32.559  1.00  0.00     0.074 A 
ATOM     33  C   UNL A   1      38.034  31.371  30.435  1.00  0.00     0.049 A 
ATOM     34  N   UNL A   1      38.915  32.185  33.204  1.00  0.00    -0.248 NA
ATOM     35  C   UNL A   1      37.112  33.662  33.291  1.00  0.00     0.031 C 
ATOM     36  C   UNL A   1      37.714  31.010  29.052  1.00  0.00     0.029 A 
ATOM     37  N   UNL A   1      39.119  30.588  30.736  1.00  0.00    -0.354 N 
ATOM     38  C   UNL A   1      38.958  32.904  34.394  1.00  0.00     0.074 A 
ATOM     39  C   UNL A   1      37.882  33.866  34.347  1.00  0.00     0.031 C 
ATOM     40  C   UNL A   1      38.555  30.047  28.641  1.00  0.00     0.029 A 
ATOM     41  C   UNL A   1      39.496  29.748  29.715  1.00  0.00     0.049 A 
ATOM     42  H   UNL A   1      39.585  30.623  31.603  1.00  0.00     0.167 HD
ATOM     43  C   UNL A   1      39.794  32.751  35.447  1.00  0.00     0.037 A 
ATOM     44  C   UNL A   1      40.484  28.835  29.659  1.00  0.00     0.037 A 
ATOM     45  C   UNL A   1      40.823  31.748  35.513  1.00  0.00     0.049 A 
ATOM     46  C   UNL A   1      41.357  28.635  30.868  1.00  0.00     0.074 A 
ATOM     47  C   UNL A   1      41.674  31.449  36.561  1.00  0.00     0.029 A 
ATOM     48  N   UNL A   1      41.128  30.868  34.484  1.00  0.00    -0.354 N 
ATOM     49  N   UNL A   1      41.339  29.267  32.016  1.00  0.00    -0.248 NA
ATOM     50  C   UNL A   1      42.377  27.582  30.779  1.00  0.00     0.031 C 
ATOM     51  C   UNL A   1      42.516  30.407  36.155  1.00  0.00     0.029 A 
ATOM     52  C   UNL A   1      42.159  30.029  34.869  1.00  0.00     0.049 A 
ATOM     53  H   UNL A   1      40.677  30.845  33.609  1.00  0.00     0.167 HD
ATOM     54  C   UNL A   1      42.323  28.674  32.795  1.00  0.00     0.074 A 
ATOM     55  C   UNL A   1      42.906  27.617  31.993  1.00  0.00     0.031 C 
ATOM     56  C   UNL A   1      42.713  28.976  34.058  1.00  0.00     0.037 A 
BRANCH  43  57
ATOM     57  C   UNL A   1      39.609  33.671  36.619  1.00  0.00     0.064 A 
ATOM     58  C   UNL A   1      40.243  34.923  36.679  1.00  0.00     0.173 A 
ATOM     59  C   UNL A   1      38.782  33.306  37.691  1.00  0.00     0.173 A 
ATOM     60  F   UNL A   1      41.057  35.316  35.688  1.00  0.00    -0.203 F 
ATOM     61  C   UNL A   1      40.087  35.755  37.784  1.00  0.00     0.198 A 
ATOM     62  C   UNL A   1      38.601  34.156  38.780  1.00  0.00     0.198 A 
ATOM     63  F   UNL A   1      38.148  32.123  37.686  1.00  0.00    -0.203 F 
ATOM     64  F   UNL A   1      40.755  36.916  37.846  1.00  0.00    -0.200 F 
ATOM     65  C   UNL A   1      39.261  35.374  38.831  1.00  0.00     0.200 A 
ATOM     66  F   UNL A   1      37.794  33.792  39.787  1.00  0.00    -0.200 F 
ATOM     67  F   UNL A   1      39.111  36.177  39.894  1.00  0.00    -0.200 F 
ENDBRANCH  43  57
BRANCH  44  68
ATOM     68  C   UNL A   1      40.661  28.002  28.441  1.00  0.00     0.064 A 
ATOM     69  C   UNL A   1      41.470  28.441  27.384  1.00  0.00     0.173 A 
ATOM     70  C   UNL A   1      40.032  26.756  28.306  1.00  0.00     0.173 A 
ATOM     71  F   UNL A   1      42.080  29.633  27.460  1.00  0.00    -0.203 F 
ATOM     72  C   UNL A   1      41.626  27.678  26.228  1.00  0.00     0.198 A 
ATOM     73  C   UNL A   1      40.210  25.980  27.160  1.00  0.00     0.198 A 
ATOM     74  F   UNL A   1      39.255  26.284  29.291  1.00  0.00    -0.203 F 
ATOM     75  F   UNL A   1      42.370  28.144  25.216  1.00  0.00    -0.200 F 
ATOM     76  C   UNL A   1      41.000  26.446  26.120  1.00  0.00     0.200 A 
ATOM     77  F   UNL A   1      39.617  24.783  27.066  1.00  0.00    -0.200 F 
ATOM     78  F   UNL A   1      41.153  25.711  25.010  1.00  0.00    -0.200 F 
ENDBRANCH  44  68
BRANCH  56  79
ATOM     79  C   UNL A   1      43.792  28.128  34.661  1.00  0.00     0.064 A 
ATOM     80  C   UNL A   1      45.147  28.469  34.546  1.00  0.00     0.173 A 
ATOM     81  C   UNL A   1      43.461  26.975  35.389  1.00  0.00     0.173 A 
ATOM     82  F   UNL A   1      45.513  29.555  33.847  1.00  0.00    -0.203 F 
ATOM     83  C   UNL A   1      46.135  27.669  35.113  1.00  0.00     0.198 A 
ATOM     84  C   UNL A   1      44.451  26.195  35.981  1.00  0.00     0.198 A 
ATOM     85  F   UNL A   1      42.179  26.611  35.535  1.00  0.00    -0.203 F 
ATOM     86  F   UNL A   1      47.427  27.986  34.946  1.00  0.00    -0.200 F 
ATOM     87  C   UNL A   1      45.787  26.538  35.834  1.00  0.00     0.200 A 
ATOM     88  F   UNL A   1      44.112  25.109  36.689  1.00  0.00    -0.200 F 
ATOM     89  F   UNL A   1      46.740  25.771  36.382  1.00  0.00    -0.200 F 
ENDBRANCH  56  79
ENDBRANCH  30  31
ENDBRANCH  22  25
ENDBRANCH  20  21
ENDBRANCH  19  20
ENDBRANCH   1  19
TORSDOF 14
ENDMDL
MODEL 2
REMARK VINA RESULT:     -11.3      2.167      3.044
REMARK SMILES CSCCC(=O)N1[C@H](C)CCC[C@@H]1C(=O)NCCCNC(=O)c1ccc(-c2c3nc(c(-c4c(F)c(F)c(F)c(F)c4F)c4ccc([nH]4)c(-c4c(F)c(F)c(F)c(F)c4F)c4nc(c(-c5c(F)c(F)c(F)c(F)c5F)c5ccc2[nH]5)C=C4)C=C3)cc1
REMARK SMILES IDX 17 1 16 2 14 3 15 4 13 6 7 7 8 8 9 9 10 10 12 11 11 12 5 13
REMARK SMILES IDX 6 14 4 15 3 16 2 17 1 18 18 19 19 20 20 21 21 22 22 24 23 25
REMARK SMILES IDX 24 26 85 27 25 28 84 29 26 30 27 31 28 32 78 33 29 34 83 35
REMARK SMILES IDX 77 36 79 37 30 38 82 39 76 40 75 41 31 43 63 44 43 45 62 46
REMARK SMILES IDX 44 47 47 48 61 49 80 50 45 51 46 52 60 54 81 55 48 56 32 57
REMARK SMILES IDX 33 58 41 59 34 60 35 61 39 62 42 63 36 64 37 65 40 66 38 67
REMARK SMILES IDX 64 68 65 69 73 70 66 71 67 72 71 73 74 74 68 75 69 76 72 77
REMARK SMILES IDX 70 78 49 79 50 80 58 81 51 82 52 83 56 84 59 85 53 86 54 87
REMARK SMILES IDX 57 88 55 89
REMARK H PARENT 16 5 20 23 79 42 47 53
REMARK Flexibility Score: inf
ROOT
ATOM      1  C   UNL A   1      32.440  27.016  26.448  1.00  0.00     0.117 C 
ENDROOT
BRANCH   1   2
ATOM      2  N   UNL A   1      31.529  25.896  26.523  1.00  0.00    -0.354 N 
ATOM      3  C   UNL A   1      31.680  24.558  26.713  1.00  0.00     0.242 C 
ATOM      4  O   UNL A   1      30.692  24.010  27.224  1.00  0.00    -0.273 OA
ATOM      5  H   UNL A   1      30.588  26.161  26.408  1.00  0.00     0.163 HD
BRANCH   3   6
ATOM      6  C   UNL A   1      32.903  23.689  26.276  1.00  0.00     0.174 C 
ATOM      7  N   UNL A   1      33.247  23.502  24.842  1.00  0.00    -0.328 N 
ATOM      8  C   UNL A   1      32.597  22.419  24.119  1.00  0.00     0.082 C 
ATOM      9  C   UNL A   1      31.489  22.897  23.180  1.00  0.00     0.031 C 
ATOM     10  C   UNL A   1      32.279  21.203  25.000  1.00  0.00     0.025 C 
ATOM     11  C   UNL A   1      33.014  22.391  27.090  1.00  0.00     0.035 C 
ATOM     12  C   UNL A   1      33.183  21.147  26.226  1.00  0.00     0.005 C 
BRANCH   7  13
ATOM     13  C   UNL A   1      34.449  24.033  24.348  1.00  0.00     0.224 C 
ATOM     14  O   UNL A   1      34.662  24.163  23.141  1.00  0.00    -0.275 OA
BRANCH  13  15
ATOM     15  C   UNL A   1      35.534  24.453  25.347  1.00  0.00     0.111 C 
BRANCH  15  16
ATOM     16  C   UNL A   1      36.378  23.309  25.926  1.00  0.00     0.079 C 
BRANCH  16  17
ATOM     17  S   UNL A   1      38.171  23.712  26.126  1.00  0.00    -0.165 SA
ATOM     18  C   UNL A   1      38.922  22.052  26.122  1.00  0.00     0.085 C 
ENDBRANCH  16  17
ENDBRANCH  15  16
ENDBRANCH  13  15
ENDBRANCH   7  13
ENDBRANCH   3   6
ENDBRANCH   1   2
BRANCH   1  19
ATOM     19  C   UNL A   1      31.800  28.387  26.581  1.00  0.00     0.042 C 
BRANCH  19  20
ATOM     20  C   UNL A   1      32.704  29.498  26.060  1.00  0.00     0.118 C 
BRANCH  20  21
ATOM     21  N   UNL A   1      32.437  30.852  26.532  1.00  0.00    -0.352 N 
ATOM     22  C   UNL A   1      33.268  31.692  27.259  1.00  0.00     0.251 C 
ATOM     23  H   UNL A   1      31.551  31.217  26.305  1.00  0.00     0.163 HD
ATOM     24  O   UNL A   1      32.896  32.814  27.554  1.00  0.00    -0.269 OA
BRANCH  22  25
ATOM     25  C   UNL A   1      34.584  31.193  27.741  1.00  0.00     0.039 A 
ATOM     26  C   UNL A   1      35.611  32.110  27.984  1.00  0.00     0.014 A 
ATOM     27  C   UNL A   1      34.787  29.845  28.020  1.00  0.00     0.014 A 
ATOM     28  C   UNL A   1      36.786  31.685  28.613  1.00  0.00     0.010 A 
ATOM     29  C   UNL A   1      35.887  29.449  28.766  1.00  0.00     0.010 A 
ATOM     30  C   UNL A   1      36.907  30.361  29.065  1.00  0.00    -0.014 A 
BRANCH  30  31
ATOM     31  C   UNL A   1      38.089  29.889  29.833  1.00  0.00     0.031 A 
ATOM     32  C   UNL A   1      38.309  30.376  31.242  1.00  0.00     0.074 A 
ATOM     33  C   UNL A   1      39.013  29.112  29.234  1.00  0.00     0.049 A 
ATOM     34  N   UNL A   1      39.329  30.179  32.038  1.00  0.00    -0.248 NA
ATOM     35  C   UNL A   1      37.267  31.246  31.812  1.00  0.00     0.031 C 
ATOM     36  C   UNL A   1      38.962  28.648  27.845  1.00  0.00     0.029 A 
ATOM     37  N   UNL A   1      40.185  28.584  29.713  1.00  0.00    -0.354 N 
ATOM     38  C   UNL A   1      39.064  30.928  33.179  1.00  0.00     0.074 A 
ATOM     39  C   UNL A   1      37.830  31.641  32.942  1.00  0.00     0.031 C 
ATOM     40  C   UNL A   1      40.029  27.870  27.600  1.00  0.00     0.029 A 
ATOM     41  C   UNL A   1      40.858  27.810  28.798  1.00  0.00     0.049 A 
ATOM     42  H   UNL A   1      40.513  28.743  30.628  1.00  0.00     0.167 HD
ATOM     43  C   UNL A   1      39.764  30.987  34.336  1.00  0.00     0.037 A 
ATOM     44  C   UNL A   1      42.010  27.124  28.919  1.00  0.00     0.037 A 
ATOM     45  C   UNL A   1      40.958  30.225  34.589  1.00  0.00     0.049 A 
ATOM     46  C   UNL A   1      42.735  27.150  30.238  1.00  0.00     0.074 A 
ATOM     47  C   UNL A   1      41.703  30.145  35.751  1.00  0.00     0.029 A 
ATOM     48  N   UNL A   1      41.571  29.397  33.660  1.00  0.00    -0.354 N 
ATOM     49  N   UNL A   1      42.435  27.800  31.336  1.00  0.00    -0.248 NA
ATOM     50  C   UNL A   1      43.952  26.333  30.339  1.00  0.00     0.031 C 
ATOM     51  C   UNL A   1      42.787  29.291  35.515  1.00  0.00     0.029 A 
ATOM     52  C   UNL A   1      42.690  28.806  34.219  1.00  0.00     0.049 A 
ATOM     53  H   UNL A   1      41.257  29.252  32.738  1.00  0.00     0.167 HD
ATOM     54  C   UNL A   1      43.405  27.451  32.265  1.00  0.00     0.074 A 
ATOM     55  C   UNL A   1      44.294  26.516  31.606  1.00  0.00     0.031 C 
ATOM     56  C   UNL A   1      43.552  27.868  33.547  1.00  0.00     0.037 A 
BRANCH  43  57
ATOM     57  C   UNL A   1      39.239  31.885  35.420  1.00  0.00     0.064 A 
ATOM     58  C   UNL A   1      39.555  33.253  35.460  1.00  0.00     0.173 A 
ATOM     59  C   UNL A   1      38.403  31.378  36.426  1.00  0.00     0.173 A 
ATOM     60  F   UNL A   1      40.362  33.786  34.531  1.00  0.00    -0.203 F 
ATOM     61  C   UNL A   1      39.086  34.068  36.486  1.00  0.00     0.198 A 
ATOM     62  C   UNL A   1      37.908  32.204  37.432  1.00  0.00     0.198 A 
ATOM     63  F   UNL A   1      38.066  30.079  36.435  1.00  0.00    -0.203 F 
ATOM     64  F   UNL A   1      39.455  35.356  36.537  1.00  0.00    -0.200 F 
ATOM     65  C   UNL A   1      38.258  33.545  37.467  1.00  0.00     0.200 A 
ATOM     66  F   UNL A   1      37.099  31.701  38.374  1.00  0.00    -0.200 F 
ATOM     67  F   UNL A   1      37.806  34.332  38.454  1.00  0.00    -0.200 F 
ENDBRANCH  43  57
BRANCH  44  68
ATOM     68  C   UNL A   1      42.516  26.308  27.785  1.00  0.00     0.064 A 
ATOM     69  C   UNL A   1      43.491  26.818  26.915  1.00  0.00     0.173 A 
ATOM     70  C   UNL A   1      42.043  25.011  27.544  1.00  0.00     0.173 A 
ATOM     71  F   UNL A   1      43.962  28.061  27.093  1.00  0.00    -0.203 F 
ATOM     72  C   UNL A   1      43.956  26.071  25.834  1.00  0.00     0.198 A 
ATOM     73  C   UNL A   1      42.529  24.253  26.479  1.00  0.00     0.198 A 
ATOM     74  F   UNL A   1      41.118  24.471  28.352  1.00  0.00    -0.203 F 
ATOM     75  F   UNL A   1      44.855  26.601  24.994  1.00  0.00    -0.200 F 
ATOM     76  C   UNL A   1      43.479  24.787  25.621  1.00  0.00     0.200 A 
ATOM     77  F   UNL A   1      42.077  23.007  26.285  1.00  0.00    -0.200 F 
ATOM     78  F   UNL A   1      43.929  24.067  24.584  1.00  0.00    -0.200 F 
ENDBRANCH  44  68
BRANCH  56  79
ATOM     79  C   UNL A   1      44.690  27.285  34.329  1.00  0.00     0.064 A 
ATOM     80  C   UNL A   1      45.954  27.892  34.352  1.00  0.00     0.173 A 
ATOM     81  C   UNL A   1      44.503  26.120  35.088  1.00  0.00     0.173 A 
ATOM     82  F   UNL A   1      46.185  28.999  33.630  1.00  0.00    -0.203 F 
ATOM     83  C   UNL A   1      46.999  27.336  35.084  1.00  0.00     0.198 A 
ATOM     84  C   UNL A   1      45.542  25.585  35.844  1.00  0.00     0.198 A 
ATOM     85  F   UNL A   1      43.310  25.508  35.106  1.00  0.00    -0.203 F 
ATOM     86  F   UNL A   1      48.214  27.903  35.050  1.00  0.00    -0.200 F 
ATOM     87  C   UNL A   1      46.791  26.188  35.834  1.00  0.00     0.200 A 
ATOM     88  F   UNL A   1      45.336  24.483  36.578  1.00  0.00    -0.200 F 
ATOM     89  F   UNL A   1      47.798  25.656  36.540  1.00  0.00    -0.200 F 
ENDBRANCH  56  79
ENDBRANCH  30  31
ENDBRANCH  22  25
ENDBRANCH  20  21
ENDBRANCH  19  20
ENDBRANCH   1  19
TORSDOF 14
ENDMDL
MODEL 3
REMARK VINA RESULT:     -11.3      1.962      3.302
REMARK SMILES CSCCC(=O)N1[C@H](C)CCC[C@@H]1C(=O)NCCCNC(=O)c1ccc(-c2c3nc(c(-c4c(F)c(F)c(F)c(F)c4F)c4ccc([nH]4)c(-c4c(F)c(F)c(F)c(F)c4F)c4nc(c(-c5c(F)c(F)c(F)c(F)c5F)c5ccc2[nH]5)C=C4)C=C3)cc1
REMARK SMILES IDX 17 1 16 2 14 3 15 4 13 6 7 7 8 8 9 9 10 10 12 11 11 12 5 13
REMARK SMILES IDX 6 14 4 15 3 16 2 17 1 18 18 19 19 20 20 21 21 22 22 24 23 25
REMARK SMILES IDX 24 26 85 27 25 28 84 29 26 30 27 31 28 32 78 33 29 34 83 35
REMARK SMILES IDX 77 36 79 37 30 38 82 39 76 40 75 41 31 43 63 44 43 45 62 46
REMARK SMILES IDX 44 47 47 48 61 49 80 50 45 51 46 52 60 54 81 55 48 56 32 57
REMARK SMILES IDX 33 58 41 59 34 60 35 61 39 62 42 63 36 64 37 65 40 66 38 67
REMARK SMILES IDX 64 68 65 69 73 70 66 71 67 72 71 73 74 74 68 75 69 76 72 77
REMARK SMILES IDX 70 78 49 79 50 80 58 81 51 82 52 83 56 84 59 85 53 86 54 87
REMARK SMILES IDX 57 88 55 89
REMARK H PARENT 16 5 20 23 79 42 47 53
REMARK Flexibility Score: inf
ROOT
ATOM      1  C   UNL A   1      32.494  27.863  27.127  1.00  0.00     0.117 C 
ENDROOT
BRANCH   1   2
ATOM      2  N   UNL A   1      31.761  26.640  26.889  1.00  0.00    -0.354 N 
ATOM      3  C   UNL A   1      32.080  25.426  26.366  1.00  0.00     0.242 C 
ATOM      4  O   UNL A   1      31.376  24.497  26.788  1.00  0.00    -0.273 OA
ATOM      5  H   UNL A   1      30.819  26.700  27.168  1.00  0.00     0.163 HD
BRANCH   3   6
ATOM      6  C   UNL A   1      33.149  25.142  25.262  1.00  0.00     0.174 C 
ATOM      7  N   UNL A   1      32.758  24.908  23.847  1.00  0.00    -0.328 N 
ATOM      8  C   UNL A   1      32.416  23.552  23.447  1.00  0.00     0.082 C 
ATOM      9  C   UNL A   1      30.913  23.329  23.281  1.00  0.00     0.031 C 
ATOM     10  C   UNL A   1      33.193  22.475  24.220  1.00  0.00     0.025 C 
ATOM     11  C   UNL A   1      34.241  24.175  25.746  1.00  0.00     0.035 C 
ATOM     12  C   UNL A   1      34.499  23.022  24.783  1.00  0.00     0.005 C 
BRANCH   7  13
ATOM     13  C   UNL A   1      33.138  25.837  22.866  1.00  0.00     0.224 C 
ATOM     14  O   UNL A   1      33.918  25.551  21.956  1.00  0.00    -0.275 OA
BRANCH  13  15
ATOM     15  C   UNL A   1      32.567  27.260  22.940  1.00  0.00     0.111 C 
BRANCH  15  16
ATOM     16  C   UNL A   1      31.182  27.450  22.305  1.00  0.00     0.079 C 
BRANCH  16  17
ATOM     17  S   UNL A   1      29.877  28.020  23.484  1.00  0.00    -0.165 SA
ATOM     18  C   UNL A   1      29.256  26.436  24.136  1.00  0.00     0.085 C 
ENDBRANCH  16  17
ENDBRANCH  15  16
ENDBRANCH  13  15
ENDBRANCH   7  13
ENDBRANCH   3   6
ENDBRANCH   1   2
BRANCH   1  19
ATOM     19  C   UNL A   1      31.771  29.141  26.741  1.00  0.00     0.042 C 
BRANCH  19  20
ATOM     20  C   UNL A   1      32.727  30.212  26.227  1.00  0.00     0.118 C 
BRANCH  20  21
ATOM     21  N   UNL A   1      32.556  31.564  26.747  1.00  0.00    -0.352 N 
ATOM     22  C   UNL A   1      33.450  32.322  27.488  1.00  0.00     0.251 C 
ATOM     23  H   UNL A   1      31.694  31.994  26.545  1.00  0.00     0.163 HD
ATOM     24  O   UNL A   1      33.157  33.457  27.825  1.00  0.00    -0.269 OA
BRANCH  22  25
ATOM     25  C   UNL A   1      34.736  31.722  27.934  1.00  0.00     0.039 A 
ATOM     26  C   UNL A   1      35.863  32.541  28.056  1.00  0.00     0.014 A 
ATOM     27  C   UNL A   1      34.820  30.381  28.298  1.00  0.00     0.014 A 
ATOM     28  C   UNL A   1      37.026  32.038  28.651  1.00  0.00     0.010 A 
ATOM     29  C   UNL A   1      35.918  29.924  29.011  1.00  0.00     0.010 A 
ATOM     30  C   UNL A   1      37.040  30.742  29.189  1.00  0.00    -0.014 A 
BRANCH  30  31
ATOM     31  C   UNL A   1      38.213  30.201  29.925  1.00  0.00     0.031 A 
ATOM     32  C   UNL A   1      38.467  30.630  31.347  1.00  0.00     0.074 A 
ATOM     33  C   UNL A   1      39.101  29.413  29.287  1.00  0.00     0.049 A 
ATOM     34  N   UNL A   1      39.488  30.369  32.123  1.00  0.00    -0.248 NA
ATOM     35  C   UNL A   1      37.464  31.516  31.961  1.00  0.00     0.031 C 
ATOM     36  C   UNL A   1      39.017  29.000  27.884  1.00  0.00     0.029 A 
ATOM     37  N   UNL A   1      40.258  28.826  29.733  1.00  0.00    -0.354 N 
ATOM     38  C   UNL A   1      39.264  31.087  33.292  1.00  0.00     0.074 A 
ATOM     39  C   UNL A   1      38.054  31.851  33.096  1.00  0.00     0.031 C 
ATOM     40  C   UNL A   1      40.053  28.193  27.598  1.00  0.00     0.029 A 
ATOM     41  C   UNL A   1      40.892  28.062  28.783  1.00  0.00     0.049 A 
ATOM     42  H   UNL A   1      40.602  28.942  30.648  1.00  0.00     0.167 HD
ATOM     43  C   UNL A   1      39.979  31.079  34.442  1.00  0.00     0.037 A 
ATOM     44  C   UNL A   1      42.020  27.330  28.866  1.00  0.00     0.037 A 
ATOM     45  C   UNL A   1      41.147  30.267  34.652  1.00  0.00     0.049 A 
ATOM     46  C   UNL A   1      42.761  27.284  30.176  1.00  0.00     0.074 A 
ATOM     47  C   UNL A   1      41.902  30.119  35.801  1.00  0.00     0.029 A 
ATOM     48  N   UNL A   1      41.719  29.451  33.687  1.00  0.00    -0.354 N 
ATOM     49  N   UNL A   1      42.497  27.906  31.299  1.00  0.00    -0.248 NA
ATOM     50  C   UNL A   1      43.948  26.421  30.232  1.00  0.00     0.031 C 
ATOM     51  C   UNL A   1      42.951  29.236  35.522  1.00  0.00     0.029 A 
ATOM     52  C   UNL A   1      42.822  28.800  34.211  1.00  0.00     0.049 A 
ATOM     53  H   UNL A   1      41.389  29.349  32.765  1.00  0.00     0.167 HD
ATOM     54  C   UNL A   1      43.464  27.490  32.202  1.00  0.00     0.074 A 
ATOM     55  C   UNL A   1      44.311  26.547  31.500  1.00  0.00     0.031 C 
ATOM     56  C   UNL A   1      43.641  27.856  33.496  1.00  0.00     0.037 A 
BRANCH  43  57
ATOM     57  C   UNL A   1      39.500  31.957  35.562  1.00  0.00     0.064 A 
ATOM     58  C   UNL A   1      39.979  33.267  35.729  1.00  0.00     0.173 A 
ATOM     59  C   UNL A   1      38.543  31.491  36.476  1.00  0.00     0.173 A 
ATOM     60  F   UNL A   1      40.905  33.757  34.892  1.00  0.00    -0.203 F 
ATOM     61  C   UNL A   1      39.549  34.060  36.789  1.00  0.00     0.198 A 
ATOM     62  C   UNL A   1      38.090  32.300  37.516  1.00  0.00     0.198 A 
ATOM     63  F   UNL A   1      38.048  30.249  36.364  1.00  0.00    -0.203 F 
ATOM     64  F   UNL A   1      40.071  35.282  36.962  1.00  0.00    -0.200 F 
ATOM     65  C   UNL A   1      38.600  33.578  37.678  1.00  0.00     0.200 A 
ATOM     66  F   UNL A   1      37.164  31.838  38.368  1.00  0.00    -0.200 F 
ATOM     67  F   UNL A   1      38.186  34.344  38.697  1.00  0.00    -0.200 F 
ENDBRANCH  43  57
BRANCH  44  68
ATOM     68  C   UNL A   1      42.483  26.537  27.697  1.00  0.00     0.064 A 
ATOM     69  C   UNL A   1      41.964  25.258  27.449  1.00  0.00     0.173 A 
ATOM     70  C   UNL A   1      43.444  27.034  26.806  1.00  0.00     0.173 A 
ATOM     71  F   UNL A   1      41.053  24.734  28.282  1.00  0.00    -0.203 F 
ATOM     72  C   UNL A   1      42.406  24.496  26.369  1.00  0.00     0.198 A 
ATOM     73  C   UNL A   1      43.867  26.282  25.710  1.00  0.00     0.198 A 
ATOM     74  F   UNL A   1      43.967  28.255  26.992  1.00  0.00    -0.203 F 
ATOM     75  F   UNL A   1      41.925  23.260  26.183  1.00  0.00    -0.200 F 
ATOM     76  C   UNL A   1      43.353  25.012  25.498  1.00  0.00     0.200 A 
ATOM     77  F   UNL A   1      44.771  26.789  24.861  1.00  0.00    -0.200 F 
ATOM     78  F   UNL A   1      43.775  24.280  24.457  1.00  0.00    -0.200 F 
ENDBRANCH  44  68
BRANCH  56  79
ATOM     79  C   UNL A   1      44.767  27.205  34.242  1.00  0.00     0.064 A 
ATOM     80  C   UNL A   1      44.594  25.991  34.922  1.00  0.00     0.173 A 
ATOM     81  C   UNL A   1      46.042  27.791  34.251  1.00  0.00     0.173 A 
ATOM     82  F   UNL A   1      43.390  25.401  34.954  1.00  0.00    -0.203 F 
ATOM     83  C   UNL A   1      45.651  25.402  35.609  1.00  0.00     0.198 A 
ATOM     84  C   UNL A   1      47.104  27.182  34.914  1.00  0.00     0.198 A 
ATOM     85  F   UNL A   1      46.260  28.948  33.608  1.00  0.00    -0.203 F 
ATOM     86  F   UNL A   1      45.451  24.267  36.296  1.00  0.00    -0.200 F 
ATOM     87  C   UNL A   1      46.905  25.993  35.600  1.00  0.00     0.200 A 
ATOM     88  F   UNL A   1      48.318  27.749  34.892  1.00  0.00    -0.200 F 
ATOM     89  F   UNL A   1      47.922  25.422  36.260  1.00  0.00    -0.200 F 
ENDBRANCH  56  79
ENDBRANCH  30  31
ENDBRANCH  22  25
ENDBRANCH  20  21
ENDBRANCH  19  20
ENDBRANCH   1  19
TORSDOF 14
ENDMDL
