MODEL 1
REMARK VINA RESULT:     -14.3      0.000      0.000
REMARK SMILES Cc1ccc(NC(=O)[C@H]2CC(Cl)=CC[C@@H]2C(=O)NCCCNC(=O)c2ccc(-c3c4nc(c(-c5c(F)c(F)c(F)c(F)c5F)c5ccc([nH]5)c(-c5c(F)c(F)c(F)c(F)c5F)c5nc(c(-c6c(F)c(F)c(F)c(F)c6F)c6ccc3[nH]6)C=C5)C=C4)cc2)cc1[N+](=O)[O-]
REMARK SMILES IDX 19 1 18 2 16 3 17 4 15 6 9 7 10 8 11 9 14 10 12 11 13 12
REMARK SMILES IDX 7 13 6 14 8 16 5 17 1 18 2 19 3 20 89 21 4 22 88 23 90 24
REMARK SMILES IDX 91 25 92 26 20 27 21 28 22 29 23 30 24 32 25 33 26 34 87 35
REMARK SMILES IDX 27 36 86 37 28 38 29 39 30 40 80 41 31 42 85 43 79 44 81 45
REMARK SMILES IDX 32 46 84 47 78 48 77 49 33 51 65 52 45 53 64 54 46 55 49 56
REMARK SMILES IDX 63 57 82 58 47 59 48 60 62 62 83 63 50 64 34 65 35 66 43 67
REMARK SMILES IDX 36 68 37 69 41 70 44 71 38 72 39 73 42 74 40 75 66 76 67 77
REMARK SMILES IDX 75 78 68 79 69 80 73 81 76 82 70 83 71 84 74 85 72 86 51 87
REMARK SMILES IDX 52 88 60 89 53 90 54 91 58 92 61 93 55 94 56 95 59 96 57 97
REMARK H PARENT 18 5 6 15 22 31 81 50 49 61
REMARK Flexibility Score: inf
ROOT
ATOM      1  C   UNL A   1      33.825  28.985  27.544  1.00  0.00     0.117 C 
ENDROOT
BRANCH   1   2
ATOM      2  N   UNL A   1      32.588  28.249  27.342  1.00  0.00    -0.356 N 
ATOM      3  C   UNL A   1      32.321  27.088  26.683  1.00  0.00     0.224 C 
ATOM      4  O   UNL A   1      31.182  26.632  26.818  1.00  0.00    -0.275 OA
ATOM      5  H   UNL A   1      31.798  28.666  27.757  1.00  0.00     0.163 HD
BRANCH   3   6
ATOM      6  C   UNL A   1      33.344  26.401  25.771  1.00  0.00     0.095 C 
ATOM      7  C   UNL A   1      32.921  26.613  24.300  1.00  0.00     0.097 C 
ATOM      8  C   UNL A   1      33.720  25.748  23.319  1.00  0.00     0.062 C 
ATOM      9  C   UNL A   1      33.641  24.311  23.708  1.00  0.00     0.015 C 
ATOM     10  C   UNL A   1      33.365  24.886  26.129  1.00  0.00     0.043 C 
ATOM     11  Cl  UNL A   1      33.696  23.162  22.426  1.00  0.00    -0.089 Cl
ATOM     12  C   UNL A   1      33.476  23.923  24.978  1.00  0.00    -0.010 C 
BRANCH   7  13
ATOM     13  C   UNL A   1      33.100  28.052  23.853  1.00  0.00     0.228 C 
ATOM     14  N   UNL A   1      32.096  28.744  23.237  1.00  0.00    -0.326 N 
ATOM     15  H   UNL A   1      32.352  29.604  22.830  1.00  0.00     0.169 HD
ATOM     16  O   UNL A   1      34.140  28.667  24.107  1.00  0.00    -0.274 OA
BRANCH  14  17
ATOM     17  C   UNL A   1      30.750  28.385  23.114  1.00  0.00     0.048 A 
ATOM     18  C   UNL A   1      26.488  27.995  23.680  1.00  0.00     0.052 C 
ATOM     19  C   UNL A   1      27.949  28.088  23.345  1.00  0.00     0.027 A 
ATOM     20  C   UNL A   1      28.806  27.044  23.699  1.00  0.00     0.012 A 
ATOM     21  C   UNL A   1      28.547  29.209  22.765  1.00  0.00     0.274 A 
ATOM     22  C   UNL A   1      30.195  27.187  23.568  1.00  0.00     0.027 A 
ATOM     23  C   UNL A   1      29.922  29.362  22.601  1.00  0.00     0.112 A 
BRANCH  21  24
ATOM     24  N   UNL A   1      27.773  30.329  22.338  1.00  0.00     0.063 N 
ATOM     25  O   UNL A   1      27.217  30.988  23.231  1.00  0.00    -0.258 OA
ATOM     26  O   UNL A   1      27.850  30.606  21.136  1.00  0.00    -0.258 OA
ENDBRANCH  21  24
ENDBRANCH  14  17
ENDBRANCH   7  13
ENDBRANCH   3   6
ENDBRANCH   1   2
BRANCH   1  27
ATOM     27  C   UNL A   1      33.663  30.494  27.349  1.00  0.00     0.042 C 
BRANCH  27  28
ATOM     28  C   UNL A   1      34.943  31.306  27.592  1.00  0.00     0.118 C 
BRANCH  28  29
ATOM     29  N   UNL A   1      35.126  31.665  28.999  1.00  0.00    -0.352 N 
ATOM     30  C   UNL A   1      35.998  31.160  29.949  1.00  0.00     0.251 C 
ATOM     31  H   UNL A   1      34.533  32.382  29.322  1.00  0.00     0.163 HD
ATOM     32  O   UNL A   1      36.114  31.715  31.026  1.00  0.00    -0.269 OA
BRANCH  30  33
ATOM     33  C   UNL A   1      36.855  29.996  29.622  1.00  0.00     0.039 A 
ATOM     34  C   UNL A   1      37.087  29.034  30.612  1.00  0.00     0.014 A 
ATOM     35  C   UNL A   1      37.490  29.891  28.389  1.00  0.00     0.014 A 
ATOM     36  C   UNL A   1      38.125  28.111  30.448  1.00  0.00     0.010 A 
ATOM     37  C   UNL A   1      38.552  29.007  28.246  1.00  0.00     0.010 A 
ATOM     38  C   UNL A   1      38.935  28.176  29.310  1.00  0.00    -0.014 A 
BRANCH  38  39
ATOM     39  C   UNL A   1      40.314  27.658  29.316  1.00  0.00     0.031 A 
ATOM     40  C   UNL A   1      40.748  26.380  28.704  1.00  0.00     0.074 A 
ATOM     41  C   UNL A   1      41.298  28.513  29.690  1.00  0.00     0.049 A 
ATOM     42  N   UNL A   1      41.860  25.789  29.018  1.00  0.00    -0.248 NA
ATOM     43  C   UNL A   1      39.996  25.670  27.677  1.00  0.00     0.031 C 
ATOM     44  C   UNL A   1      42.726  28.420  29.368  1.00  0.00     0.029 A 
ATOM     45  N   UNL A   1      41.202  29.704  30.430  1.00  0.00    -0.354 N 
ATOM     46  C   UNL A   1      42.118  24.849  28.050  1.00  0.00     0.074 A 
ATOM     47  C   UNL A   1      40.890  24.752  27.288  1.00  0.00     0.031 C 
ATOM     48  C   UNL A   1      43.402  29.329  30.083  1.00  0.00     0.029 A 
ATOM     49  C   UNL A   1      42.469  29.909  31.024  1.00  0.00     0.049 A 
ATOM     50  H   UNL A   1      40.410  30.281  30.516  1.00  0.00     0.167 HD
ATOM     51  C   UNL A   1      43.374  24.336  27.895  1.00  0.00     0.037 A 
ATOM     52  C   UNL A   1      42.599  29.861  32.382  1.00  0.00     0.037 A 
ATOM     53  C   UNL A   1      44.361  24.946  28.787  1.00  0.00     0.049 A 
ATOM     54  C   UNL A   1      43.410  28.682  32.883  1.00  0.00     0.074 A 
ATOM     55  C   UNL A   1      45.390  25.859  28.615  1.00  0.00     0.029 A 
ATOM     56  N   UNL A   1      44.201  24.822  30.156  1.00  0.00    -0.354 N 
ATOM     57  N   UNL A   1      44.053  27.849  32.114  1.00  0.00    -0.248 NA
ATOM     58  C   UNL A   1      43.473  28.289  34.293  1.00  0.00     0.031 C 
ATOM     59  C   UNL A   1      45.853  26.269  29.897  1.00  0.00     0.029 A 
ATOM     60  C   UNL A   1      45.095  25.616  30.850  1.00  0.00     0.049 A 
ATOM     61  H   UNL A   1      43.533  24.239  30.583  1.00  0.00     0.167 HD
ATOM     62  C   UNL A   1      44.476  26.784  32.856  1.00  0.00     0.074 A 
ATOM     63  C   UNL A   1      44.130  27.120  34.223  1.00  0.00     0.031 C 
ATOM     64  C   UNL A   1      45.019  25.666  32.299  1.00  0.00     0.037 A 
BRANCH  51  65
ATOM     65  C   UNL A   1      43.735  23.399  26.769  1.00  0.00     0.064 A 
ATOM     66  C   UNL A   1      43.283  22.064  26.729  1.00  0.00     0.173 A 
ATOM     67  C   UNL A   1      44.529  23.793  25.675  1.00  0.00     0.173 A 
ATOM     68  F   UNL A   1      42.455  21.573  27.659  1.00  0.00    -0.203 F 
ATOM     69  C   UNL A   1      43.675  21.171  25.728  1.00  0.00     0.198 A 
ATOM     70  C   UNL A   1      44.966  22.887  24.703  1.00  0.00     0.198 A 
ATOM     71  F   UNL A   1      44.880  25.076  25.506  1.00  0.00    -0.203 F 
ATOM     72  F   UNL A   1      43.212  19.913  25.740  1.00  0.00    -0.200 F 
ATOM     73  C   UNL A   1      44.543  21.573  24.734  1.00  0.00     0.200 A 
ATOM     74  F   UNL A   1      45.801  23.297  23.738  1.00  0.00    -0.200 F 
ATOM     75  F   UNL A   1      44.957  20.704  23.803  1.00  0.00    -0.200 F 
ENDBRANCH  51  65
BRANCH  52  76
ATOM     76  C   UNL A   1      41.425  30.466  33.063  1.00  0.00     0.064 A 
ATOM     77  C   UNL A   1      41.345  31.873  33.095  1.00  0.00     0.173 A 
ATOM     78  C   UNL A   1      40.249  29.741  33.280  1.00  0.00     0.173 A 
ATOM     79  F   UNL A   1      42.445  32.613  32.883  1.00  0.00    -0.203 F 
ATOM     80  C   UNL A   1      40.120  32.522  33.213  1.00  0.00     0.198 A 
ATOM     81  C   UNL A   1      39.025  30.398  33.415  1.00  0.00     0.198 A 
ATOM     82  F   UNL A   1      40.257  28.400  33.233  1.00  0.00    -0.203 F 
ATOM     83  F   UNL A   1      40.058  33.858  33.113  1.00  0.00    -0.200 F 
ATOM     84  C   UNL A   1      38.958  31.783  33.346  1.00  0.00     0.200 A 
ATOM     85  F   UNL A   1      37.895  29.683  33.514  1.00  0.00    -0.200 F 
ATOM     86  F   UNL A   1      37.768  32.399  33.359  1.00  0.00    -0.200 F 
ENDBRANCH  52  76
BRANCH  64  87
ATOM     87  C   UNL A   1      45.524  24.521  33.115  1.00  0.00     0.064 A 
ATOM     88  C   UNL A   1      44.694  23.444  33.459  1.00  0.00     0.173 A 
ATOM     89  C   UNL A   1      46.812  24.531  33.683  1.00  0.00     0.173 A 
ATOM     90  F   UNL A   1      43.436  23.376  32.995  1.00  0.00    -0.203 F 
ATOM     91  C   UNL A   1      45.135  22.423  34.300  1.00  0.00     0.198 A 
ATOM     92  C   UNL A   1      47.235  23.535  34.559  1.00  0.00     0.198 A 
ATOM     93  F   UNL A   1      47.695  25.498  33.387  1.00  0.00    -0.203 F 
ATOM     94  F   UNL A   1      44.327  21.390  34.573  1.00  0.00    -0.200 F 
ATOM     95  C   UNL A   1      46.400  22.476  34.860  1.00  0.00     0.200 A 
ATOM     96  F   UNL A   1      48.456  23.607  35.109  1.00  0.00    -0.200 F 
ATOM     97  F   UNL A   1      46.814  21.507  35.687  1.00  0.00    -0.200 F 
ENDBRANCH  64  87
ENDBRANCH  38  39
ENDBRANCH  30  33
ENDBRANCH  28  29
ENDBRANCH  27  28
ENDBRANCH   1  27
TORSDOF 13
ENDMDL
MODEL 2
REMARK VINA RESULT:     -14.1      3.833      9.870
REMARK SMILES Cc1ccc(NC(=O)[C@H]2CC(Cl)=CC[C@@H]2C(=O)NCCCNC(=O)c2ccc(-c3c4nc(c(-c5c(F)c(F)c(F)c(F)c5F)c5ccc([nH]5)c(-c5c(F)c(F)c(F)c(F)c5F)c5nc(c(-c6c(F)c(F)c(F)c(F)c6F)c6ccc3[nH]6)C=C5)C=C4)cc2)cc1[N+](=O)[O-]
REMARK SMILES IDX 19 1 18 2 16 3 17 4 15 6 9 7 10 8 11 9 14 10 12 11 13 12
REMARK SMILES IDX 7 13 6 14 8 16 5 17 1 18 2 19 3 20 89 21 4 22 88 23 90 24
REMARK SMILES IDX 91 25 92 26 20 27 21 28 22 29 23 30 24 32 25 33 26 34 87 35
REMARK SMILES IDX 27 36 86 37 28 38 29 39 30 40 80 41 31 42 85 43 79 44 81 45
REMARK SMILES IDX 32 46 84 47 78 48 77 49 33 51 65 52 45 53 64 54 46 55 49 56
REMARK SMILES IDX 63 57 82 58 47 59 48 60 62 62 83 63 50 64 34 65 35 66 43 67
REMARK SMILES IDX 36 68 37 69 41 70 44 71 38 72 39 73 42 74 40 75 66 76 67 77
REMARK SMILES IDX 75 78 68 79 69 80 73 81 76 82 70 83 71 84 74 85 72 86 51 87
REMARK SMILES IDX 52 88 60 89 53 90 54 91 58 92 61 93 55 94 56 95 59 96 57 97
REMARK H PARENT 18 5 6 15 22 31 81 50 49 61
REMARK Flexibility Score: inf
ROOT
ATOM      1  C   UNL A   1      36.866  21.879  24.547  1.00  0.00     0.117 C 
ENDROOT
BRANCH   1   2
ATOM      2  N   UNL A   1      36.362  23.238  24.656  1.00  0.00    -0.356 N 
ATOM      3  C   UNL A   1      35.179  23.732  25.112  1.00  0.00     0.224 C 
ATOM      4  O   UNL A   1      35.103  24.959  25.221  1.00  0.00    -0.275 OA
ATOM      5  H   UNL A   1      36.991  23.928  24.343  1.00  0.00     0.163 HD
BRANCH   3   6
ATOM      6  C   UNL A   1      33.972  22.836  25.420  1.00  0.00     0.095 C 
ATOM      7  C   UNL A   1      32.731  23.409  24.701  1.00  0.00     0.097 C 
ATOM      8  C   UNL A   1      31.423  22.749  25.153  1.00  0.00     0.062 C 
ATOM      9  C   UNL A   1      31.283  22.832  26.635  1.00  0.00     0.015 C 
ATOM     10  C   UNL A   1      33.765  22.826  26.963  1.00  0.00     0.043 C 
ATOM     11  Cl  UNL A   1      29.679  22.953  27.251  1.00  0.00    -0.089 Cl
ATOM     12  C   UNL A   1      32.342  22.872  27.452  1.00  0.00    -0.010 C 
BRANCH   7  13
ATOM     13  C   UNL A   1      32.806  23.232  23.196  1.00  0.00     0.228 C 
ATOM     14  N   UNL A   1      32.325  24.178  22.336  1.00  0.00    -0.326 N 
ATOM     15  H   UNL A   1      32.259  23.908  21.391  1.00  0.00     0.169 HD
ATOM     16  O   UNL A   1      33.382  22.256  22.703  1.00  0.00    -0.274 OA
BRANCH  14  17
ATOM     17  C   UNL A   1      31.917  25.483  22.629  1.00  0.00     0.048 A 
ATOM     18  C   UNL A   1      31.028  29.206  24.626  1.00  0.00     0.052 C 
ATOM     19  C   UNL A   1      31.339  27.987  23.807  1.00  0.00     0.027 A 
ATOM     20  C   UNL A   1      30.309  27.115  23.447  1.00  0.00     0.012 A 
ATOM     21  C   UNL A   1      32.630  27.603  23.438  1.00  0.00     0.274 A 
ATOM     22  C   UNL A   1      30.597  25.880  22.847  1.00  0.00     0.027 A 
ATOM     23  C   UNL A   1      32.937  26.393  22.819  1.00  0.00     0.112 A 
BRANCH  21  24
ATOM     24  N   UNL A   1      33.762  28.421  23.727  1.00  0.00     0.063 N 
ATOM     25  O   UNL A   1      34.169  28.406  24.900  1.00  0.00    -0.258 OA
ATOM     26  O   UNL A   1      34.303  28.953  22.751  1.00  0.00    -0.258 OA
ENDBRANCH  21  24
ENDBRANCH  14  17
ENDBRANCH   7  13
ENDBRANCH   3   6
ENDBRANCH   1   2
BRANCH   1  27
ATOM     27  C   UNL A   1      38.137  21.645  25.368  1.00  0.00     0.042 C 
BRANCH  27  28
ATOM     28  C   UNL A   1      38.634  22.878  26.135  1.00  0.00     0.118 C 
BRANCH  28  29
ATOM     29  N   UNL A   1      40.093  22.983  26.151  1.00  0.00    -0.352 N 
ATOM     30  C   UNL A   1      40.914  24.043  26.501  1.00  0.00     0.251 C 
ATOM     31  H   UNL A   1      40.568  22.168  25.869  1.00  0.00     0.163 HD
ATOM     32  O   UNL A   1      42.114  23.873  26.613  1.00  0.00    -0.269 OA
BRANCH  30  33
ATOM     33  C   UNL A   1      40.321  25.362  26.825  1.00  0.00     0.039 A 
ATOM     34  C   UNL A   1      40.779  26.491  26.136  1.00  0.00     0.014 A 
ATOM     35  C   UNL A   1      39.390  25.503  27.848  1.00  0.00     0.014 A 
ATOM     36  C   UNL A   1      40.483  27.766  26.626  1.00  0.00     0.010 A 
ATOM     37  C   UNL A   1      39.135  26.768  28.364  1.00  0.00     0.010 A 
ATOM     38  C   UNL A   1      39.755  27.900  27.814  1.00  0.00    -0.014 A 
BRANCH  38  39
ATOM     39  C   UNL A   1      39.878  29.097  28.661  1.00  0.00     0.031 A 
ATOM     40  C   UNL A   1      38.808  30.099  28.882  1.00  0.00     0.074 A 
ATOM     41  C   UNL A   1      40.950  29.168  29.488  1.00  0.00     0.049 A 
ATOM     42  N   UNL A   1      39.042  31.294  29.332  1.00  0.00    -0.248 NA
ATOM     43  C   UNL A   1      37.392  29.847  28.648  1.00  0.00     0.031 C 
ATOM     44  C   UNL A   1      41.083  29.973  30.706  1.00  0.00     0.029 A 
ATOM     45  N   UNL A   1      42.170  28.471  29.418  1.00  0.00    -0.354 N 
ATOM     46  C   UNL A   1      37.844  31.826  29.740  1.00  0.00     0.074 A 
ATOM     47  C   UNL A   1      36.838  30.926  29.215  1.00  0.00     0.031 C 
ATOM     48  C   UNL A   1      42.353  29.933  31.129  1.00  0.00     0.029 A 
ATOM     49  C   UNL A   1      43.121  29.260  30.104  1.00  0.00     0.049 A 
ATOM     50  H   UNL A   1      42.328  27.606  28.978  1.00  0.00     0.167 HD
ATOM     51  C   UNL A   1      37.809  32.896  30.589  1.00  0.00     0.037 A 
ATOM     52  C   UNL A   1      44.165  29.815  29.421  1.00  0.00     0.037 A 
ATOM     53  C   UNL A   1      39.136  33.317  31.040  1.00  0.00     0.049 A 
ATOM     54  C   UNL A   1      44.113  31.327  29.334  1.00  0.00     0.074 A 
ATOM     55  C   UNL A   1      39.841  33.193  32.228  1.00  0.00     0.029 A 
ATOM     56  N   UNL A   1      40.058  33.760  30.107  1.00  0.00    -0.354 N 
ATOM     57  N   UNL A   1      43.243  32.073  29.956  1.00  0.00    -0.248 NA
ATOM     58  C   UNL A   1      44.978  32.113  28.451  1.00  0.00     0.031 C 
ATOM     59  C   UNL A   1      41.191  33.580  31.997  1.00  0.00     0.029 A 
ATOM     60  C   UNL A   1      41.312  33.926  30.665  1.00  0.00     0.049 A 
ATOM     61  H   UNL A   1      39.845  33.936  29.162  1.00  0.00     0.167 HD
ATOM     62  C   UNL A   1      43.322  33.350  29.483  1.00  0.00     0.074 A 
ATOM     63  C   UNL A   1      44.450  33.342  28.573  1.00  0.00     0.031 C 
ATOM     64  C   UNL A   1      42.419  34.315  29.811  1.00  0.00     0.037 A 
BRANCH  51  65
ATOM     65  C   UNL A   1      36.523  33.435  31.163  1.00  0.00     0.064 A 
ATOM     66  C   UNL A   1      35.590  34.147  30.380  1.00  0.00     0.173 A 
ATOM     67  C   UNL A   1      36.154  33.252  32.510  1.00  0.00     0.173 A 
ATOM     68  F   UNL A   1      35.768  34.328  29.067  1.00  0.00    -0.203 F 
ATOM     69  C   UNL A   1      34.434  34.712  30.924  1.00  0.00     0.198 A 
ATOM     70  C   UNL A   1      35.026  33.863  33.067  1.00  0.00     0.198 A 
ATOM     71  F   UNL A   1      36.868  32.452  33.316  1.00  0.00    -0.203 F 
ATOM     72  F   UNL A   1      33.582  35.377  30.131  1.00  0.00    -0.200 F 
ATOM     73  C   UNL A   1      34.169  34.599  32.274  1.00  0.00     0.200 A 
ATOM     74  F   UNL A   1      34.778  33.735  34.378  1.00  0.00    -0.200 F 
ATOM     75  F   UNL A   1      33.086  35.183  32.803  1.00  0.00    -0.200 F 
ENDBRANCH  51  65
BRANCH  52  76
ATOM     76  C   UNL A   1      44.677  28.897  28.371  1.00  0.00     0.064 A 
ATOM     77  C   UNL A   1      45.442  27.789  28.791  1.00  0.00     0.173 A 
ATOM     78  C   UNL A   1      44.102  28.846  27.097  1.00  0.00     0.173 A 
ATOM     79  F   UNL A   1      46.006  27.786  30.010  1.00  0.00    -0.203 F 
ATOM     80  C   UNL A   1      45.520  26.634  28.020  1.00  0.00     0.198 A 
ATOM     81  C   UNL A   1      44.199  27.691  26.320  1.00  0.00     0.198 A 
ATOM     82  F   UNL A   1      43.340  29.857  26.654  1.00  0.00    -0.203 F 
ATOM     83  F   UNL A   1      46.149  25.550  28.499  1.00  0.00    -0.200 F 
ATOM     84  C   UNL A   1      44.876  26.576  26.796  1.00  0.00     0.200 A 
ATOM     85  F   UNL A   1      43.551  27.623  25.149  1.00  0.00    -0.200 F 
ATOM     86  F   UNL A   1      44.865  25.434  26.097  1.00  0.00    -0.200 F 
ENDBRANCH  52  76
BRANCH  64  87
ATOM     87  C   UNL A   1      42.533  35.725  29.330  1.00  0.00     0.064 A 
ATOM     88  C   UNL A   1      41.938  36.140  28.129  1.00  0.00     0.173 A 
ATOM     89  C   UNL A   1      43.347  36.666  29.989  1.00  0.00     0.173 A 
ATOM     90  F   UNL A   1      41.180  35.293  27.415  1.00  0.00    -0.203 F 
ATOM     91  C   UNL A   1      42.124  37.428  27.630  1.00  0.00     0.198 A 
ATOM     92  C   UNL A   1      43.569  37.937  29.465  1.00  0.00     0.198 A 
ATOM     93  F   UNL A   1      43.931  36.379  31.162  1.00  0.00    -0.203 F 
ATOM     94  F   UNL A   1      41.507  37.800  26.501  1.00  0.00    -0.200 F 
ATOM     95  C   UNL A   1      42.950  38.322  28.291  1.00  0.00     0.200 A 
ATOM     96  F   UNL A   1      44.385  38.788  30.105  1.00  0.00    -0.200 F 
ATOM     97  F   UNL A   1      43.148  39.551  27.798  1.00  0.00    -0.200 F 
ENDBRANCH  64  87
ENDBRANCH  38  39
ENDBRANCH  30  33
ENDBRANCH  28  29
ENDBRANCH  27  28
ENDBRANCH   1  27
TORSDOF 13
ENDMDL
MODEL 3
REMARK VINA RESULT:     -14.1      4.492     10.475
REMARK SMILES Cc1ccc(NC(=O)[C@H]2CC(Cl)=CC[C@@H]2C(=O)NCCCNC(=O)c2ccc(-c3c4nc(c(-c5c(F)c(F)c(F)c(F)c5F)c5ccc([nH]5)c(-c5c(F)c(F)c(F)c(F)c5F)c5nc(c(-c6c(F)c(F)c(F)c(F)c6F)c6ccc3[nH]6)C=C5)C=C4)cc2)cc1[N+](=O)[O-]
REMARK SMILES IDX 19 1 18 2 16 3 17 4 15 6 9 7 10 8 11 9 14 10 12 11 13 12
REMARK SMILES IDX 7 13 6 14 8 16 5 17 1 18 2 19 3 20 89 21 4 22 88 23 90 24
REMARK SMILES IDX 91 25 92 26 20 27 21 28 22 29 23 30 24 32 25 33 26 34 87 35
REMARK SMILES IDX 27 36 86 37 28 38 29 39 30 40 80 41 31 42 85 43 79 44 81 45
REMARK SMILES IDX 32 46 84 47 78 48 77 49 33 51 65 52 45 53 64 54 46 55 49 56
REMARK SMILES IDX 63 57 82 58 47 59 48 60 62 62 83 63 50 64 34 65 35 66 43 67
REMARK SMILES IDX 36 68 37 69 41 70 44 71 38 72 39 73 42 74 40 75 66 76 67 77
REMARK SMILES IDX 75 78 68 79 69 80 73 81 76 82 70 83 71 84 74 85 72 86 51 87
REMARK SMILES IDX 52 88 60 89 53 90 54 91 58 92 61 93 55 94 56 95 59 96 57 97
REMARK H PARENT 18 5 6 15 22 31 81 50 49 61
REMARK Flexibility Score: inf
ROOT
ATOM      1  C   UNL A   1      37.379  22.876  25.844  1.00  0.00     0.117 C 
ENDROOT
BRANCH   1   2
ATOM      2  N   UNL A   1      36.480  22.547  24.750  1.00  0.00    -0.356 N 
ATOM      3  C   UNL A   1      35.259  23.035  24.402  1.00  0.00     0.224 C 
ATOM      4  O   UNL A   1      34.806  22.656  23.318  1.00  0.00    -0.275 OA
ATOM      5  H   UNL A   1      36.817  21.843  24.150  1.00  0.00     0.163 HD
BRANCH   3   6
ATOM      6  C   UNL A   1      34.445  23.957  25.318  1.00  0.00     0.095 C 
ATOM      7  C   UNL A   1      33.277  23.149  25.926  1.00  0.00     0.097 C 
ATOM      8  C   UNL A   1      32.250  24.033  26.643  1.00  0.00     0.062 C 
ATOM      9  C   UNL A   1      31.757  25.104  25.730  1.00  0.00     0.015 C 
ATOM     10  C   UNL A   1      33.913  25.141  24.458  1.00  0.00     0.043 C 
ATOM     11  Cl  UNL A   1      30.132  25.626  25.963  1.00  0.00    -0.089 Cl
ATOM     12  C   UNL A   1      32.508  25.600  24.740  1.00  0.00    -0.010 C 
BRANCH   7  13
ATOM     13  C   UNL A   1      33.752  22.128  26.942  1.00  0.00     0.228 C 
ATOM     14  N   UNL A   1      33.463  20.799  26.816  1.00  0.00    -0.326 N 
ATOM     15  H   UNL A   1      33.660  20.238  27.601  1.00  0.00     0.169 HD
ATOM     16  O   UNL A   1      34.488  22.462  27.877  1.00  0.00    -0.274 OA
BRANCH  14  17
ATOM     17  C   UNL A   1      32.922  20.135  25.710  1.00  0.00     0.048 A 
ATOM     18  C   UNL A   1      32.403  18.005  21.991  1.00  0.00     0.052 C 
ATOM     19  C   UNL A   1      32.453  18.695  23.324  1.00  0.00     0.027 A 
ATOM     20  C   UNL A   1      32.131  20.051  23.410  1.00  0.00     0.012 A 
ATOM     21  C   UNL A   1      32.890  18.087  24.502  1.00  0.00     0.274 A 
ATOM     22  C   UNL A   1      32.348  20.761  24.601  1.00  0.00     0.027 A 
ATOM     23  C   UNL A   1      33.089  18.766  25.702  1.00  0.00     0.112 A 
BRANCH  21  24
ATOM     24  N   UNL A   1      33.223  16.701  24.546  1.00  0.00     0.063 N 
ATOM     25  O   UNL A   1      34.340  16.388  24.103  1.00  0.00    -0.258 OA
ATOM     26  O   UNL A   1      32.423  15.975  25.146  1.00  0.00    -0.258 OA
ENDBRANCH  21  24
ENDBRANCH  14  17
ENDBRANCH   7  13
ENDBRANCH   3   6
ENDBRANCH   1   2
BRANCH   1  27
ATOM     27  C   UNL A   1      38.687  22.084  25.803  1.00  0.00     0.042 C 
BRANCH  27  28
ATOM     28  C   UNL A   1      39.711  22.493  26.873  1.00  0.00     0.118 C 
BRANCH  28  29
ATOM     29  N   UNL A   1      41.001  22.880  26.301  1.00  0.00    -0.352 N 
ATOM     30  C   UNL A   1      41.614  24.119  26.223  1.00  0.00     0.251 C 
ATOM     31  H   UNL A   1      41.517  22.139  25.910  1.00  0.00     0.163 HD
ATOM     32  O   UNL A   1      42.772  24.205  25.861  1.00  0.00    -0.269 OA
BRANCH  30  33
ATOM     33  C   UNL A   1      40.887  25.333  26.665  1.00  0.00     0.039 A 
ATOM     34  C   UNL A   1      41.092  26.530  25.969  1.00  0.00     0.014 A 
ATOM     35  C   UNL A   1      40.079  25.318  27.798  1.00  0.00     0.014 A 
ATOM     36  C   UNL A   1      40.683  27.739  26.539  1.00  0.00     0.010 A 
ATOM     37  C   UNL A   1      39.716  26.523  28.388  1.00  0.00     0.010 A 
ATOM     38  C   UNL A   1      40.098  27.743  27.809  1.00  0.00    -0.014 A 
BRANCH  38  39
ATOM     39  C   UNL A   1      40.156  28.929  28.680  1.00  0.00     0.031 A 
ATOM     40  C   UNL A   1      39.056  29.905  28.867  1.00  0.00     0.074 A 
ATOM     41  C   UNL A   1      41.187  29.008  29.557  1.00  0.00     0.049 A 
ATOM     42  N   UNL A   1      39.244  31.097  29.346  1.00  0.00    -0.248 NA
ATOM     43  C   UNL A   1      37.658  29.627  28.563  1.00  0.00     0.031 C 
ATOM     44  C   UNL A   1      41.246  29.796  30.792  1.00  0.00     0.029 A 
ATOM     45  N   UNL A   1      42.423  28.337  29.533  1.00  0.00    -0.354 N 
ATOM     46  C   UNL A   1      38.017  31.597  29.705  1.00  0.00     0.074 A 
ATOM     47  C   UNL A   1      37.055  30.686  29.120  1.00  0.00     0.031 C 
ATOM     48  C   UNL A   1      42.496  29.774  31.273  1.00  0.00     0.029 A 
ATOM     49  C   UNL A   1      43.325  29.134  30.275  1.00  0.00     0.049 A 
ATOM     50  H   UNL A   1      42.620  27.482  29.087  1.00  0.00     0.167 HD
ATOM     51  C   UNL A   1      37.921  32.652  30.568  1.00  0.00     0.037 A 
ATOM     52  C   UNL A   1      44.388  29.721  29.649  1.00  0.00     0.037 A 
ATOM     53  C   UNL A   1      39.216  33.092  31.087  1.00  0.00     0.049 A 
ATOM     54  C   UNL A   1      44.307  31.233  29.583  1.00  0.00     0.074 A 
ATOM     55  C   UNL A   1      39.868  32.964  32.304  1.00  0.00     0.029 A 
ATOM     56  N   UNL A   1      40.170  33.570  30.205  1.00  0.00    -0.354 N 
ATOM     57  N   UNL A   1      43.394  31.950  30.176  1.00  0.00    -0.248 NA
ATOM     58  C   UNL A   1      45.195  32.050  28.754  1.00  0.00     0.031 C 
ATOM     59  C   UNL A   1      41.219  33.382  32.142  1.00  0.00     0.029 A 
ATOM     60  C   UNL A   1      41.393  33.752  30.822  1.00  0.00     0.049 A 
ATOM     61  H   UNL A   1      39.998  33.757  29.254  1.00  0.00     0.167 HD
ATOM     62  C   UNL A   1      43.468  33.237  29.726  1.00  0.00     0.074 A 
ATOM     63  C   UNL A   1      44.637  33.266  28.870  1.00  0.00     0.031 C 
ATOM     64  C   UNL A   1      42.530  34.177  30.027  1.00  0.00     0.037 A 
BRANCH  51  65
ATOM     65  C   UNL A   1      36.598  33.155  31.090  1.00  0.00     0.064 A 
ATOM     66  C   UNL A   1      35.733  33.948  30.307  1.00  0.00     0.173 A 
ATOM     67  C   UNL A   1      36.127  32.857  32.383  1.00  0.00     0.173 A 
ATOM     68  F   UNL A   1      36.013  34.245  29.033  1.00  0.00    -0.203 F 
ATOM     69  C   UNL A   1      34.543  34.478  30.811  1.00  0.00     0.198 A 
ATOM     70  C   UNL A   1      34.964  33.431  32.907  1.00  0.00     0.198 A 
ATOM     71  F   UNL A   1      36.770  31.977  33.164  1.00  0.00    -0.203 F 
ATOM     72  F   UNL A   1      33.760  35.225  30.020  1.00  0.00    -0.200 F 
ATOM     73  C   UNL A   1      34.175  34.248  32.121  1.00  0.00     0.200 A 
ATOM     74  F   UNL A   1      34.615  33.189  34.178  1.00  0.00    -0.200 F 
ATOM     75  F   UNL A   1      33.059  34.798  32.618  1.00  0.00    -0.200 F 
ENDBRANCH  51  65
BRANCH  52  76
ATOM     76  C   UNL A   1      44.967  28.830  28.610  1.00  0.00     0.064 A 
ATOM     77  C   UNL A   1      45.778  27.763  29.046  1.00  0.00     0.173 A 
ATOM     78  C   UNL A   1      44.421  28.752  27.325  1.00  0.00     0.173 A 
ATOM     79  F   UNL A   1      46.316  27.787  30.276  1.00  0.00    -0.203 F 
ATOM     80  C   UNL A   1      45.930  26.613  28.277  1.00  0.00     0.198 A 
ATOM     81  C   UNL A   1      44.592  27.604  26.550  1.00  0.00     0.198 A 
ATOM     82  F   UNL A   1      43.618  29.723  26.866  1.00  0.00    -0.203 F 
ATOM     83  F   UNL A   1      46.603  25.563  28.769  1.00  0.00    -0.200 F 
ATOM     84  C   UNL A   1      45.314  26.524  27.040  1.00  0.00     0.200 A 
ATOM     85  F   UNL A   1      43.972  27.504  25.366  1.00  0.00    -0.200 F 
ATOM     86  F   UNL A   1      45.376  25.383  26.341  1.00  0.00    -0.200 F 
ENDBRANCH  52  76
BRANCH  64  87
ATOM     87  C   UNL A   1      42.637  35.597  29.573  1.00  0.00     0.064 A 
ATOM     88  C   UNL A   1      42.026  36.035  28.389  1.00  0.00     0.173 A 
ATOM     89  C   UNL A   1      43.458  36.526  30.241  1.00  0.00     0.173 A 
ATOM     90  F   UNL A   1      41.260  35.202  27.667  1.00  0.00    -0.203 F 
ATOM     91  C   UNL A   1      42.204  37.334  27.914  1.00  0.00     0.198 A 
ATOM     92  C   UNL A   1      43.672  37.808  29.741  1.00  0.00     0.198 A 
ATOM     93  F   UNL A   1      44.058  36.215  31.401  1.00  0.00    -0.203 F 
ATOM     94  F   UNL A   1      41.573  37.728  26.801  1.00  0.00    -0.200 F 
ATOM     95  C   UNL A   1      43.038  38.215  28.583  1.00  0.00     0.200 A 
ATOM     96  F   UNL A   1      44.495  38.646  30.388  1.00  0.00    -0.200 F 
ATOM     97  F   UNL A   1      43.228  39.455  28.113  1.00  0.00    -0.200 F 
ENDBRANCH  64  87
ENDBRANCH  38  39
ENDBRANCH  30  33
ENDBRANCH  28  29
ENDBRANCH  27  28
ENDBRANCH   1  27
TORSDOF 13
ENDMDL
