MODEL 1
REMARK VINA RESULT:     -10.1      0.000      0.000
REMARK SMILES CCNC(=O)C[NH2+][C@@H](C)[C@@H](C)C(=O)NCCCNC(=O)c1ccc(-c2c3nc(c(-c4c(F)c(F)c(F)c(F)c4F)c4ccc([nH]4)c(-c4c(F)c(F)c(F)c(F)c4F)c4nc(c(-c5c(F)c(F)c(F)c(F)c5F)c5ccc2[nH]5)C=C4)C=C3)cc1
REMARK SMILES IDX 12 1 13 2 14 3 10 5 11 6 8 7 9 8 7 9 6 12 4 13 3 14 5 16
REMARK SMILES IDX 2 17 1 18 15 19 16 20 17 21 18 22 19 23 20 25 21 26 22 27
REMARK SMILES IDX 83 28 23 29 82 30 24 31 25 32 26 33 76 34 27 35 81 36 75 37
REMARK SMILES IDX 77 38 28 39 80 40 74 41 73 42 29 44 61 45 41 46 60 47 42 48
REMARK SMILES IDX 45 49 59 50 78 51 43 52 44 53 58 55 79 56 46 57 30 58 31 59
REMARK SMILES IDX 39 60 32 61 33 62 37 63 40 64 34 65 35 66 38 67 36 68 62 69
REMARK SMILES IDX 63 70 71 71 64 72 65 73 69 74 72 75 66 76 67 77 70 78 68 79
REMARK SMILES IDX 47 80 48 81 56 82 49 83 50 84 54 85 57 86 51 87 52 88 55 89
REMARK SMILES IDX 53 90
REMARK H PARENT 14 4 7 10 7 11 3 15 18 24 77 43 45 54
REMARK Flexibility Score: inf
ROOT
ATOM      1  C   UNL A   1      36.165  32.633  32.632  1.00  0.00     0.228 C 
ATOM      2  O   UNL A   1      36.618  31.810  33.434  1.00  0.00    -0.275 OA
ATOM      3  N   UNL A   1      35.376  32.148  31.638  1.00  0.00    -0.356 N 
ATOM      4  H   UNL A   1      35.235  31.173  31.679  1.00  0.00     0.163 HD
ENDROOT
BRANCH   1   5
ATOM      5  C   UNL A   1      36.500  34.115  32.784  1.00  0.00     0.133 C 
ATOM      6  C   UNL A   1      38.008  34.308  32.969  1.00  0.00     0.024 C 
BRANCH   5   7
ATOM      7  C   UNL A   1      35.603  34.822  33.832  1.00  0.00     0.191 C 
ATOM      8  C   UNL A   1      35.557  34.001  35.131  1.00  0.00     0.076 C 
BRANCH   7   9
ATOM      9  N   UNL A   1      34.250  35.038  33.292  1.00  0.00    -0.336 N 
ATOM     10  H   UNL A   1      33.965  34.201  32.784  1.00  0.00     0.346 HD
ATOM     11  H   UNL A   1      33.631  35.231  34.079  1.00  0.00     0.346 HD
BRANCH   9  12
ATOM     12  C   UNL A   1      34.178  36.191  32.377  1.00  0.00     0.362 C 
BRANCH  12  13
ATOM     13  C   UNL A   1      32.723  36.480  32.003  1.00  0.00     0.275 C 
ATOM     14  N   UNL A   1      32.333  36.396  30.696  1.00  0.00    -0.351 N 
ATOM     15  H   UNL A   1      31.415  36.692  30.504  1.00  0.00     0.163 HD
ATOM     16  O   UNL A   1      31.895  36.812  32.853  1.00  0.00    -0.269 OA
BRANCH  14  17
ATOM     17  C   UNL A   1      33.096  35.926  29.556  1.00  0.00     0.112 C 
ATOM     18  C   UNL A   1      33.598  37.094  28.727  1.00  0.00     0.027 C 
ENDBRANCH  14  17
ENDBRANCH  12  13
ENDBRANCH   9  12
ENDBRANCH   7   9
ENDBRANCH   5   7
ENDBRANCH   1   5
BRANCH   3  19
ATOM     19  C   UNL A   1      34.700  32.793  30.527  1.00  0.00     0.117 C 
BRANCH  19  20
ATOM     20  C   UNL A   1      35.664  33.196  29.415  1.00  0.00     0.042 C 
BRANCH  20  21
ATOM     21  C   UNL A   1      35.129  32.979  28.004  1.00  0.00     0.118 C 
BRANCH  21  22
ATOM     22  N   UNL A   1      34.302  31.786  27.892  1.00  0.00    -0.352 N 
ATOM     23  C   UNL A   1      34.643  30.457  27.900  1.00  0.00     0.251 C 
ATOM     24  H   UNL A   1      33.339  31.963  27.794  1.00  0.00     0.163 HD
ATOM     25  O   UNL A   1      33.792  29.618  27.608  1.00  0.00    -0.269 OA
BRANCH  23  26
ATOM     26  C   UNL A   1      36.015  30.016  28.234  1.00  0.00     0.039 A 
ATOM     27  C   UNL A   1      37.010  30.124  27.257  1.00  0.00     0.014 A 
ATOM     28  C   UNL A   1      36.323  29.452  29.475  1.00  0.00     0.014 A 
ATOM     29  C   UNL A   1      38.319  29.727  27.543  1.00  0.00     0.010 A 
ATOM     30  C   UNL A   1      37.642  29.129  29.787  1.00  0.00     0.010 A 
ATOM     31  C   UNL A   1      38.653  29.257  28.823  1.00  0.00    -0.014 A 
BRANCH  31  32
ATOM     32  C   UNL A   1      40.049  28.885  29.167  1.00  0.00     0.031 A 
ATOM     33  C   UNL A   1      40.910  29.828  29.963  1.00  0.00     0.074 A 
ATOM     34  C   UNL A   1      40.564  27.729  28.706  1.00  0.00     0.049 A 
ATOM     35  N   UNL A   1      42.174  29.721  30.288  1.00  0.00    -0.248 NA
ATOM     36  C   UNL A   1      40.273  31.069  30.430  1.00  0.00     0.031 C 
ATOM     37  C   UNL A   1      39.849  26.751  27.886  1.00  0.00     0.029 A 
ATOM     38  N   UNL A   1      41.817  27.186  28.853  1.00  0.00    -0.354 N 
ATOM     39  C   UNL A   1      42.487  30.887  30.975  1.00  0.00     0.074 A 
ATOM     40  C   UNL A   1      41.294  31.706  30.982  1.00  0.00     0.031 C 
ATOM     41  C   UNL A   1      40.665  25.721  27.617  1.00  0.00     0.029 A 
ATOM     42  C   UNL A   1      41.971  25.979  28.216  1.00  0.00     0.049 A 
ATOM     43  H   UNL A   1      42.536  27.621  29.365  1.00  0.00     0.167 HD
ATOM     44  C   UNL A   1      43.656  31.233  31.566  1.00  0.00     0.037 A 
ATOM     45  C   UNL A   1      43.047  25.174  28.121  1.00  0.00     0.037 A 
ATOM     46  C   UNL A   1      44.829  30.401  31.591  1.00  0.00     0.049 A 
ATOM     47  C   UNL A   1      44.327  25.573  28.803  1.00  0.00     0.074 A 
ATOM     48  C   UNL A   1      46.042  30.635  32.218  1.00  0.00     0.029 A 
ATOM     49  N   UNL A   1      44.936  29.169  30.964  1.00  0.00    -0.354 N 
ATOM     50  N   UNL A   1      44.592  26.651  29.501  1.00  0.00    -0.248 NA
ATOM     51  C   UNL A   1      45.456  24.639  28.689  1.00  0.00     0.031 C 
ATOM     52  C   UNL A   1      46.893  29.560  31.941  1.00  0.00     0.029 A 
ATOM     53  C   UNL A   1      46.199  28.637  31.177  1.00  0.00     0.049 A 
ATOM     54  H   UNL A   1      44.221  28.735  30.444  1.00  0.00     0.167 HD
ATOM     55  C   UNL A   1      45.904  26.513  29.931  1.00  0.00     0.074 A 
ATOM     56  C   UNL A   1      46.378  25.240  29.427  1.00  0.00     0.031 C 
ATOM     57  C   UNL A   1      46.650  27.365  30.676  1.00  0.00     0.037 A 
BRANCH  44  58
ATOM     58  C   UNL A   1      43.721  32.571  32.242  1.00  0.00     0.064 A 
ATOM     59  C   UNL A   1      44.123  33.724  31.551  1.00  0.00     0.173 A 
ATOM     60  C   UNL A   1      43.346  32.710  33.587  1.00  0.00     0.173 A 
ATOM     61  F   UNL A   1      44.504  33.643  30.267  1.00  0.00    -0.203 F 
ATOM     62  C   UNL A   1      44.174  34.962  32.188  1.00  0.00     0.198 A 
ATOM     63  C   UNL A   1      43.371  33.953  34.214  1.00  0.00     0.198 A 
ATOM     64  F   UNL A   1      42.948  31.640  34.292  1.00  0.00    -0.203 F 
ATOM     65  F   UNL A   1      44.607  36.040  31.521  1.00  0.00    -0.200 F 
ATOM     66  C   UNL A   1      43.792  35.076  33.516  1.00  0.00     0.200 A 
ATOM     67  F   UNL A   1      42.991  34.065  35.494  1.00  0.00    -0.200 F 
ATOM     68  F   UNL A   1      43.836  36.268  34.127  1.00  0.00    -0.200 F 
ENDBRANCH  44  58
BRANCH  45  69
ATOM     69  C   UNL A   1      42.950  23.894  27.376  1.00  0.00     0.064 A 
ATOM     70  C   UNL A   1      42.462  22.737  28.000  1.00  0.00     0.173 A 
ATOM     71  C   UNL A   1      43.337  23.799  26.031  1.00  0.00     0.173 A 
ATOM     72  F   UNL A   1      42.098  22.776  29.289  1.00  0.00    -0.203 F 
ATOM     73  C   UNL A   1      42.383  21.528  27.312  1.00  0.00     0.198 A 
ATOM     74  C   UNL A   1      43.234  22.595  25.338  1.00  0.00     0.198 A 
ATOM     75  F   UNL A   1      43.804  24.880  25.390  1.00  0.00    -0.203 F 
ATOM     76  F   UNL A   1      41.953  20.428  27.944  1.00  0.00    -0.200 F 
ATOM     77  C   UNL A   1      42.765  21.459  25.980  1.00  0.00     0.200 A 
ATOM     78  F   UNL A   1      43.591  22.536  24.047  1.00  0.00    -0.200 F 
ATOM     79  F   UNL A   1      42.685  20.297  25.318  1.00  0.00    -0.200 F 
ENDBRANCH  45  69
BRANCH  57  80
ATOM     80  C   UNL A   1      48.044  26.933  31.021  1.00  0.00     0.064 A 
ATOM     81  C   UNL A   1      48.305  26.098  32.119  1.00  0.00     0.173 A 
ATOM     82  C   UNL A   1      49.128  27.330  30.223  1.00  0.00     0.173 A 
ATOM     83  F   UNL A   1      47.303  25.704  32.919  1.00  0.00    -0.203 F 
ATOM     84  C   UNL A   1      49.604  25.698  32.417  1.00  0.00     0.198 A 
ATOM     85  C   UNL A   1      50.422  26.907  30.512  1.00  0.00     0.198 A 
ATOM     86  F   UNL A   1      48.929  28.124  29.161  1.00  0.00    -0.203 F 
ATOM     87  F   UNL A   1      49.836  24.937  33.496  1.00  0.00    -0.200 F 
ATOM     88  C   UNL A   1      50.659  26.096  31.612  1.00  0.00     0.200 A 
ATOM     89  F   UNL A   1      51.439  27.284  29.725  1.00  0.00    -0.200 F 
ATOM     90  F   UNL A   1      51.909  25.706  31.900  1.00  0.00    -0.200 F 
ENDBRANCH  57  80
ENDBRANCH  31  32
ENDBRANCH  23  26
ENDBRANCH  21  22
ENDBRANCH  20  21
ENDBRANCH  19  20
ENDBRANCH   3  19
TORSDOF 15
ENDMDL
MODEL 2
REMARK VINA RESULT:     -10.1      3.950     10.860
REMARK SMILES CCNC(=O)C[NH2+][C@@H](C)[C@@H](C)C(=O)NCCCNC(=O)c1ccc(-c2c3nc(c(-c4c(F)c(F)c(F)c(F)c4F)c4ccc([nH]4)c(-c4c(F)c(F)c(F)c(F)c4F)c4nc(c(-c5c(F)c(F)c(F)c(F)c5F)c5ccc2[nH]5)C=C4)C=C3)cc1
REMARK SMILES IDX 12 1 13 2 14 3 10 5 11 6 8 7 9 8 7 9 6 12 4 13 3 14 5 16
REMARK SMILES IDX 2 17 1 18 15 19 16 20 17 21 18 22 19 23 20 25 21 26 22 27
REMARK SMILES IDX 83 28 23 29 82 30 24 31 25 32 26 33 76 34 27 35 81 36 75 37
REMARK SMILES IDX 77 38 28 39 80 40 74 41 73 42 29 44 61 45 41 46 60 47 42 48
REMARK SMILES IDX 45 49 59 50 78 51 43 52 44 53 58 55 79 56 46 57 30 58 31 59
REMARK SMILES IDX 39 60 32 61 33 62 37 63 40 64 34 65 35 66 38 67 36 68 62 69
REMARK SMILES IDX 63 70 71 71 64 72 65 73 69 74 72 75 66 76 67 77 70 78 68 79
REMARK SMILES IDX 47 80 48 81 56 82 49 83 50 84 54 85 57 86 51 87 52 88 55 89
REMARK SMILES IDX 53 90
REMARK H PARENT 14 4 7 10 7 11 3 15 18 24 77 43 45 54
REMARK Flexibility Score: inf
ROOT
ATOM      1  C   UNL A   1      43.545  22.333  25.281  1.00  0.00     0.228 C 
ATOM      2  O   UNL A   1      43.666  22.779  24.136  1.00  0.00    -0.275 OA
ATOM      3  N   UNL A   1      42.948  21.118  25.405  1.00  0.00    -0.356 N 
ATOM      4  H   UNL A   1      42.689  20.711  24.546  1.00  0.00     0.163 HD
ENDROOT
BRANCH   1   5
ATOM      5  C   UNL A   1      44.053  23.139  26.475  1.00  0.00     0.133 C 
ATOM      6  C   UNL A   1      43.046  24.230  26.852  1.00  0.00     0.024 C 
BRANCH   5   7
ATOM      7  C   UNL A   1      45.516  23.614  26.291  1.00  0.00     0.191 C 
ATOM      8  C   UNL A   1      46.088  24.103  27.632  1.00  0.00     0.076 C 
BRANCH   7   9
ATOM      9  N   UNL A   1      45.591  24.669  25.266  1.00  0.00    -0.336 N 
ATOM     10  H   UNL A   1      46.106  24.307  24.464  1.00  0.00     0.346 HD
ATOM     11  H   UNL A   1      44.636  24.925  25.017  1.00  0.00     0.346 HD
BRANCH   9  12
ATOM     12  C   UNL A   1      46.267  25.886  25.749  1.00  0.00     0.362 C 
BRANCH  12  13
ATOM     13  C   UNL A   1      46.025  27.046  24.781  1.00  0.00     0.275 C 
ATOM     14  N   UNL A   1      44.890  27.797  24.900  1.00  0.00    -0.351 N 
ATOM     15  H   UNL A   1      44.740  28.461  24.188  1.00  0.00     0.163 HD
ATOM     16  O   UNL A   1      46.822  27.306  23.877  1.00  0.00    -0.269 OA
BRANCH  14  17
ATOM     17  C   UNL A   1      43.879  27.745  25.937  1.00  0.00     0.112 C 
ATOM     18  C   UNL A   1      42.537  28.214  25.404  1.00  0.00     0.027 C 
ENDBRANCH  14  17
ENDBRANCH  12  13
ENDBRANCH   9  12
ENDBRANCH   7   9
ENDBRANCH   5   7
ENDBRANCH   1   5
BRANCH   3  19
ATOM     19  C   UNL A   1      42.621  20.306  26.562  1.00  0.00     0.117 C 
BRANCH  19  20
ATOM     20  C   UNL A   1      41.117  20.227  26.812  1.00  0.00     0.042 C 
BRANCH  20  21
ATOM     21  C   UNL A   1      40.464  21.559  27.166  1.00  0.00     0.118 C 
BRANCH  21  22
ATOM     22  N   UNL A   1      39.383  21.916  26.260  1.00  0.00    -0.352 N 
ATOM     23  C   UNL A   1      38.679  23.086  26.125  1.00  0.00     0.251 C 
ATOM     24  H   UNL A   1      39.112  21.200  25.643  1.00  0.00     0.163 HD
ATOM     25  O   UNL A   1      37.677  23.104  25.410  1.00  0.00    -0.269 OA
BRANCH  23  26
ATOM     26  C   UNL A   1      39.088  24.317  26.836  1.00  0.00     0.039 A 
ATOM     27  C   UNL A   1      38.754  24.453  28.188  1.00  0.00     0.014 A 
ATOM     28  C   UNL A   1      39.748  25.359  26.179  1.00  0.00     0.014 A 
ATOM     29  C   UNL A   1      39.135  25.598  28.891  1.00  0.00     0.010 A 
ATOM     30  C   UNL A   1      40.196  26.465  26.898  1.00  0.00     0.010 A 
ATOM     31  C   UNL A   1      39.889  26.600  28.260  1.00  0.00    -0.014 A 
BRANCH  31  32
ATOM     32  C   UNL A   1      40.354  27.798  29.004  1.00  0.00     0.031 A 
ATOM     33  C   UNL A   1      41.754  27.853  29.551  1.00  0.00     0.074 A 
ATOM     34  C   UNL A   1      39.497  28.809  29.246  1.00  0.00     0.049 A 
ATOM     35  N   UNL A   1      42.318  28.771  30.298  1.00  0.00    -0.248 NA
ATOM     36  C   UNL A   1      42.629  26.711  29.243  1.00  0.00     0.031 C 
ATOM     37  C   UNL A   1      38.101  28.856  28.810  1.00  0.00     0.029 A 
ATOM     38  N   UNL A   1      39.671  29.987  29.929  1.00  0.00    -0.354 N 
ATOM     39  C   UNL A   1      43.599  28.306  30.565  1.00  0.00     0.074 A 
ATOM     40  C   UNL A   1      43.717  27.007  29.939  1.00  0.00     0.031 C 
ATOM     41  C   UNL A   1      37.551  30.010  29.220  1.00  0.00     0.029 A 
ATOM     42  C   UNL A   1      38.543  30.768  29.975  1.00  0.00     0.049 A 
ATOM     43  H   UNL A   1      40.524  30.246  30.347  1.00  0.00     0.167 HD
ATOM     44  C   UNL A   1      44.594  28.917  31.251  1.00  0.00     0.037 A 
ATOM     45  C   UNL A   1      38.332  31.960  30.565  1.00  0.00     0.037 A 
ATOM     46  C   UNL A   1      44.488  30.226  31.840  1.00  0.00     0.049 A 
ATOM     47  C   UNL A   1      39.459  32.626  31.304  1.00  0.00     0.074 A 
ATOM     48  C   UNL A   1      45.461  30.958  32.500  1.00  0.00     0.029 A 
ATOM     49  N   UNL A   1      43.339  31.002  31.836  1.00  0.00    -0.354 N 
ATOM     50  N   UNL A   1      40.685  32.204  31.498  1.00  0.00    -0.248 NA
ATOM     51  C   UNL A   1      39.176  33.940  31.900  1.00  0.00     0.031 C 
ATOM     52  C   UNL A   1      44.889  32.162  32.925  1.00  0.00     0.029 A 
ATOM     53  C   UNL A   1      43.574  32.200  32.494  1.00  0.00     0.049 A 
ATOM     54  H   UNL A   1      42.482  30.742  31.426  1.00  0.00     0.167 HD
ATOM     55  C   UNL A   1      41.326  33.207  32.213  1.00  0.00     0.074 A 
ATOM     56  C   UNL A   1      40.356  34.266  32.406  1.00  0.00     0.031 C 
ATOM     57  C   UNL A   1      42.601  33.246  32.669  1.00  0.00     0.037 A 
BRANCH  44  58
ATOM     58  C   UNL A   1      45.891  28.178  31.396  1.00  0.00     0.064 A 
ATOM     59  C   UNL A   1      46.077  27.210  32.395  1.00  0.00     0.173 A 
ATOM     60  C   UNL A   1      46.951  28.414  30.507  1.00  0.00     0.173 A 
ATOM     61  F   UNL A   1      45.100  26.956  33.279  1.00  0.00    -0.203 F 
ATOM     62  C   UNL A   1      47.284  26.526  32.516  1.00  0.00     0.198 A 
ATOM     63  C   UNL A   1      48.147  27.708  30.613  1.00  0.00     0.198 A 
ATOM     64  F   UNL A   1      46.824  29.325  29.530  1.00  0.00    -0.203 F 
ATOM     65  F   UNL A   1      47.455  25.641  33.508  1.00  0.00    -0.200 F 
ATOM     66  C   UNL A   1      48.315  26.771  31.622  1.00  0.00     0.200 A 
ATOM     67  F   UNL A   1      49.138  27.938  29.741  1.00  0.00    -0.200 F 
ATOM     68  F   UNL A   1      49.474  26.109  31.735  1.00  0.00    -0.200 F 
ENDBRANCH  44  58
BRANCH  45  69
ATOM     69  C   UNL A   1      37.004  32.616  30.454  1.00  0.00     0.064 A 
ATOM     70  C   UNL A   1      36.034  32.444  31.452  1.00  0.00     0.173 A 
ATOM     71  C   UNL A   1      36.678  33.425  29.356  1.00  0.00     0.173 A 
ATOM     72  F   UNL A   1      36.295  31.664  32.510  1.00  0.00    -0.203 F 
ATOM     73  C   UNL A   1      34.781  33.043  31.346  1.00  0.00     0.198 A 
ATOM     74  C   UNL A   1      35.433  34.043  29.265  1.00  0.00     0.198 A 
ATOM     75  F   UNL A   1      37.575  33.624  28.379  1.00  0.00    -0.203 F 
ATOM     76  F   UNL A   1      33.858  32.829  32.293  1.00  0.00    -0.200 F 
ATOM     77  C   UNL A   1      34.482  33.845  30.255  1.00  0.00     0.200 A 
ATOM     78  F   UNL A   1      35.153  34.829  28.216  1.00  0.00    -0.200 F 
ATOM     79  F   UNL A   1      33.278  34.424  30.156  1.00  0.00    -0.200 F 
ENDBRANCH  45  69
BRANCH  57  80
ATOM     80  C   UNL A   1      43.033  34.489  33.390  1.00  0.00     0.064 A 
ATOM     81  C   UNL A   1      42.971  34.585  34.789  1.00  0.00     0.173 A 
ATOM     82  C   UNL A   1      43.547  35.581  32.676  1.00  0.00     0.173 A 
ATOM     83  F   UNL A   1      42.472  33.573  35.513  1.00  0.00    -0.203 F 
ATOM     84  C   UNL A   1      43.386  35.741  35.442  1.00  0.00     0.198 A 
ATOM     85  C   UNL A   1      43.985  36.725  33.336  1.00  0.00     0.198 A 
ATOM     86  F   UNL A   1      43.630  35.534  31.338  1.00  0.00    -0.203 F 
ATOM     87  F   UNL A   1      43.277  35.831  36.775  1.00  0.00    -0.200 F 
ATOM     88  C   UNL A   1      43.898  36.807  34.718  1.00  0.00     0.200 A 
ATOM     89  F   UNL A   1      44.490  37.749  32.634  1.00  0.00    -0.200 F 
ATOM     90  F   UNL A   1      44.301  37.918  35.350  1.00  0.00    -0.200 F 
ENDBRANCH  57  80
ENDBRANCH  31  32
ENDBRANCH  23  26
ENDBRANCH  21  22
ENDBRANCH  20  21
ENDBRANCH  19  20
ENDBRANCH   3  19
TORSDOF 15
ENDMDL
MODEL 3
REMARK VINA RESULT:     -10.1      4.225     10.309
REMARK SMILES CCNC(=O)C[NH2+][C@@H](C)[C@@H](C)C(=O)NCCCNC(=O)c1ccc(-c2c3nc(c(-c4c(F)c(F)c(F)c(F)c4F)c4ccc([nH]4)c(-c4c(F)c(F)c(F)c(F)c4F)c4nc(c(-c5c(F)c(F)c(F)c(F)c5F)c5ccc2[nH]5)C=C4)C=C3)cc1
REMARK SMILES IDX 12 1 13 2 14 3 10 5 11 6 8 7 9 8 7 9 6 12 4 13 3 14 5 16
REMARK SMILES IDX 2 17 1 18 15 19 16 20 17 21 18 22 19 23 20 25 21 26 22 27
REMARK SMILES IDX 83 28 23 29 82 30 24 31 25 32 26 33 76 34 27 35 81 36 75 37
REMARK SMILES IDX 77 38 28 39 80 40 74 41 73 42 29 44 61 45 41 46 60 47 42 48
REMARK SMILES IDX 45 49 59 50 78 51 43 52 44 53 58 55 79 56 46 57 30 58 31 59
REMARK SMILES IDX 39 60 32 61 33 62 37 63 40 64 34 65 35 66 38 67 36 68 62 69
REMARK SMILES IDX 63 70 71 71 64 72 65 73 69 74 72 75 66 76 67 77 70 78 68 79
REMARK SMILES IDX 47 80 48 81 56 82 49 83 50 84 54 85 57 86 51 87 52 88 55 89
REMARK SMILES IDX 53 90
REMARK H PARENT 14 4 7 10 7 11 3 15 18 24 77 43 45 54
REMARK Flexibility Score: inf
ROOT
ATOM      1  C   UNL A   1      32.165  28.319  27.330  1.00  0.00     0.228 C 
ATOM      2  O   UNL A   1      31.380  27.887  28.180  1.00  0.00    -0.275 OA
ATOM      3  N   UNL A   1      32.787  29.493  27.613  1.00  0.00    -0.356 N 
ATOM      4  H   UNL A   1      32.551  29.869  28.493  1.00  0.00     0.163 HD
ENDROOT
BRANCH   1   5
ATOM      5  C   UNL A   1      32.397  27.542  26.035  1.00  0.00     0.133 C 
ATOM      6  C   UNL A   1      31.397  27.980  24.961  1.00  0.00     0.024 C 
BRANCH   5   7
ATOM      7  C   UNL A   1      32.498  26.014  26.270  1.00  0.00     0.191 C 
ATOM      8  C   UNL A   1      33.177  25.336  25.068  1.00  0.00     0.076 C 
BRANCH   7   9
ATOM      9  N   UNL A   1      31.165  25.440  26.521  1.00  0.00    -0.336 N 
ATOM     10  H   UNL A   1      31.116  25.146  27.496  1.00  0.00     0.346 HD
ATOM     11  H   UNL A   1      30.475  26.161  26.308  1.00  0.00     0.346 HD
BRANCH   9  12
ATOM     12  C   UNL A   1      30.875  24.279  25.662  1.00  0.00     0.362 C 
BRANCH  12  13
ATOM     13  C   UNL A   1      30.642  23.032  26.519  1.00  0.00     0.275 C 
ATOM     14  N   UNL A   1      31.169  21.835  26.125  1.00  0.00    -0.351 N 
ATOM     15  H   UNL A   1      30.901  21.053  26.659  1.00  0.00     0.163 HD
ATOM     16  O   UNL A   1      29.967  23.078  27.550  1.00  0.00    -0.269 OA
BRANCH  14  17
ATOM     17  C   UNL A   1      32.073  21.567  25.024  1.00  0.00     0.112 C 
ATOM     18  C   UNL A   1      33.412  21.069  25.535  1.00  0.00     0.027 C 
ENDBRANCH  14  17
ENDBRANCH  12  13
ENDBRANCH   9  12
ENDBRANCH   7   9
ENDBRANCH   5   7
ENDBRANCH   1   5
BRANCH   3  19
ATOM     19  C   UNL A   1      33.735  30.300  26.866  1.00  0.00     0.117 C 
BRANCH  19  20
ATOM     20  C   UNL A   1      33.678  31.775  27.254  1.00  0.00     0.042 C 
BRANCH  20  21
ATOM     21  C   UNL A   1      32.270  32.355  27.330  1.00  0.00     0.118 C 
BRANCH  21  22
ATOM     22  N   UNL A   1      32.263  33.793  27.549  1.00  0.00    -0.352 N 
ATOM     23  C   UNL A   1      33.029  34.577  28.376  1.00  0.00     0.251 C 
ATOM     24  H   UNL A   1      31.599  34.286  27.016  1.00  0.00     0.163 HD
ATOM     25  O   UNL A   1      32.726  35.758  28.533  1.00  0.00    -0.269 OA
BRANCH  23  26
ATOM     26  C   UNL A   1      34.198  34.023  29.095  1.00  0.00     0.039 A 
ATOM     27  C   UNL A   1      33.975  33.171  30.182  1.00  0.00     0.014 A 
ATOM     28  C   UNL A   1      35.505  34.373  28.747  1.00  0.00     0.014 A 
ATOM     29  C   UNL A   1      35.056  32.623  30.875  1.00  0.00     0.010 A 
ATOM     30  C   UNL A   1      36.584  33.765  29.388  1.00  0.00     0.010 A 
ATOM     31  C   UNL A   1      36.371  32.889  30.463  1.00  0.00    -0.014 A 
BRANCH  31  32
ATOM     32  C   UNL A   1      37.534  32.271  31.149  1.00  0.00     0.031 A 
ATOM     33  C   UNL A   1      38.293  31.150  30.492  1.00  0.00     0.074 A 
ATOM     34  C   UNL A   1      37.867  32.671  32.391  1.00  0.00     0.049 A 
ATOM     35  N   UNL A   1      39.278  30.427  30.965  1.00  0.00    -0.248 NA
ATOM     36  C   UNL A   1      37.869  30.771  29.136  1.00  0.00     0.031 C 
ATOM     37  C   UNL A   1      37.182  33.715  33.155  1.00  0.00     0.029 A 
ATOM     38  N   UNL A   1      38.859  32.239  33.236  1.00  0.00    -0.354 N 
ATOM     39  C   UNL A   1      39.573  29.499  29.976  1.00  0.00     0.074 A 
ATOM     40  C   UNL A   1      38.636  29.719  28.895  1.00  0.00     0.031 C 
ATOM     41  C   UNL A   1      37.785  33.855  34.346  1.00  0.00     0.029 A 
ATOM     42  C   UNL A   1      38.875  32.890  34.445  1.00  0.00     0.049 A 
ATOM     43  H   UNL A   1      39.497  31.529  32.998  1.00  0.00     0.167 HD
ATOM     44  C   UNL A   1      40.551  28.561  29.959  1.00  0.00     0.037 A 
ATOM     45  C   UNL A   1      39.676  32.723  35.515  1.00  0.00     0.037 A 
ATOM     46  C   UNL A   1      41.507  28.368  31.018  1.00  0.00     0.049 A 
ATOM     47  C   UNL A   1      40.766  31.688  35.464  1.00  0.00     0.074 A 
ATOM     48  C   UNL A   1      42.575  27.488  31.068  1.00  0.00     0.029 A 
ATOM     49  N   UNL A   1      41.512  29.071  32.214  1.00  0.00    -0.354 N 
ATOM     50  N   UNL A   1      41.074  30.857  34.498  1.00  0.00    -0.248 NA
ATOM     51  C   UNL A   1      41.626  31.575  36.650  1.00  0.00     0.031 C 
ATOM     52  C   UNL A   1      43.205  27.635  32.309  1.00  0.00     0.029 A 
ATOM     53  C   UNL A   1      42.556  28.635  33.015  1.00  0.00     0.049 A 
ATOM     54  H   UNL A   1      40.869  29.776  32.458  1.00  0.00     0.167 HD
ATOM     55  C   UNL A   1      42.175  30.142  34.947  1.00  0.00     0.074 A 
ATOM     56  C   UNL A   1      42.492  30.647  36.267  1.00  0.00     0.031 C 
ATOM     57  C   UNL A   1      42.862  29.156  34.322  1.00  0.00     0.037 A 
BRANCH  44  58
ATOM     58  C   UNL A   1      40.642  27.675  28.753  1.00  0.00     0.064 A 
ATOM     59  C   UNL A   1      39.916  26.477  28.665  1.00  0.00     0.173 A 
ATOM     60  C   UNL A   1      41.437  28.041  27.656  1.00  0.00     0.173 A 
ATOM     61  F   UNL A   1      39.150  26.075  29.691  1.00  0.00    -0.203 F 
ATOM     62  C   UNL A   1      40.004  25.665  27.537  1.00  0.00     0.198 A 
ATOM     63  C   UNL A   1      41.502  27.241  26.518  1.00  0.00     0.198 A 
ATOM     64  F   UNL A   1      42.148  29.178  27.686  1.00  0.00    -0.203 F 
ATOM     65  F   UNL A   1      39.339  24.503  27.496  1.00  0.00    -0.200 F 
ATOM     66  C   UNL A   1      40.792  26.051  26.463  1.00  0.00     0.200 A 
ATOM     67  F   UNL A   1      42.254  27.620  25.476  1.00  0.00    -0.200 F 
ATOM     68  F   UNL A   1      40.872  25.272  25.375  1.00  0.00    -0.200 F 
ENDBRANCH  44  58
BRANCH  45  69
ATOM     69  C   UNL A   1      39.495  33.578  36.715  1.00  0.00     0.064 A 
ATOM     70  C   UNL A   1      40.099  34.841  36.793  1.00  0.00     0.173 A 
ATOM     71  C   UNL A   1      38.717  33.156  37.804  1.00  0.00     0.173 A 
ATOM     72  F   UNL A   1      40.867  35.277  35.785  1.00  0.00    -0.203 F 
ATOM     73  C   UNL A   1      39.948  35.642  37.922  1.00  0.00     0.198 A 
ATOM     74  C   UNL A   1      38.546  33.970  38.921  1.00  0.00     0.198 A 
ATOM     75  F   UNL A   1      38.114  31.959  37.773  1.00  0.00    -0.203 F 
ATOM     76  F   UNL A   1      40.570  36.827  37.988  1.00  0.00    -0.200 F 
ATOM     77  C   UNL A   1      39.167  35.208  38.984  1.00  0.00     0.200 A 
ATOM     78  F   UNL A   1      37.780  33.553  39.939  1.00  0.00    -0.200 F 
ATOM     79  F   UNL A   1      39.019  35.981  40.068  1.00  0.00    -0.200 F 
ENDBRANCH  45  69
BRANCH  57  80
ATOM     80  C   UNL A   1      44.046  28.581  35.043  1.00  0.00     0.064 A 
ATOM     81  C   UNL A   1      45.328  29.134  34.907  1.00  0.00     0.173 A 
ATOM     82  C   UNL A   1      43.887  27.487  35.907  1.00  0.00     0.173 A 
ATOM     83  F   UNL A   1      45.532  30.171  34.081  1.00  0.00    -0.203 F 
ATOM     84  C   UNL A   1      46.413  28.595  35.592  1.00  0.00     0.198 A 
ATOM     85  C   UNL A   1      44.971  26.968  36.610  1.00  0.00     0.198 A 
ATOM     86  F   UNL A   1      42.680  26.927  36.073  1.00  0.00    -0.203 F 
ATOM     87  F   UNL A   1      47.638  29.110  35.414  1.00  0.00    -0.200 F 
ATOM     88  C   UNL A   1      46.233  27.518  36.447  1.00  0.00     0.200 A 
ATOM     89  F   UNL A   1      44.792  25.934  37.443  1.00  0.00    -0.200 F 
ATOM     90  F   UNL A   1      47.279  27.004  37.109  1.00  0.00    -0.200 F 
ENDBRANCH  57  80
ENDBRANCH  31  32
ENDBRANCH  23  26
ENDBRANCH  21  22
ENDBRANCH  20  21
ENDBRANCH  19  20
ENDBRANCH   3  19
TORSDOF 15
ENDMDL
