MODEL 1
REMARK VINA RESULT:     -13.7      0.000      0.000
REMARK SMILES Cc1cccc(-c2cc(C(=O)NCCCNC(=O)c3ccc(-c4c5nc(c(-c6c(F)c(F)c(F)c(F)c6F)c6ccc([nH]6)c(-c6c(F)c(F)c(F)c(F)c6F)c6nc(c(-c7c(F)c(F)c(F)c(F)c7F)c7ccc4[nH]7)C=C6)C=C5)cc3)ccn2)c1
REMARK SMILES IDX 14 1 13 2 12 3 10 4 11 5 9 7 7 8 8 9 84 10 83 11 82 12 6 13
REMARK SMILES IDX 1 14 2 15 3 16 85 17 4 18 5 19 15 20 16 21 17 22 18 24 19 25
REMARK SMILES IDX 20 26 81 27 21 28 80 29 22 30 23 31 24 32 74 33 25 34 79 35
REMARK SMILES IDX 73 36 75 37 26 38 78 39 72 40 71 41 27 43 59 44 39 45 58 46
REMARK SMILES IDX 40 47 43 48 57 49 76 50 41 51 42 52 56 54 77 55 44 56 28 57
REMARK SMILES IDX 29 58 37 59 30 60 31 61 35 62 38 63 32 64 33 65 36 66 34 67
REMARK SMILES IDX 60 68 61 69 69 70 62 71 63 72 67 73 70 74 64 75 65 76 68 77
REMARK SMILES IDX 66 78 45 79 46 80 54 81 47 82 48 83 52 84 55 85 49 86 50 87
REMARK SMILES IDX 53 88 51 89
REMARK H PARENT 12 6 16 23 75 42 43 53
REMARK Flexibility Score: inf
ROOT
ATOM      1  C   UNL A   1      33.151  29.558  27.459  1.00  0.00     0.042 C 
ENDROOT
BRANCH   1   2
ATOM      2  C   UNL A   1      32.054  30.035  26.500  1.00  0.00     0.118 C 
BRANCH   2   3
ATOM      3  N   UNL A   1      32.470  29.967  25.101  1.00  0.00    -0.352 N 
ATOM      4  C   UNL A   1      32.663  28.919  24.228  1.00  0.00     0.251 C 
ATOM      5  O   UNL A   1      32.902  29.203  23.054  1.00  0.00    -0.269 OA
ATOM      6  H   UNL A   1      32.649  30.849  24.702  1.00  0.00     0.163 HD
BRANCH   4   7
ATOM      7  C   UNL A   1      32.589  27.478  24.608  1.00  0.00     0.043 A 
ATOM      8  C   UNL A   1      33.471  25.237  24.752  1.00  0.00     0.071 A 
ATOM      9  C   UNL A   1      33.595  26.563  24.354  1.00  0.00     0.042 A 
ATOM     10  N   UNL A   1      32.354  24.762  25.335  1.00  0.00    -0.256 NA
ATOM     11  C   UNL A   1      31.357  25.653  25.550  1.00  0.00     0.112 A 
ATOM     12  C   UNL A   1      31.429  27.000  25.218  1.00  0.00     0.034 A 
BRANCH   8  13
ATOM     13  C   UNL A   1      34.616  24.340  24.567  1.00  0.00     0.000 A 
ATOM     14  C   UNL A   1      37.988  23.743  26.273  1.00  0.00     0.044 C 
ATOM     15  C   UNL A   1      36.865  23.668  25.283  1.00  0.00    -0.050 A 
ATOM     16  C   UNL A   1      36.990  22.902  24.120  1.00  0.00     0.003 A 
ATOM     17  C   UNL A   1      35.675  24.370  25.498  1.00  0.00     0.013 A 
ATOM     18  C   UNL A   1      35.942  22.838  23.199  1.00  0.00     0.001 A 
ATOM     19  C   UNL A   1      34.760  23.551  23.422  1.00  0.00     0.010 A 
ENDBRANCH   8  13
ENDBRANCH   4   7
ENDBRANCH   2   3
ENDBRANCH   1   2
BRANCH   1  20
ATOM     20  C   UNL A   1      34.478  30.279  27.300  1.00  0.00     0.118 C 
BRANCH  20  21
ATOM     21  N   UNL A   1      34.864  31.076  28.462  1.00  0.00    -0.352 N 
ATOM     22  C   UNL A   1      35.944  30.870  29.313  1.00  0.00     0.251 C 
ATOM     23  H   UNL A   1      34.291  31.850  28.668  1.00  0.00     0.163 HD
ATOM     24  O   UNL A   1      36.180  31.606  30.242  1.00  0.00    -0.269 OA
BRANCH  22  25
ATOM     25  C   UNL A   1      36.863  29.764  28.961  1.00  0.00     0.039 A 
ATOM     26  C   UNL A   1      37.167  28.839  29.961  1.00  0.00     0.014 A 
ATOM     27  C   UNL A   1      37.634  29.867  27.805  1.00  0.00     0.014 A 
ATOM     28  C   UNL A   1      38.396  28.191  29.918  1.00  0.00     0.010 A 
ATOM     29  C   UNL A   1      38.891  29.293  27.806  1.00  0.00     0.010 A 
ATOM     30  C   UNL A   1      39.298  28.521  28.902  1.00  0.00    -0.014 A 
BRANCH  30  31
ATOM     31  C   UNL A   1      40.720  28.212  29.000  1.00  0.00     0.031 A 
ATOM     32  C   UNL A   1      41.253  26.957  28.443  1.00  0.00     0.074 A 
ATOM     33  C   UNL A   1      41.556  29.094  29.594  1.00  0.00     0.049 A 
ATOM     34  N   UNL A   1      42.302  26.349  28.887  1.00  0.00    -0.248 NA
ATOM     35  C   UNL A   1      40.594  26.252  27.356  1.00  0.00     0.031 C 
ATOM     36  C   UNL A   1      43.017  29.054  29.611  1.00  0.00     0.029 A 
ATOM     37  N   UNL A   1      41.223  30.113  30.504  1.00  0.00    -0.354 N 
ATOM     38  C   UNL A   1      42.621  25.356  27.988  1.00  0.00     0.074 A 
ATOM     39  C   UNL A   1      41.475  25.279  27.111  1.00  0.00     0.031 C 
ATOM     40  C   UNL A   1      43.452  29.741  30.678  1.00  0.00     0.029 A 
ATOM     41  C   UNL A   1      42.281  30.133  31.442  1.00  0.00     0.049 A 
ATOM     42  H   UNL A   1      40.424  30.688  30.492  1.00  0.00     0.167 HD
ATOM     43  C   UNL A   1      43.882  24.826  28.004  1.00  0.00     0.037 A 
ATOM     44  C   UNL A   1      42.079  29.858  32.763  1.00  0.00     0.037 A 
ATOM     45  C   UNL A   1      44.657  25.344  29.135  1.00  0.00     0.049 A 
ATOM     46  C   UNL A   1      42.910  28.713  33.285  1.00  0.00     0.074 A 
ATOM     47  C   UNL A   1      45.635  26.322  29.232  1.00  0.00     0.029 A 
ATOM     48  N   UNL A   1      44.262  25.057  30.441  1.00  0.00    -0.354 N 
ATOM     49  N   UNL A   1      43.443  27.797  32.525  1.00  0.00    -0.248 NA
ATOM     50  C   UNL A   1      43.167  28.488  34.703  1.00  0.00     0.031 C 
ATOM     51  C   UNL A   1      45.802  26.648  30.600  1.00  0.00     0.029 A 
ATOM     52  C   UNL A   1      44.934  25.865  31.339  1.00  0.00     0.049 A 
ATOM     53  H   UNL A   1      43.598  24.374  30.687  1.00  0.00     0.167 HD
ATOM     54  C   UNL A   1      44.080  26.871  33.311  1.00  0.00     0.074 A 
ATOM     55  C   UNL A   1      43.897  27.360  34.664  1.00  0.00     0.031 C 
ATOM     56  C   UNL A   1      44.693  25.774  32.772  1.00  0.00     0.037 A 
BRANCH  43  57
ATOM     57  C   UNL A   1      44.520  24.117  26.816  1.00  0.00     0.064 A 
ATOM     58  C   UNL A   1      44.259  22.750  26.562  1.00  0.00     0.173 A 
ATOM     59  C   UNL A   1      45.464  24.690  25.944  1.00  0.00     0.173 A 
ATOM     60  F   UNL A   1      43.276  22.094  27.192  1.00  0.00    -0.203 F 
ATOM     61  C   UNL A   1      44.996  21.997  25.642  1.00  0.00     0.198 A 
ATOM     62  C   UNL A   1      46.238  23.930  25.060  1.00  0.00     0.198 A 
ATOM     63  F   UNL A   1      45.620  26.014  25.856  1.00  0.00    -0.203 F 
ATOM     64  F   UNL A   1      44.715  20.698  25.469  1.00  0.00    -0.200 F 
ATOM     65  C   UNL A   1      46.020  22.577  24.924  1.00  0.00     0.200 A 
ATOM     66  F   UNL A   1      47.198  24.526  24.337  1.00  0.00    -0.200 F 
ATOM     67  F   UNL A   1      46.760  21.847  24.080  1.00  0.00    -0.200 F 
ENDBRANCH  43  57
BRANCH  44  68
ATOM     68  C   UNL A   1      40.719  30.207  33.248  1.00  0.00     0.064 A 
ATOM     69  C   UNL A   1      40.389  31.567  33.402  1.00  0.00     0.173 A 
ATOM     70  C   UNL A   1      39.667  29.285  33.227  1.00  0.00     0.173 A 
ATOM     71  F   UNL A   1      41.360  32.495  33.421  1.00  0.00    -0.203 F 
ATOM     72  C   UNL A   1      39.064  31.995  33.424  1.00  0.00     0.198 A 
ATOM     73  C   UNL A   1      38.339  29.717  33.264  1.00  0.00     0.198 A 
ATOM     74  F   UNL A   1      39.913  27.978  33.057  1.00  0.00    -0.203 F 
ATOM     75  F   UNL A   1      38.785  33.306  33.455  1.00  0.00    -0.200 F 
ATOM     76  C   UNL A   1      38.039  31.069  33.330  1.00  0.00     0.200 A 
ATOM     77  F   UNL A   1      37.345  28.825  33.140  1.00  0.00    -0.200 F 
ATOM     78  F   UNL A   1      36.767  31.483  33.260  1.00  0.00    -0.200 F 
ENDBRANCH  44  68
BRANCH  56  79
ATOM     79  C   UNL A   1      45.228  24.583  33.535  1.00  0.00     0.064 A 
ATOM     80  C   UNL A   1      44.512  23.393  33.747  1.00  0.00     0.173 A 
ATOM     81  C   UNL A   1      46.575  24.562  33.978  1.00  0.00     0.173 A 
ATOM     82  F   UNL A   1      43.277  23.225  33.258  1.00  0.00    -0.203 F 
ATOM     83  C   UNL A   1      45.068  22.299  34.419  1.00  0.00     0.198 A 
ATOM     84  C   UNL A   1      47.145  23.449  34.596  1.00  0.00     0.198 A 
ATOM     85  F   UNL A   1      47.389  25.613  33.801  1.00  0.00    -0.203 F 
ATOM     86  F   UNL A   1      44.323  21.207  34.638  1.00  0.00    -0.200 F 
ATOM     87  C   UNL A   1      46.385  22.324  34.835  1.00  0.00     0.200 A 
ATOM     88  F   UNL A   1      48.441  23.469  34.940  1.00  0.00    -0.200 F 
ATOM     89  F   UNL A   1      46.927  21.258  35.439  1.00  0.00    -0.200 F 
ENDBRANCH  56  79
ENDBRANCH  30  31
ENDBRANCH  22  25
ENDBRANCH  20  21
ENDBRANCH   1  20
TORSDOF 11
ENDMDL
MODEL 2
REMARK VINA RESULT:     -13.7      3.997     10.222
REMARK SMILES Cc1cccc(-c2cc(C(=O)NCCCNC(=O)c3ccc(-c4c5nc(c(-c6c(F)c(F)c(F)c(F)c6F)c6ccc([nH]6)c(-c6c(F)c(F)c(F)c(F)c6F)c6nc(c(-c7c(F)c(F)c(F)c(F)c7F)c7ccc4[nH]7)C=C6)C=C5)cc3)ccn2)c1
REMARK SMILES IDX 14 1 13 2 12 3 10 4 11 5 9 7 7 8 8 9 84 10 83 11 82 12 6 13
REMARK SMILES IDX 1 14 2 15 3 16 85 17 4 18 5 19 15 20 16 21 17 22 18 24 19 25
REMARK SMILES IDX 20 26 81 27 21 28 80 29 22 30 23 31 24 32 74 33 25 34 79 35
REMARK SMILES IDX 73 36 75 37 26 38 78 39 72 40 71 41 27 43 59 44 39 45 58 46
REMARK SMILES IDX 40 47 43 48 57 49 76 50 41 51 42 52 56 54 77 55 44 56 28 57
REMARK SMILES IDX 29 58 37 59 30 60 31 61 35 62 38 63 32 64 33 65 36 66 34 67
REMARK SMILES IDX 60 68 61 69 69 70 62 71 63 72 67 73 70 74 64 75 65 76 68 77
REMARK SMILES IDX 66 78 45 79 46 80 54 81 47 82 48 83 52 84 55 85 49 86 50 87
REMARK SMILES IDX 53 88 51 89
REMARK H PARENT 12 6 16 23 75 42 43 53
REMARK Flexibility Score: inf
ROOT
ATOM      1  C   UNL A   1      38.640  21.288  25.662  1.00  0.00     0.042 C 
ENDROOT
BRANCH   1   2
ATOM      2  C   UNL A   1      37.231  21.178  25.067  1.00  0.00     0.118 C 
BRANCH   2   3
ATOM      3  N   UNL A   1      36.190  21.216  26.090  1.00  0.00    -0.352 N 
ATOM      4  C   UNL A   1      34.945  21.804  26.142  1.00  0.00     0.251 C 
ATOM      5  O   UNL A   1      34.242  21.543  27.120  1.00  0.00    -0.269 OA
ATOM      6  H   UNL A   1      36.425  20.720  26.908  1.00  0.00     0.163 HD
BRANCH   4   7
ATOM      7  C   UNL A   1      34.397  22.716  25.098  1.00  0.00     0.043 A 
ATOM      8  C   UNL A   1      33.783  24.882  24.231  1.00  0.00     0.071 A 
ATOM      9  C   UNL A   1      34.286  24.086  25.254  1.00  0.00     0.042 A 
ATOM     10  N   UNL A   1      33.317  24.364  23.078  1.00  0.00    -0.256 NA
ATOM     11  C   UNL A   1      33.394  23.019  22.944  1.00  0.00     0.112 A 
ATOM     12  C   UNL A   1      33.924  22.168  23.904  1.00  0.00     0.034 A 
BRANCH   8  13
ATOM     13  C   UNL A   1      33.802  26.338  24.403  1.00  0.00     0.000 A 
ATOM     14  C   UNL A   1      33.705  28.797  27.333  1.00  0.00     0.044 C 
ATOM     15  C   UNL A   1      33.690  28.250  25.937  1.00  0.00    -0.050 A 
ATOM     16  C   UNL A   1      33.512  29.100  24.841  1.00  0.00     0.003 A 
ATOM     17  C   UNL A   1      33.843  26.880  25.705  1.00  0.00     0.013 A 
ATOM     18  C   UNL A   1      33.495  28.585  23.542  1.00  0.00     0.001 A 
ATOM     19  C   UNL A   1      33.642  27.212  23.324  1.00  0.00     0.010 A 
ENDBRANCH   8  13
ENDBRANCH   4   7
ENDBRANCH   2   3
ENDBRANCH   1   2
BRANCH   1  20
ATOM     20  C   UNL A   1      39.013  22.683  26.131  1.00  0.00     0.118 C 
BRANCH  20  21
ATOM     21  N   UNL A   1      40.437  22.854  26.410  1.00  0.00    -0.352 N 
ATOM     22  C   UNL A   1      41.093  24.016  26.801  1.00  0.00     0.251 C 
ATOM     23  H   UNL A   1      40.999  22.052  26.307  1.00  0.00     0.163 HD
ATOM     24  O   UNL A   1      42.282  24.041  27.020  1.00  0.00    -0.269 OA
BRANCH  22  25
ATOM     25  C   UNL A   1      40.245  25.205  27.045  1.00  0.00     0.039 A 
ATOM     26  C   UNL A   1      40.605  26.393  26.405  1.00  0.00     0.014 A 
ATOM     27  C   UNL A   1      39.362  25.196  28.123  1.00  0.00     0.014 A 
ATOM     28  C   UNL A   1      40.277  27.600  27.011  1.00  0.00     0.010 A 
ATOM     29  C   UNL A   1      39.113  26.391  28.771  1.00  0.00     0.010 A 
ATOM     30  C   UNL A   1      39.640  27.582  28.254  1.00  0.00    -0.014 A 
BRANCH  30  31
ATOM     31  C   UNL A   1      39.623  28.747  29.132  1.00  0.00     0.031 A 
ATOM     32  C   UNL A   1      38.641  29.825  28.924  1.00  0.00     0.074 A 
ATOM     33  C   UNL A   1      40.506  28.828  30.153  1.00  0.00     0.049 A 
ATOM     34  N   UNL A   1      38.832  31.059  29.254  1.00  0.00    -0.248 NA
ATOM     35  C   UNL A   1      37.367  29.594  28.264  1.00  0.00     0.031 C 
ATOM     36  C   UNL A   1      40.514  29.804  31.240  1.00  0.00     0.029 A 
ATOM     37  N   UNL A   1      41.729  28.146  30.286  1.00  0.00    -0.354 N 
ATOM     38  C   UNL A   1      37.629  31.717  29.122  1.00  0.00     0.074 A 
ATOM     39  C   UNL A   1      36.781  30.785  28.414  1.00  0.00     0.031 C 
ATOM     40  C   UNL A   1      41.762  29.898  31.723  1.00  0.00     0.029 A 
ATOM     41  C   UNL A   1      42.612  29.079  30.878  1.00  0.00     0.049 A 
ATOM     42  H   UNL A   1      41.928  27.218  30.023  1.00  0.00     0.167 HD
ATOM     43  C   UNL A   1      37.453  32.911  29.764  1.00  0.00     0.037 A 
ATOM     44  C   UNL A   1      43.734  29.514  30.237  1.00  0.00     0.037 A 
ATOM     45  C   UNL A   1      38.699  33.363  30.390  1.00  0.00     0.049 A 
ATOM     46  C   UNL A   1      43.796  31.011  30.060  1.00  0.00     0.074 A 
ATOM     47  C   UNL A   1      39.158  33.327  31.698  1.00  0.00     0.029 A 
ATOM     48  N   UNL A   1      39.802  33.679  29.599  1.00  0.00    -0.354 N 
ATOM     49  N   UNL A   1      42.753  31.792  30.105  1.00  0.00    -0.248 NA
ATOM     50  C   UNL A   1      45.030  31.737  29.776  1.00  0.00     0.031 C 
ATOM     51  C   UNL A   1      40.549  33.588  31.687  1.00  0.00     0.029 A 
ATOM     52  C   UNL A   1      40.939  33.792  30.376  1.00  0.00     0.049 A 
ATOM     53  H   UNL A   1      39.774  33.804  28.623  1.00  0.00     0.167 HD
ATOM     54  C   UNL A   1      43.141  33.082  29.846  1.00  0.00     0.074 A 
ATOM     55  C   UNL A   1      44.577  32.997  29.668  1.00  0.00     0.031 C 
ATOM     56  C   UNL A   1      42.235  34.104  29.789  1.00  0.00     0.037 A 
BRANCH  43  57
ATOM     57  C   UNL A   1      36.089  33.492  30.116  1.00  0.00     0.064 A 
ATOM     58  C   UNL A   1      35.268  34.071  29.120  1.00  0.00     0.173 A 
ATOM     59  C   UNL A   1      35.567  33.598  31.419  1.00  0.00     0.173 A 
ATOM     60  F   UNL A   1      35.534  33.921  27.817  1.00  0.00    -0.203 F 
ATOM     61  C   UNL A   1      34.129  34.825  29.421  1.00  0.00     0.198 A 
ATOM     62  C   UNL A   1      34.459  34.395  31.729  1.00  0.00     0.198 A 
ATOM     63  F   UNL A   1      36.059  32.876  32.429  1.00  0.00    -0.203 F 
ATOM     64  F   UNL A   1      33.410  35.368  28.430  1.00  0.00    -0.200 F 
ATOM     65  C   UNL A   1      33.751  35.028  30.731  1.00  0.00     0.200 A 
ATOM     66  F   UNL A   1      34.083  34.539  33.008  1.00  0.00    -0.200 F 
ATOM     67  F   UNL A   1      32.692  35.792  31.026  1.00  0.00    -0.200 F 
ENDBRANCH  43  57
BRANCH  44  68
ATOM     68  C   UNL A   1      44.308  28.526  29.289  1.00  0.00     0.064 A 
ATOM     69  C   UNL A   1      43.995  28.647  27.921  1.00  0.00     0.173 A 
ATOM     70  C   UNL A   1      45.391  27.711  29.635  1.00  0.00     0.173 A 
ATOM     71  F   UNL A   1      42.969  29.423  27.534  1.00  0.00    -0.203 F 
ATOM     72  C   UNL A   1      44.796  28.070  26.939  1.00  0.00     0.198 A 
ATOM     73  C   UNL A   1      46.183  27.121  28.647  1.00  0.00     0.198 A 
ATOM     74  F   UNL A   1      45.755  27.575  30.917  1.00  0.00    -0.203 F 
ATOM     75  F   UNL A   1      44.537  28.301  25.644  1.00  0.00    -0.200 F 
ATOM     76  C   UNL A   1      45.905  27.326  27.304  1.00  0.00     0.200 A 
ATOM     77  F   UNL A   1      47.277  26.428  28.997  1.00  0.00    -0.200 F 
ATOM     78  F   UNL A   1      46.728  26.845  26.362  1.00  0.00    -0.200 F 
ENDBRANCH  44  68
BRANCH  56  79
ATOM     79  C   UNL A   1      42.502  35.510  29.299  1.00  0.00     0.064 A 
ATOM     80  C   UNL A   1      41.890  36.085  28.173  1.00  0.00     0.173 A 
ATOM     81  C   UNL A   1      43.316  36.389  30.057  1.00  0.00     0.173 A 
ATOM     82  F   UNL A   1      40.990  35.410  27.446  1.00  0.00    -0.203 F 
ATOM     83  C   UNL A   1      42.134  37.407  27.787  1.00  0.00     0.198 A 
ATOM     84  C   UNL A   1      43.511  37.725  29.702  1.00  0.00     0.198 A 
ATOM     85  F   UNL A   1      43.927  35.988  31.181  1.00  0.00    -0.203 F 
ATOM     86  F   UNL A   1      41.563  37.890  26.675  1.00  0.00    -0.200 F 
ATOM     87  C   UNL A   1      42.937  38.228  28.555  1.00  0.00     0.200 A 
ATOM     88  F   UNL A   1      44.246  38.523  30.491  1.00  0.00    -0.200 F 
ATOM     89  F   UNL A   1      43.133  39.507  28.206  1.00  0.00    -0.200 F 
ENDBRANCH  56  79
ENDBRANCH  30  31
ENDBRANCH  22  25
ENDBRANCH  20  21
ENDBRANCH   1  20
TORSDOF 11
ENDMDL
MODEL 3
REMARK VINA RESULT:     -13.6      1.928      3.524
REMARK SMILES Cc1cccc(-c2cc(C(=O)NCCCNC(=O)c3ccc(-c4c5nc(c(-c6c(F)c(F)c(F)c(F)c6F)c6ccc([nH]6)c(-c6c(F)c(F)c(F)c(F)c6F)c6nc(c(-c7c(F)c(F)c(F)c(F)c7F)c7ccc4[nH]7)C=C6)C=C5)cc3)ccn2)c1
REMARK SMILES IDX 14 1 13 2 12 3 10 4 11 5 9 7 7 8 8 9 84 10 83 11 82 12 6 13
REMARK SMILES IDX 1 14 2 15 3 16 85 17 4 18 5 19 15 20 16 21 17 22 18 24 19 25
REMARK SMILES IDX 20 26 81 27 21 28 80 29 22 30 23 31 24 32 74 33 25 34 79 35
REMARK SMILES IDX 73 36 75 37 26 38 78 39 72 40 71 41 27 43 59 44 39 45 58 46
REMARK SMILES IDX 40 47 43 48 57 49 76 50 41 51 42 52 56 54 77 55 44 56 28 57
REMARK SMILES IDX 29 58 37 59 30 60 31 61 35 62 38 63 32 64 33 65 36 66 34 67
REMARK SMILES IDX 60 68 61 69 69 70 62 71 63 72 67 73 70 74 64 75 65 76 68 77
REMARK SMILES IDX 66 78 45 79 46 80 54 81 47 82 48 83 52 84 55 85 49 86 50 87
REMARK SMILES IDX 53 88 51 89
REMARK H PARENT 12 6 16 23 75 42 43 53
REMARK Flexibility Score: inf
ROOT
ATOM      1  C   UNL A   1      32.419  30.051  27.187  1.00  0.00     0.042 C 
ENDROOT
BRANCH   1   2
ATOM      2  C   UNL A   1      31.991  28.585  27.320  1.00  0.00     0.118 C 
BRANCH   2   3
ATOM      3  N   UNL A   1      32.661  27.720  26.352  1.00  0.00    -0.352 N 
ATOM      4  C   UNL A   1      32.306  27.256  25.104  1.00  0.00     0.251 C 
ATOM      5  O   UNL A   1      33.160  26.629  24.475  1.00  0.00    -0.269 OA
ATOM      6  H   UNL A   1      33.544  27.405  26.651  1.00  0.00     0.163 HD
BRANCH   4   7
ATOM      7  C   UNL A   1      30.974  27.472  24.469  1.00  0.00     0.043 A 
ATOM      8  C   UNL A   1      29.331  28.794  23.297  1.00  0.00     0.071 A 
ATOM      9  C   UNL A   1      30.582  28.665  23.890  1.00  0.00     0.042 A 
ATOM     10  N   UNL A   1      28.420  27.802  23.316  1.00  0.00    -0.256 NA
ATOM     11  C   UNL A   1      28.795  26.647  23.915  1.00  0.00     0.112 A 
ATOM     12  C   UNL A   1      30.041  26.434  24.489  1.00  0.00     0.034 A 
BRANCH   8  13
ATOM     13  C   UNL A   1      29.015  30.040  22.591  1.00  0.00     0.000 A 
ATOM     14  C   UNL A   1      29.140  33.785  23.363  1.00  0.00     0.044 C 
ATOM     15  C   UNL A   1      28.859  32.487  22.666  1.00  0.00    -0.050 A 
ATOM     16  C   UNL A   1      28.149  32.464  21.462  1.00  0.00     0.003 A 
ATOM     17  C   UNL A   1      29.293  31.275  23.212  1.00  0.00     0.013 A 
ATOM     18  C   UNL A   1      27.887  31.252  20.819  1.00  0.00     0.001 A 
ATOM     19  C   UNL A   1      28.320  30.046  21.378  1.00  0.00     0.010 A 
ENDBRANCH   8  13
ENDBRANCH   4   7
ENDBRANCH   2   3
ENDBRANCH   1   2
BRANCH   1  20
ATOM     20  C   UNL A   1      33.919  30.275  27.266  1.00  0.00     0.118 C 
BRANCH  20  21
ATOM     21  N   UNL A   1      34.326  31.207  28.314  1.00  0.00    -0.352 N 
ATOM     22  C   UNL A   1      35.464  31.145  29.112  1.00  0.00     0.251 C 
ATOM     23  H   UNL A   1      33.724  31.969  28.476  1.00  0.00     0.163 HD
ATOM     24  O   UNL A   1      35.712  31.985  29.945  1.00  0.00    -0.269 OA
BRANCH  22  25
ATOM     25  C   UNL A   1      36.421  30.055  28.816  1.00  0.00     0.039 A 
ATOM     26  C   UNL A   1      36.768  29.203  29.866  1.00  0.00     0.014 A 
ATOM     27  C   UNL A   1      37.178  30.118  27.648  1.00  0.00     0.014 A 
ATOM     28  C   UNL A   1      38.021  28.601  29.848  1.00  0.00     0.010 A 
ATOM     29  C   UNL A   1      38.456  29.592  27.671  1.00  0.00     0.010 A 
ATOM     30  C   UNL A   1      38.901  28.902  28.806  1.00  0.00    -0.014 A 
BRANCH  30  31
ATOM     31  C   UNL A   1      40.334  28.654  28.908  1.00  0.00     0.031 A 
ATOM     32  C   UNL A   1      40.912  27.395  28.404  1.00  0.00     0.074 A 
ATOM     33  C   UNL A   1      41.139  29.593  29.453  1.00  0.00     0.049 A 
ATOM     34  N   UNL A   1      41.987  26.849  28.868  1.00  0.00    -0.248 NA
ATOM     35  C   UNL A   1      40.275  26.616  27.356  1.00  0.00     0.031 C 
ATOM     36  C   UNL A   1      42.600  29.610  29.462  1.00  0.00     0.029 A 
ATOM     37  N   UNL A   1      40.772  30.639  30.319  1.00  0.00    -0.354 N 
ATOM     38  C   UNL A   1      42.339  25.828  28.013  1.00  0.00     0.074 A 
ATOM     39  C   UNL A   1      41.192  25.667  27.150  1.00  0.00     0.031 C 
ATOM     40  C   UNL A   1      43.014  30.362  30.493  1.00  0.00     0.029 A 
ATOM     41  C   UNL A   1      41.834  30.744  31.246  1.00  0.00     0.049 A 
ATOM     42  H   UNL A   1      39.951  31.182  30.286  1.00  0.00     0.167 HD
ATOM     43  C   UNL A   1      43.619  25.349  28.044  1.00  0.00     0.037 A 
ATOM     44  C   UNL A   1      41.650  30.523  32.580  1.00  0.00     0.037 A 
ATOM     45  C   UNL A   1      44.380  25.948  29.145  1.00  0.00     0.049 A 
ATOM     46  C   UNL A   1      42.528  29.436  33.148  1.00  0.00     0.074 A 
ATOM     47  C   UNL A   1      45.320  26.966  29.189  1.00  0.00     0.029 A 
ATOM     48  N   UNL A   1      44.004  25.707  30.465  1.00  0.00    -0.354 N 
ATOM     49  N   UNL A   1      43.092  28.507  32.427  1.00  0.00    -0.248 NA
ATOM     50  C   UNL A   1      42.802  29.287  34.573  1.00  0.00     0.031 C 
ATOM     51  C   UNL A   1      45.482  27.362  30.539  1.00  0.00     0.029 A 
ATOM     52  C   UNL A   1      44.649  26.580  31.320  1.00  0.00     0.049 A 
ATOM     53  H   UNL A   1      43.368  25.011  30.748  1.00  0.00     0.167 HD
ATOM     54  C   UNL A   1      43.769  27.643  33.250  1.00  0.00     0.074 A 
ATOM     55  C   UNL A   1      43.574  28.188  34.580  1.00  0.00     0.031 C 
ATOM     56  C   UNL A   1      44.421  26.547  32.757  1.00  0.00     0.037 A 
BRANCH  43  57
ATOM     57  C   UNL A   1      44.277  24.611  26.885  1.00  0.00     0.064 A 
ATOM     58  C   UNL A   1      44.011  23.241  26.654  1.00  0.00     0.173 A 
ATOM     59  C   UNL A   1      45.245  25.158  26.023  1.00  0.00     0.173 A 
ATOM     60  F   UNL A   1      43.009  22.605  27.275  1.00  0.00    -0.203 F 
ATOM     61  C   UNL A   1      44.761  22.463  25.766  1.00  0.00     0.198 A 
ATOM     62  C   UNL A   1      46.032  24.374  25.172  1.00  0.00     0.198 A 
ATOM     63  F   UNL A   1      45.414  26.479  25.912  1.00  0.00    -0.203 F 
ATOM     64  F   UNL A   1      44.473  21.163  25.613  1.00  0.00    -0.200 F 
ATOM     65  C   UNL A   1      45.805  23.020  25.059  1.00  0.00     0.200 A 
ATOM     66  F   UNL A   1      47.013  24.948  24.460  1.00  0.00    -0.200 F 
ATOM     67  F   UNL A   1      46.559  22.267  24.247  1.00  0.00    -0.200 F 
ENDBRANCH  43  57
BRANCH  44  68
ATOM     68  C   UNL A   1      40.280  30.841  33.058  1.00  0.00     0.064 A 
ATOM     69  C   UNL A   1      39.889  32.192  33.126  1.00  0.00     0.173 A 
ATOM     70  C   UNL A   1      39.272  29.873  33.113  1.00  0.00     0.173 A 
ATOM     71  F   UNL A   1      40.816  33.162  33.069  1.00  0.00    -0.203 F 
ATOM     72  C   UNL A   1      38.547  32.560  33.136  1.00  0.00     0.198 A 
ATOM     73  C   UNL A   1      37.926  30.245  33.139  1.00  0.00     0.198 A 
ATOM     74  F   UNL A   1      39.576  28.571  33.028  1.00  0.00    -0.203 F 
ATOM     75  F   UNL A   1      38.207  33.856  33.083  1.00  0.00    -0.200 F 
ATOM     76  C   UNL A   1      37.565  31.584  33.118  1.00  0.00     0.200 A 
ATOM     77  F   UNL A   1      36.974  29.303  33.089  1.00  0.00    -0.200 F 
ATOM     78  F   UNL A   1      36.274  31.934  33.038  1.00  0.00    -0.200 F 
ENDBRANCH  44  68
BRANCH  56  79
ATOM     79  C   UNL A   1      45.006  25.414  33.571  1.00  0.00     0.064 A 
ATOM     80  C   UNL A   1      44.241  24.471  34.276  1.00  0.00     0.173 A 
ATOM     81  C   UNL A   1      46.401  25.166  33.552  1.00  0.00     0.173 A 
ATOM     82  F   UNL A   1      42.902  24.504  34.262  1.00  0.00    -0.203 F 
ATOM     83  C   UNL A   1      44.828  23.411  34.976  1.00  0.00     0.198 A 
ATOM     84  C   UNL A   1      46.978  24.075  34.203  1.00  0.00     0.198 A 
ATOM     85  F   UNL A   1      47.247  25.961  32.881  1.00  0.00    -0.203 F 
ATOM     86  F   UNL A   1      44.054  22.568  35.674  1.00  0.00    -0.200 F 
ATOM     87  C   UNL A   1      46.193  23.208  34.932  1.00  0.00     0.200 A 
ATOM     88  F   UNL A   1      48.298  23.860  34.100  1.00  0.00    -0.200 F 
ATOM     89  F   UNL A   1      46.747  22.167  35.568  1.00  0.00    -0.200 F 
ENDBRANCH  56  79
ENDBRANCH  30  31
ENDBRANCH  22  25
ENDBRANCH  20  21
ENDBRANCH   1  20
TORSDOF 11
ENDMDL
