MODEL 1
REMARK VINA RESULT:     -11.8      0.000      0.000
REMARK SMILES COc1ccccc1S(=O)(=O)[C@@H](C)[C@H](C)C(=O)NCCCNC(=O)c1ccc(-c2c3nc(c(-c4c(F)c(F)c(F)c(F)c4F)c4ccc([nH]4)c(-c4c(F)c(F)c(F)c(F)c4F)c4nc(c(-c5c(F)c(F)c(F)c(F)c5F)c5ccc2[nH]5)C=C4)C=C3)cc1
REMARK SMILES IDX 19 1 18 2 16 3 17 4 14 6 15 7 12 8 13 9 9 10 10 11 11 12
REMARK SMILES IDX 8 13 3 14 4 15 5 16 7 17 6 18 2 19 1 20 20 21 21 22 22 23
REMARK SMILES IDX 23 24 24 26 25 27 26 28 87 29 27 30 86 31 28 32 29 33 30 34
REMARK SMILES IDX 80 35 31 36 85 37 79 38 81 39 32 40 84 41 78 42 77 43 33 45
REMARK SMILES IDX 65 46 45 47 64 48 46 49 49 50 63 51 82 52 47 53 48 54 62 56
REMARK SMILES IDX 83 57 50 58 34 59 35 60 43 61 36 62 37 63 41 64 44 65 38 66
REMARK SMILES IDX 39 67 42 68 40 69 66 70 67 71 75 72 68 73 69 74 73 75 76 76
REMARK SMILES IDX 70 77 71 78 74 79 72 80 51 81 52 82 60 83 53 84 54 85 58 86
REMARK SMILES IDX 61 87 55 88 56 89 59 90 57 91
REMARK H PARENT 18 5 22 25 81 44 49 55
REMARK Flexibility Score: inf
ROOT
ATOM      1  C   UNL A   1      31.557  30.130  25.979  1.00  0.00     0.117 C 
ENDROOT
BRANCH   1   2
ATOM      2  N   UNL A   1      31.981  29.913  24.616  1.00  0.00    -0.356 N 
ATOM      3  C   UNL A   1      31.472  29.048  23.689  1.00  0.00     0.224 C 
ATOM      4  O   UNL A   1      31.765  29.256  22.510  1.00  0.00    -0.275 OA
ATOM      5  H   UNL A   1      32.739  30.464  24.312  1.00  0.00     0.163 HD
BRANCH   3   6
ATOM      6  C   UNL A   1      30.603  27.838  24.071  1.00  0.00     0.093 C 
ATOM      7  C   UNL A   1      29.313  27.846  23.260  1.00  0.00     0.019 C 
BRANCH   6   8
ATOM      8  C   UNL A   1      31.368  26.514  24.348  1.00  0.00     0.122 C 
ATOM      9  C   UNL A   1      30.821  25.173  23.852  1.00  0.00     0.026 C 
BRANCH   8  10
ATOM     10  S   UNL A   1      32.327  26.360  25.845  1.00  0.00     0.185 S 
ATOM     11  O   UNL A   1      31.389  26.627  26.925  1.00  0.00    -0.223 OA
ATOM     12  O   UNL A   1      33.495  27.214  25.702  1.00  0.00    -0.223 OA
BRANCH  10  13
ATOM     13  C   UNL A   1      33.008  24.763  26.228  1.00  0.00     0.109 A 
ATOM     14  C   UNL A   1      32.352  23.747  26.909  1.00  0.00     0.137 A 
ATOM     15  C   UNL A   1      33.040  22.575  27.263  1.00  0.00     0.048 A 
ATOM     16  C   UNL A   1      34.343  22.360  26.817  1.00  0.00     0.004 A 
ATOM     17  C   UNL A   1      34.308  24.519  25.747  1.00  0.00     0.024 A 
ATOM     18  C   UNL A   1      34.963  23.318  26.024  1.00  0.00     0.002 A 
BRANCH  14  19
ATOM     19  O   UNL A   1      31.044  23.874  27.251  1.00  0.00    -0.495 OA
ATOM     20  C   UNL A   1      30.250  22.840  26.662  1.00  0.00     0.278 C 
ENDBRANCH  14  19
ENDBRANCH  10  13
ENDBRANCH   8  10
ENDBRANCH   6   8
ENDBRANCH   3   6
ENDBRANCH   1   2
BRANCH   1  21
ATOM     21  C   UNL A   1      31.357  31.579  26.375  1.00  0.00     0.042 C 
BRANCH  21  22
ATOM     22  C   UNL A   1      32.609  32.247  26.926  1.00  0.00     0.118 C 
BRANCH  22  23
ATOM     23  N   UNL A   1      32.399  33.642  27.306  1.00  0.00    -0.352 N 
ATOM     24  C   UNL A   1      32.998  34.437  28.253  1.00  0.00     0.251 C 
ATOM     25  H   UNL A   1      31.698  34.098  26.785  1.00  0.00     0.163 HD
ATOM     26  O   UNL A   1      32.530  35.553  28.475  1.00  0.00    -0.269 OA
BRANCH  24  27
ATOM     27  C   UNL A   1      34.167  33.972  29.033  1.00  0.00     0.039 A 
ATOM     28  C   UNL A   1      33.962  33.088  30.099  1.00  0.00     0.014 A 
ATOM     29  C   UNL A   1      35.458  34.414  28.751  1.00  0.00     0.014 A 
ATOM     30  C   UNL A   1      35.053  32.584  30.813  1.00  0.00     0.010 A 
ATOM     31  C   UNL A   1      36.550  33.828  29.384  1.00  0.00     0.010 A 
ATOM     32  C   UNL A   1      36.363  32.910  30.426  1.00  0.00    -0.014 A 
BRANCH  32  33
ATOM     33  C   UNL A   1      37.552  32.316  31.095  1.00  0.00     0.031 A 
ATOM     34  C   UNL A   1      38.316  31.203  30.428  1.00  0.00     0.074 A 
ATOM     35  C   UNL A   1      37.887  32.708  32.341  1.00  0.00     0.049 A 
ATOM     36  N   UNL A   1      39.286  30.461  30.900  1.00  0.00    -0.248 NA
ATOM     37  C   UNL A   1      37.906  30.848  29.059  1.00  0.00     0.031 C 
ATOM     38  C   UNL A   1      37.194  33.732  33.123  1.00  0.00     0.029 A 
ATOM     39  N   UNL A   1      38.888  32.277  33.176  1.00  0.00    -0.354 N 
ATOM     40  C   UNL A   1      39.574  29.535  29.905  1.00  0.00     0.074 A 
ATOM     41  C   UNL A   1      38.641  29.772  28.826  1.00  0.00     0.031 C 
ATOM     42  C   UNL A   1      37.804  33.869  34.311  1.00  0.00     0.029 A 
ATOM     43  C   UNL A   1      38.903  32.913  34.394  1.00  0.00     0.049 A 
ATOM     44  H   UNL A   1      39.535  31.577  32.927  1.00  0.00     0.167 HD
ATOM     45  C   UNL A   1      40.544  28.591  29.883  1.00  0.00     0.037 A 
ATOM     46  C   UNL A   1      39.708  32.739  35.460  1.00  0.00     0.037 A 
ATOM     47  C   UNL A   1      41.507  28.395  30.934  1.00  0.00     0.049 A 
ATOM     48  C   UNL A   1      40.800  31.707  35.395  1.00  0.00     0.074 A 
ATOM     49  C   UNL A   1      42.577  27.519  30.973  1.00  0.00     0.029 A 
ATOM     50  N   UNL A   1      41.520  29.096  32.130  1.00  0.00    -0.354 N 
ATOM     51  N   UNL A   1      41.101  30.881  34.422  1.00  0.00    -0.248 NA
ATOM     52  C   UNL A   1      41.669  31.587  36.574  1.00  0.00     0.031 C 
ATOM     53  C   UNL A   1      43.217  27.664  32.208  1.00  0.00     0.029 A 
ATOM     54  C   UNL A   1      42.572  28.662  32.920  1.00  0.00     0.049 A 
ATOM     55  H   UNL A   1      40.876  29.798  32.382  1.00  0.00     0.167 HD
ATOM     56  C   UNL A   1      42.209  30.166  34.858  1.00  0.00     0.074 A 
ATOM     57  C   UNL A   1      42.536  30.666  36.178  1.00  0.00     0.031 C 
ATOM     58  C   UNL A   1      42.893  29.183  34.224  1.00  0.00     0.037 A 
BRANCH  45  59
ATOM     59  C   UNL A   1      40.625  27.704  28.673  1.00  0.00     0.064 A 
ATOM     60  C   UNL A   1      41.410  28.044  27.561  1.00  0.00     0.173 A 
ATOM     61  C   UNL A   1      39.938  26.480  28.640  1.00  0.00     0.173 A 
ATOM     62  F   UNL A   1      42.077  29.208  27.537  1.00  0.00    -0.203 F 
ATOM     63  C   UNL A   1      41.479  27.209  26.448  1.00  0.00     0.198 A 
ATOM     64  C   UNL A   1      40.036  25.632  27.539  1.00  0.00     0.198 A 
ATOM     65  F   UNL A   1      39.178  26.103  29.679  1.00  0.00    -0.203 F 
ATOM     66  F   UNL A   1      42.194  27.582  25.378  1.00  0.00    -0.200 F 
ATOM     67  C   UNL A   1      40.799  26.001  26.442  1.00  0.00     0.200 A 
ATOM     68  F   UNL A   1      39.387  24.459  27.539  1.00  0.00    -0.200 F 
ATOM     69  F   UNL A   1      40.873  25.195  25.374  1.00  0.00    -0.200 F 
ENDBRANCH  45  59
BRANCH  46  70
ATOM     70  C   UNL A   1      39.531  33.583  36.672  1.00  0.00     0.064 A 
ATOM     71  C   UNL A   1      38.731  33.146  37.737  1.00  0.00     0.173 A 
ATOM     72  C   UNL A   1      40.147  34.837  36.790  1.00  0.00     0.173 A 
ATOM     73  F   UNL A   1      38.107  31.961  37.663  1.00  0.00    -0.203 F 
ATOM     74  C   UNL A   1      38.533  33.942  38.863  1.00  0.00     0.198 A 
ATOM     75  C   UNL A   1      39.972  35.619  37.929  1.00  0.00     0.198 A 
ATOM     76  F   UNL A   1      40.929  35.297  35.803  1.00  0.00    -0.203 F 
ATOM     77  F   UNL A   1      37.725  33.521  39.846  1.00  0.00    -0.200 F 
ATOM     78  C   UNL A   1      39.158  35.177  38.960  1.00  0.00     0.200 A 
ATOM     79  F   UNL A   1      40.590  36.805  38.026  1.00  0.00    -0.200 F 
ATOM     80  F   UNL A   1      38.970  35.940  40.045  1.00  0.00    -0.200 F 
ENDBRANCH  46  70
BRANCH  58  81
ATOM     81  C   UNL A   1      44.088  28.611  34.927  1.00  0.00     0.064 A 
ATOM     82  C   UNL A   1      43.985  27.484  35.755  1.00  0.00     0.173 A 
ATOM     83  C   UNL A   1      45.359  29.172  34.733  1.00  0.00     0.173 A 
ATOM     84  F   UNL A   1      42.788  26.921  35.983  1.00  0.00    -0.203 F 
ATOM     85  C   UNL A   1      45.109  26.953  36.381  1.00  0.00     0.198 A 
ATOM     86  C   UNL A   1      46.485  28.622  35.340  1.00  0.00     0.198 A 
ATOM     87  F   UNL A   1      45.510  30.248  33.947  1.00  0.00    -0.203 F 
ATOM     88  F   UNL A   1      44.980  25.902  37.204  1.00  0.00    -0.200 F 
ATOM     89  C   UNL A   1      46.357  27.517  36.167  1.00  0.00     0.200 A 
ATOM     90  F   UNL A   1      47.692  29.160  35.120  1.00  0.00    -0.200 F 
ATOM     91  F   UNL A   1      47.439  26.999  36.766  1.00  0.00    -0.200 F 
ENDBRANCH  58  81
ENDBRANCH  32  33
ENDBRANCH  24  27
ENDBRANCH  22  23
ENDBRANCH  21  22
ENDBRANCH   1  21
TORSDOF 14
ENDMDL
MODEL 2
REMARK VINA RESULT:     -11.8      1.317      2.239
REMARK SMILES COc1ccccc1S(=O)(=O)[C@@H](C)[C@H](C)C(=O)NCCCNC(=O)c1ccc(-c2c3nc(c(-c4c(F)c(F)c(F)c(F)c4F)c4ccc([nH]4)c(-c4c(F)c(F)c(F)c(F)c4F)c4nc(c(-c5c(F)c(F)c(F)c(F)c5F)c5ccc2[nH]5)C=C4)C=C3)cc1
REMARK SMILES IDX 19 1 18 2 16 3 17 4 14 6 15 7 12 8 13 9 9 10 10 11 11 12
REMARK SMILES IDX 8 13 3 14 4 15 5 16 7 17 6 18 2 19 1 20 20 21 21 22 22 23
REMARK SMILES IDX 23 24 24 26 25 27 26 28 87 29 27 30 86 31 28 32 29 33 30 34
REMARK SMILES IDX 80 35 31 36 85 37 79 38 81 39 32 40 84 41 78 42 77 43 33 45
REMARK SMILES IDX 65 46 45 47 64 48 46 49 49 50 63 51 82 52 47 53 48 54 62 56
REMARK SMILES IDX 83 57 50 58 34 59 35 60 43 61 36 62 37 63 41 64 44 65 38 66
REMARK SMILES IDX 39 67 42 68 40 69 66 70 67 71 75 72 68 73 69 74 73 75 76 76
REMARK SMILES IDX 70 77 71 78 74 79 72 80 51 81 52 82 60 83 53 84 54 85 58 86
REMARK SMILES IDX 61 87 55 88 56 89 59 90 57 91
REMARK H PARENT 18 5 22 25 81 44 49 55
REMARK Flexibility Score: inf
ROOT
ATOM      1  C   UNL A   1      31.596  30.723  26.125  1.00  0.00     0.117 C 
ENDROOT
BRANCH   1   2
ATOM      2  N   UNL A   1      31.021  30.341  24.856  1.00  0.00    -0.356 N 
ATOM      3  C   UNL A   1      31.018  29.116  24.254  1.00  0.00     0.224 C 
ATOM      4  O   UNL A   1      30.202  28.941  23.346  1.00  0.00    -0.275 OA
ATOM      5  H   UNL A   1      30.569  31.061  24.359  1.00  0.00     0.163 HD
BRANCH   3   6
ATOM      6  C   UNL A   1      32.000  27.997  24.640  1.00  0.00     0.093 C 
ATOM      7  C   UNL A   1      31.280  26.930  25.456  1.00  0.00     0.019 C 
BRANCH   6   8
ATOM      8  C   UNL A   1      33.046  27.610  23.559  1.00  0.00     0.122 C 
ATOM      9  C   UNL A   1      33.616  28.662  22.604  1.00  0.00     0.026 C 
BRANCH   8  10
ATOM     10  S   UNL A   1      32.987  25.979  22.836  1.00  0.00     0.185 S 
ATOM     11  O   UNL A   1      33.735  26.089  21.592  1.00  0.00    -0.223 OA
ATOM     12  O   UNL A   1      31.591  25.576  22.784  1.00  0.00    -0.223 OA
BRANCH  10  13
ATOM     13  C   UNL A   1      33.782  24.655  23.719  1.00  0.00     0.109 A 
ATOM     14  C   UNL A   1      33.728  23.311  23.380  1.00  0.00     0.137 A 
ATOM     15  C   UNL A   1      34.293  22.345  24.228  1.00  0.00     0.048 A 
ATOM     16  C   UNL A   1      35.030  22.732  25.346  1.00  0.00     0.004 A 
ATOM     17  C   UNL A   1      34.563  25.039  24.825  1.00  0.00     0.024 A 
ATOM     18  C   UNL A   1      35.198  24.084  25.622  1.00  0.00     0.002 A 
BRANCH  14  19
ATOM     19  O   UNL A   1      33.123  22.909  22.233  1.00  0.00    -0.495 OA
ATOM     20  C   UNL A   1      32.194  21.849  22.478  1.00  0.00     0.278 C 
ENDBRANCH  14  19
ENDBRANCH  10  13
ENDBRANCH   8  10
ENDBRANCH   6   8
ENDBRANCH   3   6
ENDBRANCH   1   2
BRANCH   1  21
ATOM     21  C   UNL A   1      31.393  32.173  26.521  1.00  0.00     0.042 C 
BRANCH  21  22
ATOM     22  C   UNL A   1      32.612  32.811  27.171  1.00  0.00     0.118 C 
BRANCH  22  23
ATOM     23  N   UNL A   1      32.377  34.183  27.616  1.00  0.00    -0.352 N 
ATOM     24  C   UNL A   1      32.964  34.944  28.597  1.00  0.00     0.251 C 
ATOM     25  H   UNL A   1      31.664  34.648  27.121  1.00  0.00     0.163 HD
ATOM     26  O   UNL A   1      32.475  36.039  28.874  1.00  0.00    -0.269 OA
BRANCH  24  27
ATOM     27  C   UNL A   1      34.146  34.467  29.350  1.00  0.00     0.039 A 
ATOM     28  C   UNL A   1      33.954  33.837  30.586  1.00  0.00     0.014 A 
ATOM     29  C   UNL A   1      35.443  34.654  28.874  1.00  0.00     0.014 A 
ATOM     30  C   UNL A   1      35.047  33.321  31.288  1.00  0.00     0.010 A 
ATOM     31  C   UNL A   1      36.516  34.042  29.514  1.00  0.00     0.010 A 
ATOM     32  C   UNL A   1      36.334  33.372  30.731  1.00  0.00    -0.014 A 
BRANCH  32  33
ATOM     33  C   UNL A   1      37.507  32.746  31.400  1.00  0.00     0.031 A 
ATOM     34  C   UNL A   1      38.231  31.604  30.738  1.00  0.00     0.074 A 
ATOM     35  C   UNL A   1      37.860  33.137  32.640  1.00  0.00     0.049 A 
ATOM     36  N   UNL A   1      39.179  30.835  31.212  1.00  0.00    -0.248 NA
ATOM     37  C   UNL A   1      37.803  31.251  29.374  1.00  0.00     0.031 C 
ATOM     38  C   UNL A   1      37.205  34.190  33.418  1.00  0.00     0.029 A 
ATOM     39  N   UNL A   1      38.851  32.681  33.475  1.00  0.00    -0.354 N 
ATOM     40  C   UNL A   1      39.432  29.892  30.224  1.00  0.00     0.074 A 
ATOM     41  C   UNL A   1      38.502  30.150  29.146  1.00  0.00     0.031 C 
ATOM     42  C   UNL A   1      37.825  34.316  34.601  1.00  0.00     0.029 A 
ATOM     43  C   UNL A   1      38.893  33.326  34.687  1.00  0.00     0.049 A 
ATOM     44  H   UNL A   1      39.474  31.958  33.228  1.00  0.00     0.167 HD
ATOM     45  C   UNL A   1      40.371  28.916  30.204  1.00  0.00     0.037 A 
ATOM     46  C   UNL A   1      39.697  33.135  35.750  1.00  0.00     0.037 A 
ATOM     47  C   UNL A   1      41.333  28.699  31.252  1.00  0.00     0.049 A 
ATOM     48  C   UNL A   1      40.755  32.068  35.689  1.00  0.00     0.074 A 
ATOM     49  C   UNL A   1      42.374  27.788  31.293  1.00  0.00     0.029 A 
ATOM     50  N   UNL A   1      41.374  29.409  32.443  1.00  0.00    -0.354 N 
ATOM     51  N   UNL A   1      41.024  31.224  34.722  1.00  0.00    -0.248 NA
ATOM     52  C   UNL A   1      41.626  31.930  36.865  1.00  0.00     0.031 C 
ATOM     53  C   UNL A   1      43.024  27.923  32.524  1.00  0.00     0.029 A 
ATOM     54  C   UNL A   1      42.416  28.947  33.231  1.00  0.00     0.049 A 
ATOM     55  H   UNL A   1      40.754  30.133  32.692  1.00  0.00     0.167 HD
ATOM     56  C   UNL A   1      42.111  30.478  35.159  1.00  0.00     0.074 A 
ATOM     57  C   UNL A   1      42.460  30.977  36.472  1.00  0.00     0.031 C 
ATOM     58  C   UNL A   1      42.759  29.468  34.529  1.00  0.00     0.037 A 
BRANCH  45  59
ATOM     59  C   UNL A   1      40.417  28.018  29.001  1.00  0.00     0.064 A 
ATOM     60  C   UNL A   1      41.215  28.317  27.888  1.00  0.00     0.173 A 
ATOM     61  C   UNL A   1      39.682  26.822  28.978  1.00  0.00     0.173 A 
ATOM     62  F   UNL A   1      41.929  29.454  27.855  1.00  0.00    -0.203 F 
ATOM     63  C   UNL A   1      41.252  27.471  26.782  1.00  0.00     0.198 A 
ATOM     64  C   UNL A   1      39.747  25.962  27.884  1.00  0.00     0.198 A 
ATOM     65  F   UNL A   1      38.907  26.483  30.019  1.00  0.00    -0.203 F 
ATOM     66  F   UNL A   1      41.981  27.807  25.709  1.00  0.00    -0.200 F 
ATOM     67  C   UNL A   1      40.524  26.292  26.784  1.00  0.00     0.200 A 
ATOM     68  F   UNL A   1      39.052  24.816  27.893  1.00  0.00    -0.200 F 
ATOM     69  F   UNL A   1      40.567  25.475  25.722  1.00  0.00    -0.200 F 
ENDBRANCH  45  59
BRANCH  46  70
ATOM     70  C   UNL A   1      39.554  33.994  36.956  1.00  0.00     0.064 A 
ATOM     71  C   UNL A   1      40.180  35.246  37.022  1.00  0.00     0.173 A 
ATOM     72  C   UNL A   1      38.799  33.583  38.064  1.00  0.00     0.173 A 
ATOM     73  F   UNL A   1      40.928  35.675  35.995  1.00  0.00    -0.203 F 
ATOM     74  C   UNL A   1      40.078  36.044  38.160  1.00  0.00     0.198 A 
ATOM     75  C   UNL A   1      38.674  34.394  39.190  1.00  0.00     0.198 A 
ATOM     76  F   UNL A   1      38.172  32.397  38.048  1.00  0.00    -0.203 F 
ATOM     77  F   UNL A   1      40.727  37.215  38.215  1.00  0.00    -0.200 F 
ATOM     78  C   UNL A   1      39.321  35.619  39.241  1.00  0.00     0.200 A 
ATOM     79  F   UNL A   1      37.927  33.988  40.226  1.00  0.00    -0.200 F 
ATOM     80  F   UNL A   1      39.220  36.388  40.334  1.00  0.00    -0.200 F 
ENDBRANCH  46  70
BRANCH  58  81
ATOM     81  C   UNL A   1      43.938  28.863  35.232  1.00  0.00     0.064 A 
ATOM     82  C   UNL A   1      45.241  29.339  35.028  1.00  0.00     0.173 A 
ATOM     83  C   UNL A   1      43.754  27.822  36.154  1.00  0.00     0.173 A 
ATOM     84  F   UNL A   1      45.469  30.323  34.144  1.00  0.00    -0.203 F 
ATOM     85  C   UNL A   1      46.320  28.779  35.705  1.00  0.00     0.198 A 
ATOM     86  C   UNL A   1      44.832  27.283  36.850  1.00  0.00     0.198 A 
ATOM     87  F   UNL A   1      42.526  27.335  36.388  1.00  0.00    -0.203 F 
ATOM     88  F   UNL A   1      47.563  29.220  35.462  1.00  0.00    -0.200 F 
ATOM     89  C   UNL A   1      46.114  27.758  36.621  1.00  0.00     0.200 A 
ATOM     90  F   UNL A   1      44.629  26.306  37.745  1.00  0.00    -0.200 F 
ATOM     91  F   UNL A   1      47.154  27.227  37.278  1.00  0.00    -0.200 F 
ENDBRANCH  58  81
ENDBRANCH  32  33
ENDBRANCH  24  27
ENDBRANCH  22  23
ENDBRANCH  21  22
ENDBRANCH   1  21
TORSDOF 14
ENDMDL
MODEL 3
REMARK VINA RESULT:     -11.6      5.630     10.970
REMARK SMILES COc1ccccc1S(=O)(=O)[C@@H](C)[C@H](C)C(=O)NCCCNC(=O)c1ccc(-c2c3nc(c(-c4c(F)c(F)c(F)c(F)c4F)c4ccc([nH]4)c(-c4c(F)c(F)c(F)c(F)c4F)c4nc(c(-c5c(F)c(F)c(F)c(F)c5F)c5ccc2[nH]5)C=C4)C=C3)cc1
REMARK SMILES IDX 19 1 18 2 16 3 17 4 14 6 15 7 12 8 13 9 9 10 10 11 11 12
REMARK SMILES IDX 8 13 3 14 4 15 5 16 7 17 6 18 2 19 1 20 20 21 21 22 22 23
REMARK SMILES IDX 23 24 24 26 25 27 26 28 87 29 27 30 86 31 28 32 29 33 30 34
REMARK SMILES IDX 80 35 31 36 85 37 79 38 81 39 32 40 84 41 78 42 77 43 33 45
REMARK SMILES IDX 65 46 45 47 64 48 46 49 49 50 63 51 82 52 47 53 48 54 62 56
REMARK SMILES IDX 83 57 50 58 34 59 35 60 43 61 36 62 37 63 41 64 44 65 38 66
REMARK SMILES IDX 39 67 42 68 40 69 66 70 67 71 75 72 68 73 69 74 73 75 76 76
REMARK SMILES IDX 70 77 71 78 74 79 72 80 51 81 52 82 60 83 53 84 54 85 58 86
REMARK SMILES IDX 61 87 55 88 56 89 59 90 57 91
REMARK H PARENT 18 5 22 25 81 44 49 55
REMARK Flexibility Score: inf
ROOT
ATOM      1  C   UNL A   1      36.374  20.820  24.974  1.00  0.00     0.117 C 
ENDROOT
BRANCH   1   2
ATOM      2  N   UNL A   1      35.157  20.389  25.622  1.00  0.00    -0.356 N 
ATOM      3  C   UNL A   1      33.873  20.461  25.162  1.00  0.00     0.224 C 
ATOM      4  O   UNL A   1      33.037  19.749  25.723  1.00  0.00    -0.275 OA
ATOM      5  H   UNL A   1      35.267  19.988  26.514  1.00  0.00     0.163 HD
BRANCH   3   6
ATOM      6  C   UNL A   1      33.449  21.405  24.024  1.00  0.00     0.093 C 
ATOM      7  C   UNL A   1      32.526  20.673  23.056  1.00  0.00     0.019 C 
BRANCH   6   8
ATOM      8  C   UNL A   1      33.178  22.879  24.431  1.00  0.00     0.122 C 
ATOM      9  C   UNL A   1      31.785  23.494  24.275  1.00  0.00     0.026 C 
BRANCH   8  10
ATOM     10  S   UNL A   1      34.487  24.081  24.270  1.00  0.00     0.185 S 
ATOM     11  O   UNL A   1      35.257  23.650  23.112  1.00  0.00    -0.223 OA
ATOM     12  O   UNL A   1      35.152  24.175  25.560  1.00  0.00    -0.223 OA
BRANCH  10  13
ATOM     13  C   UNL A   1      34.027  25.759  23.902  1.00  0.00     0.109 A 
ATOM     14  C   UNL A   1      33.720  26.255  22.642  1.00  0.00     0.137 A 
ATOM     15  C   UNL A   1      33.495  27.629  22.460  1.00  0.00     0.048 A 
ATOM     16  C   UNL A   1      33.440  28.486  23.557  1.00  0.00     0.004 A 
ATOM     17  C   UNL A   1      33.928  26.624  25.007  1.00  0.00     0.024 A 
ATOM     18  C   UNL A   1      33.618  27.975  24.837  1.00  0.00     0.002 A 
BRANCH  14  19
ATOM     19  O   UNL A   1      33.644  25.425  21.570  1.00  0.00    -0.495 OA
ATOM     20  C   UNL A   1      32.408  25.593  20.870  1.00  0.00     0.278 C 
ENDBRANCH  14  19
ENDBRANCH  10  13
ENDBRANCH   8  10
ENDBRANCH   6   8
ENDBRANCH   3   6
ENDBRANCH   1   2
BRANCH   1  21
ATOM     21  C   UNL A   1      37.515  19.823  25.006  1.00  0.00     0.042 C 
BRANCH  21  22
ATOM     22  C   UNL A   1      38.791  20.364  25.635  1.00  0.00     0.118 C 
BRANCH  22  23
ATOM     23  N   UNL A   1      39.813  19.340  25.841  1.00  0.00    -0.352 N 
ATOM     24  C   UNL A   1      41.153  19.424  26.129  1.00  0.00     0.251 C 
ATOM     25  H   UNL A   1      39.477  18.418  25.759  1.00  0.00     0.163 HD
ATOM     26  O   UNL A   1      41.831  18.397  26.108  1.00  0.00    -0.269 OA
BRANCH  24  27
ATOM     27  C   UNL A   1      41.805  20.718  26.429  1.00  0.00     0.039 A 
ATOM     28  C   UNL A   1      42.086  21.596  25.375  1.00  0.00     0.014 A 
ATOM     29  C   UNL A   1      42.172  21.070  27.727  1.00  0.00     0.014 A 
ATOM     30  C   UNL A   1      42.645  22.851  25.637  1.00  0.00     0.010 A 
ATOM     31  C   UNL A   1      42.620  22.359  28.001  1.00  0.00     0.010 A 
ATOM     32  C   UNL A   1      42.867  23.264  26.960  1.00  0.00    -0.014 A 
BRANCH  32  33
ATOM     33  C   UNL A   1      43.365  24.629  27.286  1.00  0.00     0.031 A 
ATOM     34  C   UNL A   1      42.423  25.663  27.842  1.00  0.00     0.074 A 
ATOM     35  C   UNL A   1      44.636  24.967  26.991  1.00  0.00     0.049 A 
ATOM     36  N   UNL A   1      42.622  26.939  28.058  1.00  0.00    -0.248 NA
ATOM     37  C   UNL A   1      41.058  25.211  28.160  1.00  0.00     0.031 C 
ATOM     38  C   UNL A   1      45.635  24.079  26.395  1.00  0.00     0.029 A 
ATOM     39  N   UNL A   1      45.303  26.159  27.140  1.00  0.00    -0.354 N 
ATOM     40  C   UNL A   1      41.406  27.443  28.499  1.00  0.00     0.074 A 
ATOM     41  C   UNL A   1      40.459  26.351  28.469  1.00  0.00     0.031 C 
ATOM     42  C   UNL A   1      46.790  24.747  26.252  1.00  0.00     0.029 A 
ATOM     43  C   UNL A   1      46.605  26.121  26.705  1.00  0.00     0.049 A 
ATOM     44  H   UNL A   1      44.886  26.965  27.522  1.00  0.00     0.167 HD
ATOM     45  C   UNL A   1      41.111  28.698  28.916  1.00  0.00     0.037 A 
ATOM     46  C   UNL A   1      47.542  27.088  26.668  1.00  0.00     0.037 A 
ATOM     47  C   UNL A   1      42.068  29.768  29.000  1.00  0.00     0.049 A 
ATOM     48  C   UNL A   1      47.198  28.464  27.170  1.00  0.00     0.074 A 
ATOM     49  C   UNL A   1      41.887  31.053  29.483  1.00  0.00     0.029 A 
ATOM     50  N   UNL A   1      43.391  29.675  28.597  1.00  0.00    -0.354 N 
ATOM     51  N   UNL A   1      46.060  28.910  27.643  1.00  0.00    -0.248 NA
ATOM     52  C   UNL A   1      48.270  29.468  27.138  1.00  0.00     0.031 C 
ATOM     53  C   UNL A   1      43.092  31.747  29.339  1.00  0.00     0.029 A 
ATOM     54  C   UNL A   1      44.036  30.883  28.808  1.00  0.00     0.049 A 
ATOM     55  H   UNL A   1      43.811  28.869  28.216  1.00  0.00     0.167 HD
ATOM     56  C   UNL A   1      46.287  30.235  27.993  1.00  0.00     0.074 A 
ATOM     57  C   UNL A   1      47.675  30.516  27.690  1.00  0.00     0.031 C 
ATOM     58  C   UNL A   1      45.423  31.138  28.516  1.00  0.00     0.037 A 
BRANCH  45  59
ATOM     59  C   UNL A   1      39.695  28.978  29.332  1.00  0.00     0.064 A 
ATOM     60  C   UNL A   1      39.261  28.779  30.652  1.00  0.00     0.173 A 
ATOM     61  C   UNL A   1      38.769  29.488  28.408  1.00  0.00     0.173 A 
ATOM     62  F   UNL A   1      40.103  28.282  31.571  1.00  0.00    -0.203 F 
ATOM     63  C   UNL A   1      37.946  29.048  31.024  1.00  0.00     0.198 A 
ATOM     64  C   UNL A   1      37.463  29.787  28.792  1.00  0.00     0.198 A 
ATOM     65  F   UNL A   1      39.132  29.704  27.135  1.00  0.00    -0.203 F 
ATOM     66  F   UNL A   1      37.544  28.799  32.277  1.00  0.00    -0.200 F 
ATOM     67  C   UNL A   1      37.051  29.559  30.097  1.00  0.00     0.200 A 
ATOM     68  F   UNL A   1      36.603  30.293  27.898  1.00  0.00    -0.200 F 
ATOM     69  F   UNL A   1      35.789  29.826  30.458  1.00  0.00    -0.200 F 
ENDBRANCH  45  59
BRANCH  46  70
ATOM     70  C   UNL A   1      48.907  26.784  26.162  1.00  0.00     0.064 A 
ATOM     71  C   UNL A   1      49.237  27.000  24.817  1.00  0.00     0.173 A 
ATOM     72  C   UNL A   1      49.903  26.267  27.003  1.00  0.00     0.173 A 
ATOM     73  F   UNL A   1      48.313  27.476  23.969  1.00  0.00    -0.203 F 
ATOM     74  C   UNL A   1      50.504  26.688  24.326  1.00  0.00     0.198 A 
ATOM     75  C   UNL A   1      51.178  25.983  26.518  1.00  0.00     0.198 A 
ATOM     76  F   UNL A   1      49.642  26.050  28.300  1.00  0.00    -0.203 F 
ATOM     77  F   UNL A   1      50.777  26.861  23.025  1.00  0.00    -0.200 F 
ATOM     78  C   UNL A   1      51.474  26.185  25.178  1.00  0.00     0.200 A 
ATOM     79  F   UNL A   1      52.119  25.512  27.348  1.00  0.00    -0.200 F 
ATOM     80  F   UNL A   1      52.692  25.888  24.707  1.00  0.00    -0.200 F 
ENDBRANCH  46  70
BRANCH  58  81
ATOM     81  C   UNL A   1      45.960  32.502  28.834  1.00  0.00     0.064 A 
ATOM     82  C   UNL A   1      46.548  32.791  30.074  1.00  0.00     0.173 A 
ATOM     83  C   UNL A   1      45.925  33.519  27.868  1.00  0.00     0.173 A 
ATOM     84  F   UNL A   1      46.591  31.855  31.035  1.00  0.00    -0.203 F 
ATOM     85  C   UNL A   1      47.061  34.057  30.343  1.00  0.00     0.198 A 
ATOM     86  C   UNL A   1      46.465  34.775  28.131  1.00  0.00     0.198 A 
ATOM     87  F   UNL A   1      45.378  33.291  26.665  1.00  0.00    -0.203 F 
ATOM     88  F   UNL A   1      47.579  34.324  31.550  1.00  0.00    -0.200 F 
ATOM     89  C   UNL A   1      47.027  35.044  29.370  1.00  0.00     0.200 A 
ATOM     90  F   UNL A   1      46.442  35.724  27.185  1.00  0.00    -0.200 F 
ATOM     91  F   UNL A   1      47.529  36.259  29.629  1.00  0.00    -0.200 F 
ENDBRANCH  58  81
ENDBRANCH  32  33
ENDBRANCH  24  27
ENDBRANCH  22  23
ENDBRANCH  21  22
ENDBRANCH   1  21
TORSDOF 14
ENDMDL
