MODEL 1
REMARK VINA RESULT:     -12.9      0.000      0.000
REMARK SMILES CC(C)(C)OC(=O)N[C@@H](Cc1c[nH]c2cccc(Cl)c12)C(=O)NCCCNC(=O)c1ccc(-c2c3nc(c(-c4c(F)c(F)c(F)c(F)c4F)c4ccc([nH]4)c(-c4c(F)c(F)c(F)c(F)c4F)c4nc(c(-c5c(F)c(F)c(F)c(F)c5F)c5ccc2[nH]5)C=C4)C=C3)cc1
REMARK SMILES IDX 24 1 23 2 21 3 22 4 9 6 8 7 6 8 7 9 5 11 2 12 1 13 3 14 4 15
REMARK SMILES IDX 10 16 11 17 12 18 20 19 13 20 14 21 18 22 15 24 17 25 19 26
REMARK SMILES IDX 16 27 25 28 26 29 27 30 28 31 29 33 30 34 31 35 92 36 32 37
REMARK SMILES IDX 91 38 33 39 34 40 35 41 85 42 36 43 90 44 84 45 86 46 37 47
REMARK SMILES IDX 89 48 83 49 82 50 38 52 70 53 50 54 69 55 51 56 54 57 68 58
REMARK SMILES IDX 87 59 52 60 53 61 67 63 88 64 55 65 39 66 40 67 48 68 41 69
REMARK SMILES IDX 42 70 46 71 49 72 43 73 44 74 47 75 45 76 71 77 72 78 80 79
REMARK SMILES IDX 73 80 74 81 78 82 81 83 75 84 76 85 79 86 77 87 56 88 57 89
REMARK SMILES IDX 65 90 58 91 59 92 63 93 66 94 60 95 61 96 64 97 62 98
REMARK H PARENT 23 5 8 10 13 23 27 32 86 51 54 62
REMARK Flexibility Score: inf
ROOT
ATOM      1  C   UNL A   1      33.094  28.032  26.122  1.00  0.00     0.117 C 
ENDROOT
BRANCH   1   2
ATOM      2  N   UNL A   1      31.710  27.654  26.280  1.00  0.00    -0.354 N 
ATOM      3  C   UNL A   1      31.131  26.458  25.931  1.00  0.00     0.243 C 
ATOM      4  O   UNL A   1      30.135  26.111  26.575  1.00  0.00    -0.273 OA
ATOM      5  H   UNL A   1      31.115  28.327  26.683  1.00  0.00     0.163 HD
BRANCH   3   6
ATOM      6  C   UNL A   1      31.718  25.540  24.825  1.00  0.00     0.179 C 
BRANCH   6   7
ATOM      7  N   UNL A   1      31.531  24.130  25.180  1.00  0.00    -0.309 N 
ATOM      8  C   UNL A   1      32.382  23.328  25.881  1.00  0.00     0.408 C 
ATOM      9  O   UNL A   1      32.002  22.249  26.291  1.00  0.00    -0.225 OA
ATOM     10  H   UNL A   1      30.693  23.714  24.876  1.00  0.00     0.167 HD
BRANCH   8  11
ATOM     11  O   UNL A   1      33.633  23.838  25.997  1.00  0.00    -0.444 OA
BRANCH  11  12
ATOM     12  C   UNL A   1      34.755  23.142  25.389  1.00  0.00     0.106 C 
ATOM     13  C   UNL A   1      35.914  24.152  25.406  1.00  0.00     0.056 C 
ATOM     14  C   UNL A   1      34.458  22.783  23.926  1.00  0.00     0.056 C 
ATOM     15  C   UNL A   1      35.167  21.914  26.207  1.00  0.00     0.056 C 
ENDBRANCH  11  12
ENDBRANCH   8  11
ENDBRANCH   6   7
BRANCH   6  16
ATOM     16  C   UNL A   1      31.331  25.877  23.364  1.00  0.00     0.073 C 
BRANCH  16  17
ATOM     17  C   UNL A   1      31.181  27.332  22.989  1.00  0.00    -0.019 A 
ATOM     18  C   UNL A   1      32.226  28.147  22.581  1.00  0.00     0.087 A 
ATOM     19  C   UNL A   1      29.977  28.138  22.917  1.00  0.00     0.021 A 
ATOM     20  N   UNL A   1      31.716  29.348  22.177  1.00  0.00    -0.361 N 
ATOM     21  C   UNL A   1      30.349  29.354  22.317  1.00  0.00     0.047 A 
ATOM     22  C   UNL A   1      28.597  27.978  23.192  1.00  0.00     0.050 A 
ATOM     23  H   UNL A   1      32.251  30.101  21.835  1.00  0.00     0.166 HD
ATOM     24  C   UNL A   1      29.422  30.337  21.933  1.00  0.00     0.027 A 
ATOM     25  C   UNL A   1      27.658  28.949  22.833  1.00  0.00     0.021 A 
ATOM     26  Cl  UNL A   1      28.083  26.546  23.965  1.00  0.00    -0.084 Cl
ATOM     27  C   UNL A   1      28.069  30.109  22.189  1.00  0.00     0.004 A 
ENDBRANCH  16  17
ENDBRANCH   6  16
ENDBRANCH   3   6
ENDBRANCH   1   2
BRANCH   1  28
ATOM     28  C   UNL A   1      33.811  28.575  27.345  1.00  0.00     0.042 C 
BRANCH  28  29
ATOM     29  C   UNL A   1      34.902  29.547  26.946  1.00  0.00     0.118 C 
BRANCH  29  30
ATOM     30  N   UNL A   1      34.677  30.903  27.464  1.00  0.00    -0.352 N 
ATOM     31  C   UNL A   1      35.272  31.504  28.555  1.00  0.00     0.251 C 
ATOM     32  H   UNL A   1      34.022  31.451  26.974  1.00  0.00     0.163 HD
ATOM     33  O   UNL A   1      34.836  32.540  29.039  1.00  0.00    -0.269 OA
BRANCH  31  34
ATOM     34  C   UNL A   1      36.457  30.847  29.121  1.00  0.00     0.039 A 
ATOM     35  C   UNL A   1      36.348  29.634  29.801  1.00  0.00     0.014 A 
ATOM     36  C   UNL A   1      37.697  31.419  28.842  1.00  0.00     0.014 A 
ATOM     37  C   UNL A   1      37.514  28.940  30.104  1.00  0.00     0.010 A 
ATOM     38  C   UNL A   1      38.833  30.668  29.010  1.00  0.00     0.010 A 
ATOM     39  C   UNL A   1      38.751  29.448  29.672  1.00  0.00    -0.014 A 
BRANCH  39  40
ATOM     40  C   UNL A   1      39.963  28.654  29.821  1.00  0.00     0.031 A 
ATOM     41  C   UNL A   1      40.459  28.507  31.216  1.00  0.00     0.074 A 
ATOM     42  C   UNL A   1      40.489  27.937  28.808  1.00  0.00     0.049 A 
ATOM     43  N   UNL A   1      41.548  28.985  31.723  1.00  0.00    -0.248 NA
ATOM     44  C   UNL A   1      39.594  27.837  32.199  1.00  0.00     0.031 C 
ATOM     45  C   UNL A   1      39.932  27.712  27.468  1.00  0.00     0.029 A 
ATOM     46  N   UNL A   1      41.615  27.173  28.800  1.00  0.00    -0.354 N 
ATOM     47  C   UNL A   1      41.599  28.531  33.040  1.00  0.00     0.074 A 
ATOM     48  C   UNL A   1      40.305  27.967  33.322  1.00  0.00     0.031 C 
ATOM     49  C   UNL A   1      40.604  26.711  26.859  1.00  0.00     0.029 A 
ATOM     50  C   UNL A   1      41.743  26.357  27.684  1.00  0.00     0.049 A 
ATOM     51  H   UNL A   1      42.282  27.196  29.524  1.00  0.00     0.167 HD
ATOM     52  C   UNL A   1      42.785  28.453  33.707  1.00  0.00     0.037 A 
ATOM     53  C   UNL A   1      42.721  25.450  27.463  1.00  0.00     0.037 A 
ATOM     54  C   UNL A   1      43.811  29.182  33.007  1.00  0.00     0.049 A 
ATOM     55  C   UNL A   1      43.870  25.846  28.307  1.00  0.00     0.074 A 
ATOM     56  C   UNL A   1      44.093  30.507  32.755  1.00  0.00     0.029 A 
ATOM     57  N   UNL A   1      44.537  28.440  32.113  1.00  0.00    -0.354 N 
ATOM     58  N   UNL A   1      44.566  26.934  28.126  1.00  0.00    -0.248 NA
ATOM     59  C   UNL A   1      44.058  25.191  29.594  1.00  0.00     0.031 C 
ATOM     60  C   UNL A   1      44.740  30.525  31.482  1.00  0.00     0.029 A 
ATOM     61  C   UNL A   1      44.863  29.210  31.029  1.00  0.00     0.049 A 
ATOM     62  H   UNL A   1      44.787  27.496  32.231  1.00  0.00     0.167 HD
ATOM     63  C   UNL A   1      44.935  27.325  29.400  1.00  0.00     0.074 A 
ATOM     64  C   UNL A   1      44.757  26.138  30.225  1.00  0.00     0.031 C 
ATOM     65  C   UNL A   1      45.059  28.648  29.710  1.00  0.00     0.037 A 
BRANCH  52  66
ATOM     66  C   UNL A   1      43.148  27.398  34.735  1.00  0.00     0.064 A 
ATOM     67  C   UNL A   1      43.417  27.796  36.063  1.00  0.00     0.173 A 
ATOM     68  C   UNL A   1      43.542  26.083  34.410  1.00  0.00     0.173 A 
ATOM     69  F   UNL A   1      43.112  29.034  36.483  1.00  0.00    -0.203 F 
ATOM     70  C   UNL A   1      44.089  26.966  36.968  1.00  0.00     0.198 A 
ATOM     71  C   UNL A   1      44.164  25.238  35.332  1.00  0.00     0.198 A 
ATOM     72  F   UNL A   1      43.452  25.599  33.167  1.00  0.00    -0.203 F 
ATOM     73  F   UNL A   1      44.430  27.434  38.176  1.00  0.00    -0.200 F 
ATOM     74  C   UNL A   1      44.465  25.688  36.599  1.00  0.00     0.200 A 
ATOM     75  F   UNL A   1      44.542  24.011  34.947  1.00  0.00    -0.200 F 
ATOM     76  F   UNL A   1      45.157  24.910  37.442  1.00  0.00    -0.200 F 
ENDBRANCH  52  66
BRANCH  53  77
ATOM     77  C   UNL A   1      42.652  24.131  26.795  1.00  0.00     0.064 A 
ATOM     78  C   UNL A   1      43.270  23.939  25.548  1.00  0.00     0.173 A 
ATOM     79  C   UNL A   1      42.280  22.971  27.499  1.00  0.00     0.173 A 
ATOM     80  F   UNL A   1      43.668  24.994  24.823  1.00  0.00    -0.203 F 
ATOM     81  C   UNL A   1      43.573  22.662  25.071  1.00  0.00     0.198 A 
ATOM     82  C   UNL A   1      42.576  21.695  27.017  1.00  0.00     0.198 A 
ATOM     83  F   UNL A   1      41.722  23.052  28.716  1.00  0.00    -0.203 F 
ATOM     84  F   UNL A   1      44.251  22.524  23.924  1.00  0.00    -0.200 F 
ATOM     85  C   UNL A   1      43.245  21.542  25.815  1.00  0.00     0.200 A 
ATOM     86  F   UNL A   1      42.279  20.619  27.759  1.00  0.00    -0.200 F 
ATOM     87  F   UNL A   1      43.615  20.323  25.402  1.00  0.00    -0.200 F 
ENDBRANCH  53  77
BRANCH  65  88
ATOM     88  C   UNL A   1      45.217  29.609  28.566  1.00  0.00     0.064 A 
ATOM     89  C   UNL A   1      44.153  30.255  27.913  1.00  0.00     0.173 A 
ATOM     90  C   UNL A   1      46.517  29.962  28.182  1.00  0.00     0.173 A 
ATOM     91  F   UNL A   1      42.885  30.036  28.278  1.00  0.00    -0.203 F 
ATOM     92  C   UNL A   1      44.384  31.181  26.898  1.00  0.00     0.198 A 
ATOM     93  C   UNL A   1      46.747  30.915  27.196  1.00  0.00     0.198 A 
ATOM     94  F   UNL A   1      47.573  29.409  28.802  1.00  0.00    -0.203 F 
ATOM     95  F   UNL A   1      43.352  31.771  26.278  1.00  0.00    -0.200 F 
ATOM     96  C   UNL A   1      45.681  31.516  26.546  1.00  0.00     0.200 A 
ATOM     97  F   UNL A   1      48.003  31.269  26.891  1.00  0.00    -0.200 F 
ATOM     98  F   UNL A   1      45.905  32.437  25.598  1.00  0.00    -0.200 F 
ENDBRANCH  65  88
ENDBRANCH  39  40
ENDBRANCH  31  34
ENDBRANCH  29  30
ENDBRANCH  28  29
ENDBRANCH   1  28
TORSDOF 15
ENDMDL
MODEL 2
REMARK VINA RESULT:     -12.9      3.531      9.116
REMARK SMILES CC(C)(C)OC(=O)N[C@@H](Cc1c[nH]c2cccc(Cl)c12)C(=O)NCCCNC(=O)c1ccc(-c2c3nc(c(-c4c(F)c(F)c(F)c(F)c4F)c4ccc([nH]4)c(-c4c(F)c(F)c(F)c(F)c4F)c4nc(c(-c5c(F)c(F)c(F)c(F)c5F)c5ccc2[nH]5)C=C4)C=C3)cc1
REMARK SMILES IDX 24 1 23 2 21 3 22 4 9 6 8 7 6 8 7 9 5 11 2 12 1 13 3 14 4 15
REMARK SMILES IDX 10 16 11 17 12 18 20 19 13 20 14 21 18 22 15 24 17 25 19 26
REMARK SMILES IDX 16 27 25 28 26 29 27 30 28 31 29 33 30 34 31 35 92 36 32 37
REMARK SMILES IDX 91 38 33 39 34 40 35 41 85 42 36 43 90 44 84 45 86 46 37 47
REMARK SMILES IDX 89 48 83 49 82 50 38 52 70 53 50 54 69 55 51 56 54 57 68 58
REMARK SMILES IDX 87 59 52 60 53 61 67 63 88 64 55 65 39 66 40 67 48 68 41 69
REMARK SMILES IDX 42 70 46 71 49 72 43 73 44 74 47 75 45 76 71 77 72 78 80 79
REMARK SMILES IDX 73 80 74 81 78 82 81 83 75 84 76 85 79 86 77 87 56 88 57 89
REMARK SMILES IDX 65 90 58 91 59 92 63 93 66 94 60 95 61 96 64 97 62 98
REMARK H PARENT 23 5 8 10 13 23 27 32 86 51 54 62
REMARK Flexibility Score: inf
ROOT
ATOM      1  C   UNL A   1      35.633  23.740  24.961  1.00  0.00     0.117 C 
ENDROOT
BRANCH   1   2
ATOM      2  N   UNL A   1      35.188  23.151  23.720  1.00  0.00    -0.354 N 
ATOM      3  C   UNL A   1      34.026  23.424  23.040  1.00  0.00     0.243 C 
ATOM      4  O   UNL A   1      34.042  23.254  21.816  1.00  0.00    -0.273 OA
ATOM      5  H   UNL A   1      35.784  22.480  23.315  1.00  0.00     0.163 HD
BRANCH   3   6
ATOM      6  C   UNL A   1      32.760  23.978  23.746  1.00  0.00     0.179 C 
BRANCH   6   7
ATOM      7  N   UNL A   1      32.070  24.936  22.876  1.00  0.00    -0.309 N 
ATOM      8  C   UNL A   1      32.032  26.294  22.997  1.00  0.00     0.408 C 
ATOM      9  O   UNL A   1      31.608  26.974  22.084  1.00  0.00    -0.225 OA
ATOM     10  H   UNL A   1      31.575  24.553  22.117  1.00  0.00     0.167 HD
BRANCH   8  11
ATOM     11  O   UNL A   1      32.446  26.739  24.209  1.00  0.00    -0.444 OA
BRANCH  11  12
ATOM     12  C   UNL A   1      31.472  27.237  25.166  1.00  0.00     0.106 C 
ATOM     13  C   UNL A   1      30.133  26.609  24.745  1.00  0.00     0.056 C 
ATOM     14  C   UNL A   1      31.332  28.764  25.072  1.00  0.00     0.056 C 
ATOM     15  C   UNL A   1      31.798  26.780  26.591  1.00  0.00     0.056 C 
ENDBRANCH  11  12
ENDBRANCH   8  11
ENDBRANCH   6   7
BRANCH   6  16
ATOM     16  C   UNL A   1      31.821  22.939  24.407  1.00  0.00     0.073 C 
BRANCH  16  17
ATOM     17  C   UNL A   1      32.440  21.681  24.966  1.00  0.00    -0.019 A 
ATOM     18  C   UNL A   1      32.954  21.565  26.249  1.00  0.00     0.087 A 
ATOM     19  C   UNL A   1      32.575  20.375  24.349  1.00  0.00     0.021 A 
ATOM     20  N   UNL A   1      33.291  20.260  26.472  1.00  0.00    -0.361 N 
ATOM     21  C   UNL A   1      33.022  19.503  25.357  1.00  0.00     0.047 A 
ATOM     22  C   UNL A   1      32.293  19.781  23.094  1.00  0.00     0.050 A 
ATOM     23  H   UNL A   1      33.672  19.911  27.311  1.00  0.00     0.166 HD
ATOM     24  C   UNL A   1      33.121  18.113  25.182  1.00  0.00     0.027 A 
ATOM     25  C   UNL A   1      32.399  18.402  22.892  1.00  0.00     0.021 A 
ATOM     26  Cl  UNL A   1      31.794  20.790  21.811  1.00  0.00    -0.084 Cl
ATOM     27  C   UNL A   1      32.790  17.575  23.938  1.00  0.00     0.004 A 
ENDBRANCH  16  17
ENDBRANCH   6  16
ENDBRANCH   3   6
ENDBRANCH   1   2
BRANCH   1  28
ATOM     28  C   UNL A   1      36.485  22.877  25.875  1.00  0.00     0.042 C 
BRANCH  28  29
ATOM     29  C   UNL A   1      37.830  23.525  26.131  1.00  0.00     0.118 C 
BRANCH  29  30
ATOM     30  N   UNL A   1      38.854  22.564  26.563  1.00  0.00    -0.352 N 
ATOM     31  C   UNL A   1      40.161  22.822  26.924  1.00  0.00     0.251 C 
ATOM     32  H   UNL A   1      38.574  21.621  26.599  1.00  0.00     0.163 HD
ATOM     33  O   UNL A   1      40.990  21.928  27.031  1.00  0.00    -0.269 OA
BRANCH  31  34
ATOM     34  C   UNL A   1      40.525  24.222  27.174  1.00  0.00     0.039 A 
ATOM     35  C   UNL A   1      40.133  25.233  26.296  1.00  0.00     0.014 A 
ATOM     36  C   UNL A   1      41.162  24.510  28.380  1.00  0.00     0.014 A 
ATOM     37  C   UNL A   1      40.293  26.555  26.698  1.00  0.00     0.010 A 
ATOM     38  C   UNL A   1      41.184  25.804  28.834  1.00  0.00     0.010 A 
ATOM     39  C   UNL A   1      40.785  26.830  27.984  1.00  0.00    -0.014 A 
BRANCH  39  40
ATOM     40  C   UNL A   1      40.793  28.196  28.491  1.00  0.00     0.031 A 
ATOM     41  C   UNL A   1      41.905  29.052  27.995  1.00  0.00     0.074 A 
ATOM     42  C   UNL A   1      39.767  28.714  29.195  1.00  0.00     0.049 A 
ATOM     43  N   UNL A   1      42.891  29.538  28.674  1.00  0.00    -0.248 NA
ATOM     44  C   UNL A   1      41.993  29.316  26.551  1.00  0.00     0.031 C 
ATOM     45  C   UNL A   1      38.460  28.107  29.478  1.00  0.00     0.029 A 
ATOM     46  N   UNL A   1      39.648  29.956  29.740  1.00  0.00    -0.354 N 
ATOM     47  C   UNL A   1      43.632  30.316  27.785  1.00  0.00     0.074 A 
ATOM     48  C   UNL A   1      43.127  30.017  26.471  1.00  0.00     0.031 C 
ATOM     49  C   UNL A   1      37.615  29.048  29.951  1.00  0.00     0.029 A 
ATOM     50  C   UNL A   1      38.367  30.267  30.176  1.00  0.00     0.049 A 
ATOM     51  H   UNL A   1      40.406  30.580  29.818  1.00  0.00     0.167 HD
ATOM     52  C   UNL A   1      44.442  31.314  28.237  1.00  0.00     0.037 A 
ATOM     53  C   UNL A   1      37.961  31.452  30.683  1.00  0.00     0.037 A 
ATOM     54  C   UNL A   1      44.649  31.197  29.658  1.00  0.00     0.049 A 
ATOM     55  C   UNL A   1      39.172  32.142  31.181  1.00  0.00     0.074 A 
ATOM     56  C   UNL A   1      45.321  30.335  30.496  1.00  0.00     0.029 A 
ATOM     57  N   UNL A   1      43.758  31.894  30.430  1.00  0.00    -0.354 N 
ATOM     58  N   UNL A   1      39.881  31.728  32.194  1.00  0.00    -0.248 NA
ATOM     59  C   UNL A   1      39.812  33.140  30.336  1.00  0.00     0.031 C 
ATOM     60  C   UNL A   1      44.567  30.314  31.709  1.00  0.00     0.029 A 
ATOM     61  C   UNL A   1      43.490  31.194  31.576  1.00  0.00     0.049 A 
ATOM     62  H   UNL A   1      43.367  32.766  30.197  1.00  0.00     0.167 HD
ATOM     63  C   UNL A   1      41.180  32.079  31.873  1.00  0.00     0.074 A 
ATOM     64  C   UNL A   1      41.051  33.088  30.830  1.00  0.00     0.031 C 
ATOM     65  C   UNL A   1      42.226  31.300  32.272  1.00  0.00     0.037 A 
BRANCH  52  66
ATOM     66  C   UNL A   1      44.705  32.626  27.522  1.00  0.00     0.064 A 
ATOM     67  C   UNL A   1      45.920  32.796  26.822  1.00  0.00     0.173 A 
ATOM     68  C   UNL A   1      43.971  33.809  27.749  1.00  0.00     0.173 A 
ATOM     69  F   UNL A   1      46.718  31.747  26.570  1.00  0.00    -0.203 F 
ATOM     70  C   UNL A   1      46.392  34.060  26.446  1.00  0.00     0.198 A 
ATOM     71  C   UNL A   1      44.420  35.062  27.325  1.00  0.00     0.198 A 
ATOM     72  F   UNL A   1      42.857  33.826  28.489  1.00  0.00    -0.203 F 
ATOM     73  F   UNL A   1      47.608  34.180  25.895  1.00  0.00    -0.200 F 
ATOM     74  C   UNL A   1      45.642  35.191  26.701  1.00  0.00     0.200 A 
ATOM     75  F   UNL A   1      43.689  36.151  27.603  1.00  0.00    -0.200 F 
ATOM     76  F   UNL A   1      46.114  36.407  26.393  1.00  0.00    -0.200 F 
ENDBRANCH  52  66
BRANCH  53  77
ATOM     77  C   UNL A   1      36.663  32.148  30.532  1.00  0.00     0.064 A 
ATOM     78  C   UNL A   1      35.778  32.232  31.620  1.00  0.00     0.173 A 
ATOM     79  C   UNL A   1      36.417  33.013  29.450  1.00  0.00     0.173 A 
ATOM     80  F   UNL A   1      35.954  31.452  32.696  1.00  0.00    -0.203 F 
ATOM     81  C   UNL A   1      34.755  33.183  31.658  1.00  0.00     0.198 A 
ATOM     82  C   UNL A   1      35.389  33.957  29.487  1.00  0.00     0.198 A 
ATOM     83  F   UNL A   1      37.231  33.035  28.386  1.00  0.00    -0.203 F 
ATOM     84  F   UNL A   1      33.994  33.298  32.755  1.00  0.00    -0.200 F 
ATOM     85  C   UNL A   1      34.575  34.059  30.602  1.00  0.00     0.200 A 
ATOM     86  F   UNL A   1      35.242  34.819  28.471  1.00  0.00    -0.200 F 
ATOM     87  F   UNL A   1      33.654  35.029  30.676  1.00  0.00    -0.200 F 
ENDBRANCH  53  77
BRANCH  65  88
ATOM     88  C   UNL A   1      41.976  30.340  33.400  1.00  0.00     0.064 A 
ATOM     89  C   UNL A   1      41.606  28.994  33.235  1.00  0.00     0.173 A 
ATOM     90  C   UNL A   1      42.221  30.785  34.705  1.00  0.00     0.173 A 
ATOM     91  F   UNL A   1      41.436  28.469  32.017  1.00  0.00    -0.203 F 
ATOM     92  C   UNL A   1      41.452  28.148  34.332  1.00  0.00     0.198 A 
ATOM     93  C   UNL A   1      42.103  29.930  35.796  1.00  0.00     0.198 A 
ATOM     94  F   UNL A   1      42.620  32.050  34.919  1.00  0.00    -0.203 F 
ATOM     95  F   UNL A   1      41.080  26.872  34.151  1.00  0.00    -0.200 F 
ATOM     96  C   UNL A   1      41.708  28.615  35.611  1.00  0.00     0.200 A 
ATOM     97  F   UNL A   1      42.397  30.375  37.025  1.00  0.00    -0.200 F 
ATOM     98  F   UNL A   1      41.598  27.792  36.663  1.00  0.00    -0.200 F 
ENDBRANCH  65  88
ENDBRANCH  39  40
ENDBRANCH  31  34
ENDBRANCH  29  30
ENDBRANCH  28  29
ENDBRANCH   1  28
TORSDOF 15
ENDMDL
MODEL 3
REMARK VINA RESULT:     -12.9      1.737      6.978
REMARK SMILES CC(C)(C)OC(=O)N[C@@H](Cc1c[nH]c2cccc(Cl)c12)C(=O)NCCCNC(=O)c1ccc(-c2c3nc(c(-c4c(F)c(F)c(F)c(F)c4F)c4ccc([nH]4)c(-c4c(F)c(F)c(F)c(F)c4F)c4nc(c(-c5c(F)c(F)c(F)c(F)c5F)c5ccc2[nH]5)C=C4)C=C3)cc1
REMARK SMILES IDX 24 1 23 2 21 3 22 4 9 6 8 7 6 8 7 9 5 11 2 12 1 13 3 14 4 15
REMARK SMILES IDX 10 16 11 17 12 18 20 19 13 20 14 21 18 22 15 24 17 25 19 26
REMARK SMILES IDX 16 27 25 28 26 29 27 30 28 31 29 33 30 34 31 35 92 36 32 37
REMARK SMILES IDX 91 38 33 39 34 40 35 41 85 42 36 43 90 44 84 45 86 46 37 47
REMARK SMILES IDX 89 48 83 49 82 50 38 52 70 53 50 54 69 55 51 56 54 57 68 58
REMARK SMILES IDX 87 59 52 60 53 61 67 63 88 64 55 65 39 66 40 67 48 68 41 69
REMARK SMILES IDX 42 70 46 71 49 72 43 73 44 74 47 75 45 76 71 77 72 78 80 79
REMARK SMILES IDX 73 80 74 81 78 82 81 83 75 84 76 85 79 86 77 87 56 88 57 89
REMARK SMILES IDX 65 90 58 91 59 92 63 93 66 94 60 95 61 96 64 97 62 98
REMARK H PARENT 23 5 8 10 13 23 27 32 86 51 54 62
REMARK Flexibility Score: inf
ROOT
ATOM      1  C   UNL A   1      33.207  27.549  26.319  1.00  0.00     0.117 C 
ENDROOT
BRANCH   1   2
ATOM      2  N   UNL A   1      31.775  27.383  26.397  1.00  0.00    -0.354 N 
ATOM      3  C   UNL A   1      31.034  26.323  25.932  1.00  0.00     0.243 C 
ATOM      4  O   UNL A   1      29.968  26.090  26.510  1.00  0.00    -0.273 OA
ATOM      5  H   UNL A   1      31.273  28.109  26.833  1.00  0.00     0.163 HD
BRANCH   3   6
ATOM      6  C   UNL A   1      31.524  25.410  24.776  1.00  0.00     0.179 C 
BRANCH   6   7
ATOM      7  N   UNL A   1      31.262  24.003  25.091  1.00  0.00    -0.309 N 
ATOM      8  C   UNL A   1      32.165  23.049  25.456  1.00  0.00     0.408 C 
ATOM      9  O   UNL A   1      31.780  21.985  25.900  1.00  0.00    -0.225 OA
ATOM     10  H   UNL A   1      30.323  23.713  25.031  1.00  0.00     0.167 HD
BRANCH   8  11
ATOM     11  O   UNL A   1      33.451  23.403  25.217  1.00  0.00    -0.444 OA
BRANCH  11  12
ATOM     12  C   UNL A   1      34.175  22.791  24.115  1.00  0.00     0.106 C 
ATOM     13  C   UNL A   1      35.255  23.813  23.724  1.00  0.00     0.056 C 
ATOM     14  C   UNL A   1      33.260  22.575  22.901  1.00  0.00     0.056 C 
ATOM     15  C   UNL A   1      34.866  21.494  24.547  1.00  0.00     0.056 C 
ENDBRANCH  11  12
ENDBRANCH   8  11
ENDBRANCH   6   7
BRANCH   6  16
ATOM     16  C   UNL A   1      31.108  25.822  23.341  1.00  0.00     0.073 C 
BRANCH  16  17
ATOM     17  C   UNL A   1      31.001  27.295  23.030  1.00  0.00    -0.019 A 
ATOM     18  C   UNL A   1      32.072  28.098  22.668  1.00  0.00     0.087 A 
ATOM     19  C   UNL A   1      29.821  28.137  22.986  1.00  0.00     0.021 A 
ATOM     20  N   UNL A   1      31.598  29.330  22.314  1.00  0.00    -0.361 N 
ATOM     21  C   UNL A   1      30.231  29.367  22.443  1.00  0.00     0.047 A 
ATOM     22  C   UNL A   1      28.434  28.003  23.243  1.00  0.00     0.050 A 
ATOM     23  H   UNL A   1      32.156  30.083  22.009  1.00  0.00     0.166 HD
ATOM     24  C   UNL A   1      29.334  30.391  22.097  1.00  0.00     0.027 A 
ATOM     25  C   UNL A   1      27.525  29.014  22.921  1.00  0.00     0.021 A 
ATOM     26  Cl  UNL A   1      27.875  26.552  23.947  1.00  0.00    -0.084 Cl
ATOM     27  C   UNL A   1      27.973  30.189  22.332  1.00  0.00     0.004 A 
ENDBRANCH  16  17
ENDBRANCH   6  16
ENDBRANCH   3   6
ENDBRANCH   1   2
BRANCH   1  28
ATOM     28  C   UNL A   1      33.759  28.945  26.549  1.00  0.00     0.042 C 
BRANCH  28  29
ATOM     29  C   UNL A   1      35.111  28.887  27.229  1.00  0.00     0.118 C 
BRANCH  29  30
ATOM     30  N   UNL A   1      35.231  29.837  28.344  1.00  0.00    -0.352 N 
ATOM     31  C   UNL A   1      36.277  29.973  29.234  1.00  0.00     0.251 C 
ATOM     32  H   UNL A   1      34.472  30.452  28.471  1.00  0.00     0.163 HD
ATOM     33  O   UNL A   1      36.168  30.625  30.263  1.00  0.00    -0.269 OA
BRANCH  31  34
ATOM     34  C   UNL A   1      37.536  29.297  28.898  1.00  0.00     0.039 A 
ATOM     35  C   UNL A   1      38.234  29.617  27.733  1.00  0.00     0.014 A 
ATOM     36  C   UNL A   1      38.064  28.424  29.848  1.00  0.00     0.014 A 
ATOM     37  C   UNL A   1      39.527  29.129  27.583  1.00  0.00     0.010 A 
ATOM     38  C   UNL A   1      39.386  28.066  29.768  1.00  0.00     0.010 A 
ATOM     39  C   UNL A   1      40.108  28.384  28.622  1.00  0.00    -0.014 A 
BRANCH  39  40
ATOM     40  C   UNL A   1      41.517  28.016  28.563  1.00  0.00     0.031 A 
ATOM     41  C   UNL A   1      41.816  26.763  27.820  1.00  0.00     0.074 A 
ATOM     42  C   UNL A   1      42.499  28.843  28.973  1.00  0.00     0.049 A 
ATOM     43  N   UNL A   1      42.266  25.649  28.297  1.00  0.00    -0.248 NA
ATOM     44  C   UNL A   1      41.477  26.700  26.390  1.00  0.00     0.031 C 
ATOM     45  C   UNL A   1      42.388  30.238  29.417  1.00  0.00     0.029 A 
ATOM     46  N   UNL A   1      43.843  28.626  28.993  1.00  0.00    -0.354 N 
ATOM     47  C   UNL A   1      42.437  24.797  27.206  1.00  0.00     0.074 A 
ATOM     48  C   UNL A   1      41.792  25.437  26.091  1.00  0.00     0.031 C 
ATOM     49  C   UNL A   1      43.615  30.802  29.457  1.00  0.00     0.029 A 
ATOM     50  C   UNL A   1      44.602  29.765  29.225  1.00  0.00     0.049 A 
ATOM     51  H   UNL A   1      44.243  27.737  28.854  1.00  0.00     0.167 HD
ATOM     52  C   UNL A   1      43.300  23.745  27.270  1.00  0.00     0.037 A 
ATOM     53  C   UNL A   1      45.952  29.841  29.220  1.00  0.00     0.037 A 
ATOM     54  C   UNL A   1      43.688  23.488  28.633  1.00  0.00     0.049 A 
ATOM     55  C   UNL A   1      46.459  28.472  29.461  1.00  0.00     0.074 A 
ATOM     56  C   UNL A   1      43.076  22.994  29.765  1.00  0.00     0.029 A 
ATOM     57  N   UNL A   1      44.824  24.136  29.042  1.00  0.00    -0.354 N 
ATOM     58  N   UNL A   1      46.303  27.825  30.581  1.00  0.00    -0.248 NA
ATOM     59  C   UNL A   1      46.867  27.662  28.322  1.00  0.00     0.031 C 
ATOM     60  C   UNL A   1      43.707  23.657  30.861  1.00  0.00     0.029 A 
ATOM     61  C   UNL A   1      44.704  24.495  30.358  1.00  0.00     0.049 A 
ATOM     62  H   UNL A   1      45.607  24.317  28.476  1.00  0.00     0.167 HD
ATOM     63  C   UNL A   1      46.174  26.502  30.201  1.00  0.00     0.074 A 
ATOM     64  C   UNL A   1      46.705  26.445  28.846  1.00  0.00     0.031 C 
ATOM     65  C   UNL A   1      45.375  25.652  30.910  1.00  0.00     0.037 A 
BRANCH  52  66
ATOM     66  C   UNL A   1      44.130  23.216  26.116  1.00  0.00     0.064 A 
ATOM     67  C   UNL A   1      44.098  21.835  25.821  1.00  0.00     0.173 A 
ATOM     68  C   UNL A   1      45.173  23.938  25.499  1.00  0.00     0.173 A 
ATOM     69  F   UNL A   1      43.168  21.039  26.370  1.00  0.00    -0.203 F 
ATOM     70  C   UNL A   1      45.075  21.220  25.030  1.00  0.00     0.198 A 
ATOM     71  C   UNL A   1      46.115  23.330  24.666  1.00  0.00     0.198 A 
ATOM     72  F   UNL A   1      45.400  25.229  25.764  1.00  0.00    -0.203 F 
ATOM     73  F   UNL A   1      45.071  19.888  24.881  1.00  0.00    -0.200 F 
ATOM     74  C   UNL A   1      46.085  21.968  24.456  1.00  0.00     0.200 A 
ATOM     75  F   UNL A   1      47.101  24.069  24.138  1.00  0.00    -0.200 F 
ATOM     76  F   UNL A   1      47.053  21.376  23.744  1.00  0.00    -0.200 F 
ENDBRANCH  52  66
BRANCH  53  77
ATOM     77  C   UNL A   1      46.832  30.940  28.762  1.00  0.00     0.064 A 
ATOM     78  C   UNL A   1      46.671  31.483  27.477  1.00  0.00     0.173 A 
ATOM     79  C   UNL A   1      47.605  31.687  29.670  1.00  0.00     0.173 A 
ATOM     80  F   UNL A   1      45.936  30.840  26.559  1.00  0.00    -0.203 F 
ATOM     81  C   UNL A   1      47.183  32.740  27.145  1.00  0.00     0.198 A 
ATOM     82  C   UNL A   1      48.123  32.939  29.334  1.00  0.00     0.198 A 
ATOM     83  F   UNL A   1      47.781  31.270  30.932  1.00  0.00    -0.203 F 
ATOM     84  F   UNL A   1      46.923  33.267  25.941  1.00  0.00    -0.200 F 
ATOM     85  C   UNL A   1      47.889  33.476  28.080  1.00  0.00     0.200 A 
ATOM     86  F   UNL A   1      48.781  33.655  30.255  1.00  0.00    -0.200 F 
ATOM     87  F   UNL A   1      48.303  34.717  27.792  1.00  0.00    -0.200 F 
ENDBRANCH  53  77
BRANCH  65  88
ATOM     88  C   UNL A   1      45.013  26.059  32.310  1.00  0.00     0.064 A 
ATOM     89  C   UNL A   1      43.857  26.777  32.659  1.00  0.00     0.173 A 
ATOM     90  C   UNL A   1      45.832  25.610  33.354  1.00  0.00     0.173 A 
ATOM     91  F   UNL A   1      42.980  27.168  31.727  1.00  0.00    -0.203 F 
ATOM     92  C   UNL A   1      43.559  27.064  33.989  1.00  0.00     0.198 A 
ATOM     93  C   UNL A   1      45.513  25.864  34.684  1.00  0.00     0.198 A 
ATOM     94  F   UNL A   1      46.927  24.881  33.083  1.00  0.00    -0.203 F 
ATOM     95  F   UNL A   1      42.459  27.767  34.296  1.00  0.00    -0.200 F 
ATOM     96  C   UNL A   1      44.383  26.600  35.001  1.00  0.00     0.200 A 
ATOM     97  F   UNL A   1      46.289  25.375  35.660  1.00  0.00    -0.200 F 
ATOM     98  F   UNL A   1      44.076  26.842  36.283  1.00  0.00    -0.200 F 
ENDBRANCH  65  88
ENDBRANCH  39  40
ENDBRANCH  31  34
ENDBRANCH  29  30
ENDBRANCH  28  29
ENDBRANCH   1  28
TORSDOF 15
ENDMDL
