MODEL 1
REMARK VINA RESULT:     -12.9      0.000      0.000
REMARK SMILES O=C(NCCCNC(=O)[C@@H]1CCCC[N@H+]1Cc1cn2cccnc2n1)c1ccc(-c2c3nc(c(-c4c(F)c(F)c(F)c(F)c4F)c4ccc([nH]4)c(-c4c(F)c(F)c(F)c(F)c4F)c4nc(c(-c5c(F)c(F)c(F)c(F)c5F)c5ccc2[nH]5)C=C4)C=C3)cc1
REMARK SMILES IDX 5 1 4 2 3 3 1 4 2 5 26 7 27 8 88 9 28 10 87 11 29 12 30 13
REMARK SMILES IDX 31 14 81 15 32 16 86 17 80 18 82 19 33 20 85 21 79 22 78 23
REMARK SMILES IDX 34 25 66 26 46 27 65 28 47 29 50 30 64 31 83 32 48 33 49 34
REMARK SMILES IDX 63 36 84 37 51 38 35 39 36 40 44 41 37 42 38 43 42 44 45 45
REMARK SMILES IDX 39 46 40 47 43 48 41 49 67 50 68 51 76 52 69 53 70 54 74 55
REMARK SMILES IDX 77 56 71 57 72 58 75 59 73 60 52 61 53 62 61 63 54 64 55 65
REMARK SMILES IDX 59 66 62 67 56 68 57 69 60 70 58 71 6 72 7 73 8 74 9 76
REMARK SMILES IDX 10 77 11 78 15 79 12 80 14 81 13 83 16 84 17 85 18 86 25 87
REMARK SMILES IDX 19 88 24 89 20 90 23 91 21 92 22 93
REMARK H PARENT 3 6 82 24 50 35 7 75 15 82
REMARK Flexibility Score: inf
ROOT
ATOM      1  C   UNL A   1      31.852  28.663  25.916  1.00  0.00     0.042 C 
ENDROOT
BRANCH   1   2
ATOM      2  C   UNL A   1      33.027  29.619  25.727  1.00  0.00     0.118 C 
BRANCH   2   3
ATOM      3  N   UNL A   1      32.687  30.974  26.129  1.00  0.00    -0.352 N 
ATOM      4  O   UNL A   1      32.645  32.767  27.487  1.00  0.00    -0.269 OA
ATOM      5  C   UNL A   1      33.237  31.755  27.112  1.00  0.00     0.251 C 
ATOM      6  H   UNL A   1      31.955  31.392  25.622  1.00  0.00     0.163 HD
BRANCH   5   7
ATOM      7  C   UNL A   1      34.534  31.402  27.733  1.00  0.00     0.039 A 
ATOM      8  C   UNL A   1      35.551  32.349  27.889  1.00  0.00     0.014 A 
ATOM      9  C   UNL A   1      34.694  30.115  28.259  1.00  0.00     0.014 A 
ATOM     10  C   UNL A   1      36.753  31.992  28.500  1.00  0.00     0.010 A 
ATOM     11  C   UNL A   1      35.875  29.775  28.922  1.00  0.00     0.010 A 
ATOM     12  C   UNL A   1      36.917  30.708  29.042  1.00  0.00    -0.014 A 
BRANCH  12  13
ATOM     13  C   UNL A   1      38.142  30.358  29.804  1.00  0.00     0.031 A 
ATOM     14  C   UNL A   1      39.142  29.390  29.247  1.00  0.00     0.074 A 
ATOM     15  C   UNL A   1      38.316  30.873  31.036  1.00  0.00     0.049 A 
ATOM     16  N   UNL A   1      40.206  28.879  29.814  1.00  0.00    -0.248 NA
ATOM     17  C   UNL A   1      38.910  28.922  27.872  1.00  0.00     0.031 C 
ATOM     18  C   UNL A   1      37.405  31.811  31.691  1.00  0.00     0.029 A 
ATOM     19  N   UNL A   1      39.304  30.662  31.965  1.00  0.00    -0.354 N 
ATOM     20  C   UNL A   1      40.756  28.013  28.879  1.00  0.00     0.074 A 
ATOM     21  C   UNL A   1      39.898  28.054  27.713  1.00  0.00     0.031 C 
ATOM     22  C   UNL A   1      37.874  32.096  32.915  1.00  0.00     0.029 A 
ATOM     23  C   UNL A   1      39.088  31.320  33.150  1.00  0.00     0.049 A 
ATOM     24  H   UNL A   1      40.091  30.095  31.797  1.00  0.00     0.167 HD
ATOM     25  C   UNL A   1      41.875  27.257  28.987  1.00  0.00     0.037 A 
ATOM     26  C   UNL A   1      39.770  31.280  34.310  1.00  0.00     0.037 A 
ATOM     27  C   UNL A   1      42.730  27.231  30.147  1.00  0.00     0.049 A 
ATOM     28  C   UNL A   1      40.995  30.418  34.415  1.00  0.00     0.074 A 
ATOM     29  C   UNL A   1      43.913  26.538  30.332  1.00  0.00     0.029 A 
ATOM     30  N   UNL A   1      42.485  27.924  31.324  1.00  0.00    -0.354 N 
ATOM     31  N   UNL A   1      41.530  29.636  33.511  1.00  0.00    -0.248 NA
ATOM     32  C   UNL A   1      41.709  30.433  35.699  1.00  0.00     0.031 C 
ATOM     33  C   UNL A   1      44.361  26.777  31.636  1.00  0.00     0.029 A 
ATOM     34  C   UNL A   1      43.482  27.656  32.248  1.00  0.00     0.049 A 
ATOM     35  H   UNL A   1      41.716  28.519  31.480  1.00  0.00     0.167 HD
ATOM     36  C   UNL A   1      42.654  29.080  34.105  1.00  0.00     0.074 A 
ATOM     37  C   UNL A   1      42.726  29.619  35.448  1.00  0.00     0.031 C 
ATOM     38  C   UNL A   1      43.545  28.205  33.580  1.00  0.00     0.037 A 
BRANCH  25  39
ATOM     39  C   UNL A   1      42.225  26.371  27.827  1.00  0.00     0.064 A 
ATOM     40  C   UNL A   1      41.638  25.108  27.658  1.00  0.00     0.173 A 
ATOM     41  C   UNL A   1      43.142  26.803  26.858  1.00  0.00     0.173 A 
ATOM     42  F   UNL A   1      40.762  24.644  28.562  1.00  0.00    -0.203 F 
ATOM     43  C   UNL A   1      41.984  24.297  26.581  1.00  0.00     0.198 A 
ATOM     44  C   UNL A   1      43.466  26.000  25.767  1.00  0.00     0.198 A 
ATOM     45  F   UNL A   1      43.726  28.006  26.967  1.00  0.00    -0.203 F 
ATOM     46  F   UNL A   1      41.450  23.072  26.468  1.00  0.00    -0.200 F 
ATOM     47  C   UNL A   1      42.894  24.744  25.634  1.00  0.00     0.200 A 
ATOM     48  F   UNL A   1      44.337  26.439  24.847  1.00  0.00    -0.200 F 
ATOM     49  F   UNL A   1      43.226  23.961  24.599  1.00  0.00    -0.200 F 
ENDBRANCH  25  39
BRANCH  26  50
ATOM     50  C   UNL A   1      39.285  32.083  35.459  1.00  0.00     0.064 A 
ATOM     51  C   UNL A   1      38.451  31.519  36.432  1.00  0.00     0.173 A 
ATOM     52  C   UNL A   1      39.697  33.413  35.640  1.00  0.00     0.173 A 
ATOM     53  F   UNL A   1      38.018  30.257  36.292  1.00  0.00    -0.203 F 
ATOM     54  C   UNL A   1      38.047  32.253  37.545  1.00  0.00     0.198 A 
ATOM     55  C   UNL A   1      39.311  34.138  36.764  1.00  0.00     0.198 A 
ATOM     56  F   UNL A   1      40.500  33.994  34.738  1.00  0.00    -0.203 F 
ATOM     57  F   UNL A   1      37.233  31.697  38.453  1.00  0.00    -0.200 F 
ATOM     58  C   UNL A   1      38.485  33.558  37.716  1.00  0.00     0.200 A 
ATOM     59  F   UNL A   1      39.751  35.393  36.933  1.00  0.00    -0.200 F 
ATOM     60  F   UNL A   1      38.112  34.257  38.796  1.00  0.00    -0.200 F 
ENDBRANCH  26  50
BRANCH  38  61
ATOM     61  C   UNL A   1      44.700  27.796  34.442  1.00  0.00     0.064 A 
ATOM     62  C   UNL A   1      45.885  28.545  34.487  1.00  0.00     0.173 A 
ATOM     63  C   UNL A   1      44.595  26.677  35.282  1.00  0.00     0.173 A 
ATOM     64  F   UNL A   1      46.038  29.613  33.691  1.00  0.00    -0.203 F 
ATOM     65  C   UNL A   1      46.926  28.183  35.337  1.00  0.00     0.198 A 
ATOM     66  C   UNL A   1      45.628  26.331  36.147  1.00  0.00     0.198 A 
ATOM     67  F   UNL A   1      43.480  25.931  35.277  1.00  0.00    -0.203 F 
ATOM     68  F   UNL A   1      48.061  28.896  35.346  1.00  0.00    -0.200 F 
ATOM     69  C   UNL A   1      46.794  27.082  36.172  1.00  0.00     0.200 A 
ATOM     70  F   UNL A   1      45.496  25.274  36.960  1.00  0.00    -0.200 F 
ATOM     71  F   UNL A   1      47.792  26.745  37.000  1.00  0.00    -0.200 F 
ENDBRANCH  38  61
ENDBRANCH  12  13
ENDBRANCH   5   7
ENDBRANCH   2   3
ENDBRANCH   1   2
BRANCH   1  72
ATOM     72  C   UNL A   1      32.118  27.537  26.917  1.00  0.00     0.118 C 
BRANCH  72  73
ATOM     73  N   UNL A   1      31.028  26.579  26.974  1.00  0.00    -0.351 N 
ATOM     74  C   UNL A   1      30.829  25.394  26.325  1.00  0.00     0.278 C 
ATOM     75  H   UNL A   1      30.300  26.829  27.589  1.00  0.00     0.163 HD
ATOM     76  O   UNL A   1      29.771  24.808  26.581  1.00  0.00    -0.268 OA
BRANCH  74  77
ATOM     77  C   UNL A   1      31.900  24.745  25.419  1.00  0.00     0.274 C 
ATOM     78  C   UNL A   1      33.214  24.739  26.225  1.00  0.00     0.076 C 
ATOM     79  N   UNL A   1      32.041  25.415  24.100  1.00  0.00    -0.320 N 
ATOM     80  C   UNL A   1      34.381  24.201  25.411  1.00  0.00     0.012 C 
ATOM     81  C   UNL A   1      33.175  24.897  23.325  1.00  0.00     0.263 C 
ATOM     82  H   UNL A   1      32.245  26.392  24.311  1.00  0.00     0.349 HD
ATOM     83  C   UNL A   1      34.489  24.971  24.104  1.00  0.00     0.062 C 
BRANCH  79  84
ATOM     84  C   UNL A   1      30.791  25.421  23.312  1.00  0.00     0.322 C 
BRANCH  84  85
ATOM     85  C   UNL A   1      30.151  26.756  23.096  1.00  0.00     0.115 A 
ATOM     86  C   UNL A   1      28.929  27.198  23.560  1.00  0.00     0.124 A 
ATOM     87  N   UNL A   1      30.727  27.709  22.287  1.00  0.00    -0.210 NA
ATOM     88  N   UNL A   1      28.755  28.436  23.002  1.00  0.00    -0.291 N 
ATOM     89  C   UNL A   1      29.884  28.719  22.239  1.00  0.00     0.234 A 
ATOM     90  C   UNL A   1      27.682  29.309  23.100  1.00  0.00     0.096 A 
ATOM     91  N   UNL A   1      29.990  29.899  21.561  1.00  0.00    -0.221 NA
ATOM     92  C   UNL A   1      27.730  30.475  22.441  1.00  0.00     0.039 A 
ATOM     93  C   UNL A   1      28.979  30.706  21.660  1.00  0.00     0.117 A 
ENDBRANCH  84  85
ENDBRANCH  79  84
ENDBRANCH  74  77
ENDBRANCH  72  73
ENDBRANCH   1  72
TORSDOF 12
ENDMDL
MODEL 2
REMARK VINA RESULT:     -12.7      0.558      1.702
REMARK SMILES O=C(NCCCNC(=O)[C@@H]1CCCC[N@H+]1Cc1cn2cccnc2n1)c1ccc(-c2c3nc(c(-c4c(F)c(F)c(F)c(F)c4F)c4ccc([nH]4)c(-c4c(F)c(F)c(F)c(F)c4F)c4nc(c(-c5c(F)c(F)c(F)c(F)c5F)c5ccc2[nH]5)C=C4)C=C3)cc1
REMARK SMILES IDX 5 1 4 2 3 3 1 4 2 5 26 7 27 8 88 9 28 10 87 11 29 12 30 13
REMARK SMILES IDX 31 14 81 15 32 16 86 17 80 18 82 19 33 20 85 21 79 22 78 23
REMARK SMILES IDX 34 25 66 26 46 27 65 28 47 29 50 30 64 31 83 32 48 33 49 34
REMARK SMILES IDX 63 36 84 37 51 38 35 39 36 40 44 41 37 42 38 43 42 44 45 45
REMARK SMILES IDX 39 46 40 47 43 48 41 49 67 50 68 51 76 52 69 53 70 54 74 55
REMARK SMILES IDX 77 56 71 57 72 58 75 59 73 60 52 61 53 62 61 63 54 64 55 65
REMARK SMILES IDX 59 66 62 67 56 68 57 69 60 70 58 71 6 72 7 73 8 74 9 76
REMARK SMILES IDX 10 77 11 78 15 79 12 80 14 81 13 83 16 84 17 85 18 86 25 87
REMARK SMILES IDX 19 88 24 89 20 90 23 91 21 92 22 93
REMARK H PARENT 3 6 82 24 50 35 7 75 15 82
REMARK Flexibility Score: inf
ROOT
ATOM      1  C   UNL A   1      32.141  28.121  25.913  1.00  0.00     0.042 C 
ENDROOT
BRANCH   1   2
ATOM      2  C   UNL A   1      33.077  29.213  25.402  1.00  0.00     0.118 C 
BRANCH   2   3
ATOM      3  N   UNL A   1      32.659  30.532  25.847  1.00  0.00    -0.352 N 
ATOM      4  O   UNL A   1      32.496  32.266  27.270  1.00  0.00    -0.269 OA
ATOM      5  C   UNL A   1      33.149  31.302  26.870  1.00  0.00     0.251 C 
ATOM      6  H   UNL A   1      31.915  30.930  25.340  1.00  0.00     0.163 HD
BRANCH   5   7
ATOM      7  C   UNL A   1      34.450  30.993  27.504  1.00  0.00     0.039 A 
ATOM      8  C   UNL A   1      35.451  31.963  27.627  1.00  0.00     0.014 A 
ATOM      9  C   UNL A   1      34.631  29.729  28.076  1.00  0.00     0.014 A 
ATOM     10  C   UNL A   1      36.658  31.647  28.252  1.00  0.00     0.010 A 
ATOM     11  C   UNL A   1      35.816  29.433  28.752  1.00  0.00     0.010 A 
ATOM     12  C   UNL A   1      36.842  30.387  28.839  1.00  0.00    -0.014 A 
BRANCH  12  13
ATOM     13  C   UNL A   1      38.072  30.085  29.615  1.00  0.00     0.031 A 
ATOM     14  C   UNL A   1      39.099  29.130  29.084  1.00  0.00     0.074 A 
ATOM     15  C   UNL A   1      38.227  30.632  30.836  1.00  0.00     0.049 A 
ATOM     16  N   UNL A   1      40.172  28.659  29.667  1.00  0.00    -0.248 NA
ATOM     17  C   UNL A   1      38.885  28.625  27.720  1.00  0.00     0.031 C 
ATOM     18  C   UNL A   1      37.290  31.562  31.465  1.00  0.00     0.029 A 
ATOM     19  N   UNL A   1      39.216  30.467  31.773  1.00  0.00    -0.354 N 
ATOM     20  C   UNL A   1      40.748  27.786  28.755  1.00  0.00     0.074 A 
ATOM     21  C   UNL A   1      39.895  27.778  27.585  1.00  0.00     0.031 C 
ATOM     22  C   UNL A   1      37.746  31.887  32.683  1.00  0.00     0.029 A 
ATOM     23  C   UNL A   1      38.977  31.147  32.941  1.00  0.00     0.049 A 
ATOM     24  H   UNL A   1      40.017  29.917  31.622  1.00  0.00     0.167 HD
ATOM     25  C   UNL A   1      41.885  27.060  28.885  1.00  0.00     0.037 A 
ATOM     26  C   UNL A   1      39.655  31.150  34.105  1.00  0.00     0.037 A 
ATOM     27  C   UNL A   1      42.735  27.082  30.049  1.00  0.00     0.049 A 
ATOM     28  C   UNL A   1      40.900  30.322  34.235  1.00  0.00     0.074 A 
ATOM     29  C   UNL A   1      43.934  26.424  30.255  1.00  0.00     0.029 A 
ATOM     30  N   UNL A   1      42.466  27.796  31.208  1.00  0.00    -0.354 N 
ATOM     31  N   UNL A   1      41.459  29.533  33.351  1.00  0.00    -0.248 NA
ATOM     32  C   UNL A   1      41.608  30.384  35.521  1.00  0.00     0.031 C 
ATOM     33  C   UNL A   1      44.370  26.703  31.555  1.00  0.00     0.029 A 
ATOM     34  C   UNL A   1      43.465  27.574  32.143  1.00  0.00     0.049 A 
ATOM     35  H   UNL A   1      41.682  28.375  31.347  1.00  0.00     0.167 HD
ATOM     36  C   UNL A   1      42.593  29.019  33.963  1.00  0.00     0.074 A 
ATOM     37  C   UNL A   1      42.646  29.590  35.294  1.00  0.00     0.031 C 
ATOM     38  C   UNL A   1      43.508  28.155  33.462  1.00  0.00     0.037 A 
BRANCH  25  39
ATOM     39  C   UNL A   1      42.262  26.158  27.748  1.00  0.00     0.064 A 
ATOM     40  C   UNL A   1      43.203  26.541  26.781  1.00  0.00     0.173 A 
ATOM     41  C   UNL A   1      41.691  24.881  27.637  1.00  0.00     0.173 A 
ATOM     42  F   UNL A   1      43.771  27.755  26.835  1.00  0.00    -0.203 F 
ATOM     43  C   UNL A   1      43.532  25.693  25.726  1.00  0.00     0.198 A 
ATOM     44  C   UNL A   1      42.043  24.025  26.596  1.00  0.00     0.198 A 
ATOM     45  F   UNL A   1      40.792  24.461  28.540  1.00  0.00    -0.203 F 
ATOM     46  F   UNL A   1      44.395  26.102  24.784  1.00  0.00    -0.200 F 
ATOM     47  C   UNL A   1      42.956  24.435  25.637  1.00  0.00     0.200 A 
ATOM     48  F   UNL A   1      41.493  22.805  26.517  1.00  0.00    -0.200 F 
ATOM     49  F   UNL A   1      43.273  23.622  24.620  1.00  0.00    -0.200 F 
ENDBRANCH  25  39
BRANCH  26  50
ATOM     50  C   UNL A   1      39.144  31.967  35.234  1.00  0.00     0.064 A 
ATOM     51  C   UNL A   1      38.405  31.383  36.270  1.00  0.00     0.173 A 
ATOM     52  C   UNL A   1      39.439  33.336  35.329  1.00  0.00     0.173 A 
ATOM     53  F   UNL A   1      38.084  30.082  36.212  1.00  0.00    -0.203 F 
ATOM     54  C   UNL A   1      37.980  32.137  37.361  1.00  0.00     0.198 A 
ATOM     55  C   UNL A   1      39.034  34.083  36.432  1.00  0.00     0.198 A 
ATOM     56  F   UNL A   1      40.149  33.938  34.364  1.00  0.00    -0.203 F 
ATOM     57  F   UNL A   1      37.257  31.559  38.331  1.00  0.00    -0.200 F 
ATOM     58  C   UNL A   1      38.303  33.484  37.447  1.00  0.00     0.200 A 
ATOM     59  F   UNL A   1      39.362  35.380  36.519  1.00  0.00    -0.200 F 
ATOM     60  F   UNL A   1      37.911  34.203  38.507  1.00  0.00    -0.200 F 
ENDBRANCH  26  50
BRANCH  38  61
ATOM     61  C   UNL A   1      44.670  27.795  34.339  1.00  0.00     0.064 A 
ATOM     62  C   UNL A   1      44.641  26.666  35.169  1.00  0.00     0.173 A 
ATOM     63  C   UNL A   1      45.849  28.553  34.297  1.00  0.00     0.173 A 
ATOM     64  F   UNL A   1      43.529  25.920  35.255  1.00  0.00    -0.203 F 
ATOM     65  C   UNL A   1      45.750  26.313  35.933  1.00  0.00     0.198 A 
ATOM     66  C   UNL A   1      46.964  28.186  35.044  1.00  0.00     0.198 A 
ATOM     67  F   UNL A   1      45.926  29.640  33.514  1.00  0.00    -0.203 F 
ATOM     68  F   UNL A   1      45.693  25.245  36.742  1.00  0.00    -0.200 F 
ATOM     69  C   UNL A   1      46.913  27.068  35.864  1.00  0.00     0.200 A 
ATOM     70  F   UNL A   1      48.089  28.908  34.968  1.00  0.00    -0.200 F 
ATOM     71  F   UNL A   1      47.984  26.718  36.588  1.00  0.00    -0.200 F 
ENDBRANCH  38  61
ENDBRANCH  12  13
ENDBRANCH   5   7
ENDBRANCH   2   3
ENDBRANCH   1   2
BRANCH   1  72
ATOM     72  C   UNL A   1      32.829  26.781  26.177  1.00  0.00     0.118 C 
BRANCH  72  73
ATOM     73  N   UNL A   1      31.950  25.828  26.833  1.00  0.00    -0.351 N 
ATOM     74  C   UNL A   1      31.539  24.577  26.470  1.00  0.00     0.278 C 
ATOM     75  H   UNL A   1      31.584  26.140  27.692  1.00  0.00     0.163 HD
ATOM     76  O   UNL A   1      30.761  24.016  27.249  1.00  0.00    -0.268 OA
BRANCH  74  77
ATOM     77  C   UNL A   1      32.095  23.839  25.231  1.00  0.00     0.274 C 
ATOM     78  C   UNL A   1      33.603  23.642  25.476  1.00  0.00     0.076 C 
ATOM     79  N   UNL A   1      31.810  24.539  23.951  1.00  0.00    -0.320 N 
ATOM     80  C   UNL A   1      34.296  22.998  24.285  1.00  0.00     0.012 C 
ATOM     81  C   UNL A   1      32.490  23.918  22.807  1.00  0.00     0.263 C 
ATOM     82  H   UNL A   1      32.202  25.475  24.059  1.00  0.00     0.349 HD
ATOM     83  C   UNL A   1      33.999  23.800  23.027  1.00  0.00     0.062 C 
BRANCH  79  84
ATOM     84  C   UNL A   1      30.366  24.728  23.698  1.00  0.00     0.322 C 
BRANCH  84  85
ATOM     85  C   UNL A   1      29.920  26.130  23.430  1.00  0.00     0.115 A 
ATOM     86  C   UNL A   1      28.693  26.700  23.706  1.00  0.00     0.124 A 
ATOM     87  N   UNL A   1      30.721  27.026  22.761  1.00  0.00    -0.210 NA
ATOM     88  N   UNL A   1      28.749  27.959  23.173  1.00  0.00    -0.291 N 
ATOM     89  C   UNL A   1      30.013  28.126  22.614  1.00  0.00     0.234 A 
ATOM     90  C   UNL A   1      27.776  28.946  23.128  1.00  0.00     0.096 A 
ATOM     91  N   UNL A   1      30.356  29.299  22.005  1.00  0.00    -0.221 NA
ATOM     92  C   UNL A   1      28.058  30.111  22.529  1.00  0.00     0.039 A 
ATOM     93  C   UNL A   1      29.437  30.213  21.969  1.00  0.00     0.117 A 
ENDBRANCH  84  85
ENDBRANCH  79  84
ENDBRANCH  74  77
ENDBRANCH  72  73
ENDBRANCH   1  72
TORSDOF 12
ENDMDL
MODEL 3
REMARK VINA RESULT:     -12.6      2.154      3.874
REMARK SMILES O=C(NCCCNC(=O)[C@@H]1CCCC[N@H+]1Cc1cn2cccnc2n1)c1ccc(-c2c3nc(c(-c4c(F)c(F)c(F)c(F)c4F)c4ccc([nH]4)c(-c4c(F)c(F)c(F)c(F)c4F)c4nc(c(-c5c(F)c(F)c(F)c(F)c5F)c5ccc2[nH]5)C=C4)C=C3)cc1
REMARK SMILES IDX 5 1 4 2 3 3 1 4 2 5 26 7 27 8 88 9 28 10 87 11 29 12 30 13
REMARK SMILES IDX 31 14 81 15 32 16 86 17 80 18 82 19 33 20 85 21 79 22 78 23
REMARK SMILES IDX 34 25 66 26 46 27 65 28 47 29 50 30 64 31 83 32 48 33 49 34
REMARK SMILES IDX 63 36 84 37 51 38 35 39 36 40 44 41 37 42 38 43 42 44 45 45
REMARK SMILES IDX 39 46 40 47 43 48 41 49 67 50 68 51 76 52 69 53 70 54 74 55
REMARK SMILES IDX 77 56 71 57 72 58 75 59 73 60 52 61 53 62 61 63 54 64 55 65
REMARK SMILES IDX 59 66 62 67 56 68 57 69 60 70 58 71 6 72 7 73 8 74 9 76
REMARK SMILES IDX 10 77 11 78 15 79 12 80 14 81 13 83 16 84 17 85 18 86 25 87
REMARK SMILES IDX 19 88 24 89 20 90 23 91 21 92 22 93
REMARK H PARENT 3 6 82 24 50 35 7 75 15 82
REMARK Flexibility Score: inf
ROOT
ATOM      1  C   UNL A   1      31.865  27.954  26.308  1.00  0.00     0.042 C 
ENDROOT
BRANCH   1   2
ATOM      2  C   UNL A   1      32.921  28.918  25.775  1.00  0.00     0.118 C 
BRANCH   2   3
ATOM      3  N   UNL A   1      32.562  30.303  26.030  1.00  0.00    -0.352 N 
ATOM      4  O   UNL A   1      32.510  32.236  27.180  1.00  0.00    -0.269 OA
ATOM      5  C   UNL A   1      33.115  31.198  26.908  1.00  0.00     0.251 C 
ATOM      6  H   UNL A   1      31.813  30.649  25.494  1.00  0.00     0.163 HD
BRANCH   5   7
ATOM      7  C   UNL A   1      34.429  30.939  27.539  1.00  0.00     0.039 A 
ATOM      8  C   UNL A   1      35.358  31.966  27.739  1.00  0.00     0.014 A 
ATOM      9  C   UNL A   1      34.693  29.656  28.029  1.00  0.00     0.014 A 
ATOM     10  C   UNL A   1      36.578  31.694  28.358  1.00  0.00     0.010 A 
ATOM     11  C   UNL A   1      35.890  29.398  28.700  1.00  0.00     0.010 A 
ATOM     12  C   UNL A   1      36.845  30.413  28.865  1.00  0.00    -0.014 A 
BRANCH  12  13
ATOM     13  C   UNL A   1      38.086  30.147  29.635  1.00  0.00     0.031 A 
ATOM     14  C   UNL A   1      39.133  29.214  29.105  1.00  0.00     0.074 A 
ATOM     15  C   UNL A   1      38.234  30.705  30.852  1.00  0.00     0.049 A 
ATOM     16  N   UNL A   1      40.221  28.773  29.686  1.00  0.00    -0.248 NA
ATOM     17  C   UNL A   1      38.925  28.695  27.745  1.00  0.00     0.031 C 
ATOM     18  C   UNL A   1      37.277  31.616  31.480  1.00  0.00     0.029 A 
ATOM     19  N   UNL A   1      39.231  30.571  31.785  1.00  0.00    -0.354 N 
ATOM     20  C   UNL A   1      40.813  27.908  28.776  1.00  0.00     0.074 A 
ATOM     21  C   UNL A   1      39.955  27.872  27.610  1.00  0.00     0.031 C 
ATOM     22  C   UNL A   1      37.732  31.960  32.694  1.00  0.00     0.029 A 
ATOM     23  C   UNL A   1      38.982  31.252  32.950  1.00  0.00     0.049 A 
ATOM     24  H   UNL A   1      40.045  30.039  31.633  1.00  0.00     0.167 HD
ATOM     25  C   UNL A   1      41.969  27.212  28.905  1.00  0.00     0.037 A 
ATOM     26  C   UNL A   1      39.665  31.279  34.110  1.00  0.00     0.037 A 
ATOM     27  C   UNL A   1      42.824  27.263  30.063  1.00  0.00     0.049 A 
ATOM     28  C   UNL A   1      40.931  30.483  34.239  1.00  0.00     0.074 A 
ATOM     29  C   UNL A   1      44.040  26.635  30.268  1.00  0.00     0.029 A 
ATOM     30  N   UNL A   1      42.544  27.977  31.220  1.00  0.00    -0.354 N 
ATOM     31  N   UNL A   1      41.505  29.702  33.357  1.00  0.00    -0.248 NA
ATOM     32  C   UNL A   1      41.644  30.571  35.521  1.00  0.00     0.031 C 
ATOM     33  C   UNL A   1      44.475  26.934  31.564  1.00  0.00     0.029 A 
ATOM     34  C   UNL A   1      43.553  27.786  32.151  1.00  0.00     0.049 A 
ATOM     35  H   UNL A   1      41.746  28.537  31.360  1.00  0.00     0.167 HD
ATOM     36  C   UNL A   1      42.655  29.220  33.966  1.00  0.00     0.074 A 
ATOM     37  C   UNL A   1      42.700  29.801  35.293  1.00  0.00     0.031 C 
ATOM     38  C   UNL A   1      43.588  28.376  33.466  1.00  0.00     0.037 A 
BRANCH  25  39
ATOM     39  C   UNL A   1      42.362  26.312  27.771  1.00  0.00     0.064 A 
ATOM     40  C   UNL A   1      43.287  26.713  26.795  1.00  0.00     0.173 A 
ATOM     41  C   UNL A   1      41.824  25.019  27.673  1.00  0.00     0.173 A 
ATOM     42  F   UNL A   1      43.822  27.942  26.837  1.00  0.00    -0.203 F 
ATOM     43  C   UNL A   1      43.631  25.867  25.744  1.00  0.00     0.198 A 
ATOM     44  C   UNL A   1      42.192  24.166  26.636  1.00  0.00     0.198 A 
ATOM     45  F   UNL A   1      40.943  24.582  28.585  1.00  0.00    -0.203 F 
ATOM     46  F   UNL A   1      44.477  26.291  24.794  1.00  0.00    -0.200 F 
ATOM     47  C   UNL A   1      43.087  24.593  25.667  1.00  0.00     0.200 A 
ATOM     48  F   UNL A   1      41.674  22.931  26.568  1.00  0.00    -0.200 F 
ATOM     49  F   UNL A   1      43.420  23.781  24.654  1.00  0.00    -0.200 F 
ENDBRANCH  25  39
BRANCH  26  50
ATOM     50  C   UNL A   1      39.140  32.091  35.236  1.00  0.00     0.064 A 
ATOM     51  C   UNL A   1      38.397  31.500  36.266  1.00  0.00     0.173 A 
ATOM     52  C   UNL A   1      39.425  33.462  35.337  1.00  0.00     0.173 A 
ATOM     53  F   UNL A   1      38.086  30.197  36.203  1.00  0.00    -0.203 F 
ATOM     54  C   UNL A   1      37.959  32.249  37.355  1.00  0.00     0.198 A 
ATOM     55  C   UNL A   1      39.007  34.203  36.438  1.00  0.00     0.198 A 
ATOM     56  F   UNL A   1      40.139  34.070  34.378  1.00  0.00    -0.203 F 
ATOM     57  F   UNL A   1      37.233  31.664  38.319  1.00  0.00    -0.200 F 
ATOM     58  C   UNL A   1      38.272  33.597  37.446  1.00  0.00     0.200 A 
ATOM     59  F   UNL A   1      39.325  35.502  36.529  1.00  0.00    -0.200 F 
ATOM     60  F   UNL A   1      37.867  34.312  38.505  1.00  0.00    -0.200 F 
ENDBRANCH  26  50
BRANCH  38  61
ATOM     61  C   UNL A   1      44.762  28.050  34.338  1.00  0.00     0.064 A 
ATOM     62  C   UNL A   1      45.908  28.857  34.360  1.00  0.00     0.173 A 
ATOM     63  C   UNL A   1      44.712  26.952  35.211  1.00  0.00     0.173 A 
ATOM     64  F   UNL A   1      46.009  29.907  33.531  1.00  0.00    -0.203 F 
ATOM     65  C   UNL A   1      46.966  28.572  35.219  1.00  0.00     0.198 A 
ATOM     66  C   UNL A   1      45.761  26.684  36.085  1.00  0.00     0.198 A 
ATOM     67  F   UNL A   1      43.635  26.153  35.230  1.00  0.00    -0.203 F 
ATOM     68  F   UNL A   1      48.065  29.340  35.204  1.00  0.00    -0.200 F 
ATOM     69  C   UNL A   1      46.888  27.492  36.086  1.00  0.00     0.200 A 
ATOM     70  F   UNL A   1      45.680  25.646  36.929  1.00  0.00    -0.200 F 
ATOM     71  F   UNL A   1      47.902  27.228  36.922  1.00  0.00    -0.200 F 
ENDBRANCH  38  61
ENDBRANCH  12  13
ENDBRANCH   5   7
ENDBRANCH   2   3
ENDBRANCH   1   2
BRANCH   1  72
ATOM     72  C   UNL A   1      31.791  26.626  25.552  1.00  0.00     0.118 C 
BRANCH  72  73
ATOM     73  N   UNL A   1      31.296  25.543  26.383  1.00  0.00    -0.351 N 
ATOM     74  C   UNL A   1      31.707  24.247  26.521  1.00  0.00     0.278 C 
ATOM     75  H   UNL A   1      30.526  25.784  26.946  1.00  0.00     0.163 HD
ATOM     76  O   UNL A   1      31.057  23.555  27.313  1.00  0.00    -0.268 OA
BRANCH  74  77
ATOM     77  C   UNL A   1      32.978  23.694  25.837  1.00  0.00     0.274 C 
ATOM     78  C   UNL A   1      34.093  24.730  26.074  1.00  0.00     0.076 C 
ATOM     79  N   UNL A   1      32.782  23.382  24.397  1.00  0.00    -0.320 N 
ATOM     80  C   UNL A   1      35.387  24.346  25.373  1.00  0.00     0.012 C 
ATOM     81  C   UNL A   1      34.038  23.023  23.725  1.00  0.00     0.263 C 
ATOM     82  H   UNL A   1      32.455  24.250  23.972  1.00  0.00     0.349 HD
ATOM     83  C   UNL A   1      35.114  24.096  23.898  1.00  0.00     0.062 C 
BRANCH  79  84
ATOM     84  C   UNL A   1      31.721  22.383  24.154  1.00  0.00     0.322 C 
BRANCH  84  85
ATOM     85  C   UNL A   1      32.138  20.948  24.208  1.00  0.00     0.115 A 
ATOM     86  C   UNL A   1      32.493  20.125  23.159  1.00  0.00     0.124 A 
ATOM     87  N   UNL A   1      32.127  20.239  25.388  1.00  0.00    -0.210 NA
ATOM     88  N   UNL A   1      32.680  18.888  23.714  1.00  0.00    -0.291 N 
ATOM     89  C   UNL A   1      32.459  19.002  25.084  1.00  0.00     0.234 A 
ATOM     90  C   UNL A   1      33.006  17.685  23.108  1.00  0.00     0.096 A 
ATOM     91  N   UNL A   1      32.577  17.915  25.902  1.00  0.00    -0.221 NA
ATOM     92  C   UNL A   1      33.120  16.584  23.865  1.00  0.00     0.039 A 
ATOM     93  C   UNL A   1      32.881  16.795  25.322  1.00  0.00     0.117 A 
ENDBRANCH  84  85
ENDBRANCH  79  84
ENDBRANCH  74  77
ENDBRANCH  72  73
ENDBRANCH   1  72
TORSDOF 12
ENDMDL
