MODEL 1
REMARK VINA RESULT:     -12.4      0.000      0.000
REMARK SMILES C[N@@H+]1CCC[C@@H](NC(=O)N(CC(=O)NCCCNC(=O)c2ccc(-c3c4nc(c(-c5c(F)c(F)c(F)c(F)c5F)c5ccc([nH]5)c(-c5c(F)c(F)c(F)c(F)c5F)c5nc(c(-c6c(F)c(F)c(F)c(F)c6F)c6ccc3[nH]6)C=C5)C=C4)cc2)C(C)(C)C)C1
REMARK SMILES IDX 15 1 14 2 12 3 13 4 11 6 10 7 8 8 7 9 9 11 6 12 1 13 2 14
REMARK SMILES IDX 3 15 88 16 4 18 5 19 84 20 85 21 86 22 87 23 16 24 17 25
REMARK SMILES IDX 18 26 19 27 20 29 21 30 22 31 83 32 23 33 82 34 24 35 25 36
REMARK SMILES IDX 26 37 76 38 27 39 81 40 75 41 77 42 28 43 80 44 74 45 73 46
REMARK SMILES IDX 29 48 61 49 41 50 60 51 42 52 45 53 59 54 78 55 43 56 44 57
REMARK SMILES IDX 58 59 79 60 46 61 30 62 31 63 39 64 32 65 33 66 37 67 40 68
REMARK SMILES IDX 34 69 35 70 38 71 36 72 62 73 63 74 71 75 64 76 65 77 69 78
REMARK SMILES IDX 72 79 66 80 67 81 70 82 68 83 47 84 48 85 56 86 49 87 50 88
REMARK SMILES IDX 54 89 57 90 51 91 52 92 55 93 53 94
REMARK H PARENT 14 5 7 10 2 17 18 28 77 47 45 58
REMARK Flexibility Score: inf
ROOT
ATOM      1  C   UNL A   1      31.393  30.988  26.304  1.00  0.00     0.117 C 
ENDROOT
BRANCH   1   2
ATOM      2  N   UNL A   1      32.665  30.321  26.417  1.00  0.00    -0.354 N 
ATOM      3  C   UNL A   1      33.020  29.078  25.985  1.00  0.00     0.239 C 
ATOM      4  O   UNL A   1      34.223  28.902  25.755  1.00  0.00    -0.273 OA
ATOM      5  H   UNL A   1      33.375  30.834  26.869  1.00  0.00     0.163 HD
BRANCH   3   6
ATOM      6  C   UNL A   1      32.006  27.959  25.653  1.00  0.00     0.221 C 
BRANCH   6   7
ATOM      7  N   UNL A   1      31.545  27.827  24.268  1.00  0.00    -0.311 N 
BRANCH   7   8
ATOM      8  C   UNL A   1      31.643  28.804  23.295  1.00  0.00     0.318 C 
ATOM      9  N   UNL A   1      30.667  29.671  22.945  1.00  0.00    -0.330 N 
ATOM     10  H   UNL A   1      31.012  30.284  22.257  1.00  0.00     0.165 HD
ATOM     11  O   UNL A   1      32.673  28.950  22.628  1.00  0.00    -0.249 OA
BRANCH   9  12
ATOM     12  C   UNL A   1      29.258  30.016  23.238  1.00  0.00     0.139 C 
ATOM     13  C   UNL A   1      29.071  33.824  23.127  1.00  0.00     0.332 C 
ATOM     14  N   UNL A   1      29.191  32.461  22.607  1.00  0.00    -0.336 N 
ATOM     15  C   UNL A   1      28.124  32.208  21.633  1.00  0.00     0.262 C 
ATOM     16  C   UNL A   1      29.139  31.484  23.713  1.00  0.00     0.287 C 
ATOM     17  H   UNL A   1      30.091  32.357  22.137  1.00  0.00     0.347 HD
ATOM     18  C   UNL A   1      28.327  30.845  20.990  1.00  0.00     0.064 C 
ATOM     19  C   UNL A   1      28.329  29.742  22.035  1.00  0.00     0.037 C 
ENDBRANCH   9  12
ENDBRANCH   7   8
BRANCH   7  20
ATOM     20  C   UNL A   1      30.970  26.456  23.882  1.00  0.00     0.037 C 
ATOM     21  C   UNL A   1      31.388  26.039  22.456  1.00  0.00     0.034 C 
ATOM     22  C   UNL A   1      31.413  25.367  24.888  1.00  0.00     0.034 C 
ATOM     23  C   UNL A   1      29.411  26.385  23.872  1.00  0.00     0.034 C 
ENDBRANCH   7  20
ENDBRANCH   6   7
ENDBRANCH   3   6
ENDBRANCH   1   2
BRANCH   1  24
ATOM     24  C   UNL A   1      31.403  32.491  26.501  1.00  0.00     0.042 C 
BRANCH  24  25
ATOM     25  C   UNL A   1      32.538  32.980  27.377  1.00  0.00     0.118 C 
BRANCH  25  26
ATOM     26  N   UNL A   1      32.382  34.382  27.741  1.00  0.00    -0.352 N 
ATOM     27  C   UNL A   1      32.992  35.096  28.742  1.00  0.00     0.251 C 
ATOM     28  H   UNL A   1      31.745  34.891  27.188  1.00  0.00     0.163 HD
ATOM     29  O   UNL A   1      32.574  36.209  29.039  1.00  0.00    -0.269 OA
BRANCH  27  30
ATOM     30  C   UNL A   1      34.142  34.518  29.471  1.00  0.00     0.039 A 
ATOM     31  C   UNL A   1      33.924  33.917  30.713  1.00  0.00     0.014 A 
ATOM     32  C   UNL A   1      35.434  34.576  28.940  1.00  0.00     0.014 A 
ATOM     33  C   UNL A   1      34.990  33.326  31.393  1.00  0.00     0.010 A 
ATOM     34  C   UNL A   1      36.474  33.902  29.570  1.00  0.00     0.010 A 
ATOM     35  C   UNL A   1      36.268  33.283  30.811  1.00  0.00    -0.014 A 
BRANCH  35  36
ATOM     36  C   UNL A   1      37.404  32.612  31.492  1.00  0.00     0.031 A 
ATOM     37  C   UNL A   1      38.105  31.458  30.829  1.00  0.00     0.074 A 
ATOM     38  C   UNL A   1      37.765  33.003  32.730  1.00  0.00     0.049 A 
ATOM     39  N   UNL A   1      39.078  30.707  31.283  1.00  0.00    -0.248 NA
ATOM     40  C   UNL A   1      37.633  31.076  29.488  1.00  0.00     0.031 C 
ATOM     41  C   UNL A   1      37.128  34.073  33.498  1.00  0.00     0.029 A 
ATOM     42  N   UNL A   1      38.753  32.540  33.563  1.00  0.00    -0.354 N 
ATOM     43  C   UNL A   1      39.320  29.763  30.294  1.00  0.00     0.074 A 
ATOM     44  C   UNL A   1      38.353  29.993  29.243  1.00  0.00     0.031 C 
ATOM     45  C   UNL A   1      37.757  34.205  34.676  1.00  0.00     0.029 A 
ATOM     46  C   UNL A   1      38.814  33.202  34.765  1.00  0.00     0.049 A 
ATOM     47  H   UNL A   1      39.359  31.802  33.322  1.00  0.00     0.167 HD
ATOM     48  C   UNL A   1      40.279  28.809  30.252  1.00  0.00     0.037 A 
ATOM     49  C   UNL A   1      39.626  33.014  35.822  1.00  0.00     0.037 A 
ATOM     50  C   UNL A   1      41.254  28.600  31.291  1.00  0.00     0.049 A 
ATOM     51  C   UNL A   1      40.677  31.938  35.755  1.00  0.00     0.074 A 
ATOM     52  C   UNL A   1      42.304  27.698  31.320  1.00  0.00     0.029 A 
ATOM     53  N   UNL A   1      41.293  29.299  32.489  1.00  0.00    -0.354 N 
ATOM     54  N   UNL A   1      40.946  31.101  34.782  1.00  0.00    -0.248 NA
ATOM     55  C   UNL A   1      41.545  31.788  36.932  1.00  0.00     0.031 C 
ATOM     56  C   UNL A   1      42.944  27.815  32.557  1.00  0.00     0.029 A 
ATOM     57  C   UNL A   1      42.334  28.831  33.275  1.00  0.00     0.049 A 
ATOM     58  H   UNL A   1      40.674  30.021  32.743  1.00  0.00     0.167 HD
ATOM     59  C   UNL A   1      42.029  30.348  35.215  1.00  0.00     0.074 A 
ATOM     60  C   UNL A   1      42.380  30.839  36.531  1.00  0.00     0.031 C 
ATOM     61  C   UNL A   1      42.675  29.338  34.580  1.00  0.00     0.037 A 
BRANCH  48  62
ATOM     62  C   UNL A   1      40.327  27.920  29.041  1.00  0.00     0.064 A 
ATOM     63  C   UNL A   1      41.084  28.257  27.908  1.00  0.00     0.173 A 
ATOM     64  C   UNL A   1      39.638  26.698  29.027  1.00  0.00     0.173 A 
ATOM     65  F   UNL A   1      41.753  29.419  27.864  1.00  0.00    -0.203 F 
ATOM     66  C   UNL A   1      41.123  27.421  26.796  1.00  0.00     0.198 A 
ATOM     67  C   UNL A   1      39.707  25.848  27.926  1.00  0.00     0.198 A 
ATOM     68  F   UNL A   1      38.903  26.323  30.084  1.00  0.00    -0.203 F 
ATOM     69  F   UNL A   1      41.808  27.790  25.705  1.00  0.00    -0.200 F 
ATOM     70  C   UNL A   1      40.442  26.213  26.809  1.00  0.00     0.200 A 
ATOM     71  F   UNL A   1      39.060  24.674  27.947  1.00  0.00    -0.200 F 
ATOM     72  F   UNL A   1      40.488  25.404  25.741  1.00  0.00    -0.200 F 
ENDBRANCH  48  62
BRANCH  49  73
ATOM     73  C   UNL A   1      39.495  33.877  37.026  1.00  0.00     0.064 A 
ATOM     74  C   UNL A   1      38.739  33.463  38.132  1.00  0.00     0.173 A 
ATOM     75  C   UNL A   1      40.110  35.136  37.094  1.00  0.00     0.173 A 
ATOM     76  F   UNL A   1      38.114  32.275  38.108  1.00  0.00    -0.203 F 
ATOM     77  C   UNL A   1      38.579  34.284  39.245  1.00  0.00     0.198 A 
ATOM     78  C   UNL A   1      39.978  35.943  38.221  1.00  0.00     0.198 A 
ATOM     79  F   UNL A   1      40.850  35.578  36.066  1.00  0.00    -0.203 F 
ATOM     80  F   UNL A   1      37.805  33.886  40.264  1.00  0.00    -0.200 F 
ATOM     81  C   UNL A   1      39.204  35.521  39.292  1.00  0.00     0.200 A 
ATOM     82  F   UNL A   1      40.595  37.131  38.269  1.00  0.00    -0.200 F 
ATOM     83  F   UNL A   1      39.051  36.311  40.363  1.00  0.00    -0.200 F 
ENDBRANCH  49  73
BRANCH  61  84
ATOM     84  C   UNL A   1      43.854  28.725  35.281  1.00  0.00     0.064 A 
ATOM     85  C   UNL A   1      45.158  29.208  35.096  1.00  0.00     0.173 A 
ATOM     86  C   UNL A   1      43.669  27.662  36.179  1.00  0.00     0.173 A 
ATOM     87  F   UNL A   1      45.391  30.213  34.239  1.00  0.00    -0.203 F 
ATOM     88  C   UNL A   1      46.236  28.628  35.760  1.00  0.00     0.198 A 
ATOM     89  C   UNL A   1      44.745  27.108  36.867  1.00  0.00     0.198 A 
ATOM     90  F   UNL A   1      42.441  27.167  36.398  1.00  0.00    -0.203 F 
ATOM     91  F   UNL A   1      47.480  29.069  35.526  1.00  0.00    -0.200 F 
ATOM     92  C   UNL A   1      46.028  27.585  36.650  1.00  0.00     0.200 A 
ATOM     93  F   UNL A   1      44.538  26.112  37.740  1.00  0.00    -0.200 F 
ATOM     94  F   UNL A   1      47.066  27.034  37.293  1.00  0.00    -0.200 F 
ENDBRANCH  61  84
ENDBRANCH  35  36
ENDBRANCH  27  30
ENDBRANCH  25  26
ENDBRANCH  24  25
ENDBRANCH   1  24
TORSDOF 14
ENDMDL
MODEL 2
REMARK VINA RESULT:     -12.3      0.244      2.036
REMARK SMILES C[N@@H+]1CCC[C@@H](NC(=O)N(CC(=O)NCCCNC(=O)c2ccc(-c3c4nc(c(-c5c(F)c(F)c(F)c(F)c5F)c5ccc([nH]5)c(-c5c(F)c(F)c(F)c(F)c5F)c5nc(c(-c6c(F)c(F)c(F)c(F)c6F)c6ccc3[nH]6)C=C5)C=C4)cc2)C(C)(C)C)C1
REMARK SMILES IDX 15 1 14 2 12 3 13 4 11 6 10 7 8 8 7 9 9 11 6 12 1 13 2 14
REMARK SMILES IDX 3 15 88 16 4 18 5 19 84 20 85 21 86 22 87 23 16 24 17 25
REMARK SMILES IDX 18 26 19 27 20 29 21 30 22 31 83 32 23 33 82 34 24 35 25 36
REMARK SMILES IDX 26 37 76 38 27 39 81 40 75 41 77 42 28 43 80 44 74 45 73 46
REMARK SMILES IDX 29 48 61 49 41 50 60 51 42 52 45 53 59 54 78 55 43 56 44 57
REMARK SMILES IDX 58 59 79 60 46 61 30 62 31 63 39 64 32 65 33 66 37 67 40 68
REMARK SMILES IDX 34 69 35 70 38 71 36 72 62 73 63 74 71 75 64 76 65 77 69 78
REMARK SMILES IDX 72 79 66 80 67 81 70 82 68 83 47 84 48 85 56 86 49 87 50 88
REMARK SMILES IDX 54 89 57 90 51 91 52 92 55 93 53 94
REMARK H PARENT 14 5 7 10 2 17 18 28 77 47 45 58
REMARK Flexibility Score: inf
ROOT
ATOM      1  C   UNL A   1      31.387  31.051  26.518  1.00  0.00     0.117 C 
ENDROOT
BRANCH   1   2
ATOM      2  N   UNL A   1      32.636  30.332  26.503  1.00  0.00    -0.354 N 
ATOM      3  C   UNL A   1      32.889  29.067  26.061  1.00  0.00     0.239 C 
ATOM      4  O   UNL A   1      34.050  28.836  25.702  1.00  0.00    -0.273 OA
ATOM      5  H   UNL A   1      33.413  30.821  26.861  1.00  0.00     0.163 HD
BRANCH   3   6
ATOM      6  C   UNL A   1      31.800  27.987  25.869  1.00  0.00     0.221 C 
BRANCH   6   7
ATOM      7  N   UNL A   1      31.274  27.762  24.520  1.00  0.00    -0.311 N 
BRANCH   7   8
ATOM      8  C   UNL A   1      31.407  28.631  23.453  1.00  0.00     0.318 C 
ATOM      9  N   UNL A   1      30.477  29.517  23.034  1.00  0.00    -0.330 N 
ATOM     10  H   UNL A   1      30.842  30.038  22.284  1.00  0.00     0.165 HD
ATOM     11  O   UNL A   1      32.429  28.649  22.759  1.00  0.00    -0.249 OA
BRANCH   9  12
ATOM     12  C   UNL A   1      29.097  29.974  23.315  1.00  0.00     0.139 C 
ATOM     13  C   UNL A   1      29.237  33.786  23.300  1.00  0.00     0.332 C 
ATOM     14  N   UNL A   1      29.250  32.431  22.746  1.00  0.00    -0.336 N 
ATOM     15  C   UNL A   1      28.182  32.294  21.749  1.00  0.00     0.262 C 
ATOM     16  C   UNL A   1      29.096  31.435  23.825  1.00  0.00     0.287 C 
ATOM     17  H   UNL A   1      30.146  32.262  22.288  1.00  0.00     0.347 HD
ATOM     18  C   UNL A   1      28.280  30.935  21.075  1.00  0.00     0.064 C 
ATOM     19  C   UNL A   1      28.170  29.810  22.091  1.00  0.00     0.037 C 
ENDBRANCH   9  12
ENDBRANCH   7   8
BRANCH   7  20
ATOM     20  C   UNL A   1      30.579  26.412  24.289  1.00  0.00     0.037 C 
ATOM     21  C   UNL A   1      30.517  25.569  25.580  1.00  0.00     0.034 C 
ATOM     22  C   UNL A   1      29.148  26.614  23.736  1.00  0.00     0.034 C 
ATOM     23  C   UNL A   1      31.285  25.487  23.249  1.00  0.00     0.034 C 
ENDBRANCH   7  20
ENDBRANCH   6   7
ENDBRANCH   3   6
ENDBRANCH   1   2
BRANCH   1  24
ATOM     24  C   UNL A   1      31.484  32.563  26.533  1.00  0.00     0.042 C 
BRANCH  24  25
ATOM     25  C   UNL A   1      32.654  33.088  27.341  1.00  0.00     0.118 C 
BRANCH  25  26
ATOM     26  N   UNL A   1      32.457  34.472  27.750  1.00  0.00    -0.352 N 
ATOM     27  C   UNL A   1      33.036  35.166  28.783  1.00  0.00     0.251 C 
ATOM     28  H   UNL A   1      31.815  34.983  27.207  1.00  0.00     0.163 HD
ATOM     29  O   UNL A   1      32.586  36.257  29.113  1.00  0.00    -0.269 OA
BRANCH  27  30
ATOM     30  C   UNL A   1      34.192  34.592  29.508  1.00  0.00     0.039 A 
ATOM     31  C   UNL A   1      33.983  34.002  30.756  1.00  0.00     0.014 A 
ATOM     32  C   UNL A   1      35.479  34.644  28.966  1.00  0.00     0.014 A 
ATOM     33  C   UNL A   1      35.053  33.415  31.432  1.00  0.00     0.010 A 
ATOM     34  C   UNL A   1      36.523  33.973  29.593  1.00  0.00     0.010 A 
ATOM     35  C   UNL A   1      36.326  33.365  30.840  1.00  0.00    -0.014 A 
BRANCH  35  36
ATOM     36  C   UNL A   1      37.467  32.697  31.518  1.00  0.00     0.031 A 
ATOM     37  C   UNL A   1      38.174  31.550  30.849  1.00  0.00     0.074 A 
ATOM     38  C   UNL A   1      37.827  33.086  32.756  1.00  0.00     0.049 A 
ATOM     39  N   UNL A   1      39.151  30.803  31.299  1.00  0.00    -0.248 NA
ATOM     40  C   UNL A   1      37.702  31.170  29.508  1.00  0.00     0.031 C 
ATOM     41  C   UNL A   1      37.185  34.149  33.529  1.00  0.00     0.029 A 
ATOM     42  N   UNL A   1      38.819  32.625  33.586  1.00  0.00    -0.354 N 
ATOM     43  C   UNL A   1      39.397  29.864  30.307  1.00  0.00     0.074 A 
ATOM     44  C   UNL A   1      38.428  30.092  29.257  1.00  0.00     0.031 C 
ATOM     45  C   UNL A   1      37.815  34.280  34.707  1.00  0.00     0.029 A 
ATOM     46  C   UNL A   1      38.878  33.283  34.791  1.00  0.00     0.049 A 
ATOM     47  H   UNL A   1      39.429  31.892  33.342  1.00  0.00     0.167 HD
ATOM     48  C   UNL A   1      40.362  28.915  30.260  1.00  0.00     0.037 A 
ATOM     49  C   UNL A   1      39.692  33.095  35.847  1.00  0.00     0.037 A 
ATOM     50  C   UNL A   1      41.339  28.707  31.297  1.00  0.00     0.049 A 
ATOM     51  C   UNL A   1      40.749  32.026  35.774  1.00  0.00     0.074 A 
ATOM     52  C   UNL A   1      42.394  27.812  31.322  1.00  0.00     0.029 A 
ATOM     53  N   UNL A   1      41.376  29.402  32.497  1.00  0.00    -0.354 N 
ATOM     54  N   UNL A   1      41.021  31.194  34.798  1.00  0.00    -0.248 NA
ATOM     55  C   UNL A   1      41.619  31.876  36.949  1.00  0.00     0.031 C 
ATOM     56  C   UNL A   1      43.035  27.927  32.558  1.00  0.00     0.029 A 
ATOM     57  C   UNL A   1      42.420  28.938  33.280  1.00  0.00     0.049 A 
ATOM     58  H   UNL A   1      40.752  30.120  32.754  1.00  0.00     0.167 HD
ATOM     59  C   UNL A   1      42.109  30.445  35.227  1.00  0.00     0.074 A 
ATOM     60  C   UNL A   1      42.459  30.933  36.544  1.00  0.00     0.031 C 
ATOM     61  C   UNL A   1      42.760  29.441  34.587  1.00  0.00     0.037 A 
BRANCH  48  62
ATOM     62  C   UNL A   1      40.413  28.031  29.046  1.00  0.00     0.064 A 
ATOM     63  C   UNL A   1      39.685  26.834  28.974  1.00  0.00     0.173 A 
ATOM     64  C   UNL A   1      41.172  28.402  27.925  1.00  0.00     0.173 A 
ATOM     65  F   UNL A   1      38.952  26.424  30.021  1.00  0.00    -0.203 F 
ATOM     66  C   UNL A   1      39.738  26.027  27.840  1.00  0.00     0.198 A 
ATOM     67  C   UNL A   1      41.195  27.611  26.780  1.00  0.00     0.198 A 
ATOM     68  F   UNL A   1      41.883  29.539  27.937  1.00  0.00    -0.203 F 
ATOM     69  F   UNL A   1      39.077  24.862  27.817  1.00  0.00    -0.200 F 
ATOM     70  C   UNL A   1      40.486  26.421  26.741  1.00  0.00     0.200 A 
ATOM     71  F   UNL A   1      41.907  28.001  25.712  1.00  0.00    -0.200 F 
ATOM     72  F   UNL A   1      40.529  25.649  25.646  1.00  0.00    -0.200 F 
ENDBRANCH  48  62
BRANCH  49  73
ATOM     73  C   UNL A   1      39.558  33.954  37.054  1.00  0.00     0.064 A 
ATOM     74  C   UNL A   1      40.189  35.204  37.123  1.00  0.00     0.173 A 
ATOM     75  C   UNL A   1      38.810  33.540  38.165  1.00  0.00     0.173 A 
ATOM     76  F   UNL A   1      40.933  35.636  36.093  1.00  0.00    -0.203 F 
ATOM     77  C   UNL A   1      40.100  35.994  38.266  1.00  0.00     0.198 A 
ATOM     78  C   UNL A   1      38.695  34.346  39.296  1.00  0.00     0.198 A 
ATOM     79  F   UNL A   1      38.182  32.355  38.149  1.00  0.00    -0.203 F 
ATOM     80  F   UNL A   1      40.759  37.160  38.326  1.00  0.00    -0.200 F 
ATOM     81  C   UNL A   1      39.348  35.568  39.350  1.00  0.00     0.200 A 
ATOM     82  F   UNL A   1      37.954  33.936  40.335  1.00  0.00    -0.200 F 
ATOM     83  F   UNL A   1      39.262  36.328  40.450  1.00  0.00    -0.200 F 
ENDBRANCH  49  73
BRANCH  61  84
ATOM     84  C   UNL A   1      43.943  28.833  35.284  1.00  0.00     0.064 A 
ATOM     85  C   UNL A   1      43.803  27.770  36.190  1.00  0.00     0.173 A 
ATOM     86  C   UNL A   1      45.240  29.298  35.015  1.00  0.00     0.173 A 
ATOM     87  F   UNL A   1      42.584  27.297  36.492  1.00  0.00    -0.203 F 
ATOM     88  C   UNL A   1      44.913  27.217  36.821  1.00  0.00     0.198 A 
ATOM     89  C   UNL A   1      46.351  28.719  35.622  1.00  0.00     0.198 A 
ATOM     90  F   UNL A   1      45.431  30.307  34.151  1.00  0.00    -0.203 F 
ATOM     91  F   UNL A   1      44.750  26.240  37.724  1.00  0.00    -0.200 F 
ATOM     92  C   UNL A   1      46.186  27.686  36.532  1.00  0.00     0.200 A 
ATOM     93  F   UNL A   1      47.581  29.162  35.327  1.00  0.00    -0.200 F 
ATOM     94  F   UNL A   1      47.253  27.147  37.136  1.00  0.00    -0.200 F 
ENDBRANCH  61  84
ENDBRANCH  35  36
ENDBRANCH  27  30
ENDBRANCH  25  26
ENDBRANCH  24  25
ENDBRANCH   1  24
TORSDOF 14
ENDMDL
MODEL 3
REMARK VINA RESULT:     -12.2      0.582      7.482
REMARK SMILES C[N@@H+]1CCC[C@@H](NC(=O)N(CC(=O)NCCCNC(=O)c2ccc(-c3c4nc(c(-c5c(F)c(F)c(F)c(F)c5F)c5ccc([nH]5)c(-c5c(F)c(F)c(F)c(F)c5F)c5nc(c(-c6c(F)c(F)c(F)c(F)c6F)c6ccc3[nH]6)C=C5)C=C4)cc2)C(C)(C)C)C1
REMARK SMILES IDX 15 1 14 2 12 3 13 4 11 6 10 7 8 8 7 9 9 11 6 12 1 13 2 14
REMARK SMILES IDX 3 15 88 16 4 18 5 19 84 20 85 21 86 22 87 23 16 24 17 25
REMARK SMILES IDX 18 26 19 27 20 29 21 30 22 31 83 32 23 33 82 34 24 35 25 36
REMARK SMILES IDX 26 37 76 38 27 39 81 40 75 41 77 42 28 43 80 44 74 45 73 46
REMARK SMILES IDX 29 48 61 49 41 50 60 51 42 52 45 53 59 54 78 55 43 56 44 57
REMARK SMILES IDX 58 59 79 60 46 61 30 62 31 63 39 64 32 65 33 66 37 67 40 68
REMARK SMILES IDX 34 69 35 70 38 71 36 72 62 73 63 74 71 75 64 76 65 77 69 78
REMARK SMILES IDX 72 79 66 80 67 81 70 82 68 83 47 84 48 85 56 86 49 87 50 88
REMARK SMILES IDX 54 89 57 90 51 91 52 92 55 93 53 94
REMARK H PARENT 14 5 7 10 2 17 18 28 77 47 45 58
REMARK Flexibility Score: inf
ROOT
ATOM      1  C   UNL A   1      31.345  31.127  26.464  1.00  0.00     0.117 C 
ENDROOT
BRANCH   1   2
ATOM      2  N   UNL A   1      32.608  30.442  26.572  1.00  0.00    -0.354 N 
ATOM      3  C   UNL A   1      32.929  29.174  26.186  1.00  0.00     0.239 C 
ATOM      4  O   UNL A   1      34.121  28.966  25.931  1.00  0.00    -0.273 OA
ATOM      5  H   UNL A   1      33.340  30.961  26.979  1.00  0.00     0.163 HD
BRANCH   3   6
ATOM      6  C   UNL A   1      31.887  28.061  25.935  1.00  0.00     0.221 C 
BRANCH   6   7
ATOM      7  N   UNL A   1      31.448  27.817  24.558  1.00  0.00    -0.311 N 
BRANCH   7   8
ATOM      8  C   UNL A   1      31.548  28.718  23.514  1.00  0.00     0.318 C 
ATOM      9  N   UNL A   1      30.582  29.573  23.113  1.00  0.00    -0.330 N 
ATOM     10  H   UNL A   1      30.928  30.129  22.378  1.00  0.00     0.165 HD
ATOM     11  O   UNL A   1      32.572  28.797  22.826  1.00  0.00    -0.249 OA
BRANCH   9  12
ATOM     12  C   UNL A   1      29.183  29.964  23.398  1.00  0.00     0.139 C 
ATOM     13  C   UNL A   1      29.091  33.770  23.160  1.00  0.00     0.332 C 
ATOM     14  N   UNL A   1      29.176  32.387  22.686  1.00  0.00    -0.336 N 
ATOM     15  C   UNL A   1      28.100  32.128  21.722  1.00  0.00     0.262 C 
ATOM     16  C   UNL A   1      29.103  31.450  23.823  1.00  0.00     0.287 C 
ATOM     17  H   UNL A   1      30.071  32.246  22.218  1.00  0.00     0.347 HD
ATOM     18  C   UNL A   1      28.267  30.740  21.125  1.00  0.00     0.064 C 
ATOM     19  C   UNL A   1      28.245  29.673  22.206  1.00  0.00     0.037 C 
ENDBRANCH   9  12
ENDBRANCH   7   8
BRANCH   7  20
ATOM     20  C   UNL A   1      30.896  26.413  24.269  1.00  0.00     0.037 C 
ATOM     21  C   UNL A   1      31.011  25.486  25.498  1.00  0.00     0.034 C 
ATOM     22  C   UNL A   1      29.418  26.483  23.814  1.00  0.00     0.034 C 
ATOM     23  C   UNL A   1      31.633  25.647  23.127  1.00  0.00     0.034 C 
ENDBRANCH   7  20
ENDBRANCH   6   7
ENDBRANCH   3   6
ENDBRANCH   1   2
BRANCH   1  24
ATOM     24  C   UNL A   1      31.387  32.636  26.592  1.00  0.00     0.042 C 
BRANCH  24  25
ATOM     25  C   UNL A   1      32.654  33.155  27.241  1.00  0.00     0.118 C 
BRANCH  25  26
ATOM     26  N   UNL A   1      32.484  34.501  27.771  1.00  0.00    -0.352 N 
ATOM     27  C   UNL A   1      33.091  35.097  28.849  1.00  0.00     0.251 C 
ATOM     28  H   UNL A   1      31.839  35.066  27.285  1.00  0.00     0.163 HD
ATOM     29  O   UNL A   1      32.662  36.162  29.279  1.00  0.00    -0.269 OA
BRANCH  27  30
ATOM     30  C   UNL A   1      34.250  34.448  29.501  1.00  0.00     0.039 A 
ATOM     31  C   UNL A   1      34.032  33.632  30.612  1.00  0.00     0.014 A 
ATOM     32  C   UNL A   1      35.549  34.651  29.026  1.00  0.00     0.014 A 
ATOM     33  C   UNL A   1      35.109  32.976  31.211  1.00  0.00     0.010 A 
ATOM     34  C   UNL A   1      36.604  33.920  29.560  1.00  0.00     0.010 A 
ATOM     35  C   UNL A   1      36.400  33.087  30.668  1.00  0.00    -0.014 A 
BRANCH  35  36
ATOM     36  C   UNL A   1      37.550  32.355  31.256  1.00  0.00     0.031 A 
ATOM     37  C   UNL A   1      38.069  32.735  32.616  1.00  0.00     0.074 A 
ATOM     38  C   UNL A   1      38.163  31.391  30.543  1.00  0.00     0.049 A 
ATOM     39  N   UNL A   1      39.094  32.256  33.276  1.00  0.00    -0.248 NA
ATOM     40  C   UNL A   1      37.360  33.817  33.319  1.00  0.00     0.031 C 
ATOM     41  C   UNL A   1      37.787  30.969  29.193  1.00  0.00     0.029 A 
ATOM     42  N   UNL A   1      39.237  30.594  30.852  1.00  0.00    -0.354 N 
ATOM     43  C   UNL A   1      39.158  32.985  34.456  1.00  0.00     0.074 A 
ATOM     44  C   UNL A   1      38.110  33.980  34.398  1.00  0.00     0.031 C 
ATOM     45  C   UNL A   1      38.596  29.973  28.801  1.00  0.00     0.029 A 
ATOM     46  C   UNL A   1      39.575  29.714  29.852  1.00  0.00     0.049 A 
ATOM     47  H   UNL A   1      39.720  30.649  31.707  1.00  0.00     0.167 HD
ATOM     48  C   UNL A   1      39.996  32.822  35.507  1.00  0.00     0.037 A 
ATOM     49  C   UNL A   1      40.568  28.807  29.789  1.00  0.00     0.037 A 
ATOM     50  C   UNL A   1      41.023  31.814  35.570  1.00  0.00     0.049 A 
ATOM     51  C   UNL A   1      41.494  28.653  30.967  1.00  0.00     0.074 A 
ATOM     52  C   UNL A   1      41.887  31.527  36.612  1.00  0.00     0.029 A 
ATOM     53  N   UNL A   1      41.327  30.932  34.544  1.00  0.00    -0.354 N 
ATOM     54  N   UNL A   1      41.497  29.297  32.109  1.00  0.00    -0.248 NA
ATOM     55  C   UNL A   1      42.550  27.639  30.848  1.00  0.00     0.031 C 
ATOM     56  C   UNL A   1      42.749  30.509  36.196  1.00  0.00     0.029 A 
ATOM     57  C   UNL A   1      42.383  30.117  34.918  1.00  0.00     0.049 A 
ATOM     58  H   UNL A   1      40.861  30.890  33.677  1.00  0.00     0.167 HD
ATOM     59  C   UNL A   1      42.531  28.747  32.854  1.00  0.00     0.074 A 
ATOM     60  C   UNL A   1      43.121  27.704  32.043  1.00  0.00     0.031 C 
ATOM     61  C   UNL A   1      42.953  29.076  34.101  1.00  0.00     0.037 A 
BRANCH  48  62
ATOM     62  C   UNL A   1      39.836  33.749  36.678  1.00  0.00     0.064 A 
ATOM     63  C   UNL A   1      38.976  33.449  37.745  1.00  0.00     0.173 A 
ATOM     64  C   UNL A   1      40.579  34.937  36.753  1.00  0.00     0.173 A 
ATOM     65  F   UNL A   1      38.233  32.332  37.720  1.00  0.00    -0.203 F 
ATOM     66  C   UNL A   1      38.842  34.316  38.827  1.00  0.00     0.198 A 
ATOM     67  C   UNL A   1      40.469  35.785  37.851  1.00  0.00     0.198 A 
ATOM     68  F   UNL A   1      41.421  35.272  35.764  1.00  0.00    -0.203 F 
ATOM     69  F   UNL A   1      37.974  34.033  39.807  1.00  0.00    -0.200 F 
ATOM     70  C   UNL A   1      39.595  35.478  38.883  1.00  0.00     0.200 A 
ATOM     71  F   UNL A   1      41.210  36.902  37.912  1.00  0.00    -0.200 F 
ATOM     72  F   UNL A   1      39.473  36.308  39.929  1.00  0.00    -0.200 F 
ENDBRANCH  48  62
BRANCH  49  73
ATOM     73  C   UNL A   1      40.726  27.957  28.579  1.00  0.00     0.064 A 
ATOM     74  C   UNL A   1      41.504  28.386  27.494  1.00  0.00     0.173 A 
ATOM     75  C   UNL A   1      40.097  26.709  28.475  1.00  0.00     0.173 A 
ATOM     76  F   UNL A   1      42.110  29.582  27.536  1.00  0.00    -0.203 F 
ATOM     77  C   UNL A   1      41.623  27.612  26.342  1.00  0.00     0.198 A 
ATOM     78  C   UNL A   1      40.243  25.921  27.336  1.00  0.00     0.198 A 
ATOM     79  F   UNL A   1      39.347  26.248  29.487  1.00  0.00    -0.203 F 
ATOM     80  F   UNL A   1      42.326  28.071  25.298  1.00  0.00    -0.200 F 
ATOM     81  C   UNL A   1      40.997  26.377  26.266  1.00  0.00     0.200 A 
ATOM     82  F   UNL A   1      39.649  24.721  27.273  1.00  0.00    -0.200 F 
ATOM     83  F   UNL A   1      41.112  25.632  25.158  1.00  0.00    -0.200 F 
ENDBRANCH  49  73
BRANCH  61  84
ATOM     84  C   UNL A   1      44.083  28.273  34.680  1.00  0.00     0.064 A 
ATOM     85  C   UNL A   1      45.419  28.685  34.565  1.00  0.00     0.173 A 
ATOM     86  C   UNL A   1      43.819  27.091  35.390  1.00  0.00     0.173 A 
ATOM     87  F   UNL A   1      45.726  29.799  33.884  1.00  0.00    -0.203 F 
ATOM     88  C   UNL A   1      46.450  27.927  35.113  1.00  0.00     0.198 A 
ATOM     89  C   UNL A   1      44.850  26.356  35.968  1.00  0.00     0.198 A 
ATOM     90  F   UNL A   1      42.558  26.657  35.537  1.00  0.00    -0.203 F 
ATOM     91  F   UNL A   1      47.723  28.311  34.944  1.00  0.00    -0.200 F 
ATOM     92  C   UNL A   1      46.166  26.769  35.821  1.00  0.00     0.200 A 
ATOM     93  F   UNL A   1      44.571  25.246  36.666  1.00  0.00    -0.200 F 
ATOM     94  F   UNL A   1      47.160  26.046  36.354  1.00  0.00    -0.200 F 
ENDBRANCH  61  84
ENDBRANCH  35  36
ENDBRANCH  27  30
ENDBRANCH  25  26
ENDBRANCH  24  25
ENDBRANCH   1  24
TORSDOF 14
ENDMDL
