MODEL 1
REMARK VINA RESULT:     -11.0      0.000      0.000
REMARK SMILES CC[N@@H+](C)CCNC(=O)N1CCO[C@H](CC(=O)NCCCNC(=O)c2ccc(-c3c4nc(c(-c5c(F)c(F)c(F)c(F)c5F)c5ccc([nH]5)c(-c5c(F)c(F)c(F)c(F)c5F)c5nc(c(-c6c(F)c(F)c(F)c(F)c6F)c6ccc3[nH]6)C=C5)C=C4)cc2)C1
REMARK SMILES IDX 16 1 17 2 18 3 15 5 14 6 10 7 11 8 88 9 12 10 13 11 8 12
REMARK SMILES IDX 7 13 9 15 6 16 5 17 3 18 4 19 2 21 1 22 19 23 20 24 21 25
REMARK SMILES IDX 22 26 23 27 24 29 25 30 26 31 87 32 27 33 86 34 28 35 29 36
REMARK SMILES IDX 30 37 80 38 31 39 85 40 79 41 81 42 32 43 84 44 78 45 77 46
REMARK SMILES IDX 33 48 65 49 45 50 64 51 46 52 49 53 63 54 82 55 47 56 48 57
REMARK SMILES IDX 62 59 83 60 50 61 34 62 35 63 43 64 36 65 37 66 41 67 44 68
REMARK SMILES IDX 38 69 39 70 42 71 40 72 66 73 67 74 75 75 68 76 69 77 73 78
REMARK SMILES IDX 76 79 70 80 71 81 74 82 72 83 51 84 52 85 60 86 53 87 54 88
REMARK SMILES IDX 58 89 61 90 55 91 56 92 59 93 57 94
REMARK H PARENT 18 4 7 14 3 20 22 28 81 47 49 58
REMARK Flexibility Score: inf
ROOT
ATOM      1  C   UNL A   1      33.913  29.187  26.950  1.00  0.00     0.222 C 
ATOM      2  O   UNL A   1      34.928  29.147  27.646  1.00  0.00    -0.275 OA
ATOM      3  N   UNL A   1      32.803  29.837  27.417  1.00  0.00    -0.356 N 
ATOM      4  H   UNL A   1      32.742  29.869  28.399  1.00  0.00     0.163 HD
ENDROOT
BRANCH   1   5
ATOM      5  C   UNL A   1      33.889  28.440  25.644  1.00  0.00     0.133 C 
BRANCH   5   6
ATOM      6  C   UNL A   1      33.471  26.965  25.792  1.00  0.00     0.147 C 
ATOM      7  N   UNL A   1      32.166  26.224  23.797  1.00  0.00    -0.320 N 
ATOM      8  C   UNL A   1      31.067  25.825  24.657  1.00  0.00     0.150 C 
ATOM      9  C   UNL A   1      33.443  26.120  24.499  1.00  0.00     0.154 C 
ATOM     10  C   UNL A   1      31.035  26.781  25.851  1.00  0.00     0.182 C 
ATOM     11  O   UNL A   1      32.273  26.780  26.588  1.00  0.00    -0.374 OA
BRANCH   7  12
ATOM     12  C   UNL A   1      32.094  26.632  22.497  1.00  0.00     0.317 C 
ATOM     13  N   UNL A   1      31.320  27.676  22.136  1.00  0.00    -0.332 N 
ATOM     14  H   UNL A   1      30.612  27.495  21.476  1.00  0.00     0.165 HD
ATOM     15  O   UNL A   1      32.672  26.068  21.571  1.00  0.00    -0.249 OA
BRANCH  13  16
ATOM     16  C   UNL A   1      31.426  29.038  22.626  1.00  0.00     0.179 C 
BRANCH  16  17
ATOM     17  C   UNL A   1      30.185  29.520  23.423  1.00  0.00     0.283 C 
BRANCH  17  18
ATOM     18  N   UNL A   1      29.347  30.624  22.921  1.00  0.00    -0.336 N 
ATOM     19  C   UNL A   1      29.033  31.626  23.928  1.00  0.00     0.332 C 
ATOM     20  H   UNL A   1      29.955  31.077  22.239  1.00  0.00     0.347 HD
BRANCH  18  21
ATOM     21  C   UNL A   1      28.167  30.220  22.151  1.00  0.00     0.258 C 
ATOM     22  C   UNL A   1      28.045  30.943  20.811  1.00  0.00     0.071 C 
ENDBRANCH  18  21
ENDBRANCH  17  18
ENDBRANCH  16  17
ENDBRANCH  13  16
ENDBRANCH   7  12
ENDBRANCH   5   6
ENDBRANCH   1   5
BRANCH   3  23
ATOM     23  C   UNL A   1      31.694  30.489  26.735  1.00  0.00     0.117 C 
BRANCH  23  24
ATOM     24  C   UNL A   1      31.506  32.013  26.855  1.00  0.00     0.042 C 
BRANCH  24  25
ATOM     25  C   UNL A   1      32.686  32.969  27.088  1.00  0.00     0.118 C 
BRANCH  25  26
ATOM     26  N   UNL A   1      32.354  34.284  27.596  1.00  0.00    -0.352 N 
ATOM     27  C   UNL A   1      32.965  34.960  28.635  1.00  0.00     0.251 C 
ATOM     28  H   UNL A   1      31.610  34.749  27.152  1.00  0.00     0.163 HD
ATOM     29  O   UNL A   1      32.551  36.044  29.011  1.00  0.00    -0.269 OA
BRANCH  27  30
ATOM     30  C   UNL A   1      34.134  34.353  29.321  1.00  0.00     0.039 A 
ATOM     31  C   UNL A   1      33.926  33.616  30.491  1.00  0.00     0.014 A 
ATOM     32  C   UNL A   1      35.432  34.558  28.845  1.00  0.00     0.014 A 
ATOM     33  C   UNL A   1      35.017  33.046  31.161  1.00  0.00     0.010 A 
ATOM     34  C   UNL A   1      36.519  33.969  29.506  1.00  0.00     0.010 A 
ATOM     35  C   UNL A   1      36.324  33.202  30.668  1.00  0.00    -0.014 A 
BRANCH  35  36
ATOM     36  C   UNL A   1      37.473  32.537  31.348  1.00  0.00     0.031 A 
ATOM     37  C   UNL A   1      38.183  31.369  30.721  1.00  0.00     0.074 A 
ATOM     38  C   UNL A   1      37.862  32.963  32.566  1.00  0.00     0.049 A 
ATOM     39  N   UNL A   1      39.207  30.681  31.168  1.00  0.00    -0.248 NA
ATOM     40  C   UNL A   1      37.663  30.900  29.430  1.00  0.00     0.031 C 
ATOM     41  C   UNL A   1      37.231  34.047  33.316  1.00  0.00     0.029 A 
ATOM     42  N   UNL A   1      38.871  32.529  33.393  1.00  0.00    -0.354 N 
ATOM     43  C   UNL A   1      39.449  29.695  30.219  1.00  0.00     0.074 A 
ATOM     44  C   UNL A   1      38.434  29.847  29.196  1.00  0.00     0.031 C 
ATOM     45  C   UNL A   1      37.869  34.200  34.487  1.00  0.00     0.029 A 
ATOM     46  C   UNL A   1      38.938  33.209  34.584  1.00  0.00     0.049 A 
ATOM     47  H   UNL A   1      39.489  31.799  33.153  1.00  0.00     0.167 HD
ATOM     48  C   UNL A   1      40.433  28.762  30.192  1.00  0.00     0.037 A 
ATOM     49  C   UNL A   1      39.759  33.052  35.641  1.00  0.00     0.037 A 
ATOM     50  C   UNL A   1      41.446  28.612  31.209  1.00  0.00     0.049 A 
ATOM     51  C   UNL A   1      40.847  32.014  35.593  1.00  0.00     0.074 A 
ATOM     52  C   UNL A   1      42.528  27.748  31.229  1.00  0.00     0.029 A 
ATOM     53  N   UNL A   1      41.490  29.330  32.395  1.00  0.00    -0.354 N 
ATOM     54  N   UNL A   1      41.127  31.154  34.645  1.00  0.00    -0.248 NA
ATOM     55  C   UNL A   1      41.743  31.935  36.757  1.00  0.00     0.031 C 
ATOM     56  C   UNL A   1      43.190  27.900  32.454  1.00  0.00     0.029 A 
ATOM     57  C   UNL A   1      42.558  28.903  33.171  1.00  0.00     0.049 A 
ATOM     58  H   UNL A   1      40.856  30.040  32.649  1.00  0.00     0.167 HD
ATOM     59  C   UNL A   1      42.236  30.445  35.085  1.00  0.00     0.074 A 
ATOM     60  C   UNL A   1      42.590  30.988  36.381  1.00  0.00     0.031 C 
ATOM     61  C   UNL A   1      42.901  29.436  34.468  1.00  0.00     0.037 A 
BRANCH  48  62
ATOM     62  C   UNL A   1      40.451  27.812  29.026  1.00  0.00     0.064 A 
ATOM     63  C   UNL A   1      41.240  28.049  27.889  1.00  0.00     0.173 A 
ATOM     64  C   UNL A   1      39.677  26.641  29.049  1.00  0.00     0.173 A 
ATOM     65  F   UNL A   1      42.001  29.153  27.813  1.00  0.00    -0.203 F 
ATOM     66  C   UNL A   1      41.214  27.180  26.800  1.00  0.00     0.198 A 
ATOM     67  C   UNL A   1      39.681  25.756  27.973  1.00  0.00     0.198 A 
ATOM     68  F   UNL A   1      38.916  26.352  30.115  1.00  0.00    -0.203 F 
ATOM     69  F   UNL A   1      41.923  27.466  25.699  1.00  0.00    -0.200 F 
ATOM     70  C   UNL A   1      40.437  26.034  26.844  1.00  0.00     0.200 A 
ATOM     71  F   UNL A   1      38.942  24.638  28.024  1.00  0.00    -0.200 F 
ATOM     72  F   UNL A   1      40.408  25.201  25.794  1.00  0.00    -0.200 F 
ENDBRANCH  48  62
BRANCH  49  73
ATOM     73  C   UNL A   1      39.583  33.925  36.831  1.00  0.00     0.064 A 
ATOM     74  C   UNL A   1      38.809  33.514  37.925  1.00  0.00     0.173 A 
ATOM     75  C   UNL A   1      40.220  35.172  36.914  1.00  0.00     0.173 A 
ATOM     76  F   UNL A   1      38.162  32.340  37.883  1.00  0.00    -0.203 F 
ATOM     77  C   UNL A   1      38.675  34.319  39.054  1.00  0.00     0.198 A 
ATOM     78  C   UNL A   1      40.109  35.964  38.055  1.00  0.00     0.198 A 
ATOM     79  F   UNL A   1      40.976  35.609  35.897  1.00  0.00    -0.203 F 
ATOM     80  F   UNL A   1      37.906  33.915  40.075  1.00  0.00    -0.200 F 
ATOM     81  C   UNL A   1      39.333  35.538  39.123  1.00  0.00     0.200 A 
ATOM     82  F   UNL A   1      40.760  37.132  38.124  1.00  0.00    -0.200 F 
ATOM     83  F   UNL A   1      39.220  36.303  40.217  1.00  0.00    -0.200 F 
ENDBRANCH  49  73
BRANCH  61  84
ATOM     84  C   UNL A   1      44.092  28.856  35.177  1.00  0.00     0.064 A 
ATOM     85  C   UNL A   1      45.380  29.387  35.014  1.00  0.00     0.173 A 
ATOM     86  C   UNL A   1      43.937  27.778  36.063  1.00  0.00     0.173 A 
ATOM     87  F   UNL A   1      45.588  30.407  34.168  1.00  0.00    -0.203 F 
ATOM     88  C   UNL A   1      46.471  28.847  35.692  1.00  0.00     0.198 A 
ATOM     89  C   UNL A   1      45.024  27.260  36.762  1.00  0.00     0.198 A 
ATOM     90  F   UNL A   1      42.727  27.233  36.261  1.00  0.00    -0.203 F 
ATOM     91  F   UNL A   1      47.700  29.341  35.484  1.00  0.00    -0.200 F 
ATOM     92  C   UNL A   1      46.291  27.790  36.572  1.00  0.00     0.200 A 
ATOM     93  F   UNL A   1      44.846  26.247  37.623  1.00  0.00    -0.200 F 
ATOM     94  F   UNL A   1      47.340  27.276  37.230  1.00  0.00    -0.200 F 
ENDBRANCH  61  84
ENDBRANCH  35  36
ENDBRANCH  27  30
ENDBRANCH  25  26
ENDBRANCH  24  25
ENDBRANCH  23  24
ENDBRANCH   3  23
TORSDOF 16
ENDMDL
MODEL 2
REMARK VINA RESULT:     -11.0      0.764      7.457
REMARK SMILES CC[N@@H+](C)CCNC(=O)N1CCO[C@H](CC(=O)NCCCNC(=O)c2ccc(-c3c4nc(c(-c5c(F)c(F)c(F)c(F)c5F)c5ccc([nH]5)c(-c5c(F)c(F)c(F)c(F)c5F)c5nc(c(-c6c(F)c(F)c(F)c(F)c6F)c6ccc3[nH]6)C=C5)C=C4)cc2)C1
REMARK SMILES IDX 16 1 17 2 18 3 15 5 14 6 10 7 11 8 88 9 12 10 13 11 8 12
REMARK SMILES IDX 7 13 9 15 6 16 5 17 3 18 4 19 2 21 1 22 19 23 20 24 21 25
REMARK SMILES IDX 22 26 23 27 24 29 25 30 26 31 87 32 27 33 86 34 28 35 29 36
REMARK SMILES IDX 30 37 80 38 31 39 85 40 79 41 81 42 32 43 84 44 78 45 77 46
REMARK SMILES IDX 33 48 65 49 45 50 64 51 46 52 49 53 63 54 82 55 47 56 48 57
REMARK SMILES IDX 62 59 83 60 50 61 34 62 35 63 43 64 36 65 37 66 41 67 44 68
REMARK SMILES IDX 38 69 39 70 42 71 40 72 66 73 67 74 75 75 68 76 69 77 73 78
REMARK SMILES IDX 76 79 70 80 71 81 74 82 72 83 51 84 52 85 60 86 53 87 54 88
REMARK SMILES IDX 58 89 61 90 55 91 56 92 59 93 57 94
REMARK H PARENT 18 4 7 14 3 20 22 28 81 47 49 58
REMARK Flexibility Score: inf
ROOT
ATOM      1  C   UNL A   1      34.006  29.219  26.804  1.00  0.00     0.222 C 
ATOM      2  O   UNL A   1      35.054  29.203  27.450  1.00  0.00    -0.275 OA
ATOM      3  N   UNL A   1      32.892  29.801  27.345  1.00  0.00    -0.356 N 
ATOM      4  H   UNL A   1      32.878  29.799  28.329  1.00  0.00     0.163 HD
ENDROOT
BRANCH   1   5
ATOM      5  C   UNL A   1      33.950  28.514  25.476  1.00  0.00     0.133 C 
BRANCH   5   6
ATOM      6  C   UNL A   1      33.605  27.017  25.593  1.00  0.00     0.147 C 
ATOM      7  N   UNL A   1      32.246  26.280  23.634  1.00  0.00    -0.320 N 
ATOM      8  C   UNL A   1      31.205  25.805  24.527  1.00  0.00     0.150 C 
ATOM      9  C   UNL A   1      33.556  26.212  24.275  1.00  0.00     0.154 C 
ATOM     10  C   UNL A   1      31.185  26.720  25.752  1.00  0.00     0.182 C 
ATOM     11  O   UNL A   1      32.454  26.753  26.434  1.00  0.00    -0.374 OA
BRANCH   7  12
ATOM     12  C   UNL A   1      32.096  26.726  22.352  1.00  0.00     0.317 C 
ATOM     13  N   UNL A   1      31.164  27.649  22.039  1.00  0.00    -0.332 N 
ATOM     14  H   UNL A   1      30.487  27.387  21.374  1.00  0.00     0.165 HD
ATOM     15  O   UNL A   1      32.746  26.298  21.401  1.00  0.00    -0.249 OA
BRANCH  13  16
ATOM     16  C   UNL A   1      31.061  28.989  22.586  1.00  0.00     0.179 C 
BRANCH  16  17
ATOM     17  C   UNL A   1      29.805  29.215  23.468  1.00  0.00     0.283 C 
BRANCH  17  18
ATOM     18  N   UNL A   1      28.575  29.796  22.898  1.00  0.00    -0.336 N 
ATOM     19  C   UNL A   1      27.410  28.933  23.014  1.00  0.00     0.332 C 
ATOM     20  H   UNL A   1      28.404  30.599  23.504  1.00  0.00     0.347 HD
BRANCH  18  21
ATOM     21  C   UNL A   1      28.713  30.371  21.556  1.00  0.00     0.258 C 
ATOM     22  C   UNL A   1      28.522  31.886  21.527  1.00  0.00     0.071 C 
ENDBRANCH  18  21
ENDBRANCH  17  18
ENDBRANCH  16  17
ENDBRANCH  13  16
ENDBRANCH   7  12
ENDBRANCH   5   6
ENDBRANCH   1   5
BRANCH   3  23
ATOM     23  C   UNL A   1      31.724  30.424  26.739  1.00  0.00     0.117 C 
BRANCH  23  24
ATOM     24  C   UNL A   1      31.531  31.949  26.829  1.00  0.00     0.042 C 
BRANCH  24  25
ATOM     25  C   UNL A   1      32.712  32.915  27.010  1.00  0.00     0.118 C 
BRANCH  25  26
ATOM     26  N   UNL A   1      32.402  34.202  27.598  1.00  0.00    -0.352 N 
ATOM     27  C   UNL A   1      33.047  34.818  28.653  1.00  0.00     0.251 C 
ATOM     28  H   UNL A   1      31.647  34.694  27.202  1.00  0.00     0.163 HD
ATOM     29  O   UNL A   1      32.650  35.882  29.100  1.00  0.00    -0.269 OA
BRANCH  27  30
ATOM     30  C   UNL A   1      34.232  34.171  29.271  1.00  0.00     0.039 A 
ATOM     31  C   UNL A   1      34.044  33.294  30.343  1.00  0.00     0.014 A 
ATOM     32  C   UNL A   1      35.525  34.471  28.831  1.00  0.00     0.014 A 
ATOM     33  C   UNL A   1      35.151  32.682  30.948  1.00  0.00     0.010 A 
ATOM     34  C   UNL A   1      36.628  33.842  29.424  1.00  0.00     0.010 A 
ATOM     35  C   UNL A   1      36.454  32.936  30.486  1.00  0.00    -0.014 A 
BRANCH  35  36
ATOM     36  C   UNL A   1      37.621  32.231  31.090  1.00  0.00     0.031 A 
ATOM     37  C   UNL A   1      38.142  32.604  32.451  1.00  0.00     0.074 A 
ATOM     38  C   UNL A   1      38.250  31.266  30.391  1.00  0.00     0.049 A 
ATOM     39  N   UNL A   1      39.138  32.088  33.130  1.00  0.00    -0.248 NA
ATOM     40  C   UNL A   1      37.465  33.717  33.130  1.00  0.00     0.031 C 
ATOM     41  C   UNL A   1      37.889  30.839  29.040  1.00  0.00     0.029 A 
ATOM     42  N   UNL A   1      39.331  30.478  30.712  1.00  0.00    -0.354 N 
ATOM     43  C   UNL A   1      39.212  32.815  34.312  1.00  0.00     0.074 A 
ATOM     44  C   UNL A   1      38.190  33.840  34.233  1.00  0.00     0.031 C 
ATOM     45  C   UNL A   1      38.725  29.864  28.650  1.00  0.00     0.029 A 
ATOM     46  C   UNL A   1      39.699  29.613  29.711  1.00  0.00     0.049 A 
ATOM     47  H   UNL A   1      39.796  30.530  31.579  1.00  0.00     0.167 HD
ATOM     48  C   UNL A   1      40.041  32.638  35.371  1.00  0.00     0.037 A 
ATOM     49  C   UNL A   1      40.708  28.723  29.645  1.00  0.00     0.037 A 
ATOM     50  C   UNL A   1      41.058  31.617  35.451  1.00  0.00     0.049 A 
ATOM     51  C   UNL A   1      41.617  28.537  30.830  1.00  0.00     0.074 A 
ATOM     52  C   UNL A   1      41.893  31.311  36.513  1.00  0.00     0.029 A 
ATOM     53  N   UNL A   1      41.392  30.749  34.422  1.00  0.00    -0.354 N 
ATOM     54  N   UNL A   1      41.613  29.164  31.981  1.00  0.00    -0.248 NA
ATOM     55  C   UNL A   1      42.661  27.509  30.711  1.00  0.00     0.031 C 
ATOM     56  C   UNL A   1      42.772  30.300  36.105  1.00  0.00     0.029 A 
ATOM     57  C   UNL A   1      42.444  29.932  34.810  1.00  0.00     0.049 A 
ATOM     58  H   UNL A   1      40.946  30.716  33.544  1.00  0.00     0.167 HD
ATOM     59  C   UNL A   1      42.637  28.600  32.729  1.00  0.00     0.074 A 
ATOM     60  C   UNL A   1      43.231  27.565  31.908  1.00  0.00     0.031 C 
ATOM     61  C   UNL A   1      43.044  28.911  33.985  1.00  0.00     0.037 A 
BRANCH  48  62
ATOM     62  C   UNL A   1      39.895  33.587  36.529  1.00  0.00     0.064 A 
ATOM     63  C   UNL A   1      39.043  33.312  37.609  1.00  0.00     0.173 A 
ATOM     64  C   UNL A   1      40.626  34.786  36.565  1.00  0.00     0.173 A 
ATOM     65  F   UNL A   1      38.319  32.181  37.628  1.00  0.00    -0.203 F 
ATOM     66  C   UNL A   1      38.887  34.221  38.654  1.00  0.00     0.198 A 
ATOM     67  C   UNL A   1      40.495  35.675  37.629  1.00  0.00     0.198 A 
ATOM     68  F   UNL A   1      41.470  35.095  35.569  1.00  0.00    -0.203 F 
ATOM     69  F   UNL A   1      38.014  33.965  39.639  1.00  0.00    -0.200 F 
ATOM     70  C   UNL A   1      39.615  35.400  38.664  1.00  0.00     0.200 A 
ATOM     71  F   UNL A   1      41.214  36.808  37.646  1.00  0.00    -0.200 F 
ATOM     72  F   UNL A   1      39.461  36.276  39.667  1.00  0.00    -0.200 F 
ENDBRANCH  48  62
BRANCH  49  73
ATOM     73  C   UNL A   1      40.892  27.926  28.404  1.00  0.00     0.064 A 
ATOM     74  C   UNL A   1      41.705  28.386  27.360  1.00  0.00     0.173 A 
ATOM     75  C   UNL A   1      40.288  26.668  28.257  1.00  0.00     0.173 A 
ATOM     76  F   UNL A   1      42.285  29.592  27.445  1.00  0.00    -0.203 F 
ATOM     77  C   UNL A   1      41.904  27.621  26.213  1.00  0.00     0.198 A 
ATOM     78  C   UNL A   1      40.511  25.891  27.122  1.00  0.00     0.198 A 
ATOM     79  F   UNL A   1      39.506  26.180  29.230  1.00  0.00    -0.203 F 
ATOM     80  F   UNL A   1      42.664  28.096  25.216  1.00  0.00    -0.200 F 
ATOM     81  C   UNL A   1      41.316  26.370  26.099  1.00  0.00     0.200 A 
ATOM     82  F   UNL A   1      39.955  24.676  27.024  1.00  0.00    -0.200 F 
ATOM     83  F   UNL A   1      41.524  25.625  25.004  1.00  0.00    -0.200 F 
ENDBRANCH  49  73
BRANCH  61  84
ATOM     84  C   UNL A   1      44.182  28.116  34.561  1.00  0.00     0.064 A 
ATOM     85  C   UNL A   1      45.512  28.551  34.461  1.00  0.00     0.173 A 
ATOM     86  C   UNL A   1      43.935  26.922  35.258  1.00  0.00     0.173 A 
ATOM     87  F   UNL A   1      45.806  29.677  33.793  1.00  0.00    -0.203 F 
ATOM     88  C   UNL A   1      46.553  27.810  35.015  1.00  0.00     0.198 A 
ATOM     89  C   UNL A   1      44.975  26.200  35.838  1.00  0.00     0.198 A 
ATOM     90  F   UNL A   1      42.682  26.461  35.388  1.00  0.00    -0.203 F 
ATOM     91  F   UNL A   1      47.821  28.221  34.866  1.00  0.00    -0.200 F 
ATOM     92  C   UNL A   1      46.284  26.640  35.710  1.00  0.00     0.200 A 
ATOM     93  F   UNL A   1      44.711  25.077  36.521  1.00  0.00    -0.200 F 
ATOM     94  F   UNL A   1      47.286  25.933  36.250  1.00  0.00    -0.200 F 
ENDBRANCH  61  84
ENDBRANCH  35  36
ENDBRANCH  27  30
ENDBRANCH  25  26
ENDBRANCH  24  25
ENDBRANCH  23  24
ENDBRANCH   3  23
TORSDOF 16
ENDMDL
MODEL 3
REMARK VINA RESULT:     -10.8      5.958     10.156
REMARK SMILES CC[N@@H+](C)CCNC(=O)N1CCO[C@H](CC(=O)NCCCNC(=O)c2ccc(-c3c4nc(c(-c5c(F)c(F)c(F)c(F)c5F)c5ccc([nH]5)c(-c5c(F)c(F)c(F)c(F)c5F)c5nc(c(-c6c(F)c(F)c(F)c(F)c6F)c6ccc3[nH]6)C=C5)C=C4)cc2)C1
REMARK SMILES IDX 16 1 17 2 18 3 15 5 14 6 10 7 11 8 88 9 12 10 13 11 8 12
REMARK SMILES IDX 7 13 9 15 6 16 5 17 3 18 4 19 2 21 1 22 19 23 20 24 21 25
REMARK SMILES IDX 22 26 23 27 24 29 25 30 26 31 87 32 27 33 86 34 28 35 29 36
REMARK SMILES IDX 30 37 80 38 31 39 85 40 79 41 81 42 32 43 84 44 78 45 77 46
REMARK SMILES IDX 33 48 65 49 45 50 64 51 46 52 49 53 63 54 82 55 47 56 48 57
REMARK SMILES IDX 62 59 83 60 50 61 34 62 35 63 43 64 36 65 37 66 41 67 44 68
REMARK SMILES IDX 38 69 39 70 42 71 40 72 66 73 67 74 75 75 68 76 69 77 73 78
REMARK SMILES IDX 76 79 70 80 71 81 74 82 72 83 51 84 52 85 60 86 53 87 54 88
REMARK SMILES IDX 58 89 61 90 55 91 56 92 59 93 57 94
REMARK H PARENT 18 4 7 14 3 20 22 28 81 47 49 58
REMARK Flexibility Score: inf
ROOT
ATOM      1  C   UNL A   1      37.414  23.448  25.768  1.00  0.00     0.222 C 
ATOM      2  O   UNL A   1      38.240  24.279  26.147  1.00  0.00    -0.275 OA
ATOM      3  N   UNL A   1      37.779  22.513  24.839  1.00  0.00    -0.356 N 
ATOM      4  H   UNL A   1      38.512  22.801  24.248  1.00  0.00     0.163 HD
ENDROOT
BRANCH   1   5
ATOM      5  C   UNL A   1      35.997  23.542  26.266  1.00  0.00     0.133 C 
BRANCH   5   6
ATOM      6  C   UNL A   1      35.100  24.435  25.389  1.00  0.00     0.147 C 
ATOM      7  N   UNL A   1      32.755  23.577  25.381  1.00  0.00    -0.320 N 
ATOM      8  C   UNL A   1      32.783  23.497  23.932  1.00  0.00     0.150 C 
ATOM      9  C   UNL A   1      33.643  24.633  25.864  1.00  0.00     0.154 C 
ATOM     10  C   UNL A   1      34.211  23.151  23.509  1.00  0.00     0.182 C 
ATOM     11  O   UNL A   1      35.172  24.119  23.976  1.00  0.00    -0.374 OA
BRANCH   7  12
ATOM     12  C   UNL A   1      32.014  22.817  26.238  1.00  0.00     0.317 C 
ATOM     13  N   UNL A   1      31.793  21.509  25.996  1.00  0.00    -0.332 N 
ATOM     14  H   UNL A   1      30.853  21.226  25.909  1.00  0.00     0.165 HD
ATOM     15  O   UNL A   1      31.462  23.261  27.243  1.00  0.00    -0.249 OA
BRANCH  13  16
ATOM     16  C   UNL A   1      32.802  20.477  25.852  1.00  0.00     0.179 C 
BRANCH  16  17
ATOM     17  C   UNL A   1      32.637  19.607  24.578  1.00  0.00     0.283 C 
BRANCH  17  18
ATOM     18  N   UNL A   1      33.282  18.285  24.476  1.00  0.00    -0.336 N 
ATOM     19  C   UNL A   1      34.736  18.340  24.484  1.00  0.00     0.332 C 
ATOM     20  H   UNL A   1      33.004  17.830  25.346  1.00  0.00     0.347 HD
BRANCH  18  21
ATOM     21  C   UNL A   1      32.763  17.410  23.421  1.00  0.00     0.258 C 
ATOM     22  C   UNL A   1      32.424  18.155  22.131  1.00  0.00     0.071 C 
ENDBRANCH  18  21
ENDBRANCH  17  18
ENDBRANCH  16  17
ENDBRANCH  13  16
ENDBRANCH   7  12
ENDBRANCH   5   6
ENDBRANCH   1   5
BRANCH   3  23
ATOM     23  C   UNL A   1      37.288  21.171  24.559  1.00  0.00     0.117 C 
BRANCH  23  24
ATOM     24  C   UNL A   1      38.155  19.946  24.908  1.00  0.00     0.042 C 
BRANCH  24  25
ATOM     25  C   UNL A   1      39.194  19.973  26.039  1.00  0.00     0.118 C 
BRANCH  25  26
ATOM     26  N   UNL A   1      40.305  19.053  25.910  1.00  0.00    -0.352 N 
ATOM     27  C   UNL A   1      41.650  19.339  26.041  1.00  0.00     0.251 C 
ATOM     28  H   UNL A   1      40.076  18.117  25.707  1.00  0.00     0.163 HD
ATOM     29  O   UNL A   1      42.498  18.483  25.847  1.00  0.00    -0.269 OA
BRANCH  27  30
ATOM     30  C   UNL A   1      42.078  20.713  26.404  1.00  0.00     0.039 A 
ATOM     31  C   UNL A   1      42.329  21.637  25.386  1.00  0.00     0.014 A 
ATOM     32  C   UNL A   1      42.286  21.071  27.740  1.00  0.00     0.014 A 
ATOM     33  C   UNL A   1      42.746  22.936  25.707  1.00  0.00     0.010 A 
ATOM     34  C   UNL A   1      42.683  22.377  28.059  1.00  0.00     0.010 A 
ATOM     35  C   UNL A   1      42.913  23.326  27.047  1.00  0.00    -0.014 A 
BRANCH  35  36
ATOM     36  C   UNL A   1      43.292  24.728  27.385  1.00  0.00     0.031 A 
ATOM     37  C   UNL A   1      44.704  25.219  27.217  1.00  0.00     0.074 A 
ATOM     38  C   UNL A   1      42.364  25.566  27.887  1.00  0.00     0.049 A 
ATOM     39  N   UNL A   1      45.205  26.408  27.451  1.00  0.00    -0.248 NA
ATOM     40  C   UNL A   1      45.688  24.237  26.741  1.00  0.00     0.031 C 
ATOM     41  C   UNL A   1      40.971  25.211  28.154  1.00  0.00     0.029 A 
ATOM     42  N   UNL A   1      42.452  26.883  28.274  1.00  0.00    -0.354 N 
ATOM     43  C   UNL A   1      46.560  26.317  27.159  1.00  0.00     0.074 A 
ATOM     44  C   UNL A   1      46.810  24.942  26.776  1.00  0.00     0.031 C 
ATOM     45  C   UNL A   1      40.334  26.282  28.653  1.00  0.00     0.029 A 
ATOM     46  C   UNL A   1      41.277  27.393  28.767  1.00  0.00     0.049 A 
ATOM     47  H   UNL A   1      43.282  27.411  28.204  1.00  0.00     0.167 HD
ATOM     48  C   UNL A   1      47.505  27.290  27.188  1.00  0.00     0.037 A 
ATOM     49  C   UNL A   1      40.986  28.611  29.263  1.00  0.00     0.037 A 
ATOM     50  C   UNL A   1      47.257  28.660  27.567  1.00  0.00     0.049 A 
ATOM     51  C   UNL A   1      42.045  29.679  29.286  1.00  0.00     0.074 A 
ATOM     52  C   UNL A   1      48.133  29.733  27.553  1.00  0.00     0.029 A 
ATOM     53  N   UNL A   1      46.047  29.143  28.046  1.00  0.00    -0.354 N 
ATOM     54  N   UNL A   1      43.299  29.607  28.912  1.00  0.00    -0.248 NA
ATOM     55  C   UNL A   1      41.644  31.002  29.787  1.00  0.00     0.031 C 
ATOM     56  C   UNL A   1      47.472  30.848  28.082  1.00  0.00     0.029 A 
ATOM     57  C   UNL A   1      46.165  30.488  28.367  1.00  0.00     0.049 A 
ATOM     58  H   UNL A   1      45.226  28.609  28.144  1.00  0.00     0.167 HD
ATOM     59  C   UNL A   1      43.834  30.872  29.115  1.00  0.00     0.074 A 
ATOM     60  C   UNL A   1      42.761  31.699  29.628  1.00  0.00     0.031 C 
ATOM     61  C   UNL A   1      45.099  31.307  28.891  1.00  0.00     0.037 A 
BRANCH  48  62
ATOM     62  C   UNL A   1      48.910  26.899  26.817  1.00  0.00     0.064 A 
ATOM     63  C   UNL A   1      49.371  26.966  25.493  1.00  0.00     0.173 A 
ATOM     64  C   UNL A   1      49.812  26.462  27.800  1.00  0.00     0.173 A 
ATOM     65  F   UNL A   1      48.552  27.376  24.511  1.00  0.00    -0.203 F 
ATOM     66  C   UNL A   1      50.662  26.560  25.159  1.00  0.00     0.198 A 
ATOM     67  C   UNL A   1      51.113  26.092  27.468  1.00  0.00     0.198 A 
ATOM     68  F   UNL A   1      49.433  26.395  29.085  1.00  0.00    -0.203 F 
ATOM     69  F   UNL A   1      51.055  26.568  23.877  1.00  0.00    -0.200 F 
ATOM     70  C   UNL A   1      51.532  26.127  26.146  1.00  0.00     0.200 A 
ATOM     71  F   UNL A   1      51.960  25.690  28.427  1.00  0.00    -0.200 F 
ATOM     72  F   UNL A   1      52.772  25.733  25.824  1.00  0.00    -0.200 F 
ENDBRANCH  48  62
BRANCH  49  73
ATOM     73  C   UNL A   1      39.612  28.882  29.761  1.00  0.00     0.064 A 
ATOM     74  C   UNL A   1      39.254  28.607  31.088  1.00  0.00     0.173 A 
ATOM     75  C   UNL A   1      38.641  29.459  28.929  1.00  0.00     0.173 A 
ATOM     76  F   UNL A   1      40.140  28.034  31.915  1.00  0.00    -0.203 F 
ATOM     77  C   UNL A   1      37.976  28.895  31.563  1.00  0.00     0.198 A 
ATOM     78  C   UNL A   1      37.373  29.773  29.412  1.00  0.00     0.198 A 
ATOM     79  F   UNL A   1      38.936  29.747  27.653  1.00  0.00    -0.203 F 
ATOM     80  F   UNL A   1      37.650  28.596  32.828  1.00  0.00    -0.200 F 
ATOM     81  C   UNL A   1      37.040  29.487  30.728  1.00  0.00     0.200 A 
ATOM     82  F   UNL A   1      36.478  30.361  28.607  1.00  0.00    -0.200 F 
ATOM     83  F   UNL A   1      35.817  29.783  31.190  1.00  0.00    -0.200 F 
ENDBRANCH  49  73
BRANCH  61  84
ATOM     84  C   UNL A   1      45.398  32.750  29.188  1.00  0.00     0.064 A 
ATOM     85  C   UNL A   1      45.875  33.162  30.442  1.00  0.00     0.173 A 
ATOM     86  C   UNL A   1      45.244  33.728  28.193  1.00  0.00     0.173 A 
ATOM     87  F   UNL A   1      46.026  32.272  31.434  1.00  0.00    -0.203 F 
ATOM     88  C   UNL A   1      46.162  34.502  30.695  1.00  0.00     0.198 A 
ATOM     89  C   UNL A   1      45.562  35.061  28.440  1.00  0.00     0.198 A 
ATOM     90  F   UNL A   1      44.796  33.389  26.975  1.00  0.00    -0.203 F 
ATOM     91  F   UNL A   1      46.572  34.879  31.915  1.00  0.00    -0.200 F 
ATOM     92  C   UNL A   1      46.015  35.448  29.692  1.00  0.00     0.200 A 
ATOM     93  F   UNL A   1      45.432  35.972  27.465  1.00  0.00    -0.200 F 
ATOM     94  F   UNL A   1      46.300  36.736  29.935  1.00  0.00    -0.200 F 
ENDBRANCH  61  84
ENDBRANCH  35  36
ENDBRANCH  27  30
ENDBRANCH  25  26
ENDBRANCH  24  25
ENDBRANCH  23  24
ENDBRANCH   3  23
TORSDOF 16
ENDMDL
