MODEL 1
REMARK VINA RESULT:      -9.7      0.000      0.000
REMARK SMILES CC(C)(C)OC(=O)[C@]1(C(=O)NCCCNC(=O)c2ccc(-c3c4nc(c(-c5c(F)c(F)c(F)c(F)c5F)c5ccc([nH]5)c(-c5c(F)c(F)c(F)c(F)c5F)c5nc(c(-c6c(F)c(F)c(F)c(F)c6F)c6ccc3[nH]6)C=C5)C=C4)cc2)CC=CC[C@@H]1[NH3+]
REMARK SMILES IDX 12 1 11 2 9 3 10 4 8 6 81 7 85 8 82 9 84 10 83 11 6 12 7 13
REMARK SMILES IDX 5 14 2 15 1 16 3 17 4 18 86 19 13 23 14 24 15 25 16 26 17 28
REMARK SMILES IDX 18 29 19 30 80 31 20 32 79 33 21 34 22 35 23 36 73 37 24 38
REMARK SMILES IDX 78 39 72 40 74 41 25 42 77 43 71 44 70 45 26 47 58 48 38 49
REMARK SMILES IDX 57 50 39 51 42 52 56 53 75 54 40 55 41 56 55 58 76 59 43 60
REMARK SMILES IDX 27 61 28 62 36 63 29 64 30 65 34 66 37 67 31 68 32 69 35 70
REMARK SMILES IDX 33 71 59 72 60 73 68 74 61 75 62 76 66 77 69 78 63 79 64 80
REMARK SMILES IDX 67 81 65 82 44 83 45 84 53 85 46 86 47 87 51 88 54 89 48 90
REMARK SMILES IDX 49 91 52 92 50 93
REMARK H PARENT 11 5 86 20 86 21 86 22 15 27 74 46 42 57
REMARK Flexibility Score: inf
ROOT
ATOM      1  C   UNL A   1      43.207  22.340  27.112  1.00  0.00     0.117 C 
ENDROOT
BRANCH   1   2
ATOM      2  N   UNL A   1      44.465  21.942  26.502  1.00  0.00    -0.355 N 
ATOM      3  C   UNL A   1      45.576  22.630  26.115  1.00  0.00     0.244 C 
ATOM      4  O   UNL A   1      46.402  21.925  25.521  1.00  0.00    -0.274 OA
ATOM      5  H   UNL A   1      44.527  20.974  26.332  1.00  0.00     0.163 HD
BRANCH   3   6
ATOM      6  C   UNL A   1      45.825  24.140  26.424  1.00  0.00     0.201 C 
ATOM      7  C   UNL A   1      45.622  24.343  27.956  1.00  0.00     0.062 C 
ATOM      8  C   UNL A   1      47.304  24.454  25.985  1.00  0.00     0.212 C 
ATOM      9  C   UNL A   1      46.571  25.216  28.705  1.00  0.00    -0.029 C 
ATOM     10  C   UNL A   1      48.036  25.587  26.740  1.00  0.00     0.093 C 
ATOM     11  C   UNL A   1      47.652  25.774  28.164  1.00  0.00    -0.025 C 
BRANCH   6  12
ATOM     12  C   UNL A   1      44.757  24.969  25.704  1.00  0.00     0.328 C 
ATOM     13  O   UNL A   1      44.274  24.638  24.628  1.00  0.00    -0.251 OA
BRANCH  12  14
ATOM     14  O   UNL A   1      44.299  26.043  26.404  1.00  0.00    -0.459 OA
BRANCH  14  15
ATOM     15  C   UNL A   1      44.453  27.378  25.833  1.00  0.00     0.104 C 
ATOM     16  C   UNL A   1      44.775  28.293  27.024  1.00  0.00     0.056 C 
ATOM     17  C   UNL A   1      43.128  27.826  25.204  1.00  0.00     0.056 C 
ATOM     18  C   UNL A   1      45.617  27.490  24.831  1.00  0.00     0.056 C 
ENDBRANCH  14  15
ENDBRANCH  12  14
ENDBRANCH   6  12
BRANCH   8  19
ATOM     19  N   UNL A   1      47.487  24.683  24.533  1.00  0.00    -0.353 N 
ATOM     20  H   UNL A   1      47.454  23.790  24.040  1.00  0.00     0.344 HD
ATOM     21  H   UNL A   1      48.391  25.128  24.369  1.00  0.00     0.344 HD
ATOM     22  H   UNL A   1      46.742  25.289  24.187  1.00  0.00     0.344 HD
ENDBRANCH   8  19
ENDBRANCH   3   6
ENDBRANCH   1   2
BRANCH   1  23
ATOM     23  C   UNL A   1      42.051  22.283  26.125  1.00  0.00     0.042 C 
BRANCH  23  24
ATOM     24  C   UNL A   1      40.773  21.721  26.723  1.00  0.00     0.118 C 
BRANCH  24  25
ATOM     25  N   UNL A   1      39.593  22.096  25.954  1.00  0.00    -0.352 N 
ATOM     26  C   UNL A   1      38.791  23.201  26.062  1.00  0.00     0.251 C 
ATOM     27  H   UNL A   1      39.331  21.458  25.252  1.00  0.00     0.163 HD
ATOM     28  O   UNL A   1      37.693  23.217  25.498  1.00  0.00    -0.269 OA
BRANCH  26  29
ATOM     29  C   UNL A   1      39.226  24.368  26.851  1.00  0.00     0.039 A 
ATOM     30  C   UNL A   1      39.999  25.358  26.239  1.00  0.00     0.014 A 
ATOM     31  C   UNL A   1      38.902  24.473  28.207  1.00  0.00     0.014 A 
ATOM     32  C   UNL A   1      40.398  26.477  26.973  1.00  0.00     0.010 A 
ATOM     33  C   UNL A   1      39.208  25.634  28.905  1.00  0.00     0.010 A 
ATOM     34  C   UNL A   1      39.979  26.637  28.305  1.00  0.00    -0.014 A 
BRANCH  34  35
ATOM     35  C   UNL A   1      40.374  27.824  29.105  1.00  0.00     0.031 A 
ATOM     36  C   UNL A   1      41.739  27.876  29.736  1.00  0.00     0.074 A 
ATOM     37  C   UNL A   1      39.487  28.815  29.314  1.00  0.00     0.049 A 
ATOM     38  N   UNL A   1      42.247  28.776  30.541  1.00  0.00    -0.248 NA
ATOM     39  C   UNL A   1      42.645  26.749  29.454  1.00  0.00     0.031 C 
ATOM     40  C   UNL A   1      38.119  28.852  28.797  1.00  0.00     0.029 A 
ATOM     41  N   UNL A   1      39.604  29.981  30.028  1.00  0.00    -0.354 N 
ATOM     42  C   UNL A   1      43.514  28.313  30.872  1.00  0.00     0.074 A 
ATOM     43  C   UNL A   1      43.677  27.026  30.235  1.00  0.00     0.031 C 
ATOM     44  C   UNL A   1      37.532  29.995  29.188  1.00  0.00     0.029 A 
ATOM     45  C   UNL A   1      38.467  30.751  30.012  1.00  0.00     0.049 A 
ATOM     46  H   UNL A   1      40.425  30.241  30.506  1.00  0.00     0.167 HD
ATOM     47  C   UNL A   1      44.467  28.922  31.615  1.00  0.00     0.037 A 
ATOM     48  C   UNL A   1      38.211  31.934  30.603  1.00  0.00     0.037 A 
ATOM     49  C   UNL A   1      44.314  30.219  32.216  1.00  0.00     0.049 A 
ATOM     50  C   UNL A   1      39.293  32.592  31.417  1.00  0.00     0.074 A 
ATOM     51  C   UNL A   1      45.236  30.948  32.946  1.00  0.00     0.029 A 
ATOM     52  N   UNL A   1      43.158  30.984  32.150  1.00  0.00    -0.354 N 
ATOM     53  N   UNL A   1      40.509  32.174  31.672  1.00  0.00    -0.248 NA
ATOM     54  C   UNL A   1      38.969  33.893  32.018  1.00  0.00     0.031 C 
ATOM     55  C   UNL A   1      44.625  32.139  33.354  1.00  0.00     0.029 A 
ATOM     56  C   UNL A   1      43.341  32.174  32.835  1.00  0.00     0.049 A 
ATOM     57  H   UNL A   1      42.332  30.721  31.684  1.00  0.00     0.167 HD
ATOM     58  C   UNL A   1      41.106  33.173  32.431  1.00  0.00     0.074 A 
ATOM     59  C   UNL A   1      40.121  34.223  32.583  1.00  0.00     0.031 C 
ATOM     60  C   UNL A   1      42.354  33.216  32.956  1.00  0.00     0.037 A 
BRANCH  47  61
ATOM     61  C   UNL A   1      45.769  28.196  31.806  1.00  0.00     0.064 A 
ATOM     62  C   UNL A   1      45.930  27.232  32.814  1.00  0.00     0.173 A 
ATOM     63  C   UNL A   1      46.854  28.438  30.951  1.00  0.00     0.173 A 
ATOM     64  F   UNL A   1      44.929  26.972  33.667  1.00  0.00    -0.203 F 
ATOM     65  C   UNL A   1      47.139  26.559  32.975  1.00  0.00     0.198 A 
ATOM     66  C   UNL A   1      48.050  27.740  31.096  1.00  0.00     0.198 A 
ATOM     67  F   UNL A   1      46.752  29.345  29.968  1.00  0.00    -0.203 F 
ATOM     68  F   UNL A   1      47.285  25.679  33.976  1.00  0.00    -0.200 F 
ATOM     69  C   UNL A   1      48.194  26.807  32.112  1.00  0.00     0.200 A 
ATOM     70  F   UNL A   1      49.066  27.971  30.251  1.00  0.00    -0.200 F 
ATOM     71  F   UNL A   1      49.353  26.150  32.262  1.00  0.00    -0.200 F 
ENDBRANCH  47  61
BRANCH  48  72
ATOM     72  C   UNL A   1      36.890  32.591  30.422  1.00  0.00     0.064 A 
ATOM     73  C   UNL A   1      36.633  33.389  29.298  1.00  0.00     0.173 A 
ATOM     74  C   UNL A   1      35.866  32.451  31.370  1.00  0.00     0.173 A 
ATOM     75  F   UNL A   1      37.587  33.569  28.373  1.00  0.00    -0.203 F 
ATOM     76  C   UNL A   1      35.414  34.046  29.144  1.00  0.00     0.198 A 
ATOM     77  C   UNL A   1      34.636  33.084  31.199  1.00  0.00     0.198 A 
ATOM     78  F   UNL A   1      36.058  31.693  32.460  1.00  0.00    -0.203 F 
ATOM     79  F   UNL A   1      35.216  34.847  28.088  1.00  0.00    -0.200 F 
ATOM     80  C   UNL A   1      34.414  33.889  30.093  1.00  0.00     0.200 A 
ATOM     81  F   UNL A   1      33.668  32.918  32.111  1.00  0.00    -0.200 F 
ATOM     82  F   UNL A   1      33.243  34.521  29.945  1.00  0.00    -0.200 F 
ENDBRANCH  48  72
BRANCH  60  83
ATOM     83  C   UNL A   1      42.744  34.460  33.698  1.00  0.00     0.064 A 
ATOM     84  C   UNL A   1      43.230  35.595  33.034  1.00  0.00     0.173 A 
ATOM     85  C   UNL A   1      42.593  34.527  35.092  1.00  0.00     0.173 A 
ATOM     86  F   UNL A   1      43.405  35.575  31.704  1.00  0.00    -0.203 F 
ATOM     87  C   UNL A   1      43.578  36.742  33.741  1.00  0.00     0.198 A 
ATOM     88  C   UNL A   1      42.912  35.686  35.792  1.00  0.00     0.198 A 
ATOM     89  F   UNL A   1      42.124  33.471  35.774  1.00  0.00    -0.203 F 
ATOM     90  F   UNL A   1      44.088  37.798  33.092  1.00  0.00    -0.200 F 
ATOM     91  C   UNL A   1      43.412  36.790  35.118  1.00  0.00     0.200 A 
ATOM     92  F   UNL A   1      42.737  35.735  37.120  1.00  0.00    -0.200 F 
ATOM     93  F   UNL A   1      43.742  37.898  35.795  1.00  0.00    -0.200 F 
ENDBRANCH  60  83
ENDBRANCH  34  35
ENDBRANCH  26  29
ENDBRANCH  24  25
ENDBRANCH  23  24
ENDBRANCH   1  23
TORSDOF 14
ENDMDL
MODEL 2
REMARK VINA RESULT:      -9.6      4.440     10.126
REMARK SMILES CC(C)(C)OC(=O)[C@]1(C(=O)NCCCNC(=O)c2ccc(-c3c4nc(c(-c5c(F)c(F)c(F)c(F)c5F)c5ccc([nH]5)c(-c5c(F)c(F)c(F)c(F)c5F)c5nc(c(-c6c(F)c(F)c(F)c(F)c6F)c6ccc3[nH]6)C=C5)C=C4)cc2)CC=CC[C@@H]1[NH3+]
REMARK SMILES IDX 12 1 11 2 9 3 10 4 8 6 81 7 85 8 82 9 84 10 83 11 6 12 7 13
REMARK SMILES IDX 5 14 2 15 1 16 3 17 4 18 86 19 13 23 14 24 15 25 16 26 17 28
REMARK SMILES IDX 18 29 19 30 80 31 20 32 79 33 21 34 22 35 23 36 73 37 24 38
REMARK SMILES IDX 78 39 72 40 74 41 25 42 77 43 71 44 70 45 26 47 58 48 38 49
REMARK SMILES IDX 57 50 39 51 42 52 56 53 75 54 40 55 41 56 55 58 76 59 43 60
REMARK SMILES IDX 27 61 28 62 36 63 29 64 30 65 34 66 37 67 31 68 32 69 35 70
REMARK SMILES IDX 33 71 59 72 60 73 68 74 61 75 62 76 66 77 69 78 63 79 64 80
REMARK SMILES IDX 67 81 65 82 44 83 45 84 53 85 46 86 47 87 51 88 54 89 48 90
REMARK SMILES IDX 49 91 52 92 50 93
REMARK H PARENT 11 5 86 20 86 21 86 22 15 27 74 46 42 57
REMARK Flexibility Score: inf
ROOT
ATOM      1  C   UNL A   1      32.073  28.277  23.603  1.00  0.00     0.117 C 
ENDROOT
BRANCH   1   2
ATOM      2  N   UNL A   1      32.559  27.506  22.470  1.00  0.00    -0.355 N 
ATOM      3  C   UNL A   1      33.079  26.253  22.346  1.00  0.00     0.244 C 
ATOM      4  O   UNL A   1      33.486  26.006  21.202  1.00  0.00    -0.274 OA
ATOM      5  H   UNL A   1      32.503  27.991  21.615  1.00  0.00     0.163 HD
BRANCH   3   6
ATOM      6  C   UNL A   1      33.120  25.201  23.499  1.00  0.00     0.201 C 
ATOM      7  C   UNL A   1      33.684  25.916  24.763  1.00  0.00     0.062 C 
ATOM      8  C   UNL A   1      31.639  24.711  23.717  1.00  0.00     0.212 C 
ATOM      9  C   UNL A   1      33.057  25.648  26.090  1.00  0.00    -0.029 C 
ATOM     10  C   UNL A   1      31.260  24.231  25.137  1.00  0.00     0.093 C 
ATOM     11  C   UNL A   1      31.973  24.895  26.261  1.00  0.00    -0.025 C 
BRANCH   6  12
ATOM     12  C   UNL A   1      34.107  24.094  23.116  1.00  0.00     0.328 C 
ATOM     13  O   UNL A   1      33.908  23.321  22.188  1.00  0.00    -0.251 OA
BRANCH  12  14
ATOM     14  O   UNL A   1      35.278  24.107  23.811  1.00  0.00    -0.459 OA
BRANCH  14  15
ATOM     15  C   UNL A   1      35.618  22.958  24.646  1.00  0.00     0.104 C 
ATOM     16  C   UNL A   1      36.191  23.553  25.939  1.00  0.00     0.056 C 
ATOM     17  C   UNL A   1      36.705  22.124  23.955  1.00  0.00     0.056 C 
ATOM     18  C   UNL A   1      34.404  22.092  25.029  1.00  0.00     0.056 C 
ENDBRANCH  14  15
ENDBRANCH  12  14
ENDBRANCH   6  12
BRANCH   8  19
ATOM     19  N   UNL A   1      31.173  23.689  22.751  1.00  0.00    -0.353 N 
ATOM     20  H   UNL A   1      31.551  22.779  23.010  1.00  0.00     0.344 HD
ATOM     21  H   UNL A   1      31.492  23.936  21.814  1.00  0.00     0.344 HD
ATOM     22  H   UNL A   1      30.153  23.650  22.764  1.00  0.00     0.344 HD
ENDBRANCH   8  19
ENDBRANCH   3   6
ENDBRANCH   1   2
BRANCH   1  23
ATOM     23  C   UNL A   1      33.088  29.310  24.069  1.00  0.00     0.042 C 
BRANCH  23  24
ATOM     24  C   UNL A   1      33.168  29.440  25.579  1.00  0.00     0.118 C 
BRANCH  24  25
ATOM     25  N   UNL A   1      32.843  30.786  26.035  1.00  0.00    -0.352 N 
ATOM     26  C   UNL A   1      33.348  31.500  27.088  1.00  0.00     0.251 C 
ATOM     27  H   UNL A   1      32.156  31.252  25.506  1.00  0.00     0.163 HD
ATOM     28  O   UNL A   1      32.766  32.520  27.470  1.00  0.00    -0.269 OA
BRANCH  26  29
ATOM     29  C   UNL A   1      34.576  31.057  27.774  1.00  0.00     0.039 A 
ATOM     30  C   UNL A   1      35.617  31.969  27.970  1.00  0.00     0.014 A 
ATOM     31  C   UNL A   1      34.718  29.733  28.197  1.00  0.00     0.014 A 
ATOM     32  C   UNL A   1      36.774  31.564  28.637  1.00  0.00     0.010 A 
ATOM     33  C   UNL A   1      35.823  29.360  28.952  1.00  0.00     0.010 A 
ATOM     34  C   UNL A   1      36.873  30.264  29.159  1.00  0.00    -0.014 A 
BRANCH  34  35
ATOM     35  C   UNL A   1      38.085  29.810  29.888  1.00  0.00     0.031 A 
ATOM     36  C   UNL A   1      38.360  30.330  31.273  1.00  0.00     0.074 A 
ATOM     37  C   UNL A   1      38.963  28.988  29.281  1.00  0.00     0.049 A 
ATOM     38  N   UNL A   1      39.400  30.129  32.044  1.00  0.00    -0.248 NA
ATOM     39  C   UNL A   1      37.346  31.223  31.860  1.00  0.00     0.031 C 
ATOM     40  C   UNL A   1      38.830  28.460  27.923  1.00  0.00     0.029 A 
ATOM     41  N   UNL A   1      40.147  28.461  29.729  1.00  0.00    -0.354 N 
ATOM     42  C   UNL A   1      39.172  30.884  33.187  1.00  0.00     0.074 A 
ATOM     43  C   UNL A   1      37.930  31.595  32.988  1.00  0.00     0.031 C 
ATOM     44  C   UNL A   1      39.877  27.662  27.658  1.00  0.00     0.029 A 
ATOM     45  C   UNL A   1      40.772  27.654  28.810  1.00  0.00     0.049 A 
ATOM     46  H   UNL A   1      40.515  28.643  30.624  1.00  0.00     0.167 HD
ATOM     47  C   UNL A   1      39.917  30.953  34.315  1.00  0.00     0.037 A 
ATOM     48  C   UNL A   1      41.939  26.987  28.891  1.00  0.00     0.037 A 
ATOM     49  C   UNL A   1      41.134  30.214  34.523  1.00  0.00     0.049 A 
ATOM     50  C   UNL A   1      42.743  27.075  30.160  1.00  0.00     0.074 A 
ATOM     51  C   UNL A   1      41.938  30.172  35.648  1.00  0.00     0.029 A 
ATOM     52  N   UNL A   1      41.717  29.380  33.581  1.00  0.00    -0.354 N 
ATOM     53  N   UNL A   1      42.488  27.742  31.259  1.00  0.00    -0.248 NA
ATOM     54  C   UNL A   1      43.995  26.307  30.203  1.00  0.00     0.031 C 
ATOM     55  C   UNL A   1      43.030  29.342  35.372  1.00  0.00     0.029 A 
ATOM     56  C   UNL A   1      42.878  28.827  34.095  1.00  0.00     0.049 A 
ATOM     57  H   UNL A   1      41.359  29.206  32.680  1.00  0.00     0.167 HD
ATOM     58  C   UNL A   1      43.525  27.449  32.135  1.00  0.00     0.074 A 
ATOM     59  C   UNL A   1      44.406  26.532  31.444  1.00  0.00     0.031 C 
ATOM     60  C   UNL A   1      43.730  27.899  33.397  1.00  0.00     0.037 A 
BRANCH  47  61
ATOM     61  C   UNL A   1      39.428  31.847  35.418  1.00  0.00     0.064 A 
ATOM     62  C   UNL A   1      39.802  33.198  35.489  1.00  0.00     0.173 A 
ATOM     63  C   UNL A   1      38.546  31.360  36.394  1.00  0.00     0.173 A 
ATOM     64  F   UNL A   1      40.654  33.711  34.588  1.00  0.00    -0.203 F 
ATOM     65  C   UNL A   1      39.335  34.020  36.511  1.00  0.00     0.198 A 
ATOM     66  C   UNL A   1      38.055  32.193  37.397  1.00  0.00     0.198 A 
ATOM     67  F   UNL A   1      38.152  30.078  36.372  1.00  0.00    -0.203 F 
ATOM     68  F   UNL A   1      39.746  35.293  36.585  1.00  0.00    -0.200 F 
ATOM     69  C   UNL A   1      38.456  33.520  37.458  1.00  0.00     0.200 A 
ATOM     70  F   UNL A   1      37.194  31.712  38.305  1.00  0.00    -0.200 F 
ATOM     71  F   UNL A   1      37.998  34.315  38.436  1.00  0.00    -0.200 F 
ENDBRANCH  47  61
BRANCH  48  72
ATOM     72  C   UNL A   1      42.403  26.151  27.752  1.00  0.00     0.064 A 
ATOM     73  C   UNL A   1      43.340  26.647  26.834  1.00  0.00     0.173 A 
ATOM     74  C   UNL A   1      41.913  24.854  27.546  1.00  0.00     0.173 A 
ATOM     75  F   UNL A   1      43.824  27.889  26.977  1.00  0.00    -0.203 F 
ATOM     76  C   UNL A   1      43.745  25.889  25.737  1.00  0.00     0.198 A 
ATOM     77  C   UNL A   1      42.343  24.085  26.467  1.00  0.00     0.198 A 
ATOM     78  F   UNL A   1      41.020  24.330  28.399  1.00  0.00    -0.203 F 
ATOM     79  F   UNL A   1      44.599  26.409  24.845  1.00  0.00    -0.200 F 
ATOM     80  C   UNL A   1      43.250  24.607  25.557  1.00  0.00     0.200 A 
ATOM     81  F   UNL A   1      41.872  22.841  26.304  1.00  0.00    -0.200 F 
ATOM     82  F   UNL A   1      43.639  23.878  24.503  1.00  0.00    -0.200 F 
ENDBRANCH  48  72
BRANCH  60  83
ATOM     83  C   UNL A   1      44.926  27.366  34.129  1.00  0.00     0.064 A 
ATOM     84  C   UNL A   1      44.865  26.183  34.881  1.00  0.00     0.173 A 
ATOM     85  C   UNL A   1      46.159  28.030  34.046  1.00  0.00     0.173 A 
ATOM     86  F   UNL A   1      43.705  25.520  35.002  1.00  0.00    -0.203 F 
ATOM     87  C   UNL A   1      45.988  25.701  35.546  1.00  0.00     0.198 A 
ATOM     88  C   UNL A   1      47.287  27.528  34.686  1.00  0.00     0.198 A 
ATOM     89  F   UNL A   1      46.272  29.161  33.333  1.00  0.00    -0.203 F 
ATOM     90  F   UNL A   1      45.895  24.597  36.300  1.00  0.00    -0.200 F 
ATOM     91  C   UNL A   1      47.200  26.370  35.443  1.00  0.00     0.200 A 
ATOM     92  F   UNL A   1      48.460  28.167  34.573  1.00  0.00    -0.200 F 
ATOM     93  F   UNL A   1      48.281  25.900  36.079  1.00  0.00    -0.200 F 
ENDBRANCH  60  83
ENDBRANCH  34  35
ENDBRANCH  26  29
ENDBRANCH  24  25
ENDBRANCH  23  24
ENDBRANCH   1  23
TORSDOF 14
ENDMDL
MODEL 3
REMARK VINA RESULT:      -9.6      3.600      6.865
REMARK SMILES CC(C)(C)OC(=O)[C@]1(C(=O)NCCCNC(=O)c2ccc(-c3c4nc(c(-c5c(F)c(F)c(F)c(F)c5F)c5ccc([nH]5)c(-c5c(F)c(F)c(F)c(F)c5F)c5nc(c(-c6c(F)c(F)c(F)c(F)c6F)c6ccc3[nH]6)C=C5)C=C4)cc2)CC=CC[C@@H]1[NH3+]
REMARK SMILES IDX 12 1 11 2 9 3 10 4 8 6 81 7 85 8 82 9 84 10 83 11 6 12 7 13
REMARK SMILES IDX 5 14 2 15 1 16 3 17 4 18 86 19 13 23 14 24 15 25 16 26 17 28
REMARK SMILES IDX 18 29 19 30 80 31 20 32 79 33 21 34 22 35 23 36 73 37 24 38
REMARK SMILES IDX 78 39 72 40 74 41 25 42 77 43 71 44 70 45 26 47 58 48 38 49
REMARK SMILES IDX 57 50 39 51 42 52 56 53 75 54 40 55 41 56 55 58 76 59 43 60
REMARK SMILES IDX 27 61 28 62 36 63 29 64 30 65 34 66 37 67 31 68 32 69 35 70
REMARK SMILES IDX 33 71 59 72 60 73 68 74 61 75 62 76 66 77 69 78 63 79 64 80
REMARK SMILES IDX 67 81 65 82 44 83 45 84 53 85 46 86 47 87 51 88 54 89 48 90
REMARK SMILES IDX 49 91 52 92 50 93
REMARK H PARENT 11 5 86 20 86 21 86 22 15 27 74 46 42 57
REMARK Flexibility Score: inf
ROOT
ATOM      1  C   UNL A   1      34.827  24.161  23.595  1.00  0.00     0.117 C 
ENDROOT
BRANCH   1   2
ATOM      2  N   UNL A   1      33.583  23.432  23.779  1.00  0.00    -0.355 N 
ATOM      3  C   UNL A   1      32.338  23.797  24.195  1.00  0.00     0.244 C 
ATOM      4  O   UNL A   1      31.568  22.836  24.325  1.00  0.00    -0.274 OA
ATOM      5  H   UNL A   1      33.655  22.475  23.559  1.00  0.00     0.163 HD
BRANCH   3   6
ATOM      6  C   UNL A   1      31.891  25.272  24.438  1.00  0.00     0.201 C 
ATOM      7  C   UNL A   1      32.115  26.053  23.108  1.00  0.00     0.062 C 
ATOM      8  C   UNL A   1      30.369  25.225  24.838  1.00  0.00     0.212 C 
ATOM      9  C   UNL A   1      31.078  27.024  22.652  1.00  0.00    -0.029 C 
ATOM     10  C   UNL A   1      29.512  26.464  24.491  1.00  0.00     0.093 C 
ATOM     11  C   UNL A   1      29.913  27.211  23.269  1.00  0.00    -0.025 C 
BRANCH   6  12
ATOM     12  C   UNL A   1      32.809  25.894  25.496  1.00  0.00     0.328 C 
ATOM     13  O   UNL A   1      33.214  25.270  26.469  1.00  0.00    -0.251 OA
BRANCH  12  14
ATOM     14  O   UNL A   1      33.235  27.155  25.213  1.00  0.00    -0.459 OA
BRANCH  14  15
ATOM     15  C   UNL A   1      32.880  28.242  26.121  1.00  0.00     0.104 C 
ATOM     16  C   UNL A   1      32.427  29.395  25.215  1.00  0.00     0.056 C 
ATOM     17  C   UNL A   1      34.122  28.682  26.907  1.00  0.00     0.056 C 
ATOM     18  C   UNL A   1      31.711  27.902  27.064  1.00  0.00     0.056 C 
ENDBRANCH  14  15
ENDBRANCH  12  14
ENDBRANCH   6  12
BRANCH   8  19
ATOM     19  N   UNL A   1      30.108  24.874  26.254  1.00  0.00    -0.353 N 
ATOM     20  H   UNL A   1      29.221  25.281  26.547  1.00  0.00     0.344 HD
ATOM     21  H   UNL A   1      30.860  25.239  26.839  1.00  0.00     0.344 HD
ATOM     22  H   UNL A   1      30.065  23.859  26.350  1.00  0.00     0.344 HD
ENDBRANCH   8  19
ENDBRANCH   3   6
ENDBRANCH   1   2
BRANCH   1  23
ATOM     23  C   UNL A   1      36.044  23.301  23.904  1.00  0.00     0.042 C 
BRANCH  23  24
ATOM     24  C   UNL A   1      36.717  23.656  25.218  1.00  0.00     0.118 C 
BRANCH  24  25
ATOM     25  N   UNL A   1      37.710  22.666  25.615  1.00  0.00    -0.352 N 
ATOM     26  C   UNL A   1      38.945  22.841  26.179  1.00  0.00     0.251 C 
ATOM     27  H   UNL A   1      37.455  21.730  25.452  1.00  0.00     0.163 HD
ATOM     28  O   UNL A   1      39.745  21.900  26.205  1.00  0.00    -0.269 OA
BRANCH  26  29
ATOM     29  C   UNL A   1      39.331  24.146  26.748  1.00  0.00     0.039 A 
ATOM     30  C   UNL A   1      38.984  24.445  28.069  1.00  0.00     0.014 A 
ATOM     31  C   UNL A   1      40.006  25.091  25.972  1.00  0.00     0.014 A 
ATOM     32  C   UNL A   1      39.363  25.669  28.623  1.00  0.00     0.010 A 
ATOM     33  C   UNL A   1      40.474  26.261  26.555  1.00  0.00     0.010 A 
ATOM     34  C   UNL A   1      40.138  26.574  27.879  1.00  0.00    -0.014 A 
BRANCH  34  35
ATOM     35  C   UNL A   1      40.570  27.876  28.447  1.00  0.00     0.031 A 
ATOM     36  C   UNL A   1      42.017  28.091  28.802  1.00  0.00     0.074 A 
ATOM     37  C   UNL A   1      39.656  28.832  28.702  1.00  0.00     0.049 A 
ATOM     38  N   UNL A   1      42.585  29.116  29.387  1.00  0.00    -0.248 NA
ATOM     39  C   UNL A   1      42.947  26.992  28.488  1.00  0.00     0.031 C 
ATOM     40  C   UNL A   1      38.219  28.720  28.450  1.00  0.00     0.029 A 
ATOM     41  N   UNL A   1      39.802  30.085  29.241  1.00  0.00    -0.354 N 
ATOM     42  C   UNL A   1      43.924  28.775  29.526  1.00  0.00     0.074 A 
ATOM     43  C   UNL A   1      44.076  27.428  29.024  1.00  0.00     0.031 C 
ATOM     44  C   UNL A   1      37.620  29.868  28.807  1.00  0.00     0.029 A 
ATOM     45  C   UNL A   1      38.622  30.778  29.348  1.00  0.00     0.049 A 
ATOM     46  H   UNL A   1      40.671  30.453  29.523  1.00  0.00     0.167 HD
ATOM     47  C   UNL A   1      44.941  29.530  30.002  1.00  0.00     0.037 A 
ATOM     48  C   UNL A   1      38.380  32.011  29.835  1.00  0.00     0.037 A 
ATOM     49  C   UNL A   1      44.792  30.883  30.466  1.00  0.00     0.049 A 
ATOM     50  C   UNL A   1      39.532  32.831  30.350  1.00  0.00     0.074 A 
ATOM     51  C   UNL A   1      45.766  31.754  30.920  1.00  0.00     0.029 A 
ATOM     52  N   UNL A   1      43.584  31.563  30.529  1.00  0.00    -0.354 N 
ATOM     53  N   UNL A   1      40.804  32.523  30.420  1.00  0.00    -0.248 NA
ATOM     54  C   UNL A   1      39.214  34.178  30.846  1.00  0.00     0.031 C 
ATOM     55  C   UNL A   1      45.143  32.949  31.294  1.00  0.00     0.029 A 
ATOM     56  C   UNL A   1      43.788  32.841  31.024  1.00  0.00     0.049 A 
ATOM     57  H   UNL A   1      42.712  31.193  30.259  1.00  0.00     0.167 HD
ATOM     58  C   UNL A   1      41.442  33.645  30.932  1.00  0.00     0.074 A 
ATOM     59  C   UNL A   1      40.418  34.646  31.142  1.00  0.00     0.031 C 
ATOM     60  C   UNL A   1      42.756  33.829  31.205  1.00  0.00     0.037 A 
BRANCH  47  61
ATOM     61  C   UNL A   1      46.311  28.913  30.029  1.00  0.00     0.064 A 
ATOM     62  C   UNL A   1      47.191  29.031  28.942  1.00  0.00     0.173 A 
ATOM     63  C   UNL A   1      46.764  28.230  31.168  1.00  0.00     0.173 A 
ATOM     64  F   UNL A   1      46.803  29.662  27.824  1.00  0.00    -0.203 F 
ATOM     65  C   UNL A   1      48.462  28.462  28.984  1.00  0.00     0.198 A 
ATOM     66  C   UNL A   1      48.046  27.690  31.218  1.00  0.00     0.198 A 
ATOM     67  F   UNL A   1      45.965  28.093  32.238  1.00  0.00    -0.203 F 
ATOM     68  F   UNL A   1      49.265  28.544  27.914  1.00  0.00    -0.200 F 
ATOM     69  C   UNL A   1      48.891  27.801  30.123  1.00  0.00     0.200 A 
ATOM     70  F   UNL A   1      48.466  27.063  32.325  1.00  0.00    -0.200 F 
ATOM     71  F   UNL A   1      50.119  27.263  30.165  1.00  0.00    -0.200 F 
ENDBRANCH  47  61
BRANCH  48  72
ATOM     72  C   UNL A   1      36.998  32.558  29.829  1.00  0.00     0.064 A 
ATOM     73  C   UNL A   1      36.519  33.288  28.731  1.00  0.00     0.173 A 
ATOM     74  C   UNL A   1      36.135  32.383  30.920  1.00  0.00     0.173 A 
ATOM     75  F   UNL A   1      37.313  33.500  27.672  1.00  0.00    -0.203 F 
ATOM     76  C   UNL A   1      35.242  33.845  28.738  1.00  0.00     0.198 A 
ATOM     77  C   UNL A   1      34.847  32.914  30.912  1.00  0.00     0.198 A 
ATOM     78  F   UNL A   1      36.541  31.688  31.993  1.00  0.00    -0.203 F 
ATOM     79  F   UNL A   1      34.831  34.584  27.698  1.00  0.00    -0.200 F 
ATOM     80  C   UNL A   1      34.405  33.654  29.826  1.00  0.00     0.200 A 
ATOM     81  F   UNL A   1      34.036  32.715  31.961  1.00  0.00    -0.200 F 
ATOM     82  F   UNL A   1      33.178  34.190  29.833  1.00  0.00    -0.200 F 
ENDBRANCH  48  72
BRANCH  60  83
ATOM     83  C   UNL A   1      43.169  35.180  31.712  1.00  0.00     0.064 A 
ATOM     84  C   UNL A   1      43.139  35.499  33.077  1.00  0.00     0.173 A 
ATOM     85  C   UNL A   1      43.636  36.156  30.818  1.00  0.00     0.173 A 
ATOM     86  F   UNL A   1      42.687  34.603  33.969  1.00  0.00    -0.203 F 
ATOM     87  C   UNL A   1      43.534  36.755  33.526  1.00  0.00     0.198 A 
ATOM     88  C   UNL A   1      44.060  37.400  31.274  1.00  0.00     0.198 A 
ATOM     89  F   UNL A   1      43.693  35.899  29.503  1.00  0.00    -0.203 F 
ATOM     90  F   UNL A   1      43.449  37.055  34.830  1.00  0.00    -0.200 F 
ATOM     91  C   UNL A   1      44.001  37.702  32.626  1.00  0.00     0.200 A 
ATOM     92  F   UNL A   1      44.525  38.308  30.405  1.00  0.00    -0.200 F 
ATOM     93  F   UNL A   1      44.386  38.909  33.062  1.00  0.00    -0.200 F 
ENDBRANCH  60  83
ENDBRANCH  34  35
ENDBRANCH  26  29
ENDBRANCH  24  25
ENDBRANCH  23  24
ENDBRANCH   1  23
TORSDOF 14
ENDMDL
