MODEL 1
REMARK VINA RESULT:     -13.5      0.000      0.000
REMARK SMILES C[C@@H](Oc1ccc2c(c1)OCO2)C(=O)N1CCn2nc(C(=O)NCCCNC(=O)c3ccc(-c4c5nc(c(-c6c(F)c(F)c(F)c(F)c6F)c6ccc([nH]6)c(-c6c(F)c(F)c(F)c(F)c6F)c6nc(c(-c7c(F)c(F)c(F)c(F)c7F)c7ccc4[nH]7)C=C6)C=C5)cc3)cc2C1
REMARK SMILES IDX 24 1 23 2 21 3 22 4 20 6 15 7 16 8 95 9 17 10 94 11 18 12
REMARK SMILES IDX 93 13 19 14 13 15 14 16 2 17 1 18 3 19 4 20 5 21 9 22 6 23
REMARK SMILES IDX 8 24 7 25 10 26 12 27 11 28 25 29 26 30 27 31 28 32 29 34
REMARK SMILES IDX 30 35 31 36 92 37 32 38 91 39 33 40 34 41 35 42 85 43 36 44
REMARK SMILES IDX 90 45 84 46 86 47 37 48 89 49 83 50 82 51 38 53 70 54 50 55
REMARK SMILES IDX 69 56 51 57 54 58 68 59 87 60 52 61 53 62 67 64 88 65 55 66
REMARK SMILES IDX 39 67 40 68 48 69 41 70 42 71 46 72 49 73 43 74 44 75 47 76
REMARK SMILES IDX 45 77 71 78 72 79 80 80 73 81 74 82 78 83 81 84 75 85 76 86
REMARK SMILES IDX 79 87 77 88 56 89 57 90 65 91 58 92 59 93 63 94 66 95 60 96
REMARK SMILES IDX 61 97 64 98 62 99
REMARK H PARENT 23 5 27 33 86 52 54 63
REMARK Flexibility Score: inf
ROOT
ATOM      1  C   UNL A   1      32.300  29.552  27.250  1.00  0.00     0.118 C 
ENDROOT
BRANCH   1   2
ATOM      2  N   UNL A   1      31.860  29.760  25.882  1.00  0.00    -0.351 N 
ATOM      3  C   UNL A   1      31.518  28.857  24.895  1.00  0.00     0.271 C 
ATOM      4  O   UNL A   1      31.078  29.336  23.848  1.00  0.00    -0.267 OA
ATOM      5  H   UNL A   1      31.795  30.705  25.612  1.00  0.00     0.163 HD
BRANCH   3   6
ATOM      6  C   UNL A   1      31.652  27.402  25.120  1.00  0.00     0.150 A 
ATOM      7  N   UNL A   1      32.452  22.947  25.969  1.00  0.00    -0.332 N 
ATOM      8  C   UNL A   1      31.004  23.041  26.211  1.00  0.00     0.143 C 
ATOM      9  C   UNL A   1      33.235  24.119  25.618  1.00  0.00     0.175 C 
ATOM     10  C   UNL A   1      30.395  24.417  26.463  1.00  0.00     0.166 C 
ATOM     11  C   UNL A   1      32.426  25.326  25.403  1.00  0.00     0.059 A 
ATOM     12  N   UNL A   1      31.160  25.464  25.848  1.00  0.00    -0.265 N 
ATOM     13  C   UNL A   1      32.717  26.519  24.791  1.00  0.00     0.061 A 
ATOM     14  N   UNL A   1      30.672  26.707  25.738  1.00  0.00    -0.167 NA
BRANCH   7  15
ATOM     15  C   UNL A   1      33.174  21.749  25.917  1.00  0.00     0.263 C 
ATOM     16  O   UNL A   1      34.048  21.503  26.756  1.00  0.00    -0.271 OA
BRANCH  15  17
ATOM     17  C   UNL A   1      32.939  20.761  24.761  1.00  0.00     0.259 C 
ATOM     18  C   UNL A   1      32.475  21.457  23.487  1.00  0.00     0.064 C 
BRANCH  17  19
ATOM     19  O   UNL A   1      34.178  20.046  24.618  1.00  0.00    -0.481 OA
BRANCH  19  20
ATOM     20  C   UNL A   1      34.050  18.688  24.681  1.00  0.00     0.124 A 
ATOM     21  C   UNL A   1      35.189  17.888  24.494  1.00  0.00     0.050 A 
ATOM     22  C   UNL A   1      32.841  18.130  25.104  1.00  0.00     0.097 A 
ATOM     23  C   UNL A   1      35.124  16.509  24.676  1.00  0.00     0.054 A 
ATOM     24  C   UNL A   1      32.813  16.764  25.296  1.00  0.00     0.169 A 
ATOM     25  C   UNL A   1      33.923  15.977  25.082  1.00  0.00     0.166 A 
ATOM     26  O   UNL A   1      31.747  16.036  25.731  1.00  0.00    -0.453 OA
ATOM     27  O   UNL A   1      33.694  14.664  25.348  1.00  0.00    -0.454 OA
ATOM     28  C   UNL A   1      32.321  14.711  25.781  1.00  0.00     0.468 C 
ENDBRANCH  19  20
ENDBRANCH  17  19
ENDBRANCH  15  17
ENDBRANCH   7  15
ENDBRANCH   3   6
ENDBRANCH   1   2
BRANCH   1  29
ATOM     29  C   UNL A   1      33.756  29.071  27.321  1.00  0.00     0.042 C 
BRANCH  29  30
ATOM     30  C   UNL A   1      34.727  30.216  27.115  1.00  0.00     0.118 C 
BRANCH  30  31
ATOM     31  N   UNL A   1      34.479  31.320  28.050  1.00  0.00    -0.352 N 
ATOM     32  C   UNL A   1      35.071  31.590  29.270  1.00  0.00     0.251 C 
ATOM     33  H   UNL A   1      33.788  31.962  27.766  1.00  0.00     0.163 HD
ATOM     34  O   UNL A   1      34.553  32.349  30.066  1.00  0.00    -0.269 OA
BRANCH  32  35
ATOM     35  C   UNL A   1      36.356  30.942  29.582  1.00  0.00     0.039 A 
ATOM     36  C   UNL A   1      36.435  29.601  29.974  1.00  0.00     0.014 A 
ATOM     37  C   UNL A   1      37.503  31.713  29.449  1.00  0.00     0.014 A 
ATOM     38  C   UNL A   1      37.693  29.033  30.164  1.00  0.00     0.010 A 
ATOM     39  C   UNL A   1      38.721  31.104  29.410  1.00  0.00     0.010 A 
ATOM     40  C   UNL A   1      38.827  29.799  29.868  1.00  0.00    -0.014 A 
BRANCH  40  41
ATOM     41  C   UNL A   1      40.176  29.259  29.913  1.00  0.00     0.031 A 
ATOM     42  C   UNL A   1      40.704  29.129  31.296  1.00  0.00     0.074 A 
ATOM     43  C   UNL A   1      40.707  28.651  28.827  1.00  0.00     0.049 A 
ATOM     44  N   UNL A   1      41.675  29.784  31.839  1.00  0.00    -0.248 NA
ATOM     45  C   UNL A   1      39.943  28.305  32.254  1.00  0.00     0.031 C 
ATOM     46  C   UNL A   1      40.064  28.437  27.519  1.00  0.00     0.029 A 
ATOM     47  N   UNL A   1      41.878  27.971  28.691  1.00  0.00    -0.354 N 
ATOM     48  C   UNL A   1      41.799  29.268  33.129  1.00  0.00     0.074 A 
ATOM     49  C   UNL A   1      40.571  28.578  33.400  1.00  0.00     0.031 C 
ATOM     50  C   UNL A   1      40.740  27.499  26.821  1.00  0.00     0.029 A 
ATOM     51  C   UNL A   1      41.949  27.170  27.550  1.00  0.00     0.049 A 
ATOM     52  H   UNL A   1      42.614  28.039  29.342  1.00  0.00     0.167 HD
ATOM     53  C   UNL A   1      43.030  29.155  33.706  1.00  0.00     0.037 A 
ATOM     54  C   UNL A   1      42.930  26.282  27.252  1.00  0.00     0.037 A 
ATOM     55  C   UNL A   1      43.996  29.908  32.943  1.00  0.00     0.049 A 
ATOM     56  C   UNL A   1      44.094  26.638  28.094  1.00  0.00     0.074 A 
ATOM     57  C   UNL A   1      44.263  31.236  32.695  1.00  0.00     0.029 A 
ATOM     58  N   UNL A   1      44.604  29.179  31.954  1.00  0.00    -0.354 N 
ATOM     59  N   UNL A   1      44.772  27.742  27.954  1.00  0.00    -0.248 NA
ATOM     60  C   UNL A   1      44.268  25.954  29.368  1.00  0.00     0.031 C 
ATOM     61  C   UNL A   1      44.832  31.279  31.386  1.00  0.00     0.029 A 
ATOM     62  C   UNL A   1      44.954  29.976  30.902  1.00  0.00     0.049 A 
ATOM     63  H   UNL A   1      44.766  28.208  31.995  1.00  0.00     0.167 HD
ATOM     64  C   UNL A   1      45.101  28.113  29.246  1.00  0.00     0.074 A 
ATOM     65  C   UNL A   1      44.916  26.905  30.046  1.00  0.00     0.031 C 
ATOM     66  C   UNL A   1      45.173  29.435  29.580  1.00  0.00     0.037 A 
BRANCH  53  67
ATOM     67  C   UNL A   1      43.489  27.989  34.575  1.00  0.00     0.064 A 
ATOM     68  C   UNL A   1      43.389  26.683  34.041  1.00  0.00     0.173 A 
ATOM     69  C   UNL A   1      43.694  28.043  35.972  1.00  0.00     0.173 A 
ATOM     70  F   UNL A   1      43.203  26.494  32.726  1.00  0.00    -0.203 F 
ATOM     71  C   UNL A   1      43.379  25.543  34.852  1.00  0.00     0.198 A 
ATOM     72  C   UNL A   1      43.728  26.900  36.772  1.00  0.00     0.198 A 
ATOM     73  F   UNL A   1      43.765  29.191  36.650  1.00  0.00    -0.203 F 
ATOM     74  F   UNL A   1      43.144  24.341  34.310  1.00  0.00    -0.200 F 
ATOM     75  C   UNL A   1      43.534  25.654  36.219  1.00  0.00     0.200 A 
ATOM     76  F   UNL A   1      43.866  27.033  38.099  1.00  0.00    -0.200 F 
ATOM     77  F   UNL A   1      43.452  24.574  37.008  1.00  0.00    -0.200 F 
ENDBRANCH  53  67
BRANCH  54  78
ATOM     78  C   UNL A   1      42.866  25.005  26.503  1.00  0.00     0.064 A 
ATOM     79  C   UNL A   1      43.664  24.787  25.366  1.00  0.00     0.173 A 
ATOM     80  C   UNL A   1      42.251  23.869  27.063  1.00  0.00     0.173 A 
ATOM     81  F   UNL A   1      44.315  25.810  24.795  1.00  0.00    -0.203 F 
ATOM     82  C   UNL A   1      43.866  23.504  24.846  1.00  0.00     0.198 A 
ATOM     83  C   UNL A   1      42.453  22.589  26.542  1.00  0.00     0.198 A 
ATOM     84  F   UNL A   1      41.526  23.970  28.187  1.00  0.00    -0.203 F 
ATOM     85  F   UNL A   1      44.690  23.327  23.803  1.00  0.00    -0.200 F 
ATOM     86  C   UNL A   1      43.273  22.405  25.444  1.00  0.00     0.200 A 
ATOM     87  F   UNL A   1      41.907  21.529  27.153  1.00  0.00    -0.200 F 
ATOM     88  F   UNL A   1      43.526  21.168  24.991  1.00  0.00    -0.200 F 
ENDBRANCH  54  78
BRANCH  66  89
ATOM     89  C   UNL A   1      45.333  30.413  28.453  1.00  0.00     0.064 A 
ATOM     90  C   UNL A   1      44.274  31.067  27.803  1.00  0.00     0.173 A 
ATOM     91  C   UNL A   1      46.636  30.770  28.086  1.00  0.00     0.173 A 
ATOM     92  F   UNL A   1      43.003  30.841  28.157  1.00  0.00    -0.203 F 
ATOM     93  C   UNL A   1      44.513  32.005  26.800  1.00  0.00     0.198 A 
ATOM     94  C   UNL A   1      46.873  31.733  27.112  1.00  0.00     0.198 A 
ATOM     95  F   UNL A   1      47.685  30.209  28.708  1.00  0.00    -0.203 F 
ATOM     96  F   UNL A   1      43.485  32.604  26.180  1.00  0.00    -0.200 F 
ATOM     97  C   UNL A   1      45.812  32.342  26.461  1.00  0.00     0.200 A 
ATOM     98  F   UNL A   1      48.132  32.088  26.822  1.00  0.00    -0.200 F 
ATOM     99  F   UNL A   1      46.045  33.270  25.522  1.00  0.00    -0.200 F 
ENDBRANCH  66  89
ENDBRANCH  40  41
ENDBRANCH  32  35
ENDBRANCH  30  31
ENDBRANCH  29  30
ENDBRANCH   1  29
TORSDOF 14
ENDMDL
MODEL 2
REMARK VINA RESULT:     -13.5      4.140      6.038
REMARK SMILES C[C@@H](Oc1ccc2c(c1)OCO2)C(=O)N1CCn2nc(C(=O)NCCCNC(=O)c3ccc(-c4c5nc(c(-c6c(F)c(F)c(F)c(F)c6F)c6ccc([nH]6)c(-c6c(F)c(F)c(F)c(F)c6F)c6nc(c(-c7c(F)c(F)c(F)c(F)c7F)c7ccc4[nH]7)C=C6)C=C5)cc3)cc2C1
REMARK SMILES IDX 24 1 23 2 21 3 22 4 20 6 15 7 16 8 95 9 17 10 94 11 18 12
REMARK SMILES IDX 93 13 19 14 13 15 14 16 2 17 1 18 3 19 4 20 5 21 9 22 6 23
REMARK SMILES IDX 8 24 7 25 10 26 12 27 11 28 25 29 26 30 27 31 28 32 29 34
REMARK SMILES IDX 30 35 31 36 92 37 32 38 91 39 33 40 34 41 35 42 85 43 36 44
REMARK SMILES IDX 90 45 84 46 86 47 37 48 89 49 83 50 82 51 38 53 70 54 50 55
REMARK SMILES IDX 69 56 51 57 54 58 68 59 87 60 52 61 53 62 67 64 88 65 55 66
REMARK SMILES IDX 39 67 40 68 48 69 41 70 42 71 46 72 49 73 43 74 44 75 47 76
REMARK SMILES IDX 45 77 71 78 72 79 80 80 73 81 74 82 78 83 81 84 75 85 76 86
REMARK SMILES IDX 79 87 77 88 56 89 57 90 65 91 58 92 59 93 63 94 66 95 60 96
REMARK SMILES IDX 61 97 64 98 62 99
REMARK H PARENT 23 5 27 33 86 52 54 63
REMARK Flexibility Score: inf
ROOT
ATOM      1  C   UNL A   1      33.134  35.334  29.537  1.00  0.00     0.118 C 
ENDROOT
BRANCH   1   2
ATOM      2  N   UNL A   1      34.553  35.048  29.419  1.00  0.00    -0.351 N 
ATOM      3  C   UNL A   1      35.218  34.011  28.797  1.00  0.00     0.271 C 
ATOM      4  O   UNL A   1      36.448  34.089  28.773  1.00  0.00    -0.267 OA
ATOM      5  H   UNL A   1      35.140  35.707  29.856  1.00  0.00     0.163 HD
BRANCH   3   6
ATOM      6  C   UNL A   1      34.471  32.897  28.175  1.00  0.00     0.150 A 
ATOM      7  N   UNL A   1      32.224  29.205  26.583  1.00  0.00    -0.332 N 
ATOM      8  C   UNL A   1      31.452  30.305  25.984  1.00  0.00     0.143 C 
ATOM      9  C   UNL A   1      33.342  29.467  27.472  1.00  0.00     0.175 C 
ATOM     10  C   UNL A   1      31.581  31.700  26.588  1.00  0.00     0.166 C 
ATOM     11  C   UNL A   1      33.685  30.890  27.586  1.00  0.00     0.059 A 
ATOM     12  N   UNL A   1      32.848  31.890  27.236  1.00  0.00    -0.265 N 
ATOM     13  C   UNL A   1      34.809  31.520  28.058  1.00  0.00     0.061 A 
ATOM     14  N   UNL A   1      33.261  33.107  27.611  1.00  0.00    -0.167 NA
BRANCH   7  15
ATOM     15  C   UNL A   1      32.059  27.853  26.264  1.00  0.00     0.263 C 
ATOM     16  O   UNL A   1      31.548  27.072  27.075  1.00  0.00    -0.271 OA
BRANCH  15  17
ATOM     17  C   UNL A   1      32.592  27.309  24.927  1.00  0.00     0.259 C 
ATOM     18  C   UNL A   1      33.931  26.597  25.081  1.00  0.00     0.064 C 
BRANCH  17  19
ATOM     19  O   UNL A   1      31.542  26.473  24.414  1.00  0.00    -0.481 OA
BRANCH  19  20
ATOM     20  C   UNL A   1      30.562  27.152  23.748  1.00  0.00     0.124 A 
ATOM     21  C   UNL A   1      29.218  26.886  24.060  1.00  0.00     0.050 A 
ATOM     22  C   UNL A   1      30.909  28.213  22.908  1.00  0.00     0.097 A 
ATOM     23  C   UNL A   1      28.196  27.646  23.495  1.00  0.00     0.054 A 
ATOM     24  C   UNL A   1      29.876  28.960  22.380  1.00  0.00     0.169 A 
ATOM     25  C   UNL A   1      28.558  28.680  22.662  1.00  0.00     0.166 A 
ATOM     26  O   UNL A   1      30.005  30.046  21.569  1.00  0.00    -0.453 OA
ATOM     27  O   UNL A   1      27.697  29.544  22.063  1.00  0.00    -0.454 OA
ATOM     28  C   UNL A   1      28.621  30.422  21.391  1.00  0.00     0.468 C 
ENDBRANCH  19  20
ENDBRANCH  17  19
ENDBRANCH  15  17
ENDBRANCH   7  15
ENDBRANCH   3   6
ENDBRANCH   1   2
BRANCH   1  29
ATOM     29  C   UNL A   1      32.843  36.366  30.635  1.00  0.00     0.042 C 
BRANCH  29  30
ATOM     30  C   UNL A   1      33.693  36.120  31.865  1.00  0.00     0.118 C 
BRANCH  30  31
ATOM     31  N   UNL A   1      33.098  35.111  32.748  1.00  0.00    -0.352 N 
ATOM     32  C   UNL A   1      33.498  33.810  32.994  1.00  0.00     0.251 C 
ATOM     33  H   UNL A   1      32.296  35.404  33.239  1.00  0.00     0.163 HD
ATOM     34  O   UNL A   1      32.740  33.004  33.499  1.00  0.00    -0.269 OA
BRANCH  32  35
ATOM     35  C   UNL A   1      34.872  33.421  32.636  1.00  0.00     0.039 A 
ATOM     36  C   UNL A   1      35.977  34.214  32.965  1.00  0.00     0.014 A 
ATOM     37  C   UNL A   1      35.037  32.212  31.973  1.00  0.00     0.014 A 
ATOM     38  C   UNL A   1      37.253  33.736  32.674  1.00  0.00     0.010 A 
ATOM     39  C   UNL A   1      36.274  31.649  31.898  1.00  0.00     0.010 A 
ATOM     40  C   UNL A   1      37.383  32.445  32.149  1.00  0.00    -0.014 A 
BRANCH  40  41
ATOM     41  C   UNL A   1      38.672  31.809  31.929  1.00  0.00     0.031 A 
ATOM     42  C   UNL A   1      39.397  31.514  33.191  1.00  0.00     0.074 A 
ATOM     43  C   UNL A   1      38.973  31.270  30.725  1.00  0.00     0.049 A 
ATOM     44  N   UNL A   1      40.493  32.044  33.620  1.00  0.00    -0.248 NA
ATOM     45  C   UNL A   1      38.728  30.659  34.192  1.00  0.00     0.031 C 
ATOM     46  C   UNL A   1      38.117  31.226  29.527  1.00  0.00     0.029 A 
ATOM     47  N   UNL A   1      40.046  30.525  30.344  1.00  0.00    -0.354 N 
ATOM     48  C   UNL A   1      40.774  31.403  34.827  1.00  0.00     0.074 A 
ATOM     49  C   UNL A   1      39.549  30.779  35.237  1.00  0.00     0.031 C 
ATOM     50  C   UNL A   1      38.594  30.312  28.654  1.00  0.00     0.029 A 
ATOM     51  C   UNL A   1      39.870  29.831  29.146  1.00  0.00     0.049 A 
ATOM     52  H   UNL A   1      40.878  30.479  30.870  1.00  0.00     0.167 HD
ATOM     53  C   UNL A   1      42.065  31.149  35.183  1.00  0.00     0.037 A 
ATOM     54  C   UNL A   1      40.713  28.909  28.621  1.00  0.00     0.037 A 
ATOM     55  C   UNL A   1      42.960  31.901  34.336  1.00  0.00     0.049 A 
ATOM     56  C   UNL A   1      42.021  29.100  29.287  1.00  0.00     0.074 A 
ATOM     57  C   UNL A   1      43.296  33.224  34.157  1.00  0.00     0.029 A 
ATOM     58  N   UNL A   1      43.342  31.227  33.205  1.00  0.00    -0.354 N 
ATOM     59  N   UNL A   1      42.759  30.163  29.129  1.00  0.00    -0.248 NA
ATOM     60  C   UNL A   1      42.334  28.290  30.456  1.00  0.00     0.031 C 
ATOM     61  C   UNL A   1      43.655  33.350  32.780  1.00  0.00     0.029 A 
ATOM     62  C   UNL A   1      43.589  32.092  32.178  1.00  0.00     0.049 A 
ATOM     63  H   UNL A   1      43.425  30.248  33.141  1.00  0.00     0.167 HD
ATOM     64  C   UNL A   1      43.317  30.387  30.375  1.00  0.00     0.074 A 
ATOM     65  C   UNL A   1      43.158  29.125  31.093  1.00  0.00     0.031 C 
ATOM     66  C   UNL A   1      43.552  31.663  30.799  1.00  0.00     0.037 A 
BRANCH  53  67
ATOM     67  C   UNL A   1      42.555  29.877  35.868  1.00  0.00     0.064 A 
ATOM     68  C   UNL A   1      43.533  30.003  36.882  1.00  0.00     0.173 A 
ATOM     69  C   UNL A   1      42.378  28.565  35.375  1.00  0.00     0.173 A 
ATOM     70  F   UNL A   1      43.790  31.196  37.439  1.00  0.00    -0.203 F 
ATOM     71  C   UNL A   1      44.341  28.932  37.278  1.00  0.00     0.198 A 
ATOM     72  C   UNL A   1      43.156  27.489  35.806  1.00  0.00     0.198 A 
ATOM     73  F   UNL A   1      41.531  28.270  34.386  1.00  0.00    -0.203 F 
ATOM     74  F   UNL A   1      45.344  29.137  38.141  1.00  0.00    -0.200 F 
ATOM     75  C   UNL A   1      44.160  27.678  36.728  1.00  0.00     0.200 A 
ATOM     76  F   UNL A   1      42.972  26.283  35.250  1.00  0.00    -0.200 F 
ATOM     77  F   UNL A   1      44.976  26.665  37.050  1.00  0.00    -0.200 F 
ENDBRANCH  53  67
BRANCH  54  78
ATOM     78  C   UNL A   1      40.425  27.715  27.791  1.00  0.00     0.064 A 
ATOM     79  C   UNL A   1      41.153  27.451  26.618  1.00  0.00     0.173 A 
ATOM     80  C   UNL A   1      39.642  26.658  28.293  1.00  0.00     0.173 A 
ATOM     81  F   UNL A   1      41.952  28.392  26.095  1.00  0.00    -0.203 F 
ATOM     82  C   UNL A   1      41.131  26.192  26.007  1.00  0.00     0.198 A 
ATOM     83  C   UNL A   1      39.621  25.402  27.683  1.00  0.00     0.198 A 
ATOM     84  F   UNL A   1      38.967  26.796  29.444  1.00  0.00    -0.203 F 
ATOM     85  F   UNL A   1      41.893  25.957  24.930  1.00  0.00    -0.200 F 
ATOM     86  C   UNL A   1      40.377  25.165  26.549  1.00  0.00     0.200 A 
ATOM     87  F   UNL A   1      38.920  24.404  28.239  1.00  0.00    -0.200 F 
ATOM     88  F   UNL A   1      40.414  23.938  26.008  1.00  0.00    -0.200 F 
ENDBRANCH  54  78
BRANCH  66  89
ATOM     89  C   UNL A   1      43.616  32.729  29.745  1.00  0.00     0.064 A 
ATOM     90  C   UNL A   1      42.564  33.604  29.425  1.00  0.00     0.173 A 
ATOM     91  C   UNL A   1      44.841  32.927  29.097  1.00  0.00     0.173 A 
ATOM     92  F   UNL A   1      41.389  33.531  30.061  1.00  0.00    -0.203 F 
ATOM     93  C   UNL A   1      42.725  34.604  28.467  1.00  0.00     0.198 A 
ATOM     94  C   UNL A   1      45.011  33.949  28.170  1.00  0.00     0.198 A 
ATOM     95  F   UNL A   1      45.892  32.148  29.399  1.00  0.00    -0.203 F 
ATOM     96  F   UNL A   1      41.701  35.417  28.165  1.00  0.00    -0.200 F 
ATOM     97  C   UNL A   1      43.950  34.780  27.847  1.00  0.00     0.200 A 
ATOM     98  F   UNL A   1      46.211  34.143  27.609  1.00  0.00    -0.200 F 
ATOM     99  F   UNL A   1      44.118  35.764  26.953  1.00  0.00    -0.200 F 
ENDBRANCH  66  89
ENDBRANCH  40  41
ENDBRANCH  32  35
ENDBRANCH  30  31
ENDBRANCH  29  30
ENDBRANCH   1  29
TORSDOF 14
ENDMDL
MODEL 3
REMARK VINA RESULT:     -13.4      3.096      9.667
REMARK SMILES C[C@@H](Oc1ccc2c(c1)OCO2)C(=O)N1CCn2nc(C(=O)NCCCNC(=O)c3ccc(-c4c5nc(c(-c6c(F)c(F)c(F)c(F)c6F)c6ccc([nH]6)c(-c6c(F)c(F)c(F)c(F)c6F)c6nc(c(-c7c(F)c(F)c(F)c(F)c7F)c7ccc4[nH]7)C=C6)C=C5)cc3)cc2C1
REMARK SMILES IDX 24 1 23 2 21 3 22 4 20 6 15 7 16 8 95 9 17 10 94 11 18 12
REMARK SMILES IDX 93 13 19 14 13 15 14 16 2 17 1 18 3 19 4 20 5 21 9 22 6 23
REMARK SMILES IDX 8 24 7 25 10 26 12 27 11 28 25 29 26 30 27 31 28 32 29 34
REMARK SMILES IDX 30 35 31 36 92 37 32 38 91 39 33 40 34 41 35 42 85 43 36 44
REMARK SMILES IDX 90 45 84 46 86 47 37 48 89 49 83 50 82 51 38 53 70 54 50 55
REMARK SMILES IDX 69 56 51 57 54 58 68 59 87 60 52 61 53 62 67 64 88 65 55 66
REMARK SMILES IDX 39 67 40 68 48 69 41 70 42 71 46 72 49 73 43 74 44 75 47 76
REMARK SMILES IDX 45 77 71 78 72 79 80 80 73 81 74 82 78 83 81 84 75 85 76 86
REMARK SMILES IDX 79 87 77 88 56 89 57 90 65 91 58 92 59 93 63 94 66 95 60 96
REMARK SMILES IDX 61 97 64 98 62 99
REMARK H PARENT 23 5 27 33 86 52 54 63
REMARK Flexibility Score: inf
ROOT
ATOM      1  C   UNL A   1      36.886  21.819  25.764  1.00  0.00     0.118 C 
ENDROOT
BRANCH   1   2
ATOM      2  N   UNL A   1      35.862  20.872  25.362  1.00  0.00    -0.351 N 
ATOM      3  C   UNL A   1      34.533  21.060  25.039  1.00  0.00     0.271 C 
ATOM      4  O   UNL A   1      33.927  20.068  24.630  1.00  0.00    -0.267 OA
ATOM      5  H   UNL A   1      36.167  19.938  25.311  1.00  0.00     0.163 HD
BRANCH   3   6
ATOM      6  C   UNL A   1      33.906  22.394  25.157  1.00  0.00     0.150 A 
ATOM      7  N   UNL A   1      32.207  26.674  25.214  1.00  0.00    -0.332 N 
ATOM      8  C   UNL A   1      31.023  25.879  25.574  1.00  0.00     0.143 C 
ATOM      9  C   UNL A   1      33.475  26.039  24.903  1.00  0.00     0.175 C 
ATOM     10  C   UNL A   1      31.022  24.387  25.255  1.00  0.00     0.166 C 
ATOM     11  C   UNL A   1      33.475  24.586  25.117  1.00  0.00     0.059 A 
ATOM     12  N   UNL A   1      32.351  23.846  25.213  1.00  0.00    -0.265 N 
ATOM     13  C   UNL A   1      34.502  23.683  25.231  1.00  0.00     0.061 A 
ATOM     14  N   UNL A   1      32.562  22.523  25.195  1.00  0.00    -0.167 NA
BRANCH   7  15
ATOM     15  C   UNL A   1      32.273  28.071  25.267  1.00  0.00     0.263 C 
ATOM     16  O   UNL A   1      32.584  28.648  26.315  1.00  0.00    -0.271 OA
BRANCH  15  17
ATOM     17  C   UNL A   1      31.876  28.905  24.037  1.00  0.00     0.259 C 
ATOM     18  C   UNL A   1      32.730  28.585  22.816  1.00  0.00     0.064 C 
BRANCH  17  19
ATOM     19  O   UNL A   1      30.473  28.658  23.850  1.00  0.00    -0.481 OA
BRANCH  19  20
ATOM     20  C   UNL A   1      29.765  29.746  23.425  1.00  0.00     0.124 A 
ATOM     21  C   UNL A   1      29.743  30.899  24.226  1.00  0.00     0.050 A 
ATOM     22  C   UNL A   1      29.230  29.757  22.134  1.00  0.00     0.097 A 
ATOM     23  C   UNL A   1      29.139  32.068  23.769  1.00  0.00     0.054 A 
ATOM     24  C   UNL A   1      28.657  30.935  21.701  1.00  0.00     0.169 A 
ATOM     25  C   UNL A   1      28.610  32.056  22.499  1.00  0.00     0.166 A 
ATOM     26  O   UNL A   1      28.111  31.158  20.474  1.00  0.00    -0.453 OA
ATOM     27  O   UNL A   1      28.026  33.116  21.881  1.00  0.00    -0.454 OA
ATOM     28  C   UNL A   1      27.733  32.548  20.590  1.00  0.00     0.468 C 
ENDBRANCH  19  20
ENDBRANCH  17  19
ENDBRANCH  15  17
ENDBRANCH   7  15
ENDBRANCH   3   6
ENDBRANCH   1   2
BRANCH   1  29
ATOM     29  C   UNL A   1      38.291  21.361  25.346  1.00  0.00     0.042 C 
BRANCH  29  30
ATOM     30  C   UNL A   1      39.341  21.829  26.334  1.00  0.00     0.118 C 
BRANCH  30  31
ATOM     31  N   UNL A   1      40.698  21.699  25.791  1.00  0.00    -0.352 N 
ATOM     32  C   UNL A   1      41.722  22.628  25.750  1.00  0.00     0.251 C 
ATOM     33  H   UNL A   1      40.911  20.822  25.398  1.00  0.00     0.163 HD
ATOM     34  O   UNL A   1      42.670  22.486  25.001  1.00  0.00    -0.269 OA
BRANCH  32  35
ATOM     35  C   UNL A   1      41.645  23.794  26.645  1.00  0.00     0.039 A 
ATOM     36  C   UNL A   1      42.208  23.785  27.926  1.00  0.00     0.014 A 
ATOM     37  C   UNL A   1      41.007  24.927  26.157  1.00  0.00     0.014 A 
ATOM     38  C   UNL A   1      42.175  24.957  28.680  1.00  0.00     0.010 A 
ATOM     39  C   UNL A   1      41.176  26.120  26.791  1.00  0.00     0.010 A 
ATOM     40  C   UNL A   1      41.663  26.119  28.090  1.00  0.00    -0.014 A 
BRANCH  40  41
ATOM     41  C   UNL A   1      41.699  27.417  28.746  1.00  0.00     0.031 A 
ATOM     42  C   UNL A   1      42.852  28.251  28.321  1.00  0.00     0.074 A 
ATOM     43  C   UNL A   1      40.608  27.885  29.396  1.00  0.00     0.049 A 
ATOM     44  N   UNL A   1      43.866  28.622  29.028  1.00  0.00    -0.248 NA
ATOM     45  C   UNL A   1      42.994  28.558  26.885  1.00  0.00     0.031 C 
ATOM     46  C   UNL A   1      39.299  27.225  29.536  1.00  0.00     0.029 A 
ATOM     47  N   UNL A   1      40.382  29.105  29.956  1.00  0.00    -0.354 N 
ATOM     48  C   UNL A   1      44.642  29.416  28.183  1.00  0.00     0.074 A 
ATOM     49  C   UNL A   1      44.203  29.122  26.850  1.00  0.00     0.031 C 
ATOM     50  C   UNL A   1      38.369  28.126  29.922  1.00  0.00     0.029 A 
ATOM     51  C   UNL A   1      39.038  29.376  30.221  1.00  0.00     0.049 A 
ATOM     52  H   UNL A   1      41.104  29.742  30.158  1.00  0.00     0.167 HD
ATOM     53  C   UNL A   1      45.314  30.493  28.682  1.00  0.00     0.037 A 
ATOM     54  C   UNL A   1      38.525  30.561  30.633  1.00  0.00     0.037 A 
ATOM     55  C   UNL A   1      45.336  30.428  30.123  1.00  0.00     0.049 A 
ATOM     56  C   UNL A   1      39.655  31.350  31.172  1.00  0.00     0.074 A 
ATOM     57  C   UNL A   1      45.934  29.642  31.083  1.00  0.00     0.029 A 
ATOM     58  N   UNL A   1      44.273  31.058  30.718  1.00  0.00    -0.354 N 
ATOM     59  N   UNL A   1      40.307  31.025  32.253  1.00  0.00    -0.248 NA
ATOM     60  C   UNL A   1      40.335  32.287  30.289  1.00  0.00     0.031 C 
ATOM     61  C   UNL A   1      45.035  29.634  32.193  1.00  0.00     0.029 A 
ATOM     62  C   UNL A   1      43.950  30.463  31.903  1.00  0.00     0.049 A 
ATOM     63  H   UNL A   1      43.803  31.837  30.339  1.00  0.00     0.167 HD
ATOM     64  C   UNL A   1      41.621  31.360  31.979  1.00  0.00     0.074 A 
ATOM     65  C   UNL A   1      41.550  32.275  30.844  1.00  0.00     0.031 C 
ATOM     66  C   UNL A   1      42.639  30.609  32.493  1.00  0.00     0.037 A 
BRANCH  53  67
ATOM     67  C   UNL A   1      45.465  31.838  27.978  1.00  0.00     0.064 A 
ATOM     68  C   UNL A   1      44.294  32.477  27.509  1.00  0.00     0.173 A 
ATOM     69  C   UNL A   1      46.672  32.354  27.455  1.00  0.00     0.173 A 
ATOM     70  F   UNL A   1      43.084  32.086  27.936  1.00  0.00    -0.203 F 
ATOM     71  C   UNL A   1      44.328  33.463  26.518  1.00  0.00     0.198 A 
ATOM     72  C   UNL A   1      46.703  33.371  26.500  1.00  0.00     0.198 A 
ATOM     73  F   UNL A   1      47.869  31.842  27.753  1.00  0.00    -0.203 F 
ATOM     74  F   UNL A   1      43.183  33.937  26.010  1.00  0.00    -0.200 F 
ATOM     75  C   UNL A   1      45.533  33.899  26.004  1.00  0.00     0.200 A 
ATOM     76  F   UNL A   1      47.884  33.769  26.004  1.00  0.00    -0.200 F 
ATOM     77  F   UNL A   1      45.569  34.791  25.004  1.00  0.00    -0.200 F 
ENDBRANCH  53  67
BRANCH  54  78
ATOM     78  C   UNL A   1      37.201  31.171  30.366  1.00  0.00     0.064 A 
ATOM     79  C   UNL A   1      36.331  31.510  31.417  1.00  0.00     0.173 A 
ATOM     80  C   UNL A   1      36.896  31.711  29.102  1.00  0.00     0.173 A 
ATOM     81  F   UNL A   1      36.572  31.069  32.659  1.00  0.00    -0.203 F 
ATOM     82  C   UNL A   1      35.243  32.370  31.222  1.00  0.00     0.198 A 
ATOM     83  C   UNL A   1      35.810  32.568  28.909  1.00  0.00     0.198 A 
ATOM     84  F   UNL A   1      37.707  31.497  28.055  1.00  0.00    -0.203 F 
ATOM     85  F   UNL A   1      34.477  32.726  32.263  1.00  0.00    -0.200 F 
ATOM     86  C   UNL A   1      34.994  32.910  29.972  1.00  0.00     0.200 A 
ATOM     87  F   UNL A   1      35.602  33.116  27.704  1.00  0.00    -0.200 F 
ATOM     88  F   UNL A   1      33.998  33.792  29.800  1.00  0.00    -0.200 F 
ENDBRANCH  54  78
BRANCH  66  89
ATOM     89  C   UNL A   1      42.315  29.741  33.673  1.00  0.00     0.064 A 
ATOM     90  C   UNL A   1      41.880  28.408  33.592  1.00  0.00     0.173 A 
ATOM     91  C   UNL A   1      42.551  30.267  34.948  1.00  0.00     0.173 A 
ATOM     92  F   UNL A   1      41.713  27.808  32.408  1.00  0.00    -0.203 F 
ATOM     93  C   UNL A   1      41.653  27.653  34.742  1.00  0.00     0.198 A 
ATOM     94  C   UNL A   1      42.360  29.502  36.093  1.00  0.00     0.198 A 
ATOM     95  F   UNL A   1      43.011  31.522  35.081  1.00  0.00    -0.203 F 
ATOM     96  F   UNL A   1      41.221  26.387  34.641  1.00  0.00    -0.200 F 
ATOM     97  C   UNL A   1      41.900  28.199  35.990  1.00  0.00     0.200 A 
ATOM     98  F   UNL A   1      42.646  30.020  37.294  1.00  0.00    -0.200 F 
ATOM     99  F   UNL A   1      41.717  27.463  37.096  1.00  0.00    -0.200 F 
ENDBRANCH  66  89
ENDBRANCH  40  41
ENDBRANCH  32  35
ENDBRANCH  30  31
ENDBRANCH  29  30
ENDBRANCH   1  29
TORSDOF 14
ENDMDL
