MODEL 1
REMARK VINA RESULT:     -13.6      0.000      0.000
REMARK SMILES O=C(NCCCNC(=O)c1ccc(-c2c3nc(c(-c4c(F)c(F)c(F)c(F)c4F)c4ccc([nH]4)c(-c4c(F)c(F)c(F)c(F)c4F)c4nc(c(-c5c(F)c(F)c(F)c(F)c5F)c5ccc2[nH]5)C=C4)C=C3)cc1)c1ccc(/[NH+]=C2/N=C[NH+]=C3N=NC=C32)cc1
REMARK SMILES IDX 5 1 4 2 3 3 1 4 2 5 73 7 74 8 88 9 75 10 87 11 76 12 77 13
REMARK SMILES IDX 78 14 79 16 86 17 80 18 82 19 85 20 81 21 83 22 84 23 6 25
REMARK SMILES IDX 7 26 8 27 9 29 10 30 11 31 72 32 12 33 71 34 13 35 14 36
REMARK SMILES IDX 15 37 65 38 16 39 70 40 64 41 66 42 17 43 69 44 63 45 62 46
REMARK SMILES IDX 18 48 50 49 30 50 49 51 31 52 34 53 48 54 67 55 32 56 33 57
REMARK SMILES IDX 47 59 68 60 35 61 19 62 20 63 28 64 21 65 22 66 26 67 29 68
REMARK SMILES IDX 23 69 24 70 27 71 25 72 51 73 52 74 60 75 53 76 54 77 58 78
REMARK SMILES IDX 61 79 55 80 56 81 59 82 57 83 36 84 37 85 45 86 38 87 39 88
REMARK SMILES IDX 43 89 46 90 40 91 41 92 44 93 42 94
REMARK H PARENT 3 6 77 15 81 24 7 28 66 47 34 58
REMARK Flexibility Score: inf
ROOT
ATOM      1  C   UNL A   1      33.105  28.741  23.858  1.00  0.00     0.042 C 
ENDROOT
BRANCH   1   2
ATOM      2  C   UNL A   1      32.472  27.381  23.582  1.00  0.00     0.118 C 
BRANCH   2   3
ATOM      3  N   UNL A   1      32.589  27.008  22.182  1.00  0.00    -0.352 N 
ATOM      4  O   UNL A   1      33.063  25.614  20.461  1.00  0.00    -0.269 OA
ATOM      5  C   UNL A   1      32.828  25.768  21.648  1.00  0.00     0.251 C 
ATOM      6  H   UNL A   1      32.482  27.741  21.533  1.00  0.00     0.163 HD
BRANCH   5   7
ATOM      7  C   UNL A   1      32.797  24.603  22.546  1.00  0.00     0.040 A 
ATOM      8  C   UNL A   1      31.576  24.168  23.066  1.00  0.00     0.018 A 
ATOM      9  C   UNL A   1      33.989  23.959  22.875  1.00  0.00     0.018 A 
ATOM     10  C   UNL A   1      31.554  23.072  23.928  1.00  0.00     0.052 A 
ATOM     11  C   UNL A   1      33.958  22.882  23.762  1.00  0.00     0.052 A 
ATOM     12  C   UNL A   1      32.738  22.406  24.265  1.00  0.00     0.124 A 
BRANCH  12  13
ATOM     13  N   UNL A   1      32.670  21.350  25.174  1.00  0.00    -0.244 N 
ATOM     14  C   UNL A   1      32.524  20.123  24.808  1.00  0.00     0.305 C 
ATOM     15  H   UNL A   1      32.736  21.550  26.135  1.00  0.00     0.311 HD
ATOM     16  N   UNL A   1      32.529  19.202  25.825  1.00  0.00    -0.069 NA
ATOM     17  C   UNL A   1      32.385  19.529  23.489  1.00  0.00     0.159 C 
ATOM     18  C   UNL A   1      32.561  17.925  25.612  1.00  0.00     0.372 C 
ATOM     19  C   UNL A   1      32.466  18.095  23.390  1.00  0.00     0.302 C 
ATOM     20  C   UNL A   1      32.189  19.834  22.214  1.00  0.00     0.177 C 
ATOM     21  N   UNL A   1      32.573  17.301  24.392  1.00  0.00    -0.245 N 
ATOM     22  N   UNL A   1      32.397  17.708  22.075  1.00  0.00     0.010 NA
ATOM     23  N   UNL A   1      32.210  18.748  21.384  1.00  0.00    -0.081 NA
ATOM     24  H   UNL A   1      32.655  16.324  24.294  1.00  0.00     0.266 HD
ENDBRANCH  12  13
ENDBRANCH   5   7
ENDBRANCH   2   3
ENDBRANCH   1   2
BRANCH   1  25
ATOM     25  C   UNL A   1      33.464  28.967  25.323  1.00  0.00     0.118 C 
BRANCH  25  26
ATOM     26  N   UNL A   1      32.860  30.176  25.872  1.00  0.00    -0.352 N 
ATOM     27  C   UNL A   1      33.260  30.964  26.923  1.00  0.00     0.251 C 
ATOM     28  H   UNL A   1      32.038  30.474  25.417  1.00  0.00     0.163 HD
ATOM     29  O   UNL A   1      32.523  31.849  27.344  1.00  0.00    -0.269 OA
BRANCH  27  30
ATOM     30  C   UNL A   1      34.571  30.733  27.562  1.00  0.00     0.039 A 
ATOM     31  C   UNL A   1      35.465  31.801  27.683  1.00  0.00     0.014 A 
ATOM     32  C   UNL A   1      34.918  29.467  28.036  1.00  0.00     0.014 A 
ATOM     33  C   UNL A   1      36.676  31.618  28.355  1.00  0.00     0.010 A 
ATOM     34  C   UNL A   1      36.090  29.303  28.765  1.00  0.00     0.010 A 
ATOM     35  C   UNL A   1      36.977  30.377  28.937  1.00  0.00    -0.014 A 
BRANCH  35  36
ATOM     36  C   UNL A   1      38.211  30.156  29.729  1.00  0.00     0.031 A 
ATOM     37  C   UNL A   1      39.282  29.248  29.198  1.00  0.00     0.074 A 
ATOM     38  C   UNL A   1      38.317  30.678  30.966  1.00  0.00     0.049 A 
ATOM     39  N   UNL A   1      40.333  28.758  29.804  1.00  0.00    -0.248 NA
ATOM     40  C   UNL A   1      39.129  28.806  27.803  1.00  0.00     0.031 C 
ATOM     41  C   UNL A   1      37.337  31.558  31.603  1.00  0.00     0.029 A 
ATOM     42  N   UNL A   1      39.292  30.520  31.920  1.00  0.00    -0.354 N 
ATOM     43  C   UNL A   1      40.944  27.923  28.879  1.00  0.00     0.074 A 
ATOM     44  C   UNL A   1      40.130  27.946  27.683  1.00  0.00     0.031 C 
ATOM     45  C   UNL A   1      37.766  31.873  32.835  1.00  0.00     0.029 A 
ATOM     46  C   UNL A   1      39.023  31.178  33.094  1.00  0.00     0.049 A 
ATOM     47  H   UNL A   1      40.106  29.985  31.775  1.00  0.00     0.167 HD
ATOM     48  C   UNL A   1      42.090  27.212  29.012  1.00  0.00     0.037 A 
ATOM     49  C   UNL A   1      39.705  31.202  34.255  1.00  0.00     0.037 A 
ATOM     50  C   UNL A   1      42.915  27.221  30.191  1.00  0.00     0.049 A 
ATOM     51  C   UNL A   1      40.971  30.399  34.380  1.00  0.00     0.074 A 
ATOM     52  C   UNL A   1      44.116  26.571  30.411  1.00  0.00     0.029 A 
ATOM     53  N   UNL A   1      42.623  27.927  31.349  1.00  0.00    -0.354 N 
ATOM     54  N   UNL A   1      41.552  29.628  33.494  1.00  0.00    -0.248 NA
ATOM     55  C   UNL A   1      41.672  30.468  35.670  1.00  0.00     0.031 C 
ATOM     56  C   UNL A   1      44.538  26.861  31.713  1.00  0.00     0.029 A 
ATOM     57  C   UNL A   1      43.618  27.722  32.290  1.00  0.00     0.049 A 
ATOM     58  H   UNL A   1      41.827  28.490  31.482  1.00  0.00     0.167 HD
ATOM     59  C   UNL A   1      42.702  29.147  34.104  1.00  0.00     0.074 A 
ATOM     60  C   UNL A   1      42.736  29.713  35.437  1.00  0.00     0.031 C 
ATOM     61  C   UNL A   1      43.645  28.312  33.604  1.00  0.00     0.037 A 
BRANCH  48  62
ATOM     62  C   UNL A   1      42.508  26.361  27.850  1.00  0.00     0.064 A 
ATOM     63  C   UNL A   1      43.435  26.818  26.900  1.00  0.00     0.173 A 
ATOM     64  C   UNL A   1      41.982  25.071  27.686  1.00  0.00     0.173 A 
ATOM     65  F   UNL A   1      43.955  28.050  27.004  1.00  0.00    -0.203 F 
ATOM     66  C   UNL A   1      43.792  26.029  25.811  1.00  0.00     0.198 A 
ATOM     67  C   UNL A   1      42.364  24.274  26.611  1.00  0.00     0.198 A 
ATOM     68  F   UNL A   1      41.096  24.585  28.568  1.00  0.00    -0.203 F 
ATOM     69  F   UNL A   1      44.635  26.509  24.886  1.00  0.00    -0.200 F 
ATOM     70  C   UNL A   1      43.260  24.756  25.669  1.00  0.00     0.200 A 
ATOM     71  F   UNL A   1      41.857  23.039  26.480  1.00  0.00    -0.200 F 
ATOM     72  F   UNL A   1      43.603  23.998  24.618  1.00  0.00    -0.200 F 
ENDBRANCH  48  62
BRANCH  49  73
ATOM     73  C   UNL A   1      39.216  32.036  35.382  1.00  0.00     0.064 A 
ATOM     74  C   UNL A   1      38.426  31.471  36.392  1.00  0.00     0.173 A 
ATOM     75  C   UNL A   1      39.535  33.397  35.482  1.00  0.00     0.173 A 
ATOM     76  F   UNL A   1      38.079  30.177  36.324  1.00  0.00    -0.203 F 
ATOM     77  C   UNL A   1      37.962  32.241  37.456  1.00  0.00     0.198 A 
ATOM     78  C   UNL A   1      39.089  34.160  36.559  1.00  0.00     0.198 A 
ATOM     79  F   UNL A   1      40.293  33.981  34.543  1.00  0.00    -0.203 F 
ATOM     80  F   UNL A   1      37.180  31.684  38.391  1.00  0.00    -0.200 F 
ATOM     81  C   UNL A   1      38.299  33.582  37.543  1.00  0.00     0.200 A 
ATOM     82  F   UNL A   1      39.426  35.454  36.645  1.00  0.00    -0.200 F 
ATOM     83  F   UNL A   1      37.858  34.321  38.570  1.00  0.00    -0.200 F 
ENDBRANCH  49  73
BRANCH  61  84
ATOM     84  C   UNL A   1      44.823  28.002  34.479  1.00  0.00     0.064 A 
ATOM     85  C   UNL A   1      44.841  26.878  35.317  1.00  0.00     0.173 A 
ATOM     86  C   UNL A   1      45.965  28.815  34.437  1.00  0.00     0.173 A 
ATOM     87  F   UNL A   1      43.765  26.082  35.401  1.00  0.00    -0.203 F 
ATOM     88  C   UNL A   1      45.959  26.588  36.093  1.00  0.00     0.198 A 
ATOM     89  C   UNL A   1      47.088  28.508  35.197  1.00  0.00     0.198 A 
ATOM     90  F   UNL A   1      45.994  29.900  33.647  1.00  0.00    -0.203 F 
ATOM     91  F   UNL A   1      45.946  25.527  36.913  1.00  0.00    -0.200 F 
ATOM     92  C   UNL A   1      47.084  27.398  36.027  1.00  0.00     0.200 A 
ATOM     93  F   UNL A   1      48.178  29.287  35.126  1.00  0.00    -0.200 F 
ATOM     94  F   UNL A   1      48.162  27.110  36.770  1.00  0.00    -0.200 F 
ENDBRANCH  61  84
ENDBRANCH  35  36
ENDBRANCH  27  30
ENDBRANCH  25  26
ENDBRANCH   1  25
TORSDOF 11
ENDMDL
MODEL 2
REMARK VINA RESULT:     -13.5      2.141      2.624
REMARK SMILES O=C(NCCCNC(=O)c1ccc(-c2c3nc(c(-c4c(F)c(F)c(F)c(F)c4F)c4ccc([nH]4)c(-c4c(F)c(F)c(F)c(F)c4F)c4nc(c(-c5c(F)c(F)c(F)c(F)c5F)c5ccc2[nH]5)C=C4)C=C3)cc1)c1ccc(/[NH+]=C2/N=C[NH+]=C3N=NC=C32)cc1
REMARK SMILES IDX 5 1 4 2 3 3 1 4 2 5 73 7 74 8 88 9 75 10 87 11 76 12 77 13
REMARK SMILES IDX 78 14 79 16 86 17 80 18 82 19 85 20 81 21 83 22 84 23 6 25
REMARK SMILES IDX 7 26 8 27 9 29 10 30 11 31 72 32 12 33 71 34 13 35 14 36
REMARK SMILES IDX 15 37 65 38 16 39 70 40 64 41 66 42 17 43 69 44 63 45 62 46
REMARK SMILES IDX 18 48 50 49 30 50 49 51 31 52 34 53 48 54 67 55 32 56 33 57
REMARK SMILES IDX 47 59 68 60 35 61 19 62 20 63 28 64 21 65 22 66 26 67 29 68
REMARK SMILES IDX 23 69 24 70 27 71 25 72 51 73 52 74 60 75 53 76 54 77 58 78
REMARK SMILES IDX 61 79 55 80 56 81 59 82 57 83 36 84 37 85 45 86 38 87 39 88
REMARK SMILES IDX 43 89 46 90 40 91 41 92 44 93 42 94
REMARK H PARENT 3 6 77 15 81 24 7 28 66 47 34 58
REMARK Flexibility Score: inf
ROOT
ATOM      1  C   UNL A   1      33.829  29.331  23.370  1.00  0.00     0.042 C 
ENDROOT
BRANCH   1   2
ATOM      2  C   UNL A   1      32.871  28.529  22.496  1.00  0.00     0.118 C 
BRANCH   2   3
ATOM      3  N   UNL A   1      31.537  29.107  22.490  1.00  0.00    -0.352 N 
ATOM      4  O   UNL A   1      29.306  29.123  22.875  1.00  0.00    -0.269 OA
ATOM      5  C   UNL A   1      30.400  28.627  23.087  1.00  0.00     0.251 C 
ATOM      6  H   UNL A   1      31.438  29.952  21.995  1.00  0.00     0.163 HD
BRANCH   5   7
ATOM      7  C   UNL A   1      30.521  27.484  24.006  1.00  0.00     0.040 A 
ATOM      8  C   UNL A   1      30.846  27.710  25.345  1.00  0.00     0.018 A 
ATOM      9  C   UNL A   1      30.322  26.192  23.521  1.00  0.00     0.018 A 
ATOM     10  C   UNL A   1      30.973  26.621  26.207  1.00  0.00     0.052 A 
ATOM     11  C   UNL A   1      30.482  25.109  24.387  1.00  0.00     0.052 A 
ATOM     12  C   UNL A   1      30.770  25.317  25.744  1.00  0.00     0.124 A 
BRANCH  12  13
ATOM     13  N   UNL A   1      30.963  24.259  26.633  1.00  0.00    -0.244 N 
ATOM     14  C   UNL A   1      32.101  23.675  26.785  1.00  0.00     0.305 C 
ATOM     15  H   UNL A   1      30.198  23.947  27.167  1.00  0.00     0.311 HD
ATOM     16  N   UNL A   1      32.133  22.688  27.737  1.00  0.00    -0.069 NA
ATOM     17  C   UNL A   1      33.384  23.898  26.140  1.00  0.00     0.159 C 
ATOM     18  C   UNL A   1      33.232  22.124  28.125  1.00  0.00     0.372 C 
ATOM     19  C   UNL A   1      34.534  23.228  26.690  1.00  0.00     0.302 C 
ATOM     20  C   UNL A   1      33.958  24.547  25.137  1.00  0.00     0.177 C 
ATOM     21  N   UNL A   1      34.493  22.387  27.658  1.00  0.00    -0.245 N 
ATOM     22  N   UNL A   1      35.669  23.610  26.019  1.00  0.00     0.010 NA
ATOM     23  N   UNL A   1      35.313  24.378  25.082  1.00  0.00    -0.081 NA
ATOM     24  H   UNL A   1      35.300  21.965  28.033  1.00  0.00     0.266 HD
ENDBRANCH  12  13
ENDBRANCH   5   7
ENDBRANCH   2   3
ENDBRANCH   1   2
BRANCH   1  25
ATOM     25  C   UNL A   1      33.647  29.089  24.865  1.00  0.00     0.118 C 
BRANCH  25  26
ATOM     26  N   UNL A   1      32.936  30.175  25.530  1.00  0.00    -0.352 N 
ATOM     27  C   UNL A   1      33.247  30.862  26.677  1.00  0.00     0.251 C 
ATOM     28  H   UNL A   1      32.102  30.458  25.088  1.00  0.00     0.163 HD
ATOM     29  O   UNL A   1      32.432  31.632  27.174  1.00  0.00    -0.269 OA
BRANCH  27  30
ATOM     30  C   UNL A   1      34.558  30.661  27.326  1.00  0.00     0.039 A 
ATOM     31  C   UNL A   1      35.353  31.776  27.612  1.00  0.00     0.014 A 
ATOM     32  C   UNL A   1      35.004  29.378  27.647  1.00  0.00     0.014 A 
ATOM     33  C   UNL A   1      36.559  31.609  28.296  1.00  0.00     0.010 A 
ATOM     34  C   UNL A   1      36.168  29.219  28.389  1.00  0.00     0.010 A 
ATOM     35  C   UNL A   1      36.954  30.332  28.725  1.00  0.00    -0.014 A 
BRANCH  35  36
ATOM     36  C   UNL A   1      38.184  30.115  29.525  1.00  0.00     0.031 A 
ATOM     37  C   UNL A   1      39.254  29.196  29.007  1.00  0.00     0.074 A 
ATOM     38  C   UNL A   1      38.288  30.648  30.756  1.00  0.00     0.049 A 
ATOM     39  N   UNL A   1      40.300  28.709  29.622  1.00  0.00    -0.248 NA
ATOM     40  C   UNL A   1      39.104  28.741  27.616  1.00  0.00     0.031 C 
ATOM     41  C   UNL A   1      37.309  31.540  31.381  1.00  0.00     0.029 A 
ATOM     42  N   UNL A   1      39.258  30.497  31.716  1.00  0.00    -0.354 N 
ATOM     43  C   UNL A   1      40.911  27.862  28.708  1.00  0.00     0.074 A 
ATOM     44  C   UNL A   1      40.101  27.876  27.509  1.00  0.00     0.031 C 
ATOM     45  C   UNL A   1      37.734  31.866  32.611  1.00  0.00     0.029 A 
ATOM     46  C   UNL A   1      38.987  31.168  32.882  1.00  0.00     0.049 A 
ATOM     47  H   UNL A   1      40.070  29.957  31.579  1.00  0.00     0.167 HD
ATOM     48  C   UNL A   1      42.053  27.148  28.853  1.00  0.00     0.037 A 
ATOM     49  C   UNL A   1      39.665  31.201  34.045  1.00  0.00     0.037 A 
ATOM     50  C   UNL A   1      42.874  27.165  30.035  1.00  0.00     0.049 A 
ATOM     51  C   UNL A   1      40.927  30.394  34.184  1.00  0.00     0.074 A 
ATOM     52  C   UNL A   1      44.071  26.513  30.266  1.00  0.00     0.029 A 
ATOM     53  N   UNL A   1      42.581  27.884  31.184  1.00  0.00    -0.354 N 
ATOM     54  N   UNL A   1      41.509  29.612  33.308  1.00  0.00    -0.248 NA
ATOM     55  C   UNL A   1      41.624  30.473  35.475  1.00  0.00     0.031 C 
ATOM     56  C   UNL A   1      44.489  26.814  31.567  1.00  0.00     0.029 A 
ATOM     57  C   UNL A   1      43.571  27.685  32.131  1.00  0.00     0.049 A 
ATOM     58  H   UNL A   1      41.786  28.452  31.309  1.00  0.00     0.167 HD
ATOM     59  C   UNL A   1      42.654  29.132  33.927  1.00  0.00     0.074 A 
ATOM     60  C   UNL A   1      42.685  29.711  35.255  1.00  0.00     0.031 C 
ATOM     61  C   UNL A   1      43.596  28.289  33.440  1.00  0.00     0.037 A 
BRANCH  48  62
ATOM     62  C   UNL A   1      42.473  26.283  27.701  1.00  0.00     0.064 A 
ATOM     63  C   UNL A   1      41.929  25.004  27.507  1.00  0.00     0.173 A 
ATOM     64  C   UNL A   1      43.423  26.741  26.776  1.00  0.00     0.173 A 
ATOM     65  F   UNL A   1      41.028  24.515  28.372  1.00  0.00    -0.203 F 
ATOM     66  C   UNL A   1      42.349  24.201  26.450  1.00  0.00     0.198 A 
ATOM     67  C   UNL A   1      43.818  25.945  25.704  1.00  0.00     0.198 A 
ATOM     68  F   UNL A   1      43.970  27.957  26.914  1.00  0.00    -0.203 F 
ATOM     69  F   UNL A   1      41.858  22.961  26.318  1.00  0.00    -0.200 F 
ATOM     70  C   UNL A   1      43.289  24.674  25.547  1.00  0.00     0.200 A 
ATOM     71  F   UNL A   1      44.720  26.407  24.826  1.00  0.00    -0.200 F 
ATOM     72  F   UNL A   1      43.693  23.898  24.531  1.00  0.00    -0.200 F 
ENDBRANCH  48  62
BRANCH  49  73
ATOM     73  C   UNL A   1      39.175  32.048  35.161  1.00  0.00     0.064 A 
ATOM     74  C   UNL A   1      38.433  31.484  36.208  1.00  0.00     0.173 A 
ATOM     75  C   UNL A   1      39.446  33.422  35.216  1.00  0.00     0.173 A 
ATOM     76  F   UNL A   1      38.132  30.178  36.185  1.00  0.00    -0.203 F 
ATOM     77  C   UNL A   1      37.969  32.267  37.262  1.00  0.00     0.198 A 
ATOM     78  C   UNL A   1      39.001  34.200  36.283  1.00  0.00     0.198 A 
ATOM     79  F   UNL A   1      40.157  34.007  34.241  1.00  0.00    -0.203 F 
ATOM     80  F   UNL A   1      37.232  31.709  38.233  1.00  0.00    -0.200 F 
ATOM     81  C   UNL A   1      38.258  33.622  37.303  1.00  0.00     0.200 A 
ATOM     82  F   UNL A   1      39.292  35.506  36.325  1.00  0.00    -0.200 F 
ATOM     83  F   UNL A   1      37.817  34.373  38.321  1.00  0.00    -0.200 F 
ENDBRANCH  49  73
BRANCH  61  84
ATOM     84  C   UNL A   1      44.768  27.983  34.322  1.00  0.00     0.064 A 
ATOM     85  C   UNL A   1      44.774  26.875  35.181  1.00  0.00     0.173 A 
ATOM     86  C   UNL A   1      45.919  28.782  34.266  1.00  0.00     0.173 A 
ATOM     87  F   UNL A   1      43.689  26.093  35.280  1.00  0.00    -0.203 F 
ATOM     88  C   UNL A   1      45.887  26.588  35.965  1.00  0.00     0.198 A 
ATOM     89  C   UNL A   1      47.038  28.478  35.034  1.00  0.00     0.198 A 
ATOM     90  F   UNL A   1      45.962  29.851  33.455  1.00  0.00    -0.203 F 
ATOM     91  F   UNL A   1      45.861  25.544  36.806  1.00  0.00    -0.200 F 
ATOM     92  C   UNL A   1      47.021  27.384  35.885  1.00  0.00     0.200 A 
ATOM     93  F   UNL A   1      48.137  29.243  34.949  1.00  0.00    -0.200 F 
ATOM     94  F   UNL A   1      48.094  27.099  36.635  1.00  0.00    -0.200 F 
ENDBRANCH  61  84
ENDBRANCH  35  36
ENDBRANCH  27  30
ENDBRANCH  25  26
ENDBRANCH   1  25
TORSDOF 11
ENDMDL
MODEL 3
REMARK VINA RESULT:     -13.5      2.182      3.132
REMARK SMILES O=C(NCCCNC(=O)c1ccc(-c2c3nc(c(-c4c(F)c(F)c(F)c(F)c4F)c4ccc([nH]4)c(-c4c(F)c(F)c(F)c(F)c4F)c4nc(c(-c5c(F)c(F)c(F)c(F)c5F)c5ccc2[nH]5)C=C4)C=C3)cc1)c1ccc(/[NH+]=C2/N=C[NH+]=C3N=NC=C32)cc1
REMARK SMILES IDX 5 1 4 2 3 3 1 4 2 5 73 7 74 8 88 9 75 10 87 11 76 12 77 13
REMARK SMILES IDX 78 14 79 16 86 17 80 18 82 19 85 20 81 21 83 22 84 23 6 25
REMARK SMILES IDX 7 26 8 27 9 29 10 30 11 31 72 32 12 33 71 34 13 35 14 36
REMARK SMILES IDX 15 37 65 38 16 39 70 40 64 41 66 42 17 43 69 44 63 45 62 46
REMARK SMILES IDX 18 48 50 49 30 50 49 51 31 52 34 53 48 54 67 55 32 56 33 57
REMARK SMILES IDX 47 59 68 60 35 61 19 62 20 63 28 64 21 65 22 66 26 67 29 68
REMARK SMILES IDX 23 69 24 70 27 71 25 72 51 73 52 74 60 75 53 76 54 77 58 78
REMARK SMILES IDX 61 79 55 80 56 81 59 82 57 83 36 84 37 85 45 86 38 87 39 88
REMARK SMILES IDX 43 89 46 90 40 91 41 92 44 93 42 94
REMARK H PARENT 3 6 77 15 81 24 7 28 66 47 34 58
REMARK Flexibility Score: inf
ROOT
ATOM      1  C   UNL A   1      31.507  31.902  26.645  1.00  0.00     0.042 C 
ENDROOT
BRANCH   1   2
ATOM      2  C   UNL A   1      31.845  30.523  26.088  1.00  0.00     0.118 C 
BRANCH   2   3
ATOM      3  N   UNL A   1      31.112  30.243  24.864  1.00  0.00    -0.352 N 
ATOM      4  O   UNL A   1      30.583  29.047  23.015  1.00  0.00    -0.269 OA
ATOM      5  C   UNL A   1      31.121  29.099  24.109  1.00  0.00     0.251 C 
ATOM      6  H   UNL A   1      30.532  30.969  24.536  1.00  0.00     0.163 HD
BRANCH   5   7
ATOM      7  C   UNL A   1      31.802  27.911  24.648  1.00  0.00     0.040 A 
ATOM      8  C   UNL A   1      31.153  27.117  25.596  1.00  0.00     0.018 A 
ATOM      9  C   UNL A   1      33.091  27.605  24.212  1.00  0.00     0.018 A 
ATOM     10  C   UNL A   1      31.810  26.001  26.113  1.00  0.00     0.052 A 
ATOM     11  C   UNL A   1      33.749  26.502  24.760  1.00  0.00     0.052 A 
ATOM     12  C   UNL A   1      33.100  25.670  25.685  1.00  0.00     0.124 A 
BRANCH  12  13
ATOM     13  N   UNL A   1      33.735  24.576  26.273  1.00  0.00    -0.244 N 
ATOM     14  C   UNL A   1      33.646  23.381  25.800  1.00  0.00     0.305 C 
ATOM     15  H   UNL A   1      34.273  24.723  27.084  1.00  0.00     0.311 HD
ATOM     16  N   UNL A   1      34.374  22.429  26.468  1.00  0.00    -0.069 NA
ATOM     17  C   UNL A   1      32.928  22.860  24.649  1.00  0.00     0.159 C 
ATOM     18  C   UNL A   1      34.524  21.223  26.022  1.00  0.00     0.372 C 
ATOM     19  C   UNL A   1      33.210  21.507  24.243  1.00  0.00     0.302 C 
ATOM     20  C   UNL A   1      32.019  23.185  23.741  1.00  0.00     0.177 C 
ATOM     21  N   UNL A   1      33.989  20.705  24.871  1.00  0.00    -0.245 N 
ATOM     22  N   UNL A   1      32.512  21.203  23.100  1.00  0.00     0.010 NA
ATOM     23  N   UNL A   1      31.790  22.200  22.821  1.00  0.00    -0.081 NA
ATOM     24  H   UNL A   1      34.185  19.793  24.555  1.00  0.00     0.266 HD
ENDBRANCH  12  13
ENDBRANCH   5   7
ENDBRANCH   2   3
ENDBRANCH   1   2
BRANCH   1  25
ATOM     25  C   UNL A   1      32.696  32.620  27.275  1.00  0.00     0.118 C 
BRANCH  25  26
ATOM     26  N   UNL A   1      32.408  34.013  27.597  1.00  0.00    -0.352 N 
ATOM     27  C   UNL A   1      32.969  34.835  28.543  1.00  0.00     0.251 C 
ATOM     28  H   UNL A   1      31.701  34.428  27.051  1.00  0.00     0.163 HD
ATOM     29  O   UNL A   1      32.473  35.931  28.778  1.00  0.00    -0.269 OA
BRANCH  27  30
ATOM     30  C   UNL A   1      34.161  34.392  29.293  1.00  0.00     0.039 A 
ATOM     31  C   UNL A   1      33.990  33.733  30.514  1.00  0.00     0.014 A 
ATOM     32  C   UNL A   1      35.444  34.629  28.795  1.00  0.00     0.014 A 
ATOM     33  C   UNL A   1      35.104  33.238  31.197  1.00  0.00     0.010 A 
ATOM     34  C   UNL A   1      36.545  34.076  29.438  1.00  0.00     0.010 A 
ATOM     35  C   UNL A   1      36.385  33.371  30.641  1.00  0.00    -0.014 A 
BRANCH  35  36
ATOM     36  C   UNL A   1      37.588  32.792  31.286  1.00  0.00     0.031 A 
ATOM     37  C   UNL A   1      38.321  31.664  30.617  1.00  0.00     0.074 A 
ATOM     38  C   UNL A   1      37.952  33.199  32.516  1.00  0.00     0.049 A 
ATOM     39  N   UNL A   1      39.257  30.884  31.091  1.00  0.00    -0.248 NA
ATOM     40  C   UNL A   1      37.917  31.354  29.237  1.00  0.00     0.031 C 
ATOM     41  C   UNL A   1      37.311  34.271  33.280  1.00  0.00     0.029 A 
ATOM     42  N   UNL A   1      38.940  32.740  33.353  1.00  0.00    -0.354 N 
ATOM     43  C   UNL A   1      39.529  29.969  30.083  1.00  0.00     0.074 A 
ATOM     44  C   UNL A   1      38.635  30.269  28.985  1.00  0.00     0.031 C 
ATOM     45  C   UNL A   1      37.928  34.395  34.465  1.00  0.00     0.029 A 
ATOM     46  C   UNL A   1      38.974  33.382  34.566  1.00  0.00     0.049 A 
ATOM     47  H   UNL A   1      39.563  32.019  33.105  1.00  0.00     0.167 HD
ATOM     48  C   UNL A   1      40.451  28.977  30.071  1.00  0.00     0.037 A 
ATOM     49  C   UNL A   1      39.750  33.163  35.645  1.00  0.00     0.037 A 
ATOM     50  C   UNL A   1      41.361  28.705  31.151  1.00  0.00     0.049 A 
ATOM     51  C   UNL A   1      40.762  32.051  35.609  1.00  0.00     0.074 A 
ATOM     52  C   UNL A   1      42.361  27.752  31.221  1.00  0.00     0.029 A 
ATOM     53  N   UNL A   1      41.385  29.399  32.352  1.00  0.00    -0.354 N 
ATOM     54  N   UNL A   1      41.025  31.203  34.646  1.00  0.00    -0.248 NA
ATOM     55  C   UNL A   1      41.581  31.863  36.815  1.00  0.00     0.031 C 
ATOM     56  C   UNL A   1      42.973  27.850  32.476  1.00  0.00     0.029 A 
ATOM     57  C   UNL A   1      42.378  28.890  33.172  1.00  0.00     0.049 A 
ATOM     58  H   UNL A   1      40.785  30.143  32.587  1.00  0.00     0.167 HD
ATOM     59  C   UNL A   1      42.060  30.405  35.113  1.00  0.00     0.074 A 
ATOM     60  C   UNL A   1      42.376  30.869  36.448  1.00  0.00     0.031 C 
ATOM     61  C   UNL A   1      42.692  29.381  34.490  1.00  0.00     0.037 A 
BRANCH  48  62
ATOM     62  C   UNL A   1      40.509  28.110  28.848  1.00  0.00     0.064 A 
ATOM     63  C   UNL A   1      41.283  28.464  27.732  1.00  0.00     0.173 A 
ATOM     64  C   UNL A   1      39.789  26.907  28.793  1.00  0.00     0.173 A 
ATOM     65  F   UNL A   1      41.978  29.612  27.730  1.00  0.00    -0.203 F 
ATOM     66  C   UNL A   1      41.305  27.664  26.593  1.00  0.00     0.198 A 
ATOM     67  C   UNL A   1      39.837  26.096  27.662  1.00  0.00     0.198 A 
ATOM     68  F   UNL A   1      39.037  26.521  29.834  1.00  0.00    -0.203 F 
ATOM     69  F   UNL A   1      42.006  28.052  25.518  1.00  0.00    -0.200 F 
ATOM     70  C   UNL A   1      40.586  26.479  26.560  1.00  0.00     0.200 A 
ATOM     71  F   UNL A   1      39.149  24.945  27.636  1.00  0.00    -0.200 F 
ATOM     72  F   UNL A   1      40.607  25.711  25.462  1.00  0.00    -0.200 F 
ENDBRANCH  48  62
BRANCH  49  73
ATOM     73  C   UNL A   1      39.615  34.033  36.840  1.00  0.00     0.064 A 
ATOM     74  C   UNL A   1      38.825  33.633  37.925  1.00  0.00     0.173 A 
ATOM     75  C   UNL A   1      40.277  35.266  36.930  1.00  0.00     0.173 A 
ATOM     76  F   UNL A   1      38.156  32.471  37.872  1.00  0.00    -0.203 F 
ATOM     77  C   UNL A   1      38.691  34.438  39.053  1.00  0.00     0.198 A 
ATOM     78  C   UNL A   1      40.161  36.061  38.069  1.00  0.00     0.198 A 
ATOM     79  F   UNL A   1      41.049  35.691  35.920  1.00  0.00    -0.203 F 
ATOM     80  F   UNL A   1      37.902  34.047  40.063  1.00  0.00    -0.200 F 
ATOM     81  C   UNL A   1      39.364  35.648  39.128  1.00  0.00     0.200 A 
ATOM     82  F   UNL A   1      40.821  37.223  38.142  1.00  0.00    -0.200 F 
ATOM     83  F   UNL A   1      39.240  36.420  40.216  1.00  0.00    -0.200 F 
ENDBRANCH  49  73
BRANCH  61  84
ATOM     84  C   UNL A   1      43.825  28.726  35.221  1.00  0.00     0.064 A 
ATOM     85  C   UNL A   1      43.613  27.651  36.095  1.00  0.00     0.173 A 
ATOM     86  C   UNL A   1      45.143  29.151  35.003  1.00  0.00     0.173 A 
ATOM     87  F   UNL A   1      42.367  27.221  36.347  1.00  0.00    -0.203 F 
ATOM     88  C   UNL A   1      44.683  27.032  36.736  1.00  0.00     0.198 A 
ATOM     89  C   UNL A   1      46.212  28.516  35.627  1.00  0.00     0.198 A 
ATOM     90  F   UNL A   1      45.396  30.174  34.172  1.00  0.00    -0.203 F 
ATOM     91  F   UNL A   1      44.458  26.027  37.594  1.00  0.00    -0.200 F 
ATOM     92  C   UNL A   1      45.981  27.460  36.496  1.00  0.00     0.200 A 
ATOM     93  F   UNL A   1      47.467  28.923  35.388  1.00  0.00    -0.200 F 
ATOM     94  F   UNL A   1      47.010  26.857  37.108  1.00  0.00    -0.200 F 
ENDBRANCH  61  84
ENDBRANCH  35  36
ENDBRANCH  27  30
ENDBRANCH  25  26
ENDBRANCH   1  25
TORSDOF 11
ENDMDL
