MODEL 1
REMARK VINA RESULT:     -10.3      0.000      0.000
REMARK SMILES CCC([NH3+])(CC)C(=O)N(CCC(=O)NCCCNC(=O)c1ccc(-c2c3nc(c(-c4c(F)c(F)c(F)c(F)c4F)c4ccc([nH]4)c(-c4c(F)c(F)c(F)c(F)c4F)c4nc(c(-c5c(F)c(F)c(F)c(F)c5F)c5ccc2[nH]5)C=C4)C=C3)cc1)C(C)C
REMARK SMILES IDX 12 1 13 2 14 3 11 5 10 6 9 7 7 8 8 9 3 10 2 11 1 12 4 13
REMARK SMILES IDX 5 17 6 18 84 19 85 20 86 21 15 22 16 23 17 24 18 25 19 26
REMARK SMILES IDX 20 28 21 29 22 30 83 31 23 32 82 33 24 34 25 35 26 36 76 37
REMARK SMILES IDX 27 38 81 39 75 40 77 41 28 42 80 43 74 44 73 45 29 47 61 48
REMARK SMILES IDX 41 49 60 50 42 51 45 52 59 53 78 54 43 55 44 56 58 58 79 59
REMARK SMILES IDX 46 60 30 61 31 62 39 63 32 64 33 65 37 66 40 67 34 68 35 69
REMARK SMILES IDX 38 70 36 71 62 72 63 73 71 74 64 75 65 76 69 77 72 78 66 79
REMARK SMILES IDX 67 80 70 81 68 82 47 83 48 84 56 85 49 86 50 87 54 88 57 89
REMARK SMILES IDX 51 90 52 91 55 92 53 93
REMARK H PARENT 14 4 4 14 4 15 4 16 18 27 77 46 45 57
REMARK Flexibility Score: inf
ROOT
ATOM      1  C   UNL A   1      33.337  26.133  23.277  1.00  0.00     0.221 C 
ATOM      2  O   UNL A   1      33.841  25.806  22.199  1.00  0.00    -0.275 OA
ATOM      3  N   UNL A   1      32.096  26.691  23.238  1.00  0.00    -0.356 N 
ATOM      4  H   UNL A   1      31.641  26.561  22.375  1.00  0.00     0.163 HD
ENDROOT
BRANCH   1   5
ATOM      5  C   UNL A   1      34.079  25.865  24.577  1.00  0.00     0.121 C 
BRANCH   5   6
ATOM      6  C   UNL A   1      33.718  24.504  25.209  1.00  0.00     0.130 C 
BRANCH   6   7
ATOM      7  N   UNL A   1      34.210  23.342  24.425  1.00  0.00    -0.334 N 
BRANCH   7   8
ATOM      8  C   UNL A   1      35.505  22.983  24.068  1.00  0.00     0.284 C 
ATOM      9  O   UNL A   1      35.800  22.972  22.865  1.00  0.00    -0.268 OA
BRANCH   8  10
ATOM     10  C   UNL A   1      36.621  22.608  25.089  1.00  0.00     0.173 C 
BRANCH  10  11
ATOM     11  C   UNL A   1      37.361  21.318  24.572  1.00  0.00     0.075 C 
ATOM     12  C   UNL A   1      36.749  19.954  24.924  1.00  0.00     0.011 C 
ENDBRANCH  10  11
BRANCH  10  13
ATOM     13  N   UNL A   1      36.027  22.280  26.406  1.00  0.00    -0.345 N 
ATOM     14  H   UNL A   1      35.111  22.721  26.485  1.00  0.00     0.345 HD
ATOM     15  H   UNL A   1      36.636  22.626  27.148  1.00  0.00     0.345 HD
ATOM     16  H   UNL A   1      35.926  21.269  26.491  1.00  0.00     0.345 HD
ENDBRANCH  10  13
BRANCH  10  17
ATOM     17  C   UNL A   1      37.672  23.738  25.253  1.00  0.00     0.075 C 
ATOM     18  C   UNL A   1      38.012  24.096  26.699  1.00  0.00     0.011 C 
ENDBRANCH  10  17
ENDBRANCH   8  10
ENDBRANCH   7   8
BRANCH   7  19
ATOM     19  C   UNL A   1      33.157  22.430  23.967  1.00  0.00     0.079 C 
ATOM     20  C   UNL A   1      32.928  22.509  22.449  1.00  0.00     0.031 C 
ATOM     21  C   UNL A   1      33.318  21.000  24.480  1.00  0.00     0.031 C 
ENDBRANCH   7  19
ENDBRANCH   6   7
ENDBRANCH   5   6
ENDBRANCH   1   5
BRANCH   3  22
ATOM     22  C   UNL A   1      31.293  27.442  24.206  1.00  0.00     0.117 C 
BRANCH  22  23
ATOM     23  C   UNL A   1      31.702  28.927  24.175  1.00  0.00     0.042 C 
BRANCH  23  24
ATOM     24  C   UNL A   1      32.811  29.349  25.129  1.00  0.00     0.118 C 
BRANCH  24  25
ATOM     25  N   UNL A   1      32.527  30.560  25.878  1.00  0.00    -0.352 N 
ATOM     26  C   UNL A   1      33.158  31.317  26.835  1.00  0.00     0.251 C 
ATOM     27  H   UNL A   1      31.651  30.940  25.635  1.00  0.00     0.163 HD
ATOM     28  O   UNL A   1      32.560  32.355  27.154  1.00  0.00    -0.269 OA
BRANCH  26  29
ATOM     29  C   UNL A   1      34.452  31.015  27.527  1.00  0.00     0.039 A 
ATOM     30  C   UNL A   1      34.628  29.700  28.002  1.00  0.00     0.014 A 
ATOM     31  C   UNL A   1      35.488  31.914  27.767  1.00  0.00     0.014 A 
ATOM     32  C   UNL A   1      35.783  29.315  28.702  1.00  0.00     0.010 A 
ATOM     33  C   UNL A   1      36.683  31.508  28.379  1.00  0.00     0.010 A 
ATOM     34  C   UNL A   1      36.835  30.217  28.890  1.00  0.00    -0.014 A 
BRANCH  34  35
ATOM     35  C   UNL A   1      38.070  29.840  29.639  1.00  0.00     0.031 A 
ATOM     36  C   UNL A   1      38.315  30.367  31.036  1.00  0.00     0.074 A 
ATOM     37  C   UNL A   1      38.997  29.054  29.055  1.00  0.00     0.049 A 
ATOM     38  N   UNL A   1      39.329  30.154  31.840  1.00  0.00    -0.248 NA
ATOM     39  C   UNL A   1      37.306  31.283  31.591  1.00  0.00     0.031 C 
ATOM     40  C   UNL A   1      38.926  28.539  27.687  1.00  0.00     0.029 A 
ATOM     41  N   UNL A   1      40.179  28.548  29.538  1.00  0.00    -0.354 N 
ATOM     42  C   UNL A   1      39.084  30.918  32.976  1.00  0.00     0.074 A 
ATOM     43  C   UNL A   1      37.868  31.658  32.730  1.00  0.00     0.031 C 
ATOM     44  C   UNL A   1      39.988  27.751  27.458  1.00  0.00     0.029 A 
ATOM     45  C   UNL A   1      40.834  27.734  28.646  1.00  0.00     0.049 A 
ATOM     46  H   UNL A   1      40.524  28.749  30.438  1.00  0.00     0.167 HD
ATOM     47  C   UNL A   1      39.787  30.973  34.135  1.00  0.00     0.037 A 
ATOM     48  C   UNL A   1      41.984  27.044  28.773  1.00  0.00     0.037 A 
ATOM     49  C   UNL A   1      40.981  30.211  34.393  1.00  0.00     0.049 A 
ATOM     50  C   UNL A   1      42.732  27.101  30.079  1.00  0.00     0.074 A 
ATOM     51  C   UNL A   1      41.731  30.145  35.554  1.00  0.00     0.029 A 
ATOM     52  N   UNL A   1      41.599  29.379  33.471  1.00  0.00    -0.354 N 
ATOM     53  N   UNL A   1      42.443  27.762  31.174  1.00  0.00    -0.248 NA
ATOM     54  C   UNL A   1      43.960  26.300  30.169  1.00  0.00     0.031 C 
ATOM     55  C   UNL A   1      42.833  29.315  35.317  1.00  0.00     0.029 A 
ATOM     56  C   UNL A   1      42.734  28.812  34.030  1.00  0.00     0.049 A 
ATOM     57  H   UNL A   1      41.280  29.215  32.554  1.00  0.00     0.167 HD
ATOM     58  C   UNL A   1      43.435  27.437  32.089  1.00  0.00     0.074 A 
ATOM     59  C   UNL A   1      44.316  26.496  31.430  1.00  0.00     0.031 C 
ATOM     60  C   UNL A   1      43.604  27.880  33.361  1.00  0.00     0.037 A 
BRANCH  47  61
ATOM     61  C   UNL A   1      39.274  31.880  35.222  1.00  0.00     0.064 A 
ATOM     62  C   UNL A   1      38.505  31.392  36.291  1.00  0.00     0.173 A 
ATOM     63  C   UNL A   1      39.588  33.248  35.219  1.00  0.00     0.173 A 
ATOM     64  F   UNL A   1      38.165  30.095  36.341  1.00  0.00    -0.203 F 
ATOM     65  C   UNL A   1      38.040  32.242  37.291  1.00  0.00     0.198 A 
ATOM     66  C   UNL A   1      39.152  34.089  36.241  1.00  0.00     0.198 A 
ATOM     67  F   UNL A   1      40.325  33.772  34.229  1.00  0.00    -0.203 F 
ATOM     68  F   UNL A   1      37.259  31.761  38.268  1.00  0.00    -0.200 F 
ATOM     69  C   UNL A   1      38.371  33.587  37.270  1.00  0.00     0.200 A 
ATOM     70  F   UNL A   1      39.487  35.387  36.228  1.00  0.00    -0.200 F 
ATOM     71  F   UNL A   1      37.932  34.403  38.240  1.00  0.00    -0.200 F 
ENDBRANCH  47  61
BRANCH  48  72
ATOM     72  C   UNL A   1      42.477  26.203  27.649  1.00  0.00     0.064 A 
ATOM     73  C   UNL A   1      43.489  26.662  26.793  1.00  0.00     0.173 A 
ATOM     74  C   UNL A   1      41.946  24.928  27.401  1.00  0.00     0.173 A 
ATOM     75  F   UNL A   1      44.016  27.882  26.975  1.00  0.00    -0.203 F 
ATOM     76  C   UNL A   1      43.929  25.893  25.717  1.00  0.00     0.198 A 
ATOM     77  C   UNL A   1      42.411  24.145  26.346  1.00  0.00     0.198 A 
ATOM     78  F   UNL A   1      40.980  24.438  28.192  1.00  0.00    -0.203 F 
ATOM     79  F   UNL A   1      44.856  26.382  24.882  1.00  0.00    -0.200 F 
ATOM     80  C   UNL A   1      43.395  24.633  25.498  1.00  0.00     0.200 A 
ATOM     81  F   UNL A   1      41.902  22.922  26.148  1.00  0.00    -0.200 F 
ATOM     82  F   UNL A   1      43.820  23.892  24.466  1.00  0.00    -0.200 F 
ENDBRANCH  48  72
BRANCH  60  83
ATOM     83  C   UNL A   1      44.769  27.321  34.128  1.00  0.00     0.064 A 
ATOM     84  C   UNL A   1      46.020  27.957  34.141  1.00  0.00     0.173 A 
ATOM     85  C   UNL A   1      44.632  26.133  34.862  1.00  0.00     0.173 A 
ATOM     86  F   UNL A   1      46.208  29.091  33.448  1.00  0.00    -0.203 F 
ATOM     87  C   UNL A   1      47.100  27.399  34.818  1.00  0.00     0.198 A 
ATOM     88  C   UNL A   1      45.704  25.598  35.569  1.00  0.00     0.198 A 
ATOM     89  F   UNL A   1      43.456  25.489  34.895  1.00  0.00    -0.203 F 
ATOM     90  F   UNL A   1      48.304  27.987  34.756  1.00  0.00    -0.200 F 
ATOM     91  C   UNL A   1      46.941  26.224  35.535  1.00  0.00     0.200 A 
ATOM     92  F   UNL A   1      45.544  24.472  36.277  1.00  0.00    -0.200 F 
ATOM     93  F   UNL A   1      47.983  25.686  36.184  1.00  0.00    -0.200 F 
ENDBRANCH  60  83
ENDBRANCH  34  35
ENDBRANCH  26  29
ENDBRANCH  24  25
ENDBRANCH  23  24
ENDBRANCH  22  23
ENDBRANCH   3  22
TORSDOF 18
ENDMDL
MODEL 2
REMARK VINA RESULT:     -10.1      1.080      2.124
REMARK SMILES CCC([NH3+])(CC)C(=O)N(CCC(=O)NCCCNC(=O)c1ccc(-c2c3nc(c(-c4c(F)c(F)c(F)c(F)c4F)c4ccc([nH]4)c(-c4c(F)c(F)c(F)c(F)c4F)c4nc(c(-c5c(F)c(F)c(F)c(F)c5F)c5ccc2[nH]5)C=C4)C=C3)cc1)C(C)C
REMARK SMILES IDX 12 1 13 2 14 3 11 5 10 6 9 7 7 8 8 9 3 10 2 11 1 12 4 13
REMARK SMILES IDX 5 17 6 18 84 19 85 20 86 21 15 22 16 23 17 24 18 25 19 26
REMARK SMILES IDX 20 28 21 29 22 30 83 31 23 32 82 33 24 34 25 35 26 36 76 37
REMARK SMILES IDX 27 38 81 39 75 40 77 41 28 42 80 43 74 44 73 45 29 47 61 48
REMARK SMILES IDX 41 49 60 50 42 51 45 52 59 53 78 54 43 55 44 56 58 58 79 59
REMARK SMILES IDX 46 60 30 61 31 62 39 63 32 64 33 65 37 66 40 67 34 68 35 69
REMARK SMILES IDX 38 70 36 71 62 72 63 73 71 74 64 75 65 76 69 77 72 78 66 79
REMARK SMILES IDX 67 80 70 81 68 82 47 83 48 84 56 85 49 86 50 87 54 88 57 89
REMARK SMILES IDX 51 90 52 91 55 92 53 93
REMARK H PARENT 14 4 4 14 4 15 4 16 18 27 77 46 45 57
REMARK Flexibility Score: inf
ROOT
ATOM      1  C   UNL A   1      31.777  26.138  25.953  1.00  0.00     0.221 C 
ATOM      2  O   UNL A   1      31.309  25.484  26.889  1.00  0.00    -0.275 OA
ATOM      3  N   UNL A   1      30.960  27.059  25.370  1.00  0.00    -0.356 N 
ATOM      4  H   UNL A   1      30.163  27.264  25.909  1.00  0.00     0.163 HD
ENDROOT
BRANCH   1   5
ATOM      5  C   UNL A   1      33.222  25.933  25.527  1.00  0.00     0.121 C 
BRANCH   5   6
ATOM      6  C   UNL A   1      33.359  25.074  24.251  1.00  0.00     0.130 C 
BRANCH   6   7
ATOM      7  N   UNL A   1      33.066  23.636  24.475  1.00  0.00    -0.334 N 
BRANCH   7   8
ATOM      8  C   UNL A   1      33.476  22.784  25.495  1.00  0.00     0.284 C 
ATOM      9  O   UNL A   1      32.627  22.392  26.309  1.00  0.00    -0.268 OA
BRANCH   8  10
ATOM     10  C   UNL A   1      34.938  22.275  25.675  1.00  0.00     0.173 C 
BRANCH  10  11
ATOM     11  C   UNL A   1      35.066  20.864  24.989  1.00  0.00     0.075 C 
ATOM     12  C   UNL A   1      33.771  20.091  24.698  1.00  0.00     0.011 C 
ENDBRANCH  10  11
BRANCH  10  13
ATOM     13  N   UNL A   1      35.251  22.099  27.112  1.00  0.00    -0.345 N 
ATOM     14  H   UNL A   1      35.724  21.206  27.250  1.00  0.00     0.345 HD
ATOM     15  H   UNL A   1      34.387  22.114  27.653  1.00  0.00     0.345 HD
ATOM     16  H   UNL A   1      35.860  22.857  27.422  1.00  0.00     0.345 HD
ENDBRANCH  10  13
BRANCH  10  17
ATOM     17  C   UNL A   1      35.976  23.228  25.024  1.00  0.00     0.075 C 
ATOM     18  C   UNL A   1      36.664  22.677  23.778  1.00  0.00     0.011 C 
ENDBRANCH  10  17
ENDBRANCH   8  10
ENDBRANCH   7   8
BRANCH   7  19
ATOM     19  C   UNL A   1      32.200  23.028  23.461  1.00  0.00     0.079 C 
ATOM     20  C   UNL A   1      30.850  23.751  23.327  1.00  0.00     0.031 C 
ATOM     21  C   UNL A   1      32.895  22.793  22.120  1.00  0.00     0.031 C 
ENDBRANCH   7  19
ENDBRANCH   6   7
ENDBRANCH   5   6
ENDBRANCH   1   5
BRANCH   3  22
ATOM     22  C   UNL A   1      31.017  27.810  24.114  1.00  0.00     0.117 C 
BRANCH  22  23
ATOM     23  C   UNL A   1      31.265  29.301  24.413  1.00  0.00     0.042 C 
BRANCH  23  24
ATOM     24  C   UNL A   1      32.427  29.626  25.341  1.00  0.00     0.118 C 
BRANCH  24  25
ATOM     25  N   UNL A   1      32.306  30.900  26.027  1.00  0.00    -0.352 N 
ATOM     26  C   UNL A   1      33.014  31.599  26.974  1.00  0.00     0.251 C 
ATOM     27  H   UNL A   1      31.504  31.394  25.737  1.00  0.00     0.163 HD
ATOM     28  O   UNL A   1      32.570  32.728  27.227  1.00  0.00    -0.269 OA
BRANCH  26  29
ATOM     29  C   UNL A   1      34.227  31.141  27.725  1.00  0.00     0.039 A 
ATOM     30  C   UNL A   1      35.144  32.137  28.118  1.00  0.00     0.014 A 
ATOM     31  C   UNL A   1      34.548  29.827  28.052  1.00  0.00     0.014 A 
ATOM     32  C   UNL A   1      36.336  31.820  28.790  1.00  0.00     0.010 A 
ATOM     33  C   UNL A   1      35.688  29.517  28.808  1.00  0.00     0.010 A 
ATOM     34  C   UNL A   1      36.619  30.500  29.156  1.00  0.00    -0.014 A 
BRANCH  34  35
ATOM     35  C   UNL A   1      37.881  30.131  29.860  1.00  0.00     0.031 A 
ATOM     36  C   UNL A   1      38.149  30.619  31.267  1.00  0.00     0.074 A 
ATOM     37  C   UNL A   1      38.811  29.386  29.229  1.00  0.00     0.049 A 
ATOM     38  N   UNL A   1      39.189  30.406  32.038  1.00  0.00    -0.248 NA
ATOM     39  C   UNL A   1      37.133  31.493  31.876  1.00  0.00     0.031 C 
ATOM     40  C   UNL A   1      38.716  28.913  27.847  1.00  0.00     0.029 A 
ATOM     41  N   UNL A   1      40.017  28.894  29.665  1.00  0.00    -0.354 N 
ATOM     42  C   UNL A   1      38.955  31.128  33.203  1.00  0.00     0.074 A 
ATOM     43  C   UNL A   1      37.715  31.845  33.012  1.00  0.00     0.031 C 
ATOM     44  C   UNL A   1      39.790  28.158  27.566  1.00  0.00     0.029 A 
ATOM     45  C   UNL A   1      40.668  28.125  28.732  1.00  0.00     0.049 A 
ATOM     46  H   UNL A   1      40.380  29.075  30.563  1.00  0.00     0.167 HD
ATOM     47  C   UNL A   1      39.686  31.164  34.346  1.00  0.00     0.037 A 
ATOM     48  C   UNL A   1      41.837  27.460  28.808  1.00  0.00     0.037 A 
ATOM     49  C   UNL A   1      40.904  30.424  34.549  1.00  0.00     0.049 A 
ATOM     50  C   UNL A   1      42.617  27.495  30.096  1.00  0.00     0.074 A 
ATOM     51  C   UNL A   1      41.686  30.341  35.688  1.00  0.00     0.029 A 
ATOM     52  N   UNL A   1      41.518  29.637  33.586  1.00  0.00    -0.354 N 
ATOM     53  N   UNL A   1      42.341  28.114  31.218  1.00  0.00    -0.248 NA
ATOM     54  C   UNL A   1      43.866  26.722  30.130  1.00  0.00     0.031 C 
ATOM     55  C   UNL A   1      42.801  29.546  35.397  1.00  0.00     0.029 A 
ATOM     56  C   UNL A   1      42.680  29.081  34.098  1.00  0.00     0.049 A 
ATOM     57  H   UNL A   1      41.179  29.494  32.673  1.00  0.00     0.167 HD
ATOM     58  C   UNL A   1      43.363  27.785  32.097  1.00  0.00     0.074 A 
ATOM     59  C   UNL A   1      44.249  26.887  31.386  1.00  0.00     0.031 C 
ATOM     60  C   UNL A   1      43.554  28.192  33.378  1.00  0.00     0.037 A 
BRANCH  47  61
ATOM     61  C   UNL A   1      39.180  32.024  35.473  1.00  0.00     0.064 A 
ATOM     62  C   UNL A   1      38.358  31.506  36.487  1.00  0.00     0.173 A 
ATOM     63  C   UNL A   1      39.553  33.374  35.567  1.00  0.00     0.173 A 
ATOM     64  F   UNL A   1      37.959  30.225  36.445  1.00  0.00    -0.203 F 
ATOM     65  C   UNL A   1      37.900  32.312  37.526  1.00  0.00     0.198 A 
ATOM     66  C   UNL A   1      39.124  34.169  36.628  1.00  0.00     0.198 A 
ATOM     67  F   UNL A   1      40.343  33.924  34.633  1.00  0.00    -0.203 F 
ATOM     68  F   UNL A   1      37.068  31.807  38.448  1.00  0.00    -0.200 F 
ATOM     69  C   UNL A   1      38.290  33.640  37.601  1.00  0.00     0.200 A 
ATOM     70  F   UNL A   1      39.515  35.448  36.707  1.00  0.00    -0.200 F 
ATOM     71  F   UNL A   1      37.857  34.412  38.607  1.00  0.00    -0.200 F 
ENDBRANCH  47  61
BRANCH  48  72
ATOM     72  C   UNL A   1      42.321  26.666  27.646  1.00  0.00     0.064 A 
ATOM     73  C   UNL A   1      41.901  25.343  27.450  1.00  0.00     0.173 A 
ATOM     74  C   UNL A   1      43.216  27.209  26.712  1.00  0.00     0.173 A 
ATOM     75  F   UNL A   1      41.061  24.771  28.326  1.00  0.00    -0.203 F 
ATOM     76  C   UNL A   1      42.379  24.583  26.384  1.00  0.00     0.198 A 
ATOM     77  C   UNL A   1      43.667  26.460  25.626  1.00  0.00     0.198 A 
ATOM     78  F   UNL A   1      43.646  28.471  26.849  1.00  0.00    -0.203 F 
ATOM     79  F   UNL A   1      42.005  23.303  26.255  1.00  0.00    -0.200 F 
ATOM     80  C   UNL A   1      43.256  25.144  25.469  1.00  0.00     0.200 A 
ATOM     81  F   UNL A   1      44.504  27.011  24.737  1.00  0.00    -0.200 F 
ATOM     82  F   UNL A   1      43.714  24.416  24.442  1.00  0.00    -0.200 F 
ENDBRANCH  48  72
BRANCH  60  83
ATOM     83  C   UNL A   1      44.752  27.638  34.097  1.00  0.00     0.064 A 
ATOM     84  C   UNL A   1      44.695  26.430  34.809  1.00  0.00     0.173 A 
ATOM     85  C   UNL A   1      45.975  28.325  34.071  1.00  0.00     0.173 A 
ATOM     86  F   UNL A   1      43.547  25.738  34.874  1.00  0.00    -0.203 F 
ATOM     87  C   UNL A   1      45.801  25.958  35.509  1.00  0.00     0.198 A 
ATOM     88  C   UNL A   1      47.091  27.830  34.740  1.00  0.00     0.198 A 
ATOM     89  F   UNL A   1      46.091  29.478  33.396  1.00  0.00    -0.203 F 
ATOM     90  F   UNL A   1      45.701  24.840  36.242  1.00  0.00    -0.200 F 
ATOM     91  C   UNL A   1      46.999  26.655  35.471  1.00  0.00     0.200 A 
ATOM     92  F   UNL A   1      48.253  28.495  34.687  1.00  0.00    -0.200 F 
ATOM     93  F   UNL A   1      48.063  26.201  36.147  1.00  0.00    -0.200 F 
ENDBRANCH  60  83
ENDBRANCH  34  35
ENDBRANCH  26  29
ENDBRANCH  24  25
ENDBRANCH  23  24
ENDBRANCH  22  23
ENDBRANCH   3  22
TORSDOF 18
ENDMDL
MODEL 3
REMARK VINA RESULT:     -10.1      2.573      4.322
REMARK SMILES CCC([NH3+])(CC)C(=O)N(CCC(=O)NCCCNC(=O)c1ccc(-c2c3nc(c(-c4c(F)c(F)c(F)c(F)c4F)c4ccc([nH]4)c(-c4c(F)c(F)c(F)c(F)c4F)c4nc(c(-c5c(F)c(F)c(F)c(F)c5F)c5ccc2[nH]5)C=C4)C=C3)cc1)C(C)C
REMARK SMILES IDX 12 1 13 2 14 3 11 5 10 6 9 7 7 8 8 9 3 10 2 11 1 12 4 13
REMARK SMILES IDX 5 17 6 18 84 19 85 20 86 21 15 22 16 23 17 24 18 25 19 26
REMARK SMILES IDX 20 28 21 29 22 30 83 31 23 32 82 33 24 34 25 35 26 36 76 37
REMARK SMILES IDX 27 38 81 39 75 40 77 41 28 42 80 43 74 44 73 45 29 47 61 48
REMARK SMILES IDX 41 49 60 50 42 51 45 52 59 53 78 54 43 55 44 56 58 58 79 59
REMARK SMILES IDX 46 60 30 61 31 62 39 63 32 64 33 65 37 66 40 67 34 68 35 69
REMARK SMILES IDX 38 70 36 71 62 72 63 73 71 74 64 75 65 76 69 77 72 78 66 79
REMARK SMILES IDX 67 80 70 81 68 82 47 83 48 84 56 85 49 86 50 87 54 88 57 89
REMARK SMILES IDX 51 90 52 91 55 92 53 93
REMARK H PARENT 14 4 4 14 4 15 4 16 18 27 77 46 45 57
REMARK Flexibility Score: inf
ROOT
ATOM      1  C   UNL A   1      33.369  28.810  25.099  1.00  0.00     0.221 C 
ATOM      2  O   UNL A   1      34.028  28.690  24.063  1.00  0.00    -0.275 OA
ATOM      3  N   UNL A   1      33.564  29.941  25.831  1.00  0.00    -0.356 N 
ATOM      4  H   UNL A   1      34.040  30.645  25.335  1.00  0.00     0.163 HD
ENDROOT
BRANCH   1   5
ATOM      5  C   UNL A   1      32.357  27.743  25.485  1.00  0.00     0.121 C 
BRANCH   5   6
ATOM      6  C   UNL A   1      30.907  28.124  25.115  1.00  0.00     0.130 C 
BRANCH   6   7
ATOM      7  N   UNL A   1      30.651  28.118  23.653  1.00  0.00    -0.334 N 
BRANCH   7   8
ATOM      8  C   UNL A   1      30.619  29.168  22.742  1.00  0.00     0.284 C 
ATOM      9  O   UNL A   1      31.636  29.395  22.072  1.00  0.00    -0.268 OA
BRANCH   8  10
ATOM     10  C   UNL A   1      29.374  30.072  22.495  1.00  0.00     0.173 C 
BRANCH  10  11
ATOM     11  C   UNL A   1      28.144  29.152  22.155  1.00  0.00     0.075 C 
ATOM     12  C   UNL A   1      27.165  28.818  23.291  1.00  0.00     0.011 C 
ENDBRANCH  10  11
BRANCH  10  13
ATOM     13  N   UNL A   1      29.601  30.957  21.329  1.00  0.00    -0.345 N 
ATOM     14  H   UNL A   1      29.517  30.415  20.469  1.00  0.00     0.345 HD
ATOM     15  H   UNL A   1      30.536  31.361  21.386  1.00  0.00     0.345 HD
ATOM     16  H   UNL A   1      28.907  31.705  21.329  1.00  0.00     0.345 HD
ENDBRANCH  10  13
BRANCH  10  17
ATOM     17  C   UNL A   1      29.013  30.927  23.739  1.00  0.00     0.075 C 
ATOM     18  C   UNL A   1      28.339  32.262  23.430  1.00  0.00     0.011 C 
ENDBRANCH  10  17
ENDBRANCH   8  10
ENDBRANCH   7   8
BRANCH   7  19
ATOM     19  C   UNL A   1      30.404  26.788  23.087  1.00  0.00     0.079 C 
ATOM     20  C   UNL A   1      31.692  26.105  22.599  1.00  0.00     0.031 C 
ATOM     21  C   UNL A   1      29.544  25.892  23.978  1.00  0.00     0.031 C 
ENDBRANCH   7  19
ENDBRANCH   6   7
ENDBRANCH   5   6
ENDBRANCH   1   5
BRANCH   3  22
ATOM     22  C   UNL A   1      33.217  30.333  27.199  1.00  0.00     0.117 C 
BRANCH  22  23
ATOM     23  C   UNL A   1      32.016  31.297  27.172  1.00  0.00     0.042 C 
BRANCH  23  24
ATOM     24  C   UNL A   1      32.224  32.626  26.461  1.00  0.00     0.118 C 
BRANCH  24  25
ATOM     25  N   UNL A   1      32.216  33.783  27.339  1.00  0.00    -0.352 N 
ATOM     26  C   UNL A   1      33.037  34.312  28.305  1.00  0.00     0.251 C 
ATOM     27  H   UNL A   1      31.410  34.333  27.207  1.00  0.00     0.163 HD
ATOM     28  O   UNL A   1      32.661  35.398  28.768  1.00  0.00    -0.269 OA
BRANCH  26  29
ATOM     29  C   UNL A   1      34.297  33.717  28.854  1.00  0.00     0.039 A 
ATOM     30  C   UNL A   1      34.153  32.652  29.767  1.00  0.00     0.014 A 
ATOM     31  C   UNL A   1      35.597  34.129  28.570  1.00  0.00     0.014 A 
ATOM     32  C   UNL A   1      35.264  32.046  30.377  1.00  0.00     0.010 A 
ATOM     33  C   UNL A   1      36.710  33.463  29.102  1.00  0.00     0.010 A 
ATOM     34  C   UNL A   1      36.564  32.439  30.041  1.00  0.00    -0.014 A 
BRANCH  34  35
ATOM     35  C   UNL A   1      37.762  31.822  30.680  1.00  0.00     0.031 A 
ATOM     36  C   UNL A   1      38.178  32.215  32.081  1.00  0.00     0.074 A 
ATOM     37  C   UNL A   1      38.507  30.932  29.994  1.00  0.00     0.049 A 
ATOM     38  N   UNL A   1      39.190  31.791  32.799  1.00  0.00    -0.248 NA
ATOM     39  C   UNL A   1      37.372  33.248  32.751  1.00  0.00     0.031 C 
ATOM     40  C   UNL A   1      38.266  30.520  28.610  1.00  0.00     0.029 A 
ATOM     41  N   UNL A   1      39.616  30.211  30.365  1.00  0.00    -0.354 N 
ATOM     42  C   UNL A   1      39.147  32.514  33.986  1.00  0.00     0.074 A 
ATOM     43  C   UNL A   1      38.058  33.456  33.865  1.00  0.00     0.031 C 
ATOM     44  C   UNL A   1      39.165  29.584  28.267  1.00  0.00     0.029 A 
ATOM     45  C   UNL A   1      40.069  29.357  29.389  1.00  0.00     0.049 A 
ATOM     46  H   UNL A   1      40.045  30.298  31.247  1.00  0.00     0.167 HD
ATOM     47  C   UNL A   1      39.920  32.383  35.094  1.00  0.00     0.037 A 
ATOM     48  C   UNL A   1      41.094  28.482  29.399  1.00  0.00     0.037 A 
ATOM     49  C   UNL A   1      40.984  31.422  35.227  1.00  0.00     0.049 A 
ATOM     50  C   UNL A   1      41.921  28.337  30.650  1.00  0.00     0.074 A 
ATOM     51  C   UNL A   1      41.784  31.165  36.327  1.00  0.00     0.029 A 
ATOM     52  N   UNL A   1      41.396  30.558  34.223  1.00  0.00    -0.354 N 
ATOM     53  N   UNL A   1      41.815  28.969  31.794  1.00  0.00    -0.248 NA
ATOM     54  C   UNL A   1      43.001  27.342  30.612  1.00  0.00     0.031 C 
ATOM     55  C   UNL A   1      42.715  30.182  35.971  1.00  0.00     0.029 A 
ATOM     56  C   UNL A   1      42.453  29.781  34.671  1.00  0.00     0.049 A 
ATOM     57  H   UNL A   1      40.998  30.505  33.325  1.00  0.00     0.167 HD
ATOM     58  C   UNL A   1      42.793  28.431  32.619  1.00  0.00     0.074 A 
ATOM     59  C   UNL A   1      43.462  27.401  31.852  1.00  0.00     0.031 C 
ATOM     60  C   UNL A   1      43.112  28.762  33.896  1.00  0.00     0.037 A 
BRANCH  47  61
ATOM     61  C   UNL A   1      39.634  33.294  36.258  1.00  0.00     0.064 A 
ATOM     62  C   UNL A   1      38.728  32.939  37.269  1.00  0.00     0.173 A 
ATOM     63  C   UNL A   1      40.304  34.521  36.388  1.00  0.00     0.173 A 
ATOM     64  F   UNL A   1      38.050  31.782  37.194  1.00  0.00    -0.203 F 
ATOM     65  C   UNL A   1      38.476  33.790  38.343  1.00  0.00     0.198 A 
ATOM     66  C   UNL A   1      40.077  35.353  37.482  1.00  0.00     0.198 A 
ATOM     67  F   UNL A   1      41.187  34.912  35.457  1.00  0.00    -0.203 F 
ATOM     68  F   UNL A   1      37.562  33.452  39.263  1.00  0.00    -0.200 F 
ATOM     69  C   UNL A   1      39.157  34.991  38.453  1.00  0.00     0.200 A 
ATOM     70  F   UNL A   1      40.748  36.508  37.595  1.00  0.00    -0.200 F 
ATOM     71  F   UNL A   1      38.920  35.805  39.492  1.00  0.00    -0.200 F 
ENDBRANCH  47  61
BRANCH  48  72
ATOM     72  C   UNL A   1      41.369  27.642  28.203  1.00  0.00     0.064 A 
ATOM     73  C   UNL A   1      40.770  26.383  28.051  1.00  0.00     0.173 A 
ATOM     74  C   UNL A   1      42.240  28.072  27.191  1.00  0.00     0.173 A 
ATOM     75  F   UNL A   1      39.945  25.916  29.001  1.00  0.00    -0.203 F 
ATOM     76  C   UNL A   1      41.052  25.576  26.950  1.00  0.00     0.198 A 
ATOM     77  C   UNL A   1      42.495  27.280  26.073  1.00  0.00     0.198 A 
ATOM     78  F   UNL A   1      42.836  29.270  27.283  1.00  0.00    -0.203 F 
ATOM     79  F   UNL A   1      40.509  24.354  26.861  1.00  0.00    -0.200 F 
ATOM     80  C   UNL A   1      41.909  26.028  25.959  1.00  0.00     0.200 A 
ATOM     81  F   UNL A   1      43.312  27.727  25.110  1.00  0.00    -0.200 F 
ATOM     82  F   UNL A   1      42.178  25.254  24.899  1.00  0.00    -0.200 F 
ENDBRANCH  48  72
BRANCH  60  83
ATOM     83  C   UNL A   1      44.213  27.975  34.549  1.00  0.00     0.064 A 
ATOM     84  C   UNL A   1      45.550  28.400  34.510  1.00  0.00     0.173 A 
ATOM     85  C   UNL A   1      43.926  26.779  35.225  1.00  0.00     0.173 A 
ATOM     86  F   UNL A   1      45.881  29.531  33.868  1.00  0.00    -0.203 F 
ATOM     87  C   UNL A   1      46.563  27.633  35.079  1.00  0.00     0.198 A 
ATOM     88  C   UNL A   1      44.936  26.035  35.827  1.00  0.00     0.198 A 
ATOM     89  F   UNL A   1      42.664  26.331  35.305  1.00  0.00    -0.203 F 
ATOM     90  F   UNL A   1      47.840  28.023  34.966  1.00  0.00    -0.200 F 
ATOM     91  C   UNL A   1      46.255  26.455  35.741  1.00  0.00     0.200 A 
ATOM     92  F   UNL A   1      44.636  24.905  36.483  1.00  0.00    -0.200 F 
ATOM     93  F   UNL A   1      47.231  25.716  36.286  1.00  0.00    -0.200 F 
ENDBRANCH  60  83
ENDBRANCH  34  35
ENDBRANCH  26  29
ENDBRANCH  24  25
ENDBRANCH  23  24
ENDBRANCH  22  23
ENDBRANCH   3  22
TORSDOF 18
ENDMDL
