MODEL 1
REMARK VINA RESULT:     -13.0      0.000      0.000
REMARK SMILES O=C(NCCCNC(=O)[C@H]1C[C@@H](O)CN1C(=O)c1cc(F)c(F)cc1Cl)c1ccc(-c2c3nc(c(-c4c(F)c(F)c(F)c(F)c4F)c4ccc([nH]4)c(-c4c(F)c(F)c(F)c(F)c4F)c4nc(c(-c5c(F)c(F)c(F)c(F)c5F)c5ccc2[nH]5)C=C4)C=C3)cc1
REMARK SMILES IDX 5 1 4 2 3 3 1 4 2 5 27 7 28 8 89 9 29 10 88 11 30 12 31 13
REMARK SMILES IDX 32 14 82 15 33 16 87 17 81 18 83 19 34 20 86 21 80 22 79 23
REMARK SMILES IDX 35 25 67 26 47 27 66 28 48 29 51 30 65 31 84 32 49 33 50 34
REMARK SMILES IDX 64 36 85 37 52 38 36 39 37 40 45 41 38 42 39 43 43 44 46 45
REMARK SMILES IDX 40 46 41 47 44 48 42 49 68 50 69 51 77 52 70 53 71 54 75 55
REMARK SMILES IDX 78 56 72 57 73 58 76 59 74 60 53 61 54 62 62 63 55 64 56 65
REMARK SMILES IDX 60 66 63 67 57 68 58 69 61 70 59 71 6 72 7 73 8 74 9 76
REMARK SMILES IDX 10 77 11 78 15 79 12 80 14 81 16 82 17 83 18 84 19 85 25 86
REMARK SMILES IDX 20 87 24 88 26 89 21 90 22 91 23 92 13 93
REMARK H PARENT 3 6 83 24 51 35 7 75 13 94
REMARK Flexibility Score: inf
ROOT
ATOM      1  C   UNL A   1      31.599  32.097  26.851  1.00  0.00     0.042 C 
ENDROOT
BRANCH   1   2
ATOM      2  C   UNL A   1      32.876  32.862  27.172  1.00  0.00     0.118 C 
BRANCH   2   3
ATOM      3  N   UNL A   1      32.605  34.229  27.578  1.00  0.00    -0.352 N 
ATOM      4  O   UNL A   1      32.552  36.026  28.913  1.00  0.00    -0.269 OA
ATOM      5  C   UNL A   1      33.071  34.943  28.649  1.00  0.00     0.251 C 
ATOM      6  H   UNL A   1      31.988  34.721  26.988  1.00  0.00     0.163 HD
BRANCH   5   7
ATOM      7  C   UNL A   1      34.185  34.447  29.493  1.00  0.00     0.039 A 
ATOM      8  C   UNL A   1      35.489  34.576  29.002  1.00  0.00     0.014 A 
ATOM      9  C   UNL A   1      33.966  33.771  30.697  1.00  0.00     0.014 A 
ATOM     10  C   UNL A   1      36.563  34.027  29.707  1.00  0.00     0.010 A 
ATOM     11  C   UNL A   1      35.046  33.287  31.438  1.00  0.00     0.010 A 
ATOM     12  C   UNL A   1      36.351  33.376  30.930  1.00  0.00    -0.014 A 
BRANCH  12  13
ATOM     13  C   UNL A   1      37.469  32.697  31.634  1.00  0.00     0.031 A 
ATOM     14  C   UNL A   1      38.189  31.557  30.961  1.00  0.00     0.074 A 
ATOM     15  C   UNL A   1      37.834  33.090  32.869  1.00  0.00     0.049 A 
ATOM     16  N   UNL A   1      39.153  30.799  31.420  1.00  0.00    -0.248 NA
ATOM     17  C   UNL A   1      37.753  31.208  29.599  1.00  0.00     0.031 C 
ATOM     18  C   UNL A   1      37.203  34.166  33.634  1.00  0.00     0.029 A 
ATOM     19  N   UNL A   1      38.828  32.631  33.698  1.00  0.00    -0.354 N 
ATOM     20  C   UNL A   1      39.419  29.876  30.417  1.00  0.00     0.074 A 
ATOM     21  C   UNL A   1      38.488  30.136  29.341  1.00  0.00     0.031 C 
ATOM     22  C   UNL A   1      37.841  34.302  34.807  1.00  0.00     0.029 A 
ATOM     23  C   UNL A   1      38.903  33.303  34.893  1.00  0.00     0.049 A 
ATOM     24  H   UNL A   1      39.428  31.888  33.458  1.00  0.00     0.167 HD
ATOM     25  C   UNL A   1      40.373  28.917  30.382  1.00  0.00     0.037 A 
ATOM     26  C   UNL A   1      39.735  33.131  35.938  1.00  0.00     0.037 A 
ATOM     27  C   UNL A   1      41.337  28.698  31.426  1.00  0.00     0.049 A 
ATOM     28  C   UNL A   1      40.793  32.062  35.870  1.00  0.00     0.074 A 
ATOM     29  C   UNL A   1      42.383  27.792  31.455  1.00  0.00     0.029 A 
ATOM     30  N   UNL A   1      41.383  29.405  32.617  1.00  0.00    -0.354 N 
ATOM     31  N   UNL A   1      41.058  31.223  34.899  1.00  0.00    -0.248 NA
ATOM     32  C   UNL A   1      41.668  31.914  37.044  1.00  0.00     0.031 C 
ATOM     33  C   UNL A   1      43.043  27.929  32.679  1.00  0.00     0.029 A 
ATOM     34  C   UNL A   1      42.431  28.945  33.395  1.00  0.00     0.049 A 
ATOM     35  H   UNL A   1      40.762  30.127  32.872  1.00  0.00     0.167 HD
ATOM     36  C   UNL A   1      42.137  30.465  35.333  1.00  0.00     0.074 A 
ATOM     37  C   UNL A   1      42.491  30.951  36.649  1.00  0.00     0.031 C 
ATOM     38  C   UNL A   1      42.775  29.453  34.697  1.00  0.00     0.037 A 
BRANCH  25  39
ATOM     39  C   UNL A   1      40.446  28.039  29.169  1.00  0.00     0.064 A 
ATOM     40  C   UNL A   1      39.679  26.870  29.066  1.00  0.00     0.173 A 
ATOM     41  C   UNL A   1      41.228  28.413  28.066  1.00  0.00     0.173 A 
ATOM     42  F   UNL A   1      38.923  26.465  30.097  1.00  0.00    -0.203 F 
ATOM     43  C   UNL A   1      39.701  26.100  27.906  1.00  0.00     0.198 A 
ATOM     44  C   UNL A   1      41.229  27.654  26.898  1.00  0.00     0.198 A 
ATOM     45  F   UNL A   1      41.975  29.527  28.113  1.00  0.00    -0.203 F 
ATOM     46  F   UNL A   1      38.982  24.971  27.840  1.00  0.00    -0.200 F 
ATOM     47  C   UNL A   1      40.468  26.497  26.820  1.00  0.00     0.200 A 
ATOM     48  F   UNL A   1      41.959  28.047  25.846  1.00  0.00    -0.200 F 
ATOM     49  F   UNL A   1      40.473  25.766  25.697  1.00  0.00    -0.200 F 
ENDBRANCH  25  39
BRANCH  26  50
ATOM     50  C   UNL A   1      39.621  34.014  37.128  1.00  0.00     0.064 A 
ATOM     51  C   UNL A   1      40.279  35.251  37.171  1.00  0.00     0.173 A 
ATOM     52  C   UNL A   1      38.850  33.645  38.240  1.00  0.00     0.173 A 
ATOM     53  F   UNL A   1      41.045  35.637  36.140  1.00  0.00    -0.203 F 
ATOM     54  C   UNL A   1      40.181  36.080  38.285  1.00  0.00     0.198 A 
ATOM     55  C   UNL A   1      38.733  34.487  39.345  1.00  0.00     0.198 A 
ATOM     56  F   UNL A   1      38.202  32.472  38.248  1.00  0.00    -0.203 F 
ATOM     57  F   UNL A   1      40.849  37.241  38.314  1.00  0.00    -0.200 F 
ATOM     58  C   UNL A   1      39.403  35.701  39.369  1.00  0.00     0.200 A 
ATOM     59  F   UNL A   1      37.972  34.122  40.385  1.00  0.00    -0.200 F 
ATOM     60  F   UNL A   1      39.304  36.502  40.439  1.00  0.00    -0.200 F 
ENDBRANCH  26  50
BRANCH  38  61
ATOM     61  C   UNL A   1      43.932  28.807  35.399  1.00  0.00     0.064 A 
ATOM     62  C   UNL A   1      45.239  29.286  35.238  1.00  0.00     0.173 A 
ATOM     63  C   UNL A   1      43.715  27.767  36.315  1.00  0.00     0.173 A 
ATOM     64  F   UNL A   1      45.494  30.272  34.365  1.00  0.00    -0.203 F 
ATOM     65  C   UNL A   1      46.292  28.743  35.969  1.00  0.00     0.198 A 
ATOM     66  C   UNL A   1      44.767  27.243  37.061  1.00  0.00     0.198 A 
ATOM     67  F   UNL A   1      42.479  27.283  36.510  1.00  0.00    -0.203 F 
ATOM     68  F   UNL A   1      47.538  29.201  35.787  1.00  0.00    -0.200 F 
ATOM     69  C   UNL A   1      46.053  27.730  36.887  1.00  0.00     0.200 A 
ATOM     70  F   UNL A   1      44.533  26.276  37.959  1.00  0.00    -0.200 F 
ATOM     71  F   UNL A   1      47.065  27.224  37.605  1.00  0.00    -0.200 F 
ENDBRANCH  38  61
ENDBRANCH  12  13
ENDBRANCH   5   7
ENDBRANCH   2   3
ENDBRANCH   1   2
BRANCH   1  72
ATOM     72  C   UNL A   1      31.789  30.587  26.737  1.00  0.00     0.117 C 
BRANCH  72  73
ATOM     73  N   UNL A   1      32.572  30.253  25.565  1.00  0.00    -0.354 N 
ATOM     74  C   UNL A   1      32.309  29.361  24.573  1.00  0.00     0.242 C 
ATOM     75  H   UNL A   1      33.420  30.745  25.474  1.00  0.00     0.163 HD
ATOM     76  O   UNL A   1      33.236  29.134  23.785  1.00  0.00    -0.273 OA
BRANCH  74  77
ATOM     77  C   UNL A   1      30.936  28.643  24.437  1.00  0.00     0.177 C 
ATOM     78  C   UNL A   1      29.949  29.560  23.688  1.00  0.00     0.069 C 
ATOM     79  N   UNL A   1      30.955  27.432  23.598  1.00  0.00    -0.324 N 
ATOM     80  C   UNL A   1      30.184  29.222  22.215  1.00  0.00     0.136 C 
ATOM     81  C   UNL A   1      30.493  27.724  22.238  1.00  0.00     0.152 C 
BRANCH  79  82
ATOM     82  C   UNL A   1      30.989  26.167  24.170  1.00  0.00     0.256 C 
ATOM     83  O   UNL A   1      30.123  25.782  24.949  1.00  0.00    -0.269 OA
BRANCH  82  84
ATOM     84  C   UNL A   1      32.149  25.267  23.924  1.00  0.00     0.061 A 
ATOM     85  C   UNL A   1      32.115  24.404  22.817  1.00  0.00     0.057 A 
ATOM     86  C   UNL A   1      33.340  25.377  24.669  1.00  0.00     0.056 A 
ATOM     87  C   UNL A   1      33.232  23.642  22.493  1.00  0.00     0.159 A 
ATOM     88  C   UNL A   1      34.465  24.621  24.316  1.00  0.00     0.063 A 
ATOM     89  Cl  UNL A   1      33.502  26.396  26.055  1.00  0.00    -0.083 Cl
ATOM     90  F   UNL A   1      33.176  22.813  21.442  1.00  0.00    -0.204 F 
ATOM     91  C   UNL A   1      34.400  23.753  23.234  1.00  0.00     0.160 A 
ATOM     92  F   UNL A   1      35.479  23.033  22.903  1.00  0.00    -0.204 F 
ENDBRANCH  82  84
ENDBRANCH  79  82
BRANCH  80  93
ATOM     93  O   UNL A   1      31.267  29.945  21.636  1.00  0.00    -0.391 OA
ATOM     94  H   UNL A   1      32.103  29.510  21.864  1.00  0.00     0.211 HD
ENDBRANCH  80  93
ENDBRANCH  74  77
ENDBRANCH  72  73
ENDBRANCH   1  72
TORSDOF 13
ENDMDL
MODEL 2
REMARK VINA RESULT:     -13.0      0.164      1.600
REMARK SMILES O=C(NCCCNC(=O)[C@H]1C[C@@H](O)CN1C(=O)c1cc(F)c(F)cc1Cl)c1ccc(-c2c3nc(c(-c4c(F)c(F)c(F)c(F)c4F)c4ccc([nH]4)c(-c4c(F)c(F)c(F)c(F)c4F)c4nc(c(-c5c(F)c(F)c(F)c(F)c5F)c5ccc2[nH]5)C=C4)C=C3)cc1
REMARK SMILES IDX 5 1 4 2 3 3 1 4 2 5 27 7 28 8 89 9 29 10 88 11 30 12 31 13
REMARK SMILES IDX 32 14 82 15 33 16 87 17 81 18 83 19 34 20 86 21 80 22 79 23
REMARK SMILES IDX 35 25 67 26 47 27 66 28 48 29 51 30 65 31 84 32 49 33 50 34
REMARK SMILES IDX 64 36 85 37 52 38 36 39 37 40 45 41 38 42 39 43 43 44 46 45
REMARK SMILES IDX 40 46 41 47 44 48 42 49 68 50 69 51 77 52 70 53 71 54 75 55
REMARK SMILES IDX 78 56 72 57 73 58 76 59 74 60 53 61 54 62 62 63 55 64 56 65
REMARK SMILES IDX 60 66 63 67 57 68 58 69 61 70 59 71 6 72 7 73 8 74 9 76
REMARK SMILES IDX 10 77 11 78 15 79 12 80 14 81 16 82 17 83 18 84 19 85 25 86
REMARK SMILES IDX 20 87 24 88 26 89 21 90 22 91 23 92 13 93
REMARK H PARENT 3 6 83 24 51 35 7 75 13 94
REMARK Flexibility Score: inf
ROOT
ATOM      1  C   UNL A   1      31.563  32.175  26.844  1.00  0.00     0.042 C 
ENDROOT
BRANCH   1   2
ATOM      2  C   UNL A   1      32.835  32.952  27.156  1.00  0.00     0.118 C 
BRANCH   2   3
ATOM      3  N   UNL A   1      32.552  34.303  27.604  1.00  0.00    -0.352 N 
ATOM      4  O   UNL A   1      32.493  36.060  28.990  1.00  0.00    -0.269 OA
ATOM      5  C   UNL A   1      33.023  34.992  28.689  1.00  0.00     0.251 C 
ATOM      6  H   UNL A   1      31.922  34.803  27.036  1.00  0.00     0.163 HD
BRANCH   5   7
ATOM      7  C   UNL A   1      34.154  34.487  29.505  1.00  0.00     0.039 A 
ATOM      8  C   UNL A   1      35.441  34.567  28.965  1.00  0.00     0.014 A 
ATOM      9  C   UNL A   1      33.961  33.847  30.734  1.00  0.00     0.014 A 
ATOM     10  C   UNL A   1      36.526  34.007  29.644  1.00  0.00     0.010 A 
ATOM     11  C   UNL A   1      35.054  33.353  31.447  1.00  0.00     0.010 A 
ATOM     12  C   UNL A   1      36.341  33.393  30.890  1.00  0.00    -0.014 A 
BRANCH  12  13
ATOM     13  C   UNL A   1      37.466  32.700  31.570  1.00  0.00     0.031 A 
ATOM     14  C   UNL A   1      38.158  31.552  30.883  1.00  0.00     0.074 A 
ATOM     15  C   UNL A   1      37.862  33.090  32.797  1.00  0.00     0.049 A 
ATOM     16  N   UNL A   1      39.124  30.784  31.322  1.00  0.00    -0.248 NA
ATOM     17  C   UNL A   1      37.691  31.209  29.530  1.00  0.00     0.031 C 
ATOM     18  C   UNL A   1      37.259  34.173  33.575  1.00  0.00     0.029 A 
ATOM     19  N   UNL A   1      38.867  32.619  33.606  1.00  0.00    -0.354 N 
ATOM     20  C   UNL A   1      39.357  29.858  30.313  1.00  0.00     0.074 A 
ATOM     21  C   UNL A   1      38.407  30.128  29.257  1.00  0.00     0.031 C 
ATOM     22  C   UNL A   1      37.923  34.302  34.735  1.00  0.00     0.029 A 
ATOM     23  C   UNL A   1      38.975  33.291  34.799  1.00  0.00     0.049 A 
ATOM     24  H   UNL A   1      39.454  31.870  33.354  1.00  0.00     0.167 HD
ATOM     25  C   UNL A   1      40.299  28.888  30.259  1.00  0.00     0.037 A 
ATOM     26  C   UNL A   1      39.827  33.109  35.827  1.00  0.00     0.037 A 
ATOM     27  C   UNL A   1      41.283  28.658  31.282  1.00  0.00     0.049 A 
ATOM     28  C   UNL A   1      40.871  32.027  35.737  1.00  0.00     0.074 A 
ATOM     29  C   UNL A   1      42.318  27.740  31.290  1.00  0.00     0.029 A 
ATOM     30  N   UNL A   1      41.361  29.365  32.473  1.00  0.00    -0.354 N 
ATOM     31  N   UNL A   1      41.106  31.186  34.761  1.00  0.00    -0.248 NA
ATOM     32  C   UNL A   1      41.769  31.870  36.891  1.00  0.00     0.031 C 
ATOM     33  C   UNL A   1      43.005  27.869  32.499  1.00  0.00     0.029 A 
ATOM     34  C   UNL A   1      42.420  28.892  33.229  1.00  0.00     0.049 A 
ATOM     35  H   UNL A   1      40.755  30.093  32.740  1.00  0.00     0.167 HD
ATOM     36  C   UNL A   1      42.185  30.416  35.171  1.00  0.00     0.074 A 
ATOM     37  C   UNL A   1      42.572  30.898  36.480  1.00  0.00     0.031 C 
ATOM     38  C   UNL A   1      42.798  29.396  34.522  1.00  0.00     0.037 A 
BRANCH  25  39
ATOM     39  C   UNL A   1      40.337  28.009  29.045  1.00  0.00     0.064 A 
ATOM     40  C   UNL A   1      41.130  28.331  27.935  1.00  0.00     0.173 A 
ATOM     41  C   UNL A   1      39.637  26.793  29.024  1.00  0.00     0.173 A 
ATOM     42  F   UNL A   1      41.809  29.488  27.902  1.00  0.00    -0.203 F 
ATOM     43  C   UNL A   1      41.212  27.473  26.841  1.00  0.00     0.198 A 
ATOM     44  C   UNL A   1      39.742  25.926  27.939  1.00  0.00     0.198 A 
ATOM     45  F   UNL A   1      38.870  26.436  30.065  1.00  0.00    -0.203 F 
ATOM     46  F   UNL A   1      41.954  27.815  25.778  1.00  0.00    -0.200 F 
ATOM     47  C   UNL A   1      40.527  26.268  26.848  1.00  0.00     0.200 A 
ATOM     48  F   UNL A   1      39.090  24.755  27.954  1.00  0.00    -0.200 F 
ATOM     49  F   UNL A   1      40.623  25.434  25.804  1.00  0.00    -0.200 F 
ENDBRANCH  25  39
BRANCH  26  50
ATOM     50  C   UNL A   1      39.747  33.993  37.018  1.00  0.00     0.064 A 
ATOM     51  C   UNL A   1      38.977  33.631  38.132  1.00  0.00     0.173 A 
ATOM     52  C   UNL A   1      40.440  35.212  37.071  1.00  0.00     0.173 A 
ATOM     53  F   UNL A   1      38.280  32.486  38.118  1.00  0.00    -0.203 F 
ATOM     54  C   UNL A   1      38.893  34.459  39.249  1.00  0.00     0.198 A 
ATOM     55  C   UNL A   1      40.374  36.027  38.199  1.00  0.00     0.198 A 
ATOM     56  F   UNL A   1      41.190  35.603  36.032  1.00  0.00    -0.203 F 
ATOM     57  F   UNL A   1      38.121  34.104  40.285  1.00  0.00    -0.200 F 
ATOM     58  C   UNL A   1      39.597  35.653  39.285  1.00  0.00     0.200 A 
ATOM     59  F   UNL A   1      41.064  37.175  38.234  1.00  0.00    -0.200 F 
ATOM     60  F   UNL A   1      39.520  36.446  40.362  1.00  0.00    -0.200 F 
ENDBRANCH  26  50
BRANCH  38  61
ATOM     61  C   UNL A   1      43.961  28.737  35.200  1.00  0.00     0.064 A 
ATOM     62  C   UNL A   1      45.269  29.210  35.023  1.00  0.00     0.173 A 
ATOM     63  C   UNL A   1      43.753  27.690  36.111  1.00  0.00     0.173 A 
ATOM     64  F   UNL A   1      45.516  30.202  34.155  1.00  0.00    -0.203 F 
ATOM     65  C   UNL A   1      46.330  28.654  35.732  1.00  0.00     0.198 A 
ATOM     66  C   UNL A   1      44.813  27.152  36.835  1.00  0.00     0.198 A 
ATOM     67  F   UNL A   1      42.517  27.211  36.320  1.00  0.00    -0.203 F 
ATOM     68  F   UNL A   1      47.575  29.106  35.535  1.00  0.00    -0.200 F 
ATOM     69  C   UNL A   1      46.099  27.634  36.644  1.00  0.00     0.200 A 
ATOM     70  F   UNL A   1      44.588  26.179  37.728  1.00  0.00    -0.200 F 
ATOM     71  F   UNL A   1      47.119  27.115  37.342  1.00  0.00    -0.200 F 
ENDBRANCH  38  61
ENDBRANCH  12  13
ENDBRANCH   5   7
ENDBRANCH   2   3
ENDBRANCH   1   2
BRANCH   1  72
ATOM     72  C   UNL A   1      31.763  30.664  26.754  1.00  0.00     0.117 C 
BRANCH  72  73
ATOM     73  N   UNL A   1      32.565  30.318  25.599  1.00  0.00    -0.354 N 
ATOM     74  C   UNL A   1      32.325  29.405  24.620  1.00  0.00     0.242 C 
ATOM     75  H   UNL A   1      33.408  30.817  25.511  1.00  0.00     0.163 HD
ATOM     76  O   UNL A   1      33.266  29.174  23.849  1.00  0.00    -0.273 OA
BRANCH  74  77
ATOM     77  C   UNL A   1      30.962  28.668  24.479  1.00  0.00     0.177 C 
ATOM     78  C   UNL A   1      29.975  29.560  23.701  1.00  0.00     0.069 C 
ATOM     79  N   UNL A   1      31.006  27.443  23.664  1.00  0.00    -0.324 N 
ATOM     80  C   UNL A   1      30.234  29.198  22.238  1.00  0.00     0.136 C 
ATOM     81  C   UNL A   1      30.560  27.704  22.292  1.00  0.00     0.152 C 
BRANCH  79  82
ATOM     82  C   UNL A   1      31.047  26.189  24.259  1.00  0.00     0.256 C 
ATOM     83  O   UNL A   1      30.209  25.832  25.081  1.00  0.00    -0.269 OA
BRANCH  82  84
ATOM     84  C   UNL A   1      32.183  25.268  23.984  1.00  0.00     0.061 A 
ATOM     85  C   UNL A   1      32.084  24.370  22.909  1.00  0.00     0.057 A 
ATOM     86  C   UNL A   1      33.411  25.386  24.665  1.00  0.00     0.056 A 
ATOM     87  C   UNL A   1      33.175  23.585  22.553  1.00  0.00     0.159 A 
ATOM     88  C   UNL A   1      34.509  24.605  24.279  1.00  0.00     0.063 A 
ATOM     89  Cl  UNL A   1      33.655  26.447  26.007  1.00  0.00    -0.083 Cl
ATOM     90  F   UNL A   1      33.057  22.724  21.534  1.00  0.00    -0.204 F 
ATOM     91  C   UNL A   1      34.380  23.705  23.230  1.00  0.00     0.160 A 
ATOM     92  F   UNL A   1      35.433  22.962  22.869  1.00  0.00    -0.204 F 
ENDBRANCH  82  84
ENDBRANCH  79  82
BRANCH  80  93
ATOM     93  O   UNL A   1      31.317  29.922  21.659  1.00  0.00    -0.391 OA
ATOM     94  H   UNL A   1      31.806  30.382  22.358  1.00  0.00     0.211 HD
ENDBRANCH  80  93
ENDBRANCH  74  77
ENDBRANCH  72  73
ENDBRANCH   1  72
TORSDOF 13
ENDMDL
MODEL 3
REMARK VINA RESULT:     -13.0      0.667      7.336
REMARK SMILES O=C(NCCCNC(=O)[C@H]1C[C@@H](O)CN1C(=O)c1cc(F)c(F)cc1Cl)c1ccc(-c2c3nc(c(-c4c(F)c(F)c(F)c(F)c4F)c4ccc([nH]4)c(-c4c(F)c(F)c(F)c(F)c4F)c4nc(c(-c5c(F)c(F)c(F)c(F)c5F)c5ccc2[nH]5)C=C4)C=C3)cc1
REMARK SMILES IDX 5 1 4 2 3 3 1 4 2 5 27 7 28 8 89 9 29 10 88 11 30 12 31 13
REMARK SMILES IDX 32 14 82 15 33 16 87 17 81 18 83 19 34 20 86 21 80 22 79 23
REMARK SMILES IDX 35 25 67 26 47 27 66 28 48 29 51 30 65 31 84 32 49 33 50 34
REMARK SMILES IDX 64 36 85 37 52 38 36 39 37 40 45 41 38 42 39 43 43 44 46 45
REMARK SMILES IDX 40 46 41 47 44 48 42 49 68 50 69 51 77 52 70 53 71 54 75 55
REMARK SMILES IDX 78 56 72 57 73 58 76 59 74 60 53 61 54 62 62 63 55 64 56 65
REMARK SMILES IDX 60 66 63 67 57 68 58 69 61 70 59 71 6 72 7 73 8 74 9 76
REMARK SMILES IDX 10 77 11 78 15 79 12 80 14 81 16 82 17 83 18 84 19 85 25 86
REMARK SMILES IDX 20 87 24 88 26 89 21 90 22 91 23 92 13 93
REMARK H PARENT 3 6 83 24 51 35 7 75 13 94
REMARK Flexibility Score: inf
ROOT
ATOM      1  C   UNL A   1      31.514  32.101  26.862  1.00  0.00     0.042 C 
ENDROOT
BRANCH   1   2
ATOM      2  C   UNL A   1      32.782  32.931  27.012  1.00  0.00     0.118 C 
BRANCH   2   3
ATOM      3  N   UNL A   1      32.513  34.241  27.574  1.00  0.00    -0.352 N 
ATOM      4  O   UNL A   1      32.508  35.887  29.093  1.00  0.00    -0.269 OA
ATOM      5  C   UNL A   1      33.029  34.849  28.687  1.00  0.00     0.251 C 
ATOM      6  H   UNL A   1      31.855  34.778  27.076  1.00  0.00     0.163 HD
BRANCH   5   7
ATOM      7  C   UNL A   1      34.199  34.294  29.411  1.00  0.00     0.039 A 
ATOM      8  C   UNL A   1      35.473  34.544  28.890  1.00  0.00     0.014 A 
ATOM      9  C   UNL A   1      34.060  33.452  30.519  1.00  0.00     0.014 A 
ATOM     10  C   UNL A   1      36.598  33.953  29.469  1.00  0.00     0.010 A 
ATOM     11  C   UNL A   1      35.191  32.921  31.142  1.00  0.00     0.010 A 
ATOM     12  C   UNL A   1      36.467  33.134  30.599  1.00  0.00    -0.014 A 
BRANCH  12  13
ATOM     13  C   UNL A   1      37.641  32.416  31.158  1.00  0.00     0.031 A 
ATOM     14  C   UNL A   1      38.149  32.774  32.530  1.00  0.00     0.074 A 
ATOM     15  C   UNL A   1      38.253  31.454  30.441  1.00  0.00     0.049 A 
ATOM     16  N   UNL A   1      39.186  32.306  33.178  1.00  0.00    -0.248 NA
ATOM     17  C   UNL A   1      37.406  33.811  33.264  1.00  0.00     0.031 C 
ATOM     18  C   UNL A   1      37.869  31.030  29.095  1.00  0.00     0.029 A 
ATOM     19  N   UNL A   1      39.329  30.657  30.747  1.00  0.00    -0.354 N 
ATOM     20  C   UNL A   1      39.231  33.007  34.376  1.00  0.00     0.074 A 
ATOM     21  C   UNL A   1      38.146  33.963  34.353  1.00  0.00     0.031 C 
ATOM     22  C   UNL A   1      38.678  30.034  28.701  1.00  0.00     0.029 A 
ATOM     23  C   UNL A   1      39.659  29.771  29.752  1.00  0.00     0.049 A 
ATOM     24  H   UNL A   1      39.819  30.717  31.599  1.00  0.00     0.167 HD
ATOM     25  C   UNL A   1      40.081  32.847  35.417  1.00  0.00     0.037 A 
ATOM     26  C   UNL A   1      40.642  28.851  29.695  1.00  0.00     0.037 A 
ATOM     27  C   UNL A   1      41.122  31.857  35.466  1.00  0.00     0.049 A 
ATOM     28  C   UNL A   1      41.569  28.689  30.870  1.00  0.00     0.074 A 
ATOM     29  C   UNL A   1      41.994  31.576  36.503  1.00  0.00     0.029 A 
ATOM     30  N   UNL A   1      41.418  30.974  34.439  1.00  0.00    -0.354 N 
ATOM     31  N   UNL A   1      41.574  29.331  32.012  1.00  0.00    -0.248 NA
ATOM     32  C   UNL A   1      42.627  27.675  30.749  1.00  0.00     0.031 C 
ATOM     33  C   UNL A   1      42.841  30.544  36.092  1.00  0.00     0.029 A 
ATOM     34  C   UNL A   1      42.471  30.157  34.813  1.00  0.00     0.049 A 
ATOM     35  H   UNL A   1      40.950  30.934  33.574  1.00  0.00     0.167 HD
ATOM     36  C   UNL A   1      42.616  28.788  32.751  1.00  0.00     0.074 A 
ATOM     37  C   UNL A   1      43.215  27.753  31.935  1.00  0.00     0.031 C 
ATOM     38  C   UNL A   1      43.042  29.122  33.992  1.00  0.00     0.037 A 
BRANCH  25  39
ATOM     39  C   UNL A   1      39.916  33.746  36.607  1.00  0.00     0.064 A 
ATOM     40  C   UNL A   1      40.577  34.979  36.688  1.00  0.00     0.173 A 
ATOM     41  C   UNL A   1      39.025  33.406  37.636  1.00  0.00     0.173 A 
ATOM     42  F   UNL A   1      41.447  35.343  35.734  1.00  0.00    -0.203 F 
ATOM     43  C   UNL A   1      40.361  35.837  37.764  1.00  0.00     0.198 A 
ATOM     44  C   UNL A   1      38.793  34.277  38.698  1.00  0.00     0.198 A 
ATOM     45  F   UNL A   1      38.363  32.240  37.600  1.00  0.00    -0.203 F 
ATOM     46  F   UNL A   1      41.026  36.999  37.836  1.00  0.00    -0.200 F 
ATOM     47  C   UNL A   1      39.463  35.490  38.762  1.00  0.00     0.200 A 
ATOM     48  F   UNL A   1      37.914  33.946  39.654  1.00  0.00    -0.200 F 
ATOM     49  F   UNL A   1      39.241  36.325  39.786  1.00  0.00    -0.200 F 
ENDBRANCH  25  39
BRANCH  26  50
ATOM     50  C   UNL A   1      40.780  27.990  28.491  1.00  0.00     0.064 A 
ATOM     51  C   UNL A   1      41.551  28.403  27.396  1.00  0.00     0.173 A 
ATOM     52  C   UNL A   1      40.150  26.739  28.412  1.00  0.00     0.173 A 
ATOM     53  F   UNL A   1      42.153  29.601  27.418  1.00  0.00    -0.203 F 
ATOM     54  C   UNL A   1      41.679  27.604  26.263  1.00  0.00     0.198 A 
ATOM     55  C   UNL A   1      40.299  25.930  27.288  1.00  0.00     0.198 A 
ATOM     56  F   UNL A   1      39.401  26.299  29.433  1.00  0.00    -0.203 F 
ATOM     57  F   UNL A   1      42.393  28.039  25.216  1.00  0.00    -0.200 F 
ATOM     58  C   UNL A   1      41.058  26.365  26.212  1.00  0.00     0.200 A 
ATOM     59  F   UNL A   1      39.707  24.729  27.246  1.00  0.00    -0.200 F 
ATOM     60  F   UNL A   1      41.186  25.593  25.123  1.00  0.00    -0.200 F 
ENDBRANCH  26  50
BRANCH  38  61
ATOM     61  C   UNL A   1      44.198  28.357  34.563  1.00  0.00     0.064 A 
ATOM     62  C   UNL A   1      45.508  28.850  34.481  1.00  0.00     0.173 A 
ATOM     63  C   UNL A   1      43.980  27.174  35.285  1.00  0.00     0.173 A 
ATOM     64  F   UNL A   1      45.764  29.972  33.793  1.00  0.00    -0.203 F 
ATOM     65  C   UNL A   1      46.561  28.181  35.098  1.00  0.00     0.198 A 
ATOM     66  C   UNL A   1      45.032  26.521  35.920  1.00  0.00     0.198 A 
ATOM     67  F   UNL A   1      42.742  26.669  35.399  1.00  0.00    -0.203 F 
ATOM     68  F   UNL A   1      47.809  28.658  34.992  1.00  0.00    -0.200 F 
ATOM     69  C   UNL A   1      46.320  27.025  35.826  1.00  0.00     0.200 A 
ATOM     70  F   UNL A   1      44.797  25.413  36.636  1.00  0.00    -0.200 F 
ATOM     71  F   UNL A   1      47.333  26.395  36.438  1.00  0.00    -0.200 F 
ENDBRANCH  38  61
ENDBRANCH  12  13
ENDBRANCH   5   7
ENDBRANCH   2   3
ENDBRANCH   1   2
BRANCH   1  72
ATOM     72  C   UNL A   1      31.759  30.597  26.785  1.00  0.00     0.117 C 
BRANCH  72  73
ATOM     73  N   UNL A   1      32.557  30.263  25.624  1.00  0.00    -0.354 N 
ATOM     74  C   UNL A   1      32.306  29.371  24.628  1.00  0.00     0.242 C 
ATOM     75  H   UNL A   1      33.407  30.753  25.544  1.00  0.00     0.163 HD
ATOM     76  O   UNL A   1      33.244  29.144  23.852  1.00  0.00    -0.273 OA
BRANCH  74  77
ATOM     77  C   UNL A   1      30.934  28.654  24.474  1.00  0.00     0.177 C 
ATOM     78  C   UNL A   1      29.951  29.580  23.732  1.00  0.00     0.069 C 
ATOM     79  N   UNL A   1      30.960  27.455  23.619  1.00  0.00    -0.324 N 
ATOM     80  C   UNL A   1      30.196  29.263  22.256  1.00  0.00     0.136 C 
ATOM     81  C   UNL A   1      30.506  27.765  22.260  1.00  0.00     0.152 C 
BRANCH  79  82
ATOM     82  C   UNL A   1      30.991  26.182  24.173  1.00  0.00     0.256 C 
ATOM     83  O   UNL A   1      30.120  25.786  24.941  1.00  0.00    -0.269 OA
BRANCH  82  84
ATOM     84  C   UNL A   1      32.154  25.287  23.924  1.00  0.00     0.061 A 
ATOM     85  C   UNL A   1      32.132  24.444  22.800  1.00  0.00     0.057 A 
ATOM     86  C   UNL A   1      33.336  25.382  24.684  1.00  0.00     0.056 A 
ATOM     87  C   UNL A   1      33.253  23.688  22.475  1.00  0.00     0.159 A 
ATOM     88  C   UNL A   1      34.465  24.633  24.329  1.00  0.00     0.063 A 
ATOM     89  Cl  UNL A   1      33.483  26.376  26.090  1.00  0.00    -0.083 Cl
ATOM     90  F   UNL A   1      33.208  22.879  21.408  1.00  0.00    -0.204 F 
ATOM     91  C   UNL A   1      34.412  23.785  23.230  1.00  0.00     0.160 A 
ATOM     92  F   UNL A   1      35.495  23.071  22.898  1.00  0.00    -0.204 F 
ENDBRANCH  82  84
ENDBRANCH  79  82
BRANCH  80  93
ATOM     93  O   UNL A   1      31.282  29.994  21.693  1.00  0.00    -0.391 OA
ATOM     94  H   UNL A   1      31.056  30.261  20.789  1.00  0.00     0.211 HD
ENDBRANCH  80  93
ENDBRANCH  74  77
ENDBRANCH  72  73
ENDBRANCH   1  72
TORSDOF 13
ENDMDL
