MODEL 1
REMARK VINA RESULT:     -12.9      0.000      0.000
REMARK SMILES CC(C)[C@H](NC(=O)[C@H]1CC(=O)N(c2ccc(F)cc2)C1)C(=O)N1CCC[C@@H]1C(=O)NCCCNC(=O)c1ccc(-c2c3nc(c(-c4c(F)c(F)c(F)c(F)c4F)c4ccc([nH]4)c(-c4c(F)c(F)c(F)c(F)c4F)c4nc(c(-c5c(F)c(F)c(F)c(F)c5F)c5ccc2[nH]5)C=C4)C=C3)cc1
REMARK SMILES IDX 28 1 29 2 30 3 27 5 23 6 24 7 25 8 26 9 21 10 22 11 4 12
REMARK SMILES IDX 2 13 1 14 3 15 5 16 6 17 7 19 8 20 9 21 20 22 10 23 12 24
REMARK SMILES IDX 11 25 13 26 14 27 19 28 15 29 18 30 16 31 17 32 31 33 32 34
REMARK SMILES IDX 33 35 34 36 35 37 36 39 37 40 38 41 99 42 39 43 98 44 40 45
REMARK SMILES IDX 41 46 42 47 92 48 43 49 97 50 91 51 93 52 44 53 96 54 90 55
REMARK SMILES IDX 89 56 45 58 77 59 57 60 76 61 58 62 61 63 75 64 94 65 59 66
REMARK SMILES IDX 60 67 74 69 95 70 62 71 46 72 47 73 55 74 48 75 49 76 53 77
REMARK SMILES IDX 56 78 50 79 51 80 54 81 52 82 78 83 79 84 87 85 80 86 81 87
REMARK SMILES IDX 85 88 88 89 82 90 83 91 86 92 84 93 63 94 64 95 72 96 65 97
REMARK SMILES IDX 66 98 70 99 73 100 67 101 68 102 71 103 69 104
REMARK H PARENT 30 4 5 18 34 38 93 57 61 68
REMARK Flexibility Score: inf
ROOT
ATOM      1  C   UNL A   1      36.175  22.343  26.092  1.00  0.00     0.242 C 
ATOM      2  O   UNL A   1      36.526  23.459  26.488  1.00  0.00    -0.273 OA
ATOM      3  N   UNL A   1      37.152  21.556  25.556  1.00  0.00    -0.354 N 
ATOM      4  H   UNL A   1      38.049  21.963  25.545  1.00  0.00     0.163 HD
ENDROOT
BRANCH   1   5
ATOM      5  C   UNL A   1      34.685  21.953  26.039  1.00  0.00     0.174 C 
ATOM      6  N   UNL A   1      33.838  22.797  25.186  1.00  0.00    -0.329 N 
ATOM      7  C   UNL A   1      32.607  23.129  25.884  1.00  0.00     0.120 C 
ATOM      8  C   UNL A   1      32.900  22.961  27.364  1.00  0.00     0.024 C 
ATOM      9  C   UNL A   1      34.069  21.990  27.439  1.00  0.00     0.037 C 
BRANCH   6  10
ATOM     10  C   UNL A   1      33.906  22.608  23.807  1.00  0.00     0.246 C 
ATOM     11  O   UNL A   1      35.002  22.525  23.242  1.00  0.00    -0.272 OA
BRANCH  10  12
ATOM     12  C   UNL A   1      32.628  22.821  22.930  1.00  0.00     0.174 C 
BRANCH  12  13
ATOM     13  C   UNL A   1      31.929  21.437  22.664  1.00  0.00     0.015 C 
ATOM     14  C   UNL A   1      31.951  20.878  21.236  1.00  0.00     0.010 C 
ATOM     15  C   UNL A   1      32.517  20.319  23.541  1.00  0.00     0.010 C 
ENDBRANCH  12  13
BRANCH  12  16
ATOM     16  N   UNL A   1      32.899  23.766  21.795  1.00  0.00    -0.344 N 
ATOM     17  C   UNL A   1      32.702  25.081  21.474  1.00  0.00     0.226 C 
ATOM     18  H   UNL A   1      33.356  23.298  21.059  1.00  0.00     0.164 HD
ATOM     19  O   UNL A   1      32.940  25.452  20.324  1.00  0.00    -0.275 OA
BRANCH  17  20
ATOM     20  C   UNL A   1      32.283  26.039  22.529  1.00  0.00     0.107 C 
ATOM     21  C   UNL A   1      30.841  25.825  22.937  1.00  0.00     0.116 C 
ATOM     22  C   UNL A   1      32.938  26.138  23.886  1.00  0.00     0.139 C 
ATOM     23  C   UNL A   1      30.726  26.912  23.967  1.00  0.00     0.227 C 
ATOM     24  N   UNL A   1      32.028  27.110  24.497  1.00  0.00    -0.312 N 
ATOM     25  O   UNL A   1      29.677  27.503  24.183  1.00  0.00    -0.274 OA
BRANCH  24  26
ATOM     26  C   UNL A   1      32.434  28.254  25.245  1.00  0.00     0.044 A 
ATOM     27  C   UNL A   1      33.616  28.237  26.006  1.00  0.00     0.029 A 
ATOM     28  C   UNL A   1      31.647  29.412  25.306  1.00  0.00     0.029 A 
ATOM     29  C   UNL A   1      33.985  29.311  26.823  1.00  0.00     0.041 A 
ATOM     30  C   UNL A   1      32.028  30.497  26.108  1.00  0.00     0.041 A 
ATOM     31  C   UNL A   1      33.182  30.432  26.872  1.00  0.00     0.123 A 
ATOM     32  F   UNL A   1      33.522  31.464  27.654  1.00  0.00    -0.207 F 
ENDBRANCH  24  26
ENDBRANCH  17  20
ENDBRANCH  12  16
ENDBRANCH  10  12
ENDBRANCH   6  10
ENDBRANCH   1   5
BRANCH   3  33
ATOM     33  C   UNL A   1      37.088  20.220  25.000  1.00  0.00     0.117 C 
BRANCH  33  34
ATOM     34  C   UNL A   1      38.466  19.601  24.844  1.00  0.00     0.042 C 
BRANCH  34  35
ATOM     35  C   UNL A   1      39.432  19.979  25.956  1.00  0.00     0.118 C 
BRANCH  35  36
ATOM     36  N   UNL A   1      40.511  19.017  26.128  1.00  0.00    -0.352 N 
ATOM     37  C   UNL A   1      41.842  19.247  26.359  1.00  0.00     0.251 C 
ATOM     38  H   UNL A   1      40.248  18.069  26.070  1.00  0.00     0.163 HD
ATOM     39  O   UNL A   1      42.642  18.322  26.422  1.00  0.00    -0.269 OA
BRANCH  37  40
ATOM     40  C   UNL A   1      42.301  20.636  26.506  1.00  0.00     0.039 A 
ATOM     41  C   UNL A   1      42.546  21.398  25.364  1.00  0.00     0.014 A 
ATOM     42  C   UNL A   1      42.420  21.191  27.779  1.00  0.00     0.014 A 
ATOM     43  C   UNL A   1      42.885  22.741  25.494  1.00  0.00     0.010 A 
ATOM     44  C   UNL A   1      42.654  22.553  27.903  1.00  0.00     0.010 A 
ATOM     45  C   UNL A   1      42.900  23.337  26.763  1.00  0.00    -0.014 A 
BRANCH  45  46
ATOM     46  C   UNL A   1      43.212  24.774  26.942  1.00  0.00     0.031 A 
ATOM     47  C   UNL A   1      44.583  25.269  26.580  1.00  0.00     0.074 A 
ATOM     48  C   UNL A   1      42.305  25.603  27.495  1.00  0.00     0.049 A 
ATOM     49  N   UNL A   1      45.153  26.410  26.859  1.00  0.00    -0.248 NA
ATOM     50  C   UNL A   1      45.446  24.329  25.842  1.00  0.00     0.031 C 
ATOM     51  C   UNL A   1      40.944  25.233  27.887  1.00  0.00     0.029 A 
ATOM     52  N   UNL A   1      42.399  26.929  27.837  1.00  0.00    -0.354 N 
ATOM     53  C   UNL A   1      46.450  26.307  26.373  1.00  0.00     0.074 A 
ATOM     54  C   UNL A   1      46.599  24.979  25.825  1.00  0.00     0.031 C 
ATOM     55  C   UNL A   1      40.322  26.310  28.391  1.00  0.00     0.029 A 
ATOM     56  C   UNL A   1      41.259  27.428  28.420  1.00  0.00     0.049 A 
ATOM     57  H   UNL A   1      43.206  27.470  27.679  1.00  0.00     0.167 HD
ATOM     58  C   UNL A   1      47.420  27.250  26.372  1.00  0.00     0.037 A 
ATOM     59  C   UNL A   1      41.011  28.645  28.941  1.00  0.00     0.037 A 
ATOM     60  C   UNL A   1      47.231  28.588  26.864  1.00  0.00     0.049 A 
ATOM     61  C   UNL A   1      42.106  29.676  28.927  1.00  0.00     0.074 A 
ATOM     62  C   UNL A   1      48.129  29.639  26.862  1.00  0.00     0.029 A 
ATOM     63  N   UNL A   1      46.055  29.060  27.430  1.00  0.00    -0.354 N 
ATOM     64  N   UNL A   1      43.330  29.572  28.468  1.00  0.00    -0.248 NA
ATOM     65  C   UNL A   1      41.792  30.989  29.507  1.00  0.00     0.031 C 
ATOM     66  C   UNL A   1      47.510  30.738  27.464  1.00  0.00     0.029 A 
ATOM     67  C   UNL A   1      46.209  30.386  27.793  1.00  0.00     0.049 A 
ATOM     68  H   UNL A   1      45.235  28.530  27.555  1.00  0.00     0.167 HD
ATOM     69  C   UNL A   1      43.926  30.807  28.684  1.00  0.00     0.074 A 
ATOM     70  C   UNL A   1      42.923  31.650  29.303  1.00  0.00     0.031 C 
ATOM     71  C   UNL A   1      45.189  31.206  28.396  1.00  0.00     0.037 A 
BRANCH  58  72
ATOM     72  C   UNL A   1      48.762  26.876  25.814  1.00  0.00     0.064 A 
ATOM     73  C   UNL A   1      49.733  26.287  26.639  1.00  0.00     0.173 A 
ATOM     74  C   UNL A   1      49.108  27.144  24.482  1.00  0.00     0.173 A 
ATOM     75  F   UNL A   1      49.454  26.010  27.922  1.00  0.00    -0.203 F 
ATOM     76  C   UNL A   1      51.004  25.993  26.152  1.00  0.00     0.198 A 
ATOM     77  C   UNL A   1      50.370  26.820  23.990  1.00  0.00     0.198 A 
ATOM     78  F   UNL A   1      48.211  27.691  23.648  1.00  0.00    -0.203 F 
ATOM     79  F   UNL A   1      51.925  25.461  26.968  1.00  0.00    -0.200 F 
ATOM     80  C   UNL A   1      51.320  26.255  24.828  1.00  0.00     0.200 A 
ATOM     81  F   UNL A   1      50.662  27.046  22.702  1.00  0.00    -0.200 F 
ATOM     82  F   UNL A   1      52.539  25.960  24.358  1.00  0.00    -0.200 F 
ENDBRANCH  58  72
BRANCH  59  83
ATOM     83  C   UNL A   1      39.667  28.947  29.499  1.00  0.00     0.064 A 
ATOM     84  C   UNL A   1      39.343  28.662  30.834  1.00  0.00     0.173 A 
ATOM     85  C   UNL A   1      38.662  29.492  28.688  1.00  0.00     0.173 A 
ATOM     86  F   UNL A   1      40.264  28.132  31.651  1.00  0.00    -0.203 F 
ATOM     87  C   UNL A   1      38.059  28.887  31.328  1.00  0.00     0.198 A 
ATOM     88  C   UNL A   1      37.386  29.743  29.191  1.00  0.00     0.198 A 
ATOM     89  F   UNL A   1      38.927  29.799  27.410  1.00  0.00    -0.203 F 
ATOM     90  F   UNL A   1      37.765  28.565  32.595  1.00  0.00    -0.200 F 
ATOM     91  C   UNL A   1      37.083  29.432  30.508  1.00  0.00     0.200 A 
ATOM     92  F   UNL A   1      36.452  30.289  28.399  1.00  0.00    -0.200 F 
ATOM     93  F   UNL A   1      35.851  29.653  30.984  1.00  0.00    -0.200 F 
ENDBRANCH  59  83
BRANCH  71  94
ATOM     94  C   UNL A   1      45.559  32.623  28.717  1.00  0.00     0.064 A 
ATOM     95  C   UNL A   1      45.358  33.638  27.768  1.00  0.00     0.173 A 
ATOM     96  C   UNL A   1      46.204  32.957  29.915  1.00  0.00     0.173 A 
ATOM     97  F   UNL A   1      44.754  33.363  26.602  1.00  0.00    -0.203 F 
ATOM     98  C   UNL A   1      45.810  34.932  28.000  1.00  0.00     0.198 A 
ATOM     99  C   UNL A   1      46.629  34.260  30.156  1.00  0.00     0.198 A 
ATOM    100  F   UNL A   1      46.407  32.023  30.856  1.00  0.00    -0.203 F 
ATOM    101  F   UNL A   1      45.647  35.875  27.062  1.00  0.00    -0.200 F 
ATOM    102  C   UNL A   1      46.444  35.243  29.194  1.00  0.00     0.200 A 
ATOM    103  F   UNL A   1      47.221  34.565  31.319  1.00  0.00    -0.200 F 
ATOM    104  F   UNL A   1      46.876  36.491  29.419  1.00  0.00    -0.200 F 
ENDBRANCH  71  94
ENDBRANCH  45  46
ENDBRANCH  37  40
ENDBRANCH  35  36
ENDBRANCH  34  35
ENDBRANCH  33  34
ENDBRANCH   3  33
TORSDOF 16
ENDMDL
MODEL 2
REMARK VINA RESULT:     -12.9      1.243      7.297
REMARK SMILES CC(C)[C@H](NC(=O)[C@H]1CC(=O)N(c2ccc(F)cc2)C1)C(=O)N1CCC[C@@H]1C(=O)NCCCNC(=O)c1ccc(-c2c3nc(c(-c4c(F)c(F)c(F)c(F)c4F)c4ccc([nH]4)c(-c4c(F)c(F)c(F)c(F)c4F)c4nc(c(-c5c(F)c(F)c(F)c(F)c5F)c5ccc2[nH]5)C=C4)C=C3)cc1
REMARK SMILES IDX 28 1 29 2 30 3 27 5 23 6 24 7 25 8 26 9 21 10 22 11 4 12
REMARK SMILES IDX 2 13 1 14 3 15 5 16 6 17 7 19 8 20 9 21 20 22 10 23 12 24
REMARK SMILES IDX 11 25 13 26 14 27 19 28 15 29 18 30 16 31 17 32 31 33 32 34
REMARK SMILES IDX 33 35 34 36 35 37 36 39 37 40 38 41 99 42 39 43 98 44 40 45
REMARK SMILES IDX 41 46 42 47 92 48 43 49 97 50 91 51 93 52 44 53 96 54 90 55
REMARK SMILES IDX 89 56 45 58 77 59 57 60 76 61 58 62 61 63 75 64 94 65 59 66
REMARK SMILES IDX 60 67 74 69 95 70 62 71 46 72 47 73 55 74 48 75 49 76 53 77
REMARK SMILES IDX 56 78 50 79 51 80 54 81 52 82 78 83 79 84 87 85 80 86 81 87
REMARK SMILES IDX 85 88 88 89 82 90 83 91 86 92 84 93 63 94 64 95 72 96 65 97
REMARK SMILES IDX 66 98 70 99 73 100 67 101 68 102 71 103 69 104
REMARK H PARENT 30 4 5 18 34 38 93 57 61 68
REMARK Flexibility Score: inf
ROOT
ATOM      1  C   UNL A   1      36.390  22.327  26.050  1.00  0.00     0.242 C 
ATOM      2  O   UNL A   1      36.853  23.362  26.539  1.00  0.00    -0.273 OA
ATOM      3  N   UNL A   1      37.271  21.526  25.382  1.00  0.00    -0.354 N 
ATOM      4  H   UNL A   1      38.198  21.859  25.365  1.00  0.00     0.163 HD
ENDROOT
BRANCH   1   5
ATOM      5  C   UNL A   1      34.871  22.066  26.038  1.00  0.00     0.174 C 
ATOM      6  N   UNL A   1      34.072  23.007  25.242  1.00  0.00    -0.329 N 
ATOM      7  C   UNL A   1      32.898  23.418  25.994  1.00  0.00     0.120 C 
ATOM      8  C   UNL A   1      33.224  23.175  27.457  1.00  0.00     0.024 C 
ATOM      9  C   UNL A   1      34.308  22.108  27.459  1.00  0.00     0.037 C 
BRANCH   6  10
ATOM     10  C   UNL A   1      34.078  22.859  23.856  1.00  0.00     0.246 C 
ATOM     11  O   UNL A   1      35.147  22.791  23.241  1.00  0.00    -0.272 OA
BRANCH  10  12
ATOM     12  C   UNL A   1      32.763  23.102  23.044  1.00  0.00     0.174 C 
BRANCH  12  13
ATOM     13  C   UNL A   1      31.987  21.744  22.872  1.00  0.00     0.015 C 
ATOM     14  C   UNL A   1      31.913  21.127  21.469  1.00  0.00     0.010 C 
ATOM     15  C   UNL A   1      32.564  20.635  23.767  1.00  0.00     0.010 C 
ENDBRANCH  12  13
BRANCH  12  16
ATOM     16  N   UNL A   1      33.012  23.991  21.859  1.00  0.00    -0.344 N 
ATOM     17  C   UNL A   1      32.596  25.196  21.365  1.00  0.00     0.226 C 
ATOM     18  H   UNL A   1      33.675  23.583  21.257  1.00  0.00     0.164 HD
ATOM     19  O   UNL A   1      32.937  25.520  20.228  1.00  0.00    -0.275 OA
BRANCH  17  20
ATOM     20  C   UNL A   1      31.811  26.114  22.232  1.00  0.00     0.107 C 
ATOM     21  C   UNL A   1      32.143  25.918  23.696  1.00  0.00     0.116 C 
ATOM     22  C   UNL A   1      31.872  27.619  22.138  1.00  0.00     0.139 C 
ATOM     23  C   UNL A   1      31.214  26.941  24.283  1.00  0.00     0.227 C 
ATOM     24  N   UNL A   1      31.034  27.944  23.294  1.00  0.00    -0.312 N 
ATOM     25  O   UNL A   1      30.704  26.809  25.388  1.00  0.00    -0.274 OA
BRANCH  24  26
ATOM     26  C   UNL A   1      29.988  28.912  23.302  1.00  0.00     0.044 A 
ATOM     27  C   UNL A   1      30.201  30.202  23.821  1.00  0.00     0.029 A 
ATOM     28  C   UNL A   1      28.696  28.605  22.855  1.00  0.00     0.029 A 
ATOM     29  C   UNL A   1      29.166  31.137  23.927  1.00  0.00     0.041 A 
ATOM     30  C   UNL A   1      27.663  29.550  22.941  1.00  0.00     0.041 A 
ATOM     31  C   UNL A   1      27.901  30.799  23.491  1.00  0.00     0.123 A 
ATOM     32  F   UNL A   1      26.901  31.684  23.591  1.00  0.00    -0.207 F 
ENDBRANCH  24  26
ENDBRANCH  17  20
ENDBRANCH  12  16
ENDBRANCH  10  12
ENDBRANCH   6  10
ENDBRANCH   1   5
BRANCH   3  33
ATOM     33  C   UNL A   1      37.067  20.268  24.696  1.00  0.00     0.117 C 
BRANCH  33  34
ATOM     34  C   UNL A   1      38.139  19.249  25.044  1.00  0.00     0.042 C 
BRANCH  34  35
ATOM     35  C   UNL A   1      39.342  19.850  25.754  1.00  0.00     0.118 C 
BRANCH  35  36
ATOM     36  N   UNL A   1      40.497  18.964  25.770  1.00  0.00    -0.352 N 
ATOM     37  C   UNL A   1      41.807  19.261  26.044  1.00  0.00     0.251 C 
ATOM     38  H   UNL A   1      40.312  18.020  25.556  1.00  0.00     0.163 HD
ATOM     39  O   UNL A   1      42.680  18.406  25.959  1.00  0.00    -0.269 OA
BRANCH  37  40
ATOM     40  C   UNL A   1      42.152  20.639  26.420  1.00  0.00     0.039 A 
ATOM     41  C   UNL A   1      42.295  20.963  27.768  1.00  0.00     0.014 A 
ATOM     42  C   UNL A   1      42.394  21.585  25.425  1.00  0.00     0.014 A 
ATOM     43  C   UNL A   1      42.717  22.239  28.127  1.00  0.00     0.010 A 
ATOM     44  C   UNL A   1      42.914  22.821  25.779  1.00  0.00     0.010 A 
ATOM     45  C   UNL A   1      43.069  23.164  27.134  1.00  0.00    -0.014 A 
BRANCH  45  46
ATOM     46  C   UNL A   1      43.565  24.518  27.473  1.00  0.00     0.031 A 
ATOM     47  C   UNL A   1      42.602  25.519  28.044  1.00  0.00     0.074 A 
ATOM     48  C   UNL A   1      44.837  24.864  27.198  1.00  0.00     0.049 A 
ATOM     49  N   UNL A   1      42.743  26.808  28.200  1.00  0.00    -0.248 NA
ATOM     50  C   UNL A   1      41.283  25.004  28.452  1.00  0.00     0.031 C 
ATOM     51  C   UNL A   1      45.858  23.975  26.643  1.00  0.00     0.029 A 
ATOM     52  N   UNL A   1      45.484  26.067  27.337  1.00  0.00    -0.354 N 
ATOM     53  C   UNL A   1      41.521  27.261  28.678  1.00  0.00     0.074 A 
ATOM     54  C   UNL A   1      40.636  26.121  28.744  1.00  0.00     0.031 C 
ATOM     55  C   UNL A   1      47.009  24.654  26.512  1.00  0.00     0.029 A 
ATOM     56  C   UNL A   1      46.790  26.040  26.911  1.00  0.00     0.049 A 
ATOM     57  H   UNL A   1      45.054  26.871  27.707  1.00  0.00     0.167 HD
ATOM     58  C   UNL A   1      41.179  28.517  29.047  1.00  0.00     0.037 A 
ATOM     59  C   UNL A   1      47.698  27.032  26.828  1.00  0.00     0.037 A 
ATOM     60  C   UNL A   1      42.094  29.626  29.036  1.00  0.00     0.049 A 
ATOM     61  C   UNL A   1      47.295  28.420  27.244  1.00  0.00     0.074 A 
ATOM     62  C   UNL A   1      41.871  30.930  29.439  1.00  0.00     0.029 A 
ATOM     63  N   UNL A   1      43.415  29.554  28.614  1.00  0.00    -0.354 N 
ATOM     64  N   UNL A   1      46.137  28.842  27.694  1.00  0.00    -0.248 NA
ATOM     65  C   UNL A   1      48.315  29.470  27.137  1.00  0.00     0.031 C 
ATOM     66  C   UNL A   1      43.044  31.657  29.224  1.00  0.00     0.029 A 
ATOM     67  C   UNL A   1      44.015  30.795  28.736  1.00  0.00     0.049 A 
ATOM     68  H   UNL A   1      43.857  28.741  28.278  1.00  0.00     0.167 HD
ATOM     69  C   UNL A   1      46.294  30.197  27.943  1.00  0.00     0.074 A 
ATOM     70  C   UNL A   1      47.665  30.526  27.606  1.00  0.00     0.031 C 
ATOM     71  C   UNL A   1      45.386  31.090  28.406  1.00  0.00     0.037 A 
BRANCH  58  72
ATOM     72  C   UNL A   1      39.770  28.757  29.502  1.00  0.00     0.064 A 
ATOM     73  C   UNL A   1      38.806  29.233  28.599  1.00  0.00     0.173 A 
ATOM     74  C   UNL A   1      39.383  28.568  30.836  1.00  0.00     0.173 A 
ATOM     75  F   UNL A   1      39.124  29.433  27.311  1.00  0.00    -0.203 F 
ATOM     76  C   UNL A   1      37.510  29.522  29.021  1.00  0.00     0.198 A 
ATOM     77  C   UNL A   1      38.078  28.827  31.248  1.00  0.00     0.198 A 
ATOM     78  F   UNL A   1      40.262  28.099  31.735  1.00  0.00    -0.203 F 
ATOM     79  F   UNL A   1      36.616  30.006  28.148  1.00  0.00    -0.200 F 
ATOM     80  C   UNL A   1      37.146  29.314  30.343  1.00  0.00     0.200 A 
ATOM     81  F   UNL A   1      37.720  28.597  32.518  1.00  0.00    -0.200 F 
ATOM     82  F   UNL A   1      35.896  29.580  30.744  1.00  0.00    -0.200 F 
ENDBRANCH  58  72
BRANCH  59  83
ATOM     83  C   UNL A   1      49.073  26.733  26.348  1.00  0.00     0.064 A 
ATOM     84  C   UNL A   1      49.443  26.924  25.008  1.00  0.00     0.173 A 
ATOM     85  C   UNL A   1      50.037  26.208  27.220  1.00  0.00     0.173 A 
ATOM     86  F   UNL A   1      48.556  27.415  24.130  1.00  0.00    -0.203 F 
ATOM     87  C   UNL A   1      50.715  26.577  24.555  1.00  0.00     0.198 A 
ATOM     88  C   UNL A   1      51.317  25.889  26.772  1.00  0.00     0.198 A 
ATOM     89  F   UNL A   1      49.738  26.025  28.515  1.00  0.00    -0.203 F 
ATOM     90  F   UNL A   1      51.027  26.730  23.260  1.00  0.00    -0.200 F 
ATOM     91  C   UNL A   1      51.652  26.065  25.438  1.00  0.00     0.200 A 
ATOM     92  F   UNL A   1      52.227  25.413  27.634  1.00  0.00    -0.200 F 
ATOM     93  F   UNL A   1      52.876  25.737  25.003  1.00  0.00    -0.200 F 
ENDBRANCH  59  83
BRANCH  71  94
ATOM     94  C   UNL A   1      45.842  32.504  28.608  1.00  0.00     0.064 A 
ATOM     95  C   UNL A   1      46.343  32.913  29.854  1.00  0.00     0.173 A 
ATOM     96  C   UNL A   1      45.689  33.472  27.607  1.00  0.00     0.173 A 
ATOM     97  F   UNL A   1      46.497  32.023  30.846  1.00  0.00    -0.203 F 
ATOM     98  C   UNL A   1      46.652  34.247  30.096  1.00  0.00     0.198 A 
ATOM     99  C   UNL A   1      46.028  34.801  27.843  1.00  0.00     0.198 A 
ATOM    100  F   UNL A   1      45.227  33.125  26.397  1.00  0.00    -0.203 F 
ATOM    101  F   UNL A   1      47.086  34.624  31.306  1.00  0.00    -0.200 F 
ATOM    102  C   UNL A   1      46.496  35.190  29.090  1.00  0.00     0.200 A 
ATOM    103  F   UNL A   1      45.899  35.708  26.865  1.00  0.00    -0.200 F 
ATOM    104  F   UNL A   1      46.798  36.475  29.323  1.00  0.00    -0.200 F 
ENDBRANCH  71  94
ENDBRANCH  45  46
ENDBRANCH  37  40
ENDBRANCH  35  36
ENDBRANCH  34  35
ENDBRANCH  33  34
ENDBRANCH   3  33
TORSDOF 16
ENDMDL
MODEL 3
REMARK VINA RESULT:     -12.6      1.149      6.968
REMARK SMILES CC(C)[C@H](NC(=O)[C@H]1CC(=O)N(c2ccc(F)cc2)C1)C(=O)N1CCC[C@@H]1C(=O)NCCCNC(=O)c1ccc(-c2c3nc(c(-c4c(F)c(F)c(F)c(F)c4F)c4ccc([nH]4)c(-c4c(F)c(F)c(F)c(F)c4F)c4nc(c(-c5c(F)c(F)c(F)c(F)c5F)c5ccc2[nH]5)C=C4)C=C3)cc1
REMARK SMILES IDX 28 1 29 2 30 3 27 5 23 6 24 7 25 8 26 9 21 10 22 11 4 12
REMARK SMILES IDX 2 13 1 14 3 15 5 16 6 17 7 19 8 20 9 21 20 22 10 23 12 24
REMARK SMILES IDX 11 25 13 26 14 27 19 28 15 29 18 30 16 31 17 32 31 33 32 34
REMARK SMILES IDX 33 35 34 36 35 37 36 39 37 40 38 41 99 42 39 43 98 44 40 45
REMARK SMILES IDX 41 46 42 47 92 48 43 49 97 50 91 51 93 52 44 53 96 54 90 55
REMARK SMILES IDX 89 56 45 58 77 59 57 60 76 61 58 62 61 63 75 64 94 65 59 66
REMARK SMILES IDX 60 67 74 69 95 70 62 71 46 72 47 73 55 74 48 75 49 76 53 77
REMARK SMILES IDX 56 78 50 79 51 80 54 81 52 82 78 83 79 84 87 85 80 86 81 87
REMARK SMILES IDX 85 88 88 89 82 90 83 91 86 92 84 93 63 94 64 95 72 96 65 97
REMARK SMILES IDX 66 98 70 99 73 100 67 101 68 102 71 103 69 104
REMARK H PARENT 30 4 5 18 34 38 93 57 61 68
REMARK Flexibility Score: inf
ROOT
ATOM      1  C   UNL A   1      36.093  23.206  26.077  1.00  0.00     0.242 C 
ATOM      2  O   UNL A   1      35.926  24.419  26.235  1.00  0.00    -0.273 OA
ATOM      3  N   UNL A   1      37.331  22.815  25.655  1.00  0.00    -0.354 N 
ATOM      4  H   UNL A   1      37.972  23.551  25.524  1.00  0.00     0.163 HD
ENDROOT
BRANCH   1   5
ATOM      5  C   UNL A   1      34.910  22.224  26.170  1.00  0.00     0.174 C 
ATOM      6  N   UNL A   1      33.748  22.548  25.331  1.00  0.00    -0.329 N 
ATOM      7  C   UNL A   1      32.524  22.399  26.100  1.00  0.00     0.120 C 
ATOM      8  C   UNL A   1      32.924  22.513  27.560  1.00  0.00     0.024 C 
ATOM      9  C   UNL A   1      34.397  22.135  27.609  1.00  0.00     0.037 C 
BRANCH   6  10
ATOM     10  C   UNL A   1      33.831  22.272  23.967  1.00  0.00     0.246 C 
ATOM     11  O   UNL A   1      34.929  22.079  23.436  1.00  0.00    -0.272 OA
BRANCH  10  12
ATOM     12  C   UNL A   1      32.590  22.521  23.048  1.00  0.00     0.174 C 
BRANCH  12  13
ATOM     13  C   UNL A   1      31.912  21.148  22.686  1.00  0.00     0.015 C 
ATOM     14  C   UNL A   1      31.898  20.715  21.214  1.00  0.00     0.010 C 
ATOM     15  C   UNL A   1      32.555  19.974  23.443  1.00  0.00     0.010 C 
ENDBRANCH  12  13
BRANCH  12  16
ATOM     16  N   UNL A   1      32.903  23.522  21.972  1.00  0.00    -0.344 N 
ATOM     17  C   UNL A   1      32.611  24.818  21.649  1.00  0.00     0.226 C 
ATOM     18  H   UNL A   1      33.496  23.125  21.295  1.00  0.00     0.164 HD
ATOM     19  O   UNL A   1      32.953  25.245  20.546  1.00  0.00    -0.275 OA
BRANCH  17  20
ATOM     20  C   UNL A   1      31.962  25.698  22.656  1.00  0.00     0.107 C 
ATOM     21  C   UNL A   1      30.589  25.188  23.040  1.00  0.00     0.116 C 
ATOM     22  C   UNL A   1      32.538  25.983  24.022  1.00  0.00     0.139 C 
ATOM     23  C   UNL A   1      30.210  26.259  24.023  1.00  0.00     0.227 C 
ATOM     24  N   UNL A   1      31.421  26.754  24.573  1.00  0.00    -0.312 N 
ATOM     25  O   UNL A   1      29.052  26.614  24.192  1.00  0.00    -0.274 OA
BRANCH  24  26
ATOM     26  C   UNL A   1      31.546  27.983  25.284  1.00  0.00     0.044 A 
ATOM     27  C   UNL A   1      31.262  29.211  24.661  1.00  0.00     0.029 A 
ATOM     28  C   UNL A   1      32.014  28.026  26.605  1.00  0.00     0.029 A 
ATOM     29  C   UNL A   1      31.468  30.434  25.307  1.00  0.00     0.041 A 
ATOM     30  C   UNL A   1      32.201  29.251  27.261  1.00  0.00     0.041 A 
ATOM     31  C   UNL A   1      31.944  30.443  26.603  1.00  0.00     0.123 A 
ATOM     32  F   UNL A   1      32.150  31.608  27.230  1.00  0.00    -0.207 F 
ENDBRANCH  24  26
ENDBRANCH  17  20
ENDBRANCH  12  16
ENDBRANCH  10  12
ENDBRANCH   6  10
ENDBRANCH   1   5
BRANCH   3  33
ATOM     33  C   UNL A   1      37.856  21.497  25.369  1.00  0.00     0.117 C 
BRANCH  33  34
ATOM     34  C   UNL A   1      39.343  21.398  25.668  1.00  0.00     0.042 C 
BRANCH  34  35
ATOM     35  C   UNL A   1      39.697  20.270  26.624  1.00  0.00     0.118 C 
BRANCH  35  36
ATOM     36  N   UNL A   1      40.706  19.366  26.091  1.00  0.00    -0.352 N 
ATOM     37  C   UNL A   1      42.052  19.573  25.935  1.00  0.00     0.251 C 
ATOM     38  H   UNL A   1      40.377  18.483  25.802  1.00  0.00     0.163 HD
ATOM     39  O   UNL A   1      42.766  18.728  25.412  1.00  0.00    -0.269 OA
BRANCH  37  40
ATOM     40  C   UNL A   1      42.624  20.850  26.389  1.00  0.00     0.039 A 
ATOM     41  C   UNL A   1      43.046  21.783  25.444  1.00  0.00     0.014 A 
ATOM     42  C   UNL A   1      42.676  21.135  27.753  1.00  0.00     0.014 A 
ATOM     43  C   UNL A   1      43.497  23.031  25.863  1.00  0.00     0.010 A 
ATOM     44  C   UNL A   1      43.025  22.413  28.162  1.00  0.00     0.010 A 
ATOM     45  C   UNL A   1      43.450  23.369  27.222  1.00  0.00    -0.014 A 
BRANCH  45  46
ATOM     46  C   UNL A   1      43.878  24.702  27.707  1.00  0.00     0.031 A 
ATOM     47  C   UNL A   1      42.828  25.706  28.085  1.00  0.00     0.074 A 
ATOM     48  C   UNL A   1      45.185  25.029  27.730  1.00  0.00     0.049 A 
ATOM     49  N   UNL A   1      42.949  26.987  28.311  1.00  0.00    -0.248 NA
ATOM     50  C   UNL A   1      41.444  25.207  28.175  1.00  0.00     0.031 C 
ATOM     51  C   UNL A   1      46.291  24.135  27.385  1.00  0.00     0.029 A 
ATOM     52  N   UNL A   1      45.802  26.213  28.049  1.00  0.00    -0.354 N 
ATOM     53  C   UNL A   1      41.658  27.451  28.523  1.00  0.00     0.074 A 
ATOM     54  C   UNL A   1      40.764  26.329  28.354  1.00  0.00     0.031 C 
ATOM     55  C   UNL A   1      47.452  24.793  27.533  1.00  0.00     0.029 A 
ATOM     56  C   UNL A   1      47.170  26.171  27.920  1.00  0.00     0.049 A 
ATOM     57  H   UNL A   1      45.313  27.015  28.341  1.00  0.00     0.167 HD
ATOM     58  C   UNL A   1      41.262  28.703  28.848  1.00  0.00     0.037 A 
ATOM     59  C   UNL A   1      48.087  27.145  28.072  1.00  0.00     0.037 A 
ATOM     60  C   UNL A   1      42.172  29.792  29.076  1.00  0.00     0.049 A 
ATOM     61  C   UNL A   1      47.622  28.528  28.435  1.00  0.00     0.074 A 
ATOM     62  C   UNL A   1      41.884  31.088  29.463  1.00  0.00     0.029 A 
ATOM     63  N   UNL A   1      43.552  29.704  28.954  1.00  0.00    -0.354 N 
ATOM     64  N   UNL A   1      46.400  28.962  28.633  1.00  0.00    -0.248 NA
ATOM     65  C   UNL A   1      48.656  29.560  28.590  1.00  0.00     0.031 C 
ATOM     66  C   UNL A   1      43.086  31.796  29.536  1.00  0.00     0.029 A 
ATOM     67  C   UNL A   1      44.128  30.928  29.246  1.00  0.00     0.049 A 
ATOM     68  H   UNL A   1      44.046  28.893  28.697  1.00  0.00     0.167 HD
ATOM     69  C   UNL A   1      46.518  30.306  28.955  1.00  0.00     0.074 A 
ATOM     70  C   UNL A   1      47.933  30.615  28.939  1.00  0.00     0.031 C 
ATOM     71  C   UNL A   1      45.542  31.203  29.236  1.00  0.00     0.037 A 
BRANCH  58  72
ATOM     72  C   UNL A   1      39.790  28.960  28.989  1.00  0.00     0.064 A 
ATOM     73  C   UNL A   1      39.152  28.766  30.225  1.00  0.00     0.173 A 
ATOM     74  C   UNL A   1      39.000  29.346  27.897  1.00  0.00     0.173 A 
ATOM     75  F   UNL A   1      39.861  28.395  31.302  1.00  0.00    -0.203 F 
ATOM     76  C   UNL A   1      37.777  28.938  30.356  1.00  0.00     0.198 A 
ATOM     77  C   UNL A   1      37.630  29.549  28.039  1.00  0.00     0.198 A 
ATOM     78  F   UNL A   1      39.564  29.561  26.698  1.00  0.00    -0.203 F 
ATOM     79  F   UNL A   1      37.186  28.715  31.538  1.00  0.00    -0.200 F 
ATOM     80  C   UNL A   1      37.018  29.334  29.265  1.00  0.00     0.200 A 
ATOM     81  F   UNL A   1      36.904  29.961  26.991  1.00  0.00    -0.200 F 
ATOM     82  F   UNL A   1      35.696  29.511  29.396  1.00  0.00    -0.200 F 
ENDBRANCH  58  72
BRANCH  59  83
ATOM     83  C   UNL A   1      49.530  26.832  27.898  1.00  0.00     0.064 A 
ATOM     84  C   UNL A   1      50.123  26.776  26.627  1.00  0.00     0.173 A 
ATOM     85  C   UNL A   1      50.338  26.539  29.005  1.00  0.00     0.173 A 
ATOM     86  F   UNL A   1      49.393  27.038  25.533  1.00  0.00    -0.203 F 
ATOM     87  C   UNL A   1      51.460  26.415  26.471  1.00  0.00     0.198 A 
ATOM     88  C   UNL A   1      51.682  26.207  28.849  1.00  0.00     0.198 A 
ATOM     89  F   UNL A   1      49.823  26.598  30.242  1.00  0.00    -0.203 F 
ATOM     90  F   UNL A   1      51.989  26.327  25.242  1.00  0.00    -0.200 F 
ATOM     91  C   UNL A   1      52.240  26.135  27.582  1.00  0.00     0.200 A 
ATOM     92  F   UNL A   1      52.438  25.957  29.928  1.00  0.00    -0.200 F 
ATOM     93  F   UNL A   1      53.527  25.794  27.432  1.00  0.00    -0.200 F 
ENDBRANCH  59  83
BRANCH  71  94
ATOM     94  C   UNL A   1      45.962  32.601  29.580  1.00  0.00     0.064 A 
ATOM     95  C   UNL A   1      46.115  33.563  28.569  1.00  0.00     0.173 A 
ATOM     96  C   UNL A   1      46.311  32.958  30.890  1.00  0.00     0.173 A 
ATOM     97  F   UNL A   1      45.804  33.264  27.299  1.00  0.00    -0.203 F 
ATOM     98  C   UNL A   1      46.624  34.825  28.856  1.00  0.00     0.198 A 
ATOM     99  C   UNL A   1      46.791  34.232  31.177  1.00  0.00     0.198 A 
ATOM    100  F   UNL A   1      46.170  32.076  31.890  1.00  0.00    -0.203 F 
ATOM    101  F   UNL A   1      46.803  35.713  27.868  1.00  0.00    -0.200 F 
ATOM    102  C   UNL A   1      46.960  35.160  30.159  1.00  0.00     0.200 A 
ATOM    103  F   UNL A   1      47.095  34.563  32.440  1.00  0.00    -0.200 F 
ATOM    104  F   UNL A   1      47.447  36.377  30.434  1.00  0.00    -0.200 F 
ENDBRANCH  71  94
ENDBRANCH  45  46
ENDBRANCH  37  40
ENDBRANCH  35  36
ENDBRANCH  34  35
ENDBRANCH  33  34
ENDBRANCH   3  33
TORSDOF 16
ENDMDL
