MODEL 1
REMARK VINA RESULT:     -13.0      0.000      0.000
REMARK SMILES C[N@H+]1C[C@@H](Oc2cccc3cccnc23)C[C@H]1C(=O)NCCCNC(=O)c1ccc(-c2c3nc(c(-c4c(F)c(F)c(F)c(F)c4F)c4ccc([nH]4)c(-c4c(F)c(F)c(F)c(F)c4F)c4nc(c(-c5c(F)c(F)c(F)c(F)c5F)c5ccc2[nH]5)C=C4)C=C3)cc1
REMARK SMILES IDX 22 1 21 2 20 3 18 4 19 5 17 7 1 8 2 9 3 10 4 12 16 13 5 14
REMARK SMILES IDX 6 15 7 16 15 17 8 18 10 19 14 20 9 21 11 22 13 23 12 24
REMARK SMILES IDX 23 25 24 26 25 27 26 29 27 30 28 31 89 32 29 33 88 34 30 35
REMARK SMILES IDX 31 36 32 37 82 38 33 39 87 40 81 41 83 42 34 43 86 44 80 45
REMARK SMILES IDX 79 46 35 48 67 49 47 50 66 51 48 52 51 53 65 54 84 55 49 56
REMARK SMILES IDX 50 57 64 59 85 60 52 61 36 62 37 63 45 64 38 65 39 66 43 67
REMARK SMILES IDX 46 68 40 69 41 70 44 71 42 72 68 73 69 74 77 75 70 76 71 77
REMARK SMILES IDX 75 78 78 79 72 80 73 81 76 82 74 83 53 84 54 85 62 86 55 87
REMARK SMILES IDX 56 88 60 89 63 90 57 91 58 92 61 93 59 94
REMARK H PARENT 20 6 2 11 24 28 83 47 51 58
REMARK Flexibility Score: inf
ROOT
ATOM      1  C   UNL A   1      31.694  31.735  26.525  1.00  0.00     0.042 C 
ENDROOT
BRANCH   1   2
ATOM      2  C   UNL A   1      31.919  30.238  26.385  1.00  0.00     0.118 C 
BRANCH   2   3
ATOM      3  N   UNL A   1      33.001  29.849  25.521  1.00  0.00    -0.351 N 
ATOM      4  C   UNL A   1      33.280  28.633  24.975  1.00  0.00     0.278 C 
ATOM      5  O   UNL A   1      34.008  28.665  23.972  1.00  0.00    -0.268 OA
ATOM      6  H   UNL A   1      33.632  30.567  25.290  1.00  0.00     0.163 HD
BRANCH   4   7
ATOM      7  C   UNL A   1      32.744  27.264  25.472  1.00  0.00     0.278 C 
ATOM      8  C   UNL A   1      30.672  27.435  24.116  1.00  0.00     0.333 C 
ATOM      9  N   UNL A   1      31.702  26.604  24.687  1.00  0.00    -0.324 N 
ATOM     10  C   UNL A   1      32.264  25.514  23.898  1.00  0.00     0.308 C 
ATOM     11  H   UNL A   1      31.072  26.142  25.345  1.00  0.00     0.348 HD
ATOM     12  C   UNL A   1      33.515  25.065  24.691  1.00  0.00     0.234 C 
ATOM     13  C   UNL A   1      33.799  26.191  25.698  1.00  0.00     0.126 C 
BRANCH  12  14
ATOM     14  O   UNL A   1      34.570  24.469  23.912  1.00  0.00    -0.482 OA
BRANCH  14  15
ATOM     15  C   UNL A   1      35.329  23.414  24.356  1.00  0.00     0.146 A 
ATOM     16  C   UNL A   1      36.606  23.624  24.892  1.00  0.00     0.049 A 
ATOM     17  C   UNL A   1      34.742  22.132  24.402  1.00  0.00     0.112 A 
ATOM     18  C   UNL A   1      37.390  22.554  25.313  1.00  0.00     0.005 A 
ATOM     19  C   UNL A   1      35.533  21.065  24.905  1.00  0.00     0.004 A 
ATOM     20  N   UNL A   1      33.475  21.905  23.978  1.00  0.00    -0.252 NA
ATOM     21  C   UNL A   1      36.858  21.273  25.311  1.00  0.00     0.010 A 
ATOM     22  C   UNL A   1      34.968  19.790  25.001  1.00  0.00     0.012 A 
ATOM     23  C   UNL A   1      32.960  20.659  24.105  1.00  0.00     0.112 A 
ATOM     24  C   UNL A   1      33.656  19.582  24.609  1.00  0.00     0.021 A 
ENDBRANCH  14  15
ENDBRANCH  12  14
ENDBRANCH   4   7
ENDBRANCH   2   3
ENDBRANCH   1   2
BRANCH   1  25
ATOM     25  C   UNL A   1      32.840  32.450  27.222  1.00  0.00     0.118 C 
BRANCH  25  26
ATOM     26  N   UNL A   1      32.496  33.812  27.625  1.00  0.00    -0.352 N 
ATOM     27  C   UNL A   1      33.059  34.631  28.570  1.00  0.00     0.251 C 
ATOM     28  H   UNL A   1      31.738  34.207  27.136  1.00  0.00     0.163 HD
ATOM     29  O   UNL A   1      32.557  35.717  28.836  1.00  0.00    -0.269 OA
BRANCH  27  30
ATOM     30  C   UNL A   1      34.283  34.213  29.276  1.00  0.00     0.039 A 
ATOM     31  C   UNL A   1      35.533  34.581  28.764  1.00  0.00     0.014 A 
ATOM     32  C   UNL A   1      34.191  33.409  30.412  1.00  0.00     0.014 A 
ATOM     33  C   UNL A   1      36.697  34.172  29.419  1.00  0.00     0.010 A 
ATOM     34  C   UNL A   1      35.340  33.071  31.106  1.00  0.00     0.010 A 
ATOM     35  C   UNL A   1      36.600  33.425  30.599  1.00  0.00    -0.014 A 
BRANCH  35  36
ATOM     36  C   UNL A   1      37.786  32.876  31.294  1.00  0.00     0.031 A 
ATOM     37  C   UNL A   1      38.508  31.726  30.652  1.00  0.00     0.074 A 
ATOM     38  C   UNL A   1      38.108  33.299  32.526  1.00  0.00     0.049 A 
ATOM     39  N   UNL A   1      39.361  30.884  31.171  1.00  0.00    -0.248 NA
ATOM     40  C   UNL A   1      38.166  31.454  29.246  1.00  0.00     0.031 C 
ATOM     41  C   UNL A   1      37.451  34.389  33.247  1.00  0.00     0.029 A 
ATOM     42  N   UNL A   1      39.044  32.827  33.408  1.00  0.00    -0.354 N 
ATOM     43  C   UNL A   1      39.606  29.947  30.175  1.00  0.00     0.074 A 
ATOM     44  C   UNL A   1      38.791  30.307  29.036  1.00  0.00     0.031 C 
ATOM     45  C   UNL A   1      37.999  34.496  34.468  1.00  0.00     0.029 A 
ATOM     46  C   UNL A   1      39.011  33.456  34.627  1.00  0.00     0.049 A 
ATOM     47  H   UNL A   1      39.680  32.108  33.188  1.00  0.00     0.167 HD
ATOM     48  C   UNL A   1      40.444  28.883  30.215  1.00  0.00     0.037 A 
ATOM     49  C   UNL A   1      39.704  33.195  35.751  1.00  0.00     0.037 A 
ATOM     50  C   UNL A   1      41.287  28.580  31.340  1.00  0.00     0.049 A 
ATOM     51  C   UNL A   1      40.687  32.056  35.749  1.00  0.00     0.074 A 
ATOM     52  C   UNL A   1      42.227  27.576  31.474  1.00  0.00     0.029 A 
ATOM     53  N   UNL A   1      41.295  29.302  32.526  1.00  0.00    -0.354 N 
ATOM     54  N   UNL A   1      40.932  31.182  34.803  1.00  0.00    -0.248 NA
ATOM     55  C   UNL A   1      41.488  31.871  36.963  1.00  0.00     0.031 C 
ATOM     56  C   UNL A   1      42.790  27.678  32.751  1.00  0.00     0.029 A 
ATOM     57  C   UNL A   1      42.226  28.767  33.399  1.00  0.00     0.049 A 
ATOM     58  H   UNL A   1      40.723  30.081  32.718  1.00  0.00     0.167 HD
ATOM     59  C   UNL A   1      41.926  30.351  35.298  1.00  0.00     0.074 A 
ATOM     60  C   UNL A   1      42.248  30.837  36.626  1.00  0.00     0.031 C 
ATOM     61  C   UNL A   1      42.521  29.282  34.713  1.00  0.00     0.037 A 
BRANCH  48  62
ATOM     62  C   UNL A   1      40.466  27.982  29.015  1.00  0.00     0.064 A 
ATOM     63  C   UNL A   1      41.249  28.268  27.885  1.00  0.00     0.173 A 
ATOM     64  C   UNL A   1      39.672  26.824  28.981  1.00  0.00     0.173 A 
ATOM     65  F   UNL A   1      42.012  29.371  27.857  1.00  0.00    -0.203 F 
ATOM     66  C   UNL A   1      41.199  27.460  26.753  1.00  0.00     0.198 A 
ATOM     67  C   UNL A   1      39.651  26.000  27.859  1.00  0.00     0.198 A 
ATOM     68  F   UNL A   1      38.905  26.500  30.033  1.00  0.00    -0.203 F 
ATOM     69  F   UNL A   1      41.899  27.798  25.660  1.00  0.00    -0.200 F 
ATOM     70  C   UNL A   1      40.403  26.325  26.742  1.00  0.00     0.200 A 
ATOM     71  F   UNL A   1      38.888  24.898  27.854  1.00  0.00    -0.200 F 
ATOM     72  F   UNL A   1      40.351  25.553  25.647  1.00  0.00    -0.200 F 
ENDBRANCH  48  62
BRANCH  49  73
ATOM     73  C   UNL A   1      39.502  34.049  36.948  1.00  0.00     0.064 A 
ATOM     74  C   UNL A   1      38.692  33.613  38.006  1.00  0.00     0.173 A 
ATOM     75  C   UNL A   1      40.152  35.283  37.088  1.00  0.00     0.173 A 
ATOM     76  F   UNL A   1      38.038  32.447  37.910  1.00  0.00    -0.203 F 
ATOM     77  C   UNL A   1      38.538  34.383  39.157  1.00  0.00     0.198 A 
ATOM     78  C   UNL A   1      40.013  36.042  38.248  1.00  0.00     0.198 A 
ATOM     79  F   UNL A   1      40.945  35.739  36.107  1.00  0.00    -0.203 F 
ATOM     80  F   UNL A   1      37.741  33.951  40.145  1.00  0.00    -0.200 F 
ATOM     81  C   UNL A   1      39.205  35.592  39.282  1.00  0.00     0.200 A 
ATOM     82  F   UNL A   1      40.673  37.202  38.372  1.00  0.00    -0.200 F 
ATOM     83  F   UNL A   1      39.070  36.322  40.397  1.00  0.00    -0.200 F 
ENDBRANCH  49  73
BRANCH  61  84
ATOM     84  C   UNL A   1      43.592  28.588  35.497  1.00  0.00     0.064 A 
ATOM     85  C   UNL A   1      44.942  28.938  35.358  1.00  0.00     0.173 A 
ATOM     86  C   UNL A   1      43.256  27.598  36.432  1.00  0.00     0.173 A 
ATOM     87  F   UNL A   1      45.309  29.870  34.466  1.00  0.00    -0.203 F 
ATOM     88  C   UNL A   1      45.923  28.306  36.117  1.00  0.00     0.198 A 
ATOM     89  C   UNL A   1      44.237  26.985  37.205  1.00  0.00     0.198 A 
ATOM     90  F   UNL A   1      41.975  27.235  36.603  1.00  0.00    -0.203 F 
ATOM     91  F   UNL A   1      47.212  28.630  35.945  1.00  0.00    -0.200 F 
ATOM     92  C   UNL A   1      45.569  27.337  37.044  1.00  0.00     0.200 A 
ATOM     93  F   UNL A   1      43.893  26.055  38.107  1.00  0.00    -0.200 F 
ATOM     94  F   UNL A   1      46.515  26.734  37.778  1.00  0.00    -0.200 F 
ENDBRANCH  61  84
ENDBRANCH  35  36
ENDBRANCH  27  30
ENDBRANCH  25  26
ENDBRANCH   1  25
TORSDOF 12
ENDMDL
MODEL 2
REMARK VINA RESULT:     -13.0      0.800      1.752
REMARK SMILES C[N@H+]1C[C@@H](Oc2cccc3cccnc23)C[C@H]1C(=O)NCCCNC(=O)c1ccc(-c2c3nc(c(-c4c(F)c(F)c(F)c(F)c4F)c4ccc([nH]4)c(-c4c(F)c(F)c(F)c(F)c4F)c4nc(c(-c5c(F)c(F)c(F)c(F)c5F)c5ccc2[nH]5)C=C4)C=C3)cc1
REMARK SMILES IDX 22 1 21 2 20 3 18 4 19 5 17 7 1 8 2 9 3 10 4 12 16 13 5 14
REMARK SMILES IDX 6 15 7 16 15 17 8 18 10 19 14 20 9 21 11 22 13 23 12 24
REMARK SMILES IDX 23 25 24 26 25 27 26 29 27 30 28 31 89 32 29 33 88 34 30 35
REMARK SMILES IDX 31 36 32 37 82 38 33 39 87 40 81 41 83 42 34 43 86 44 80 45
REMARK SMILES IDX 79 46 35 48 67 49 47 50 66 51 48 52 51 53 65 54 84 55 49 56
REMARK SMILES IDX 50 57 64 59 85 60 52 61 36 62 37 63 45 64 38 65 39 66 43 67
REMARK SMILES IDX 46 68 40 69 41 70 44 71 42 72 68 73 69 74 77 75 70 76 71 77
REMARK SMILES IDX 75 78 78 79 72 80 73 81 76 82 74 83 53 84 54 85 62 86 55 87
REMARK SMILES IDX 56 88 60 89 63 90 57 91 58 92 61 93 59 94
REMARK H PARENT 20 6 2 11 24 28 83 47 51 58
REMARK Flexibility Score: inf
ROOT
ATOM      1  C   UNL A   1      31.490  31.793  26.680  1.00  0.00     0.042 C 
ENDROOT
BRANCH   1   2
ATOM      2  C   UNL A   1      31.873  30.508  25.964  1.00  0.00     0.118 C 
BRANCH   2   3
ATOM      3  N   UNL A   1      32.898  29.723  26.598  1.00  0.00    -0.351 N 
ATOM      4  C   UNL A   1      33.312  28.454  26.327  1.00  0.00     0.278 C 
ATOM      5  O   UNL A   1      34.449  28.176  26.733  1.00  0.00    -0.268 OA
ATOM      6  H   UNL A   1      33.372  30.169  27.336  1.00  0.00     0.163 HD
BRANCH   4   7
ATOM      7  C   UNL A   1      32.510  27.381  25.543  1.00  0.00     0.278 C 
ATOM      8  C   UNL A   1      33.664  27.890  23.406  1.00  0.00     0.333 C 
ATOM      9  N   UNL A   1      33.047  26.912  24.267  1.00  0.00    -0.324 N 
ATOM     10  C   UNL A   1      33.662  25.598  24.417  1.00  0.00     0.308 C 
ATOM     11  H   UNL A   1      32.254  26.752  23.644  1.00  0.00     0.348 HD
ATOM     12  C   UNL A   1      32.924  24.959  25.617  1.00  0.00     0.234 C 
ATOM     13  C   UNL A   1      32.185  26.111  26.317  1.00  0.00     0.126 C 
BRANCH  12  14
ATOM     14  O   UNL A   1      33.672  23.982  26.365  1.00  0.00    -0.482 OA
BRANCH  14  15
ATOM     15  C   UNL A   1      33.966  22.730  25.883  1.00  0.00     0.146 A 
ATOM     16  C   UNL A   1      32.950  21.871  25.448  1.00  0.00     0.049 A 
ATOM     17  C   UNL A   1      35.320  22.379  25.693  1.00  0.00     0.112 A 
ATOM     18  C   UNL A   1      33.242  20.589  24.990  1.00  0.00     0.005 A 
ATOM     19  C   UNL A   1      35.597  21.096  25.154  1.00  0.00     0.004 A 
ATOM     20  N   UNL A   1      36.332  23.220  26.016  1.00  0.00    -0.252 NA
ATOM     21  C   UNL A   1      34.566  20.197  24.851  1.00  0.00     0.010 A 
ATOM     22  C   UNL A   1      36.927  20.733  24.917  1.00  0.00     0.012 A 
ATOM     23  C   UNL A   1      37.605  22.838  25.753  1.00  0.00     0.112 A 
ATOM     24  C   UNL A   1      37.950  21.621  25.206  1.00  0.00     0.021 A 
ENDBRANCH  14  15
ENDBRANCH  12  14
ENDBRANCH   4   7
ENDBRANCH   2   3
ENDBRANCH   1   2
BRANCH   1  25
ATOM     25  C   UNL A   1      32.678  32.510  27.300  1.00  0.00     0.118 C 
BRANCH  25  26
ATOM     26  N   UNL A   1      32.375  33.890  27.673  1.00  0.00    -0.352 N 
ATOM     27  C   UNL A   1      32.981  34.721  28.579  1.00  0.00     0.251 C 
ATOM     28  H   UNL A   1      31.612  34.288  27.194  1.00  0.00     0.163 HD
ATOM     29  O   UNL A   1      32.509  35.825  28.828  1.00  0.00    -0.269 OA
BRANCH  27  30
ATOM     30  C   UNL A   1      34.215  34.296  29.263  1.00  0.00     0.039 A 
ATOM     31  C   UNL A   1      35.458  34.600  28.694  1.00  0.00     0.014 A 
ATOM     32  C   UNL A   1      34.137  33.548  30.437  1.00  0.00     0.014 A 
ATOM     33  C   UNL A   1      36.629  34.183  29.328  1.00  0.00     0.010 A 
ATOM     34  C   UNL A   1      35.298  33.205  31.108  1.00  0.00     0.010 A 
ATOM     35  C   UNL A   1      36.551  33.494  30.545  1.00  0.00    -0.014 A 
BRANCH  35  36
ATOM     36  C   UNL A   1      37.742  32.939  31.224  1.00  0.00     0.031 A 
ATOM     37  C   UNL A   1      38.438  31.773  30.584  1.00  0.00     0.074 A 
ATOM     38  C   UNL A   1      38.091  33.373  32.446  1.00  0.00     0.049 A 
ATOM     39  N   UNL A   1      39.290  30.927  31.097  1.00  0.00    -0.248 NA
ATOM     40  C   UNL A   1      38.068  31.488  29.187  1.00  0.00     0.031 C 
ATOM     41  C   UNL A   1      37.460  34.479  33.164  1.00  0.00     0.029 A 
ATOM     42  N   UNL A   1      39.037  32.900  33.316  1.00  0.00    -0.354 N 
ATOM     43  C   UNL A   1      39.506  29.974  30.109  1.00  0.00     0.074 A 
ATOM     44  C   UNL A   1      38.675  30.331  28.980  1.00  0.00     0.031 C 
ATOM     45  C   UNL A   1      38.031  34.594  34.375  1.00  0.00     0.029 A 
ATOM     46  C   UNL A   1      39.033  33.543  34.528  1.00  0.00     0.049 A 
ATOM     47  H   UNL A   1      39.660  32.170  33.094  1.00  0.00     0.167 HD
ATOM     48  C   UNL A   1      40.331  28.902  30.147  1.00  0.00     0.037 A 
ATOM     49  C   UNL A   1      39.743  33.287  35.642  1.00  0.00     0.037 A 
ATOM     50  C   UNL A   1      41.191  28.601  31.260  1.00  0.00     0.049 A 
ATOM     51  C   UNL A   1      40.712  32.136  35.636  1.00  0.00     0.074 A 
ATOM     52  C   UNL A   1      42.121  27.587  31.389  1.00  0.00     0.029 A 
ATOM     53  N   UNL A   1      41.229  29.337  32.437  1.00  0.00    -0.354 N 
ATOM     54  N   UNL A   1      40.930  31.248  34.697  1.00  0.00    -0.248 NA
ATOM     55  C   UNL A   1      41.532  31.955  36.839  1.00  0.00     0.031 C 
ATOM     56  C   UNL A   1      42.708  27.698  32.655  1.00  0.00     0.029 A 
ATOM     57  C   UNL A   1      42.169  28.801  33.300  1.00  0.00     0.049 A 
ATOM     58  H   UNL A   1      40.670  30.125  32.629  1.00  0.00     0.167 HD
ATOM     59  C   UNL A   1      41.923  30.411  35.184  1.00  0.00     0.074 A 
ATOM     60  C   UNL A   1      42.274  30.909  36.500  1.00  0.00     0.031 C 
ATOM     61  C   UNL A   1      42.493  29.328  34.602  1.00  0.00     0.037 A 
BRANCH  48  62
ATOM     62  C   UNL A   1      40.322  27.986  28.957  1.00  0.00     0.064 A 
ATOM     63  C   UNL A   1      39.593  26.786  28.950  1.00  0.00     0.173 A 
ATOM     64  C   UNL A   1      41.075  28.298  27.814  1.00  0.00     0.173 A 
ATOM     65  F   UNL A   1      38.871  26.429  30.023  1.00  0.00    -0.203 F 
ATOM     66  C   UNL A   1      39.656  25.913  27.867  1.00  0.00     0.198 A 
ATOM     67  C   UNL A   1      41.108  27.438  26.719  1.00  0.00     0.198 A 
ATOM     68  F   UNL A   1      41.790  29.432  27.765  1.00  0.00    -0.203 F 
ATOM     69  F   UNL A   1      39.009  24.740  27.916  1.00  0.00    -0.200 F 
ATOM     70  C   UNL A   1      40.410  26.242  26.751  1.00  0.00     0.200 A 
ATOM     71  F   UNL A   1      41.831  27.762  25.637  1.00  0.00    -0.200 F 
ATOM     72  F   UNL A   1      40.476  25.396  25.713  1.00  0.00    -0.200 F 
ENDBRANCH  48  62
BRANCH  49  73
ATOM     73  C   UNL A   1      39.573  34.157  36.833  1.00  0.00     0.064 A 
ATOM     74  C   UNL A   1      38.783  33.741  37.913  1.00  0.00     0.173 A 
ATOM     75  C   UNL A   1      40.234  35.388  36.943  1.00  0.00     0.173 A 
ATOM     76  F   UNL A   1      38.120  32.577  37.847  1.00  0.00    -0.203 F 
ATOM     77  C   UNL A   1      38.659  34.526  39.058  1.00  0.00     0.198 A 
ATOM     78  C   UNL A   1      40.125  36.163  38.096  1.00  0.00     0.198 A 
ATOM     79  F   UNL A   1      41.008  35.826  35.939  1.00  0.00    -0.203 F 
ATOM     80  F   UNL A   1      37.882  34.112  40.069  1.00  0.00    -0.200 F 
ATOM     81  C   UNL A   1      39.337  35.731  39.152  1.00  0.00     0.200 A 
ATOM     82  F   UNL A   1      40.795  37.320  38.190  1.00  0.00    -0.200 F 
ATOM     83  F   UNL A   1      39.231  36.476  40.261  1.00  0.00    -0.200 F 
ENDBRANCH  49  73
BRANCH  61  84
ATOM     84  C   UNL A   1      43.570  28.629  35.374  1.00  0.00     0.064 A 
ATOM     85  C   UNL A   1      44.923  28.947  35.192  1.00  0.00     0.173 A 
ATOM     86  C   UNL A   1      43.238  27.670  36.342  1.00  0.00     0.173 A 
ATOM     87  F   UNL A   1      45.286  29.850  34.269  1.00  0.00    -0.203 F 
ATOM     88  C   UNL A   1      45.910  28.313  35.942  1.00  0.00     0.198 A 
ATOM     89  C   UNL A   1      44.225  27.055  37.104  1.00  0.00     0.198 A 
ATOM     90  F   UNL A   1      41.955  27.339  36.555  1.00  0.00    -0.203 F 
ATOM     91  F   UNL A   1      47.201  28.604  35.729  1.00  0.00    -0.200 F 
ATOM     92  C   UNL A   1      45.560  27.374  36.901  1.00  0.00     0.200 A 
ATOM     93  F   UNL A   1      43.887  26.155  38.037  1.00  0.00    -0.200 F 
ATOM     94  F   UNL A   1      46.512  26.769  37.625  1.00  0.00    -0.200 F 
ENDBRANCH  61  84
ENDBRANCH  35  36
ENDBRANCH  27  30
ENDBRANCH  25  26
ENDBRANCH   1  25
TORSDOF 12
ENDMDL
MODEL 3
REMARK VINA RESULT:     -13.0      4.568     10.540
REMARK SMILES C[N@H+]1C[C@@H](Oc2cccc3cccnc23)C[C@H]1C(=O)NCCCNC(=O)c1ccc(-c2c3nc(c(-c4c(F)c(F)c(F)c(F)c4F)c4ccc([nH]4)c(-c4c(F)c(F)c(F)c(F)c4F)c4nc(c(-c5c(F)c(F)c(F)c(F)c5F)c5ccc2[nH]5)C=C4)C=C3)cc1
REMARK SMILES IDX 22 1 21 2 20 3 18 4 19 5 17 7 1 8 2 9 3 10 4 12 16 13 5 14
REMARK SMILES IDX 6 15 7 16 15 17 8 18 10 19 14 20 9 21 11 22 13 23 12 24
REMARK SMILES IDX 23 25 24 26 25 27 26 29 27 30 28 31 89 32 29 33 88 34 30 35
REMARK SMILES IDX 31 36 32 37 82 38 33 39 87 40 81 41 83 42 34 43 86 44 80 45
REMARK SMILES IDX 79 46 35 48 67 49 47 50 66 51 48 52 51 53 65 54 84 55 49 56
REMARK SMILES IDX 50 57 64 59 85 60 52 61 36 62 37 63 45 64 38 65 39 66 43 67
REMARK SMILES IDX 46 68 40 69 41 70 44 71 42 72 68 73 69 74 77 75 70 76 71 77
REMARK SMILES IDX 75 78 78 79 72 80 73 81 76 82 74 83 53 84 54 85 62 86 55 87
REMARK SMILES IDX 56 88 60 89 63 90 57 91 58 92 61 93 59 94
REMARK H PARENT 20 6 2 11 24 28 83 47 51 58
REMARK Flexibility Score: inf
ROOT
ATOM      1  C   UNL A   1      34.198  34.385  28.139  1.00  0.00     0.042 C 
ENDROOT
BRANCH   1   2
ATOM      2  C   UNL A   1      33.952  34.709  29.603  1.00  0.00     0.118 C 
BRANCH   2   3
ATOM      3  N   UNL A   1      33.949  33.584  30.499  1.00  0.00    -0.351 N 
ATOM      4  C   UNL A   1      34.642  33.393  31.655  1.00  0.00     0.278 C 
ATOM      5  O   UNL A   1      34.161  32.544  32.419  1.00  0.00    -0.268 OA
ATOM      6  H   UNL A   1      33.358  32.841  30.237  1.00  0.00     0.163 HD
BRANCH   4   7
ATOM      7  C   UNL A   1      35.920  34.159  32.090  1.00  0.00     0.278 C 
ATOM      8  C   UNL A   1      34.659  35.668  33.605  1.00  0.00     0.333 C 
ATOM      9  N   UNL A   1      35.871  34.940  33.325  1.00  0.00    -0.324 N 
ATOM     10  C   UNL A   1      36.551  34.235  34.407  1.00  0.00     0.308 C 
ATOM     11  H   UNL A   1      36.433  35.779  33.177  1.00  0.00     0.348 HD
ATOM     12  C   UNL A   1      37.593  33.341  33.694  1.00  0.00     0.234 C 
ATOM     13  C   UNL A   1      37.179  33.314  32.213  1.00  0.00     0.126 C 
BRANCH  12  14
ATOM     14  O   UNL A   1      37.969  32.139  34.391  1.00  0.00    -0.482 OA
BRANCH  14  15
ATOM     15  C   UNL A   1      39.117  31.437  34.115  1.00  0.00     0.146 A 
ATOM     16  C   UNL A   1      40.366  31.908  34.540  1.00  0.00     0.049 A 
ATOM     17  C   UNL A   1      39.004  30.159  33.529  1.00  0.00     0.112 A 
ATOM     18  C   UNL A   1      41.534  31.215  34.235  1.00  0.00     0.005 A 
ATOM     19  C   UNL A   1      40.202  29.435  33.293  1.00  0.00     0.004 A 
ATOM     20  N   UNL A   1      37.804  29.628  33.187  1.00  0.00    -0.252 NA
ATOM     21  C   UNL A   1      41.453  29.983  33.602  1.00  0.00     0.010 A 
ATOM     22  C   UNL A   1      40.122  28.149  32.749  1.00  0.00     0.012 A 
ATOM     23  C   UNL A   1      37.768  28.373  32.680  1.00  0.00     0.112 A 
ATOM     24  C   UNL A   1      38.886  27.600  32.449  1.00  0.00     0.021 A 
ENDBRANCH  14  15
ENDBRANCH  12  14
ENDBRANCH   4   7
ENDBRANCH   2   3
ENDBRANCH   1   2
BRANCH   1  25
ATOM     25  C   UNL A   1      35.000  33.111  27.934  1.00  0.00     0.118 C 
BRANCH  25  26
ATOM     26  N   UNL A   1      34.155  31.936  27.727  1.00  0.00    -0.352 N 
ATOM     27  C   UNL A   1      34.472  30.602  27.710  1.00  0.00     0.251 C 
ATOM     28  H   UNL A   1      33.203  32.136  27.575  1.00  0.00     0.163 HD
ATOM     29  O   UNL A   1      33.630  29.763  27.413  1.00  0.00    -0.269 OA
BRANCH  27  30
ATOM     30  C   UNL A   1      35.834  30.162  28.056  1.00  0.00     0.039 A 
ATOM     31  C   UNL A   1      36.110  29.735  29.361  1.00  0.00     0.014 A 
ATOM     32  C   UNL A   1      36.850  30.226  27.102  1.00  0.00     0.014 A 
ATOM     33  C   UNL A   1      37.404  29.334  29.699  1.00  0.00     0.010 A 
ATOM     34  C   UNL A   1      38.113  29.752  27.414  1.00  0.00     0.010 A 
ATOM     35  C   UNL A   1      38.406  29.331  28.721  1.00  0.00    -0.014 A 
BRANCH  35  36
ATOM     36  C   UNL A   1      39.818  29.012  29.027  1.00  0.00     0.031 A 
ATOM     37  C   UNL A   1      40.668  30.092  29.631  1.00  0.00     0.074 A 
ATOM     38  C   UNL A   1      40.350  27.843  28.637  1.00  0.00     0.049 A 
ATOM     39  N   UNL A   1      41.969  30.179  29.715  1.00  0.00    -0.248 NA
ATOM     40  C   UNL A   1      39.948  31.264  30.155  1.00  0.00     0.031 C 
ATOM     41  C   UNL A   1      39.615  26.743  28.016  1.00  0.00     0.029 A 
ATOM     42  N   UNL A   1      41.649  27.409  28.665  1.00  0.00    -0.354 N 
ATOM     43  C   UNL A   1      42.222  31.441  30.240  1.00  0.00     0.074 A 
ATOM     44  C   UNL A   1      40.943  32.092  30.426  1.00  0.00     0.031 C 
ATOM     45  C   UNL A   1      40.478  25.759  27.711  1.00  0.00     0.029 A 
ATOM     46  C   UNL A   1      41.827  26.182  28.076  1.00  0.00     0.049 A 
ATOM     47  H   UNL A   1      42.384  27.925  29.070  1.00  0.00     0.167 HD
ATOM     48  C   UNL A   1      43.418  31.998  30.540  1.00  0.00     0.037 A 
ATOM     49  C   UNL A   1      42.960  25.497  27.836  1.00  0.00     0.037 A 
ATOM     50  C   UNL A   1      44.672  31.308  30.399  1.00  0.00     0.049 A 
ATOM     51  C   UNL A   1      44.274  26.102  28.249  1.00  0.00     0.074 A 
ATOM     52  C   UNL A   1      45.942  31.737  30.736  1.00  0.00     0.029 A 
ATOM     53  N   UNL A   1      44.802  30.023  29.888  1.00  0.00    -0.354 N 
ATOM     54  N   UNL A   1      44.512  27.286  28.761  1.00  0.00    -0.248 NA
ATOM     55  C   UNL A   1      45.472  25.278  28.056  1.00  0.00     0.031 C 
ATOM     56  C   UNL A   1      46.844  30.718  30.408  1.00  0.00     0.029 A 
ATOM     57  C   UNL A   1      46.133  29.642  29.900  1.00  0.00     0.049 A 
ATOM     58  H   UNL A   1      44.058  29.466  29.564  1.00  0.00     0.167 HD
ATOM     59  C   UNL A   1      45.882  27.345  28.967  1.00  0.00     0.074 A 
ATOM     60  C   UNL A   1      46.421  26.070  28.536  1.00  0.00     0.031 C 
ATOM     61  C   UNL A   1      46.630  28.360  29.465  1.00  0.00     0.037 A 
BRANCH  48  62
ATOM     62  C   UNL A   1      43.411  33.416  31.033  1.00  0.00     0.064 A 
ATOM     63  C   UNL A   1      43.202  34.502  30.169  1.00  0.00     0.173 A 
ATOM     64  C   UNL A   1      43.644  33.698  32.389  1.00  0.00     0.173 A 
ATOM     65  F   UNL A   1      42.994  34.291  28.860  1.00  0.00    -0.203 F 
ATOM     66  C   UNL A   1      43.274  35.813  30.631  1.00  0.00     0.198 A 
ATOM     67  C   UNL A   1      43.682  35.010  32.854  1.00  0.00     0.198 A 
ATOM     68  F   UNL A   1      43.849  32.699  33.262  1.00  0.00    -0.203 F 
ATOM     69  F   UNL A   1      43.144  36.833  29.771  1.00  0.00    -0.200 F 
ATOM     70  C   UNL A   1      43.510  36.066  31.974  1.00  0.00     0.200 A 
ATOM     71  F   UNL A   1      43.901  35.252  34.154  1.00  0.00    -0.200 F 
ATOM     72  F   UNL A   1      43.586  37.329  32.415  1.00  0.00    -0.200 F 
ENDBRANCH  48  62
BRANCH  49  73
ATOM     73  C   UNL A   1      42.883  24.159  27.198  1.00  0.00     0.064 A 
ATOM     74  C   UNL A   1      43.201  23.997  25.843  1.00  0.00     0.173 A 
ATOM     75  C   UNL A   1      42.549  23.013  27.933  1.00  0.00     0.173 A 
ATOM     76  F   UNL A   1      43.512  25.066  25.096  1.00  0.00    -0.203 F 
ATOM     77  C   UNL A   1      43.184  22.737  25.246  1.00  0.00     0.198 A 
ATOM     78  C   UNL A   1      42.552  21.752  27.340  1.00  0.00     0.198 A 
ATOM     79  F   UNL A   1      42.245  23.116  29.235  1.00  0.00    -0.203 F 
ATOM     80  F   UNL A   1      43.473  22.613  23.943  1.00  0.00    -0.200 F 
ATOM     81  C   UNL A   1      42.868  21.616  25.997  1.00  0.00     0.200 A 
ATOM     82  F   UNL A   1      42.262  20.668  28.073  1.00  0.00    -0.200 F 
ATOM     83  F   UNL A   1      42.870  20.403  25.426  1.00  0.00    -0.200 F 
ENDBRANCH  49  73
BRANCH  61  84
ATOM     84  C   UNL A   1      48.103  28.119  29.591  1.00  0.00     0.064 A 
ATOM     85  C   UNL A   1      48.988  28.440  28.553  1.00  0.00     0.173 A 
ATOM     86  C   UNL A   1      48.637  27.610  30.784  1.00  0.00     0.173 A 
ATOM     87  F   UNL A   1      48.519  28.917  27.390  1.00  0.00    -0.203 F 
ATOM     88  C   UNL A   1      50.358  28.240  28.698  1.00  0.00     0.198 A 
ATOM     89  C   UNL A   1      50.009  27.433  30.933  1.00  0.00     0.198 A 
ATOM     90  F   UNL A   1      47.828  27.295  31.808  1.00  0.00    -0.203 F 
ATOM     91  F   UNL A   1      51.185  28.519  27.680  1.00  0.00    -0.200 F 
ATOM     92  C   UNL A   1      50.867  27.745  29.889  1.00  0.00     0.200 A 
ATOM     93  F   UNL A   1      50.501  26.963  32.088  1.00  0.00    -0.200 F 
ATOM     94  F   UNL A   1      52.187  27.559  30.028  1.00  0.00    -0.200 F 
ENDBRANCH  61  84
ENDBRANCH  35  36
ENDBRANCH  27  30
ENDBRANCH  25  26
ENDBRANCH   1  25
TORSDOF 12
ENDMDL
