MODEL 1
REMARK VINA RESULT:     -11.5      0.000      0.000
REMARK SMILES CN1C(=O)Cc2cc([C@@H](O)CCCCC(=O)NCCCNC(=O)c3ccc(-c4c5nc(c(-c6c(F)c(F)c(F)c(F)c6F)c6ccc([nH]6)c(-c6c(F)c(F)c(F)c(F)c6F)c6nc(c(-c7c(F)c(F)c(F)c(F)c7F)c7ccc4[nH]7)C=C6)C=C5)cc3)ccc21
REMARK SMILES IDX 15 1 16 2 17 3 14 5 13 6 12 7 11 8 9 9 8 10 1 11 2 12 3 13
REMARK SMILES IDX 89 14 4 15 5 16 6 17 88 18 7 19 87 20 10 21 18 23 19 24
REMARK SMILES IDX 20 25 21 26 22 27 23 29 24 30 25 31 86 32 26 33 85 34 27 35
REMARK SMILES IDX 28 36 29 37 79 38 30 39 84 40 78 41 80 42 31 43 83 44 77 45
REMARK SMILES IDX 76 46 32 48 64 49 44 50 63 51 45 52 48 53 62 54 81 55 46 56
REMARK SMILES IDX 47 57 61 59 82 60 49 61 33 62 34 63 42 64 35 65 36 66 40 67
REMARK SMILES IDX 43 68 37 69 38 70 41 71 39 72 65 73 66 74 74 75 67 76 68 77
REMARK SMILES IDX 72 78 75 79 69 80 70 81 73 82 71 83 50 84 51 85 59 86 52 87
REMARK SMILES IDX 53 88 57 89 60 90 54 91 55 92 58 93 56 94
REMARK H PARENT 17 4 10 22 21 28 80 47 48 58
REMARK Flexibility Score: inf
ROOT
ATOM      1  C   UNL A   1      34.024  29.324  27.237  1.00  0.00     0.219 C 
ATOM      2  O   UNL A   1      35.008  29.258  27.975  1.00  0.00    -0.275 OA
ATOM      3  N   UNL A   1      33.094  30.283  27.499  1.00  0.00    -0.356 N 
ATOM      4  H   UNL A   1      33.333  30.899  28.228  1.00  0.00     0.163 HD
ENDROOT
BRANCH   1   5
ATOM      5  C   UNL A   1      33.874  28.382  26.057  1.00  0.00     0.100 C 
BRANCH   5   6
ATOM      6  C   UNL A   1      33.129  27.083  26.370  1.00  0.00     0.010 C 
BRANCH   6   7
ATOM      7  C   UNL A   1      33.725  25.805  25.786  1.00  0.00     0.004 C 
BRANCH   7   8
ATOM      8  C   UNL A   1      34.150  25.880  24.312  1.00  0.00     0.037 C 
BRANCH   8   9
ATOM      9  C   UNL A   1      33.058  25.493  23.313  1.00  0.00     0.144 C 
BRANCH   9  10
ATOM     10  C   UNL A   1      31.959  26.532  23.274  1.00  0.00    -0.019 A 
ATOM     11  C   UNL A   1      28.660  30.414  22.205  1.00  0.00     0.153 C 
ATOM     12  N   UNL A   1      28.736  29.093  22.767  1.00  0.00    -0.315 N 
ATOM     13  C   UNL A   1      27.644  28.365  23.247  1.00  0.00     0.231 C 
ATOM     14  C   UNL A   1      29.922  28.366  22.886  1.00  0.00     0.047 A 
ATOM     15  O   UNL A   1      26.474  28.709  23.270  1.00  0.00    -0.274 OA
ATOM     16  C   UNL A   1      28.180  27.016  23.741  1.00  0.00     0.138 C 
ATOM     17  C   UNL A   1      29.648  27.131  23.469  1.00  0.00    -0.014 A 
ATOM     18  C   UNL A   1      31.199  28.724  22.500  1.00  0.00     0.027 A 
ATOM     19  C   UNL A   1      30.653  26.207  23.683  1.00  0.00     0.012 A 
ATOM     20  C   UNL A   1      32.222  27.796  22.700  1.00  0.00     0.008 A 
ENDBRANCH   9  10
BRANCH   9  21
ATOM     21  O   UNL A   1      33.658  25.375  22.023  1.00  0.00    -0.388 OA
ATOM     22  H   UNL A   1      34.046  26.226  21.768  1.00  0.00     0.211 HD
ENDBRANCH   9  21
ENDBRANCH   8   9
ENDBRANCH   7   8
ENDBRANCH   6   7
ENDBRANCH   5   6
ENDBRANCH   1   5
BRANCH   3  23
ATOM     23  C   UNL A   1      31.808  30.544  26.880  1.00  0.00     0.117 C 
BRANCH  23  24
ATOM     24  C   UNL A   1      31.491  32.037  26.881  1.00  0.00     0.042 C 
BRANCH  24  25
ATOM     25  C   UNL A   1      32.719  32.926  26.835  1.00  0.00     0.118 C 
BRANCH  25  26
ATOM     26  N   UNL A   1      32.530  34.169  27.562  1.00  0.00    -0.352 N 
ATOM     27  C   UNL A   1      33.135  34.620  28.709  1.00  0.00     0.251 C 
ATOM     28  H   UNL A   1      31.867  34.783  27.172  1.00  0.00     0.163 HD
ATOM     29  O   UNL A   1      32.692  35.620  29.269  1.00  0.00    -0.269 OA
BRANCH  27  30
ATOM     30  C   UNL A   1      34.295  33.906  29.292  1.00  0.00     0.039 A 
ATOM     31  C   UNL A   1      35.580  34.394  29.038  1.00  0.00     0.014 A 
ATOM     32  C   UNL A   1      34.136  32.749  30.058  1.00  0.00     0.014 A 
ATOM     33  C   UNL A   1      36.691  33.751  29.588  1.00  0.00     0.010 A 
ATOM     34  C   UNL A   1      35.232  32.177  30.696  1.00  0.00     0.010 A 
ATOM     35  C   UNL A   1      36.525  32.655  30.447  1.00  0.00    -0.014 A 
BRANCH  35  36
ATOM     36  C   UNL A   1      37.692  31.974  31.066  1.00  0.00     0.031 A 
ATOM     37  C   UNL A   1      38.153  32.367  32.443  1.00  0.00     0.074 A 
ATOM     38  C   UNL A   1      38.372  31.047  30.366  1.00  0.00     0.049 A 
ATOM     39  N   UNL A   1      39.176  31.931  33.133  1.00  0.00    -0.248 NA
ATOM     40  C   UNL A   1      37.382  33.421  33.121  1.00  0.00     0.031 C 
ATOM     41  C   UNL A   1      38.062  30.626  28.999  1.00  0.00     0.029 A 
ATOM     42  N   UNL A   1      39.473  30.300  30.702  1.00  0.00    -0.354 N 
ATOM     43  C   UNL A   1      39.182  32.669  34.309  1.00  0.00     0.074 A 
ATOM     44  C   UNL A   1      38.103  33.627  34.211  1.00  0.00     0.031 C 
ATOM     45  C   UNL A   1      38.934  29.677  28.623  1.00  0.00     0.029 A 
ATOM     46  C   UNL A   1      39.887  29.453  29.704  1.00  0.00     0.049 A 
ATOM     47  H   UNL A   1      39.921  30.365  31.576  1.00  0.00     0.167 HD
ATOM     48  C   UNL A   1      39.995  32.543  35.386  1.00  0.00     0.037 A 
ATOM     49  C   UNL A   1      40.925  28.598  29.664  1.00  0.00     0.037 A 
ATOM     50  C   UNL A   1      41.052  31.570  35.483  1.00  0.00     0.049 A 
ATOM     51  C   UNL A   1      41.812  28.463  30.871  1.00  0.00     0.074 A 
ATOM     52  C   UNL A   1      41.884  31.303  36.554  1.00  0.00     0.029 A 
ATOM     53  N   UNL A   1      41.430  30.711  34.458  1.00  0.00    -0.354 N 
ATOM     54  N   UNL A   1      41.757  29.105  32.014  1.00  0.00    -0.248 NA
ATOM     55  C   UNL A   1      42.900  27.480  30.788  1.00  0.00     0.031 C 
ATOM     56  C   UNL A   1      42.808  30.329  36.158  1.00  0.00     0.029 A 
ATOM     57  C   UNL A   1      42.508  29.938  34.862  1.00  0.00     0.049 A 
ATOM     58  H   UNL A   1      40.996  30.658  33.576  1.00  0.00     0.167 HD
ATOM     59  C   UNL A   1      42.784  28.590  32.793  1.00  0.00     0.074 A 
ATOM     60  C   UNL A   1      43.437  27.571  31.997  1.00  0.00     0.031 C 
ATOM     61  C   UNL A   1      43.152  28.931  34.053  1.00  0.00     0.037 A 
BRANCH  48  62
ATOM     62  C   UNL A   1      39.776  33.490  36.533  1.00  0.00     0.064 A 
ATOM     63  C   UNL A   1      38.936  33.172  37.612  1.00  0.00     0.173 A 
ATOM     64  C   UNL A   1      40.414  34.740  36.553  1.00  0.00     0.173 A 
ATOM     65  F   UNL A   1      38.292  31.995  37.643  1.00  0.00    -0.203 F 
ATOM     66  C   UNL A   1      38.701  34.087  38.636  1.00  0.00     0.198 A 
ATOM     67  C   UNL A   1      40.209  35.637  37.598  1.00  0.00     0.198 A 
ATOM     68  F   UNL A   1      41.236  35.097  35.554  1.00  0.00    -0.203 F 
ATOM     69  F   UNL A   1      37.833  33.789  39.613  1.00  0.00    -0.200 F 
ATOM     70  C   UNL A   1      39.341  35.317  38.631  1.00  0.00     0.200 A 
ATOM     71  F   UNL A   1      40.841  36.819  37.600  1.00  0.00    -0.200 F 
ATOM     72  F   UNL A   1      39.112  36.197  39.614  1.00  0.00    -0.200 F 
ENDBRANCH  48  62
BRANCH  49  73
ATOM     73  C   UNL A   1      41.155  27.788  28.438  1.00  0.00     0.064 A 
ATOM     74  C   UNL A   1      40.499  26.564  28.248  1.00  0.00     0.173 A 
ATOM     75  C   UNL A   1      42.005  28.238  27.417  1.00  0.00     0.173 A 
ATOM     76  F   UNL A   1      39.694  26.080  29.204  1.00  0.00    -0.203 F 
ATOM     77  C   UNL A   1      40.693  25.816  27.087  1.00  0.00     0.198 A 
ATOM     78  C   UNL A   1      42.177  27.503  26.246  1.00  0.00     0.198 A 
ATOM     79  F   UNL A   1      42.653  29.405  27.550  1.00  0.00    -0.203 F 
ATOM     80  F   UNL A   1      40.083  24.631  26.948  1.00  0.00    -0.200 F 
ATOM     81  C   UNL A   1      41.524  26.291  26.083  1.00  0.00     0.200 A 
ATOM     82  F   UNL A   1      42.981  27.967  25.280  1.00  0.00    -0.200 F 
ATOM     83  F   UNL A   1      41.706  25.572  24.967  1.00  0.00    -0.200 F 
ENDBRANCH  49  73
BRANCH  61  84
ATOM     84  C   UNL A   1      44.300  28.178  34.664  1.00  0.00     0.064 A 
ATOM     85  C   UNL A   1      45.618  28.655  34.594  1.00  0.00     0.173 A 
ATOM     86  C   UNL A   1      44.072  26.984  35.366  1.00  0.00     0.173 A 
ATOM     87  F   UNL A   1      45.893  29.784  33.924  1.00  0.00    -0.203 F 
ATOM     88  C   UNL A   1      46.667  27.949  35.180  1.00  0.00     0.198 A 
ATOM     89  C   UNL A   1      45.117  26.301  35.980  1.00  0.00     0.198 A 
ATOM     90  F   UNL A   1      42.829  26.488  35.471  1.00  0.00    -0.203 F 
ATOM     91  F   UNL A   1      47.924  28.397  35.056  1.00  0.00    -0.200 F 
ATOM     92  C   UNL A   1      46.414  26.779  35.880  1.00  0.00     0.200 A 
ATOM     93  F   UNL A   1      44.868  25.180  36.672  1.00  0.00    -0.200 F 
ATOM     94  F   UNL A   1      47.423  26.108  36.451  1.00  0.00    -0.200 F 
ENDBRANCH  61  84
ENDBRANCH  35  36
ENDBRANCH  27  30
ENDBRANCH  25  26
ENDBRANCH  24  25
ENDBRANCH  23  24
ENDBRANCH   3  23
TORSDOF 16
ENDMDL
MODEL 2
REMARK VINA RESULT:     -11.4      0.431      7.408
REMARK SMILES CN1C(=O)Cc2cc([C@@H](O)CCCCC(=O)NCCCNC(=O)c3ccc(-c4c5nc(c(-c6c(F)c(F)c(F)c(F)c6F)c6ccc([nH]6)c(-c6c(F)c(F)c(F)c(F)c6F)c6nc(c(-c7c(F)c(F)c(F)c(F)c7F)c7ccc4[nH]7)C=C6)C=C5)cc3)ccc21
REMARK SMILES IDX 15 1 16 2 17 3 14 5 13 6 12 7 11 8 9 9 8 10 1 11 2 12 3 13
REMARK SMILES IDX 89 14 4 15 5 16 6 17 88 18 7 19 87 20 10 21 18 23 19 24
REMARK SMILES IDX 20 25 21 26 22 27 23 29 24 30 25 31 86 32 26 33 85 34 27 35
REMARK SMILES IDX 28 36 29 37 79 38 30 39 84 40 78 41 80 42 31 43 83 44 77 45
REMARK SMILES IDX 76 46 32 48 64 49 44 50 63 51 45 52 48 53 62 54 81 55 46 56
REMARK SMILES IDX 47 57 61 59 82 60 49 61 33 62 34 63 42 64 35 65 36 66 40 67
REMARK SMILES IDX 43 68 37 69 38 70 41 71 39 72 65 73 66 74 74 75 67 76 68 77
REMARK SMILES IDX 72 78 75 79 69 80 70 81 73 82 71 83 50 84 51 85 59 86 52 87
REMARK SMILES IDX 53 88 57 89 60 90 54 91 55 92 58 93 56 94
REMARK H PARENT 17 4 10 22 21 28 80 47 48 58
REMARK Flexibility Score: inf
ROOT
ATOM      1  C   UNL A   1      33.997  29.367  27.150  1.00  0.00     0.219 C 
ATOM      2  O   UNL A   1      34.987  29.283  27.878  1.00  0.00    -0.275 OA
ATOM      3  N   UNL A   1      33.078  30.330  27.435  1.00  0.00    -0.356 N 
ATOM      4  H   UNL A   1      33.329  30.935  28.169  1.00  0.00     0.163 HD
ENDROOT
BRANCH   1   5
ATOM      5  C   UNL A   1      33.827  28.442  25.960  1.00  0.00     0.100 C 
BRANCH   5   6
ATOM      6  C   UNL A   1      33.108  27.128  26.272  1.00  0.00     0.010 C 
BRANCH   6   7
ATOM      7  C   UNL A   1      33.764  25.857  25.741  1.00  0.00     0.004 C 
BRANCH   7   8
ATOM      8  C   UNL A   1      34.106  25.857  24.244  1.00  0.00     0.037 C 
BRANCH   8   9
ATOM      9  C   UNL A   1      32.953  25.446  23.326  1.00  0.00     0.144 C 
BRANCH   9  10
ATOM     10  C   UNL A   1      31.905  26.535  23.244  1.00  0.00    -0.019 A 
ATOM     11  C   UNL A   1      28.804  30.532  22.020  1.00  0.00     0.153 C 
ATOM     12  N   UNL A   1      28.813  29.228  22.627  1.00  0.00    -0.315 N 
ATOM     13  C   UNL A   1      27.684  28.570  23.123  1.00  0.00     0.231 C 
ATOM     14  C   UNL A   1      29.962  28.450  22.779  1.00  0.00     0.047 A 
ATOM     15  O   UNL A   1      26.532  28.971  23.126  1.00  0.00    -0.274 OA
ATOM     16  C   UNL A   1      28.152  27.215  23.667  1.00  0.00     0.138 C 
ATOM     17  C   UNL A   1      29.625  27.250  23.402  1.00  0.00    -0.014 A 
ATOM     18  C   UNL A   1      31.256  28.733  22.391  1.00  0.00     0.027 A 
ATOM     19  C   UNL A   1      30.583  26.287  23.654  1.00  0.00     0.012 A 
ATOM     20  C   UNL A   1      32.232  27.765  22.630  1.00  0.00     0.008 A 
ENDBRANCH   9  10
BRANCH   9  21
ATOM     21  O   UNL A   1      33.488  25.191  22.028  1.00  0.00    -0.388 OA
ATOM     22  H   UNL A   1      34.249  25.771  21.873  1.00  0.00     0.211 HD
ENDBRANCH   9  21
ENDBRANCH   8   9
ENDBRANCH   7   8
ENDBRANCH   6   7
ENDBRANCH   5   6
ENDBRANCH   1   5
BRANCH   3  23
ATOM     23  C   UNL A   1      31.788  30.610  26.831  1.00  0.00     0.117 C 
BRANCH  23  24
ATOM     24  C   UNL A   1      31.470  32.103  26.882  1.00  0.00     0.042 C 
BRANCH  24  25
ATOM     25  C   UNL A   1      32.698  32.992  26.876  1.00  0.00     0.118 C 
BRANCH  25  26
ATOM     26  N   UNL A   1      32.482  34.238  27.592  1.00  0.00    -0.352 N 
ATOM     27  C   UNL A   1      33.057  34.701  28.749  1.00  0.00     0.251 C 
ATOM     28  H   UNL A   1      31.822  34.844  27.183  1.00  0.00     0.163 HD
ATOM     29  O   UNL A   1      32.594  35.700  29.292  1.00  0.00    -0.269 OA
BRANCH  27  30
ATOM     30  C   UNL A   1      34.211  34.002  29.362  1.00  0.00     0.039 A 
ATOM     31  C   UNL A   1      35.501  34.458  29.077  1.00  0.00     0.014 A 
ATOM     32  C   UNL A   1      34.040  32.886  30.185  1.00  0.00     0.014 A 
ATOM     33  C   UNL A   1      36.607  33.829  29.653  1.00  0.00     0.010 A 
ATOM     34  C   UNL A   1      35.132  32.332  30.846  1.00  0.00     0.010 A 
ATOM     35  C   UNL A   1      36.431  32.779  30.567  1.00  0.00    -0.014 A 
BRANCH  35  36
ATOM     36  C   UNL A   1      37.591  32.114  31.214  1.00  0.00     0.031 A 
ATOM     37  C   UNL A   1      38.352  31.043  30.482  1.00  0.00     0.074 A 
ATOM     38  C   UNL A   1      37.921  32.432  32.480  1.00  0.00     0.049 A 
ATOM     39  N   UNL A   1      39.357  30.310  30.891  1.00  0.00    -0.248 NA
ATOM     40  C   UNL A   1      37.898  30.724  29.119  1.00  0.00     0.031 C 
ATOM     41  C   UNL A   1      37.221  33.407  33.316  1.00  0.00     0.029 A 
ATOM     42  N   UNL A   1      38.922  31.958  33.289  1.00  0.00    -0.354 N 
ATOM     43  C   UNL A   1      39.637  29.437  29.849  1.00  0.00     0.074 A 
ATOM     44  C   UNL A   1      38.655  29.682  28.816  1.00  0.00     0.031 C 
ATOM     45  C   UNL A   1      37.830  33.480  34.509  1.00  0.00     0.029 A 
ATOM     46  C   UNL A   1      38.935  32.528  34.539  1.00  0.00     0.049 A 
ATOM     47  H   UNL A   1      39.570  31.274  33.001  1.00  0.00     0.167 HD
ATOM     48  C   UNL A   1      40.639  28.530  29.748  1.00  0.00     0.037 A 
ATOM     49  C   UNL A   1      39.742  32.302  35.591  1.00  0.00     0.037 A 
ATOM     50  C   UNL A   1      41.627  28.308  30.773  1.00  0.00     0.049 A 
ATOM     51  C   UNL A   1      40.855  31.299  35.459  1.00  0.00     0.074 A 
ATOM     52  C   UNL A   1      42.727  27.473  30.745  1.00  0.00     0.029 A 
ATOM     53  N   UNL A   1      41.621  28.923  32.019  1.00  0.00    -0.354 N 
ATOM     54  N   UNL A   1      41.166  30.538  34.437  1.00  0.00    -0.248 NA
ATOM     55  C   UNL A   1      41.735  31.128  36.623  1.00  0.00     0.031 C 
ATOM     56  C   UNL A   1      43.351  27.531  31.996  1.00  0.00     0.029 A 
ATOM     57  C   UNL A   1      42.681  28.456  32.782  1.00  0.00     0.049 A 
ATOM     58  H   UNL A   1      40.963  29.591  32.317  1.00  0.00     0.167 HD
ATOM     59  C   UNL A   1      42.288  29.816  34.823  1.00  0.00     0.074 A 
ATOM     60  C   UNL A   1      42.611  30.243  36.169  1.00  0.00     0.031 C 
ATOM     61  C   UNL A   1      42.986  28.886  34.125  1.00  0.00     0.037 A 
BRANCH  48  62
ATOM     62  C   UNL A   1      40.703  27.704  28.493  1.00  0.00     0.064 A 
ATOM     63  C   UNL A   1      40.055  26.463  28.383  1.00  0.00     0.173 A 
ATOM     64  C   UNL A   1      41.428  28.159  27.381  1.00  0.00     0.173 A 
ATOM     65  F   UNL A   1      39.354  25.973  29.418  1.00  0.00    -0.203 F 
ATOM     66  C   UNL A   1      40.174  25.688  27.232  1.00  0.00     0.198 A 
ATOM     67  C   UNL A   1      41.512  27.399  26.216  1.00  0.00     0.198 A 
ATOM     68  F   UNL A   1      42.061  29.341  27.422  1.00  0.00    -0.203 F 
ATOM     69  F   UNL A   1      39.611  24.472  27.184  1.00  0.00    -0.200 F 
ATOM     70  C   UNL A   1      40.899  26.158  26.148  1.00  0.00     0.200 A 
ATOM     71  F   UNL A   1      42.200  27.863  25.163  1.00  0.00    -0.200 F 
ATOM     72  F   UNL A   1      41.016  25.410  25.043  1.00  0.00    -0.200 F 
ENDBRANCH  48  62
BRANCH  49  73
ATOM     73  C   UNL A   1      39.532  33.068  36.848  1.00  0.00     0.064 A 
ATOM     74  C   UNL A   1      40.286  34.216  37.128  1.00  0.00     0.173 A 
ATOM     75  C   UNL A   1      38.551  32.688  37.776  1.00  0.00     0.173 A 
ATOM     76  F   UNL A   1      41.250  34.607  36.283  1.00  0.00    -0.203 F 
ATOM     77  C   UNL A   1      40.071  34.950  38.294  1.00  0.00     0.198 A 
ATOM     78  C   UNL A   1      38.320  33.437  38.928  1.00  0.00     0.198 A 
ATOM     79  F   UNL A   1      37.803  31.598  37.552  1.00  0.00    -0.203 F 
ATOM     80  F   UNL A   1      40.832  36.022  38.556  1.00  0.00    -0.200 F 
ATOM     81  C   UNL A   1      39.083  34.566  39.188  1.00  0.00     0.200 A 
ATOM     82  F   UNL A   1      37.363  33.062  39.787  1.00  0.00    -0.200 F 
ATOM     83  F   UNL A   1      38.877  35.275  40.306  1.00  0.00    -0.200 F 
ENDBRANCH  49  73
BRANCH  61  84
ATOM     84  C   UNL A   1      44.187  28.280  34.794  1.00  0.00     0.064 A 
ATOM     85  C   UNL A   1      44.104  27.084  35.522  1.00  0.00     0.173 A 
ATOM     86  C   UNL A   1      45.448  28.883  34.668  1.00  0.00     0.173 A 
ATOM     87  F   UNL A   1      42.920  26.473  35.685  1.00  0.00    -0.203 F 
ATOM     88  C   UNL A   1      45.232  26.530  36.122  1.00  0.00     0.198 A 
ATOM     89  C   UNL A   1      46.580  28.309  35.238  1.00  0.00     0.198 A 
ATOM     90  F   UNL A   1      45.586  30.024  33.974  1.00  0.00    -0.203 F 
ATOM     91  F   UNL A   1      45.119  25.414  36.857  1.00  0.00    -0.200 F 
ATOM     92  C   UNL A   1      46.470  27.138  35.972  1.00  0.00     0.200 A 
ATOM     93  F   UNL A   1      47.778  28.887  35.076  1.00  0.00    -0.200 F 
ATOM     94  F   UNL A   1      47.556  26.597  36.541  1.00  0.00    -0.200 F 
ENDBRANCH  61  84
ENDBRANCH  35  36
ENDBRANCH  27  30
ENDBRANCH  25  26
ENDBRANCH  24  25
ENDBRANCH  23  24
ENDBRANCH   3  23
TORSDOF 16
ENDMDL
MODEL 3
REMARK VINA RESULT:     -11.4      2.243      3.355
REMARK SMILES CN1C(=O)Cc2cc([C@@H](O)CCCCC(=O)NCCCNC(=O)c3ccc(-c4c5nc(c(-c6c(F)c(F)c(F)c(F)c6F)c6ccc([nH]6)c(-c6c(F)c(F)c(F)c(F)c6F)c6nc(c(-c7c(F)c(F)c(F)c(F)c7F)c7ccc4[nH]7)C=C6)C=C5)cc3)ccc21
REMARK SMILES IDX 15 1 16 2 17 3 14 5 13 6 12 7 11 8 9 9 8 10 1 11 2 12 3 13
REMARK SMILES IDX 89 14 4 15 5 16 6 17 88 18 7 19 87 20 10 21 18 23 19 24
REMARK SMILES IDX 20 25 21 26 22 27 23 29 24 30 25 31 86 32 26 33 85 34 27 35
REMARK SMILES IDX 28 36 29 37 79 38 30 39 84 40 78 41 80 42 31 43 83 44 77 45
REMARK SMILES IDX 76 46 32 48 64 49 44 50 63 51 45 52 48 53 62 54 81 55 46 56
REMARK SMILES IDX 47 57 61 59 82 60 49 61 33 62 34 63 42 64 35 65 36 66 40 67
REMARK SMILES IDX 43 68 37 69 38 70 41 71 39 72 65 73 66 74 74 75 67 76 68 77
REMARK SMILES IDX 72 78 75 79 69 80 70 81 73 82 71 83 50 84 51 85 59 86 52 87
REMARK SMILES IDX 53 88 57 89 60 90 54 91 55 92 58 93 56 94
REMARK H PARENT 17 4 10 22 21 28 80 47 48 58
REMARK Flexibility Score: inf
ROOT
ATOM      1  C   UNL A   1      35.551  33.881  28.911  1.00  0.00     0.219 C 
ATOM      2  O   UNL A   1      36.782  33.886  28.879  1.00  0.00    -0.275 OA
ATOM      3  N   UNL A   1      34.898  35.001  28.496  1.00  0.00    -0.356 N 
ATOM      4  H   UNL A   1      35.480  35.704  28.129  1.00  0.00     0.163 HD
ENDROOT
BRANCH   1   5
ATOM      5  C   UNL A   1      34.791  32.651  29.373  1.00  0.00     0.100 C 
BRANCH   5   6
ATOM      6  C   UNL A   1      34.433  31.667  28.258  1.00  0.00     0.010 C 
BRANCH   6   7
ATOM      7  C   UNL A   1      35.576  30.807  27.724  1.00  0.00     0.004 C 
BRANCH   7   8
ATOM      8  C   UNL A   1      35.231  29.337  27.445  1.00  0.00     0.037 C 
BRANCH   8   9
ATOM      9  C   UNL A   1      33.804  29.100  26.946  1.00  0.00     0.144 C 
BRANCH   9  10
ATOM     10  C   UNL A   1      33.771  28.036  25.870  1.00  0.00    -0.019 A 
ATOM     11  C   UNL A   1      32.942  23.886  22.839  1.00  0.00     0.153 C 
ATOM     12  N   UNL A   1      33.189  25.303  22.806  1.00  0.00    -0.315 N 
ATOM     13  C   UNL A   1      33.245  26.077  21.644  1.00  0.00     0.231 C 
ATOM     14  C   UNL A   1      33.389  26.083  23.946  1.00  0.00     0.047 A 
ATOM     15  O   UNL A   1      33.096  25.701  20.493  1.00  0.00    -0.274 OA
ATOM     16  C   UNL A   1      33.520  27.522  22.075  1.00  0.00     0.138 C 
ATOM     17  C   UNL A   1      33.601  27.407  23.566  1.00  0.00    -0.014 A 
ATOM     18  C   UNL A   1      33.377  25.698  25.272  1.00  0.00     0.027 A 
ATOM     19  C   UNL A   1      33.806  28.394  24.510  1.00  0.00     0.012 A 
ATOM     20  C   UNL A   1      33.572  26.686  26.238  1.00  0.00     0.008 A 
ENDBRANCH   9  10
BRANCH   9  21
ATOM     21  O   UNL A   1      33.008  28.689  28.057  1.00  0.00    -0.388 OA
ATOM     22  H   UNL A   1      32.834  29.452  28.629  1.00  0.00     0.211 HD
ENDBRANCH   9  21
ENDBRANCH   8   9
ENDBRANCH   7   8
ENDBRANCH   6   7
ENDBRANCH   5   6
ENDBRANCH   1   5
BRANCH   3  23
ATOM     23  C   UNL A   1      33.484  35.327  28.505  1.00  0.00     0.117 C 
BRANCH  23  24
ATOM     24  C   UNL A   1      33.257  36.775  28.930  1.00  0.00     0.042 C 
BRANCH  24  25
ATOM     25  C   UNL A   1      33.588  37.048  30.384  1.00  0.00     0.118 C 
BRANCH  25  26
ATOM     26  N   UNL A   1      32.549  36.581  31.286  1.00  0.00    -0.352 N 
ATOM     27  C   UNL A   1      32.556  35.531  32.170  1.00  0.00     0.251 C 
ATOM     28  H   UNL A   1      31.711  37.098  31.258  1.00  0.00     0.163 HD
ATOM     29  O   UNL A   1      31.503  35.187  32.702  1.00  0.00    -0.269 OA
BRANCH  27  30
ATOM     30  C   UNL A   1      33.806  34.795  32.474  1.00  0.00     0.039 A 
ATOM     31  C   UNL A   1      35.030  35.438  32.267  1.00  0.00     0.014 A 
ATOM     32  C   UNL A   1      33.788  33.475  32.928  1.00  0.00     0.014 A 
ATOM     33  C   UNL A   1      36.223  34.775  32.559  1.00  0.00     0.010 A 
ATOM     34  C   UNL A   1      34.970  32.856  33.325  1.00  0.00     0.010 A 
ATOM     35  C   UNL A   1      36.203  33.489  33.120  1.00  0.00    -0.014 A 
BRANCH  35  36
ATOM     36  C   UNL A   1      37.460  32.777  33.466  1.00  0.00     0.031 A 
ATOM     37  C   UNL A   1      38.181  33.096  34.747  1.00  0.00     0.074 A 
ATOM     38  C   UNL A   1      37.984  31.889  32.600  1.00  0.00     0.049 A 
ATOM     39  N   UNL A   1      39.314  32.624  35.202  1.00  0.00    -0.248 NA
ATOM     40  C   UNL A   1      37.566  34.111  35.616  1.00  0.00     0.031 C 
ATOM     41  C   UNL A   1      37.413  31.541  31.298  1.00  0.00     0.029 A 
ATOM     42  N   UNL A   1      39.122  31.126  32.678  1.00  0.00    -0.354 N 
ATOM     43  C   UNL A   1      39.553  33.297  36.393  1.00  0.00     0.074 A 
ATOM     44  C   UNL A   1      38.485  34.259  36.556  1.00  0.00     0.031 C 
ATOM     45  C   UNL A   1      38.187  30.615  30.712  1.00  0.00     0.029 A 
ATOM     46  C   UNL A   1      39.328  30.334  31.575  1.00  0.00     0.049 A 
ATOM     47  H   UNL A   1      39.730  31.144  33.452  1.00  0.00     0.167 HD
ATOM     48  C   UNL A   1      40.557  33.114  37.285  1.00  0.00     0.037 A 
ATOM     49  C   UNL A   1      40.331  29.482  31.291  1.00  0.00     0.037 A 
ATOM     50  C   UNL A   1      41.604  32.138  37.125  1.00  0.00     0.049 A 
ATOM     51  C   UNL A   1      41.432  29.284  32.296  1.00  0.00     0.074 A 
ATOM     52  C   UNL A   1      42.623  31.815  38.000  1.00  0.00     0.029 A 
ATOM     53  N   UNL A   1      41.768  31.335  36.003  1.00  0.00    -0.354 N 
ATOM     54  N   UNL A   1      41.604  29.863  33.460  1.00  0.00    -0.248 NA
ATOM     55  C   UNL A   1      42.474  28.307  31.953  1.00  0.00     0.031 C 
ATOM     56  C   UNL A   1      43.444  30.864  37.383  1.00  0.00     0.029 A 
ATOM     57  C   UNL A   1      42.896  30.542  36.150  1.00  0.00     0.049 A 
ATOM     58  H   UNL A   1      41.173  31.330  35.220  1.00  0.00     0.167 HD
ATOM     59  C   UNL A   1      42.757  29.308  33.999  1.00  0.00     0.074 A 
ATOM     60  C   UNL A   1      43.234  28.334  33.039  1.00  0.00     0.031 C 
ATOM     61  C   UNL A   1      43.363  29.581  35.181  1.00  0.00     0.037 A 
BRANCH  48  62
ATOM     62  C   UNL A   1      40.572  33.998  38.502  1.00  0.00     0.064 A 
ATOM     63  C   UNL A   1      39.896  33.653  39.683  1.00  0.00     0.173 A 
ATOM     64  C   UNL A   1      41.271  35.215  38.485  1.00  0.00     0.173 A 
ATOM     65  F   UNL A   1      39.203  32.506  39.753  1.00  0.00    -0.203 F 
ATOM     66  C   UNL A   1      39.874  34.513  40.778  1.00  0.00     0.198 A 
ATOM     67  C   UNL A   1      41.281  36.055  39.597  1.00  0.00     0.198 A 
ATOM     68  F   UNL A   1      41.944  35.595  37.389  1.00  0.00    -0.203 F 
ATOM     69  F   UNL A   1      39.155  34.194  41.864  1.00  0.00    -0.200 F 
ATOM     70  C   UNL A   1      40.570  35.711  40.736  1.00  0.00     0.200 A 
ATOM     71  F   UNL A   1      41.968  37.205  39.561  1.00  0.00    -0.200 F 
ATOM     72  F   UNL A   1      40.546  36.539  41.789  1.00  0.00    -0.200 F 
ENDBRANCH  48  62
BRANCH  49  73
ATOM     73  C   UNL A   1      40.312  28.740  30.003  1.00  0.00     0.064 A 
ATOM     74  C   UNL A   1      39.661  27.503  29.891  1.00  0.00     0.173 A 
ATOM     75  C   UNL A   1      40.913  29.267  28.850  1.00  0.00     0.173 A 
ATOM     76  F   UNL A   1      39.091  26.948  30.970  1.00  0.00    -0.203 F 
ATOM     77  C   UNL A   1      39.620  26.819  28.677  1.00  0.00     0.198 A 
ATOM     78  C   UNL A   1      40.849  28.595  27.631  1.00  0.00     0.198 A 
ATOM     79  F   UNL A   1      41.547  30.449  28.905  1.00  0.00    -0.203 F 
ATOM     80  F   UNL A   1      39.024  25.621  28.608  1.00  0.00    -0.200 F 
ATOM     81  C   UNL A   1      40.206  27.369  27.547  1.00  0.00     0.200 A 
ATOM     82  F   UNL A   1      41.416  29.132  26.543  1.00  0.00    -0.200 F 
ATOM     83  F   UNL A   1      40.162  26.710  26.381  1.00  0.00    -0.200 F 
ENDBRANCH  49  73
BRANCH  61  84
ATOM     84  C   UNL A   1      44.600  28.797  35.518  1.00  0.00     0.064 A 
ATOM     85  C   UNL A   1      45.882  29.254  35.177  1.00  0.00     0.173 A 
ATOM     86  C   UNL A   1      44.503  27.592  36.231  1.00  0.00     0.173 A 
ATOM     87  F   UNL A   1      46.030  30.393  34.484  1.00  0.00    -0.203 F 
ATOM     88  C   UNL A   1      47.017  28.520  35.512  1.00  0.00     0.198 A 
ATOM     89  C   UNL A   1      45.641  26.879  36.596  1.00  0.00     0.198 A 
ATOM     90  F   UNL A   1      43.302  27.113  36.591  1.00  0.00    -0.203 F 
ATOM     91  F   UNL A   1      48.228  28.951  35.130  1.00  0.00    -0.200 F 
ATOM     92  C   UNL A   1      46.896  27.339  36.229  1.00  0.00     0.200 A 
ATOM     93  F   UNL A   1      45.524  25.747  37.304  1.00  0.00    -0.200 F 
ATOM     94  F   UNL A   1      47.991  26.640  36.559  1.00  0.00    -0.200 F 
ENDBRANCH  61  84
ENDBRANCH  35  36
ENDBRANCH  27  30
ENDBRANCH  25  26
ENDBRANCH  24  25
ENDBRANCH  23  24
ENDBRANCH   3  23
TORSDOF 16
ENDMDL
