MODEL 1
REMARK VINA RESULT:     -13.5      0.000      0.000
REMARK SMILES Cc1cccc(-c2cccnc2C(=O)NCCCNC(=O)c2ccc(-c3c4nc(c(-c5c(F)c(F)c(F)c(F)c5F)c5ccc([nH]5)c(-c5c(F)c(F)c(F)c(F)c5F)c5nc(c(-c6c(F)c(F)c(F)c(F)c6F)c6ccc3[nH]6)C=C5)C=C4)cc2)c1
REMARK SMILES IDX 17 1 16 2 15 3 13 4 14 5 12 7 7 8 8 9 9 10 11 11 10 12 6 13
REMARK SMILES IDX 1 14 2 15 3 16 85 17 4 18 5 19 18 20 19 21 20 22 21 24 22 25
REMARK SMILES IDX 23 26 84 27 24 28 83 29 25 30 26 31 27 32 77 33 28 34 82 35
REMARK SMILES IDX 76 36 78 37 29 38 81 39 75 40 74 41 30 43 62 44 42 45 61 46
REMARK SMILES IDX 43 47 46 48 60 49 79 50 44 51 45 52 59 54 80 55 47 56 31 57
REMARK SMILES IDX 32 58 40 59 33 60 34 61 38 62 41 63 35 64 36 65 39 66 37 67
REMARK SMILES IDX 63 68 64 69 72 70 65 71 66 72 70 73 73 74 67 75 68 76 71 77
REMARK SMILES IDX 69 78 48 79 49 80 57 81 50 82 51 83 55 84 58 85 52 86 53 87
REMARK SMILES IDX 56 88 54 89
REMARK H PARENT 15 6 19 23 78 42 46 53
REMARK Flexibility Score: inf
ROOT
ATOM      1  C   UNL A   1      33.305  30.932  27.634  1.00  0.00     0.042 C 
ENDROOT
BRANCH   1   2
ATOM      2  C   UNL A   1      32.675  30.086  26.552  1.00  0.00     0.118 C 
BRANCH   2   3
ATOM      3  N   UNL A   1      31.748  29.070  26.950  1.00  0.00    -0.351 N 
ATOM      4  C   UNL A   1      31.500  27.878  26.291  1.00  0.00     0.270 C 
ATOM      5  O   UNL A   1      30.821  27.043  26.894  1.00  0.00    -0.267 OA
ATOM      6  H   UNL A   1      31.233  29.235  27.773  1.00  0.00     0.163 HD
BRANCH   4   7
ATOM      7  C   UNL A   1      31.918  27.602  24.856  1.00  0.00     0.135 A 
ATOM      8  C   UNL A   1      31.255  27.986  23.669  1.00  0.00     0.013 A 
ATOM      9  C   UNL A   1      31.884  27.626  22.457  1.00  0.00     0.013 A 
ATOM     10  C   UNL A   1      33.087  26.931  22.439  1.00  0.00     0.021 A 
ATOM     11  N   UNL A   1      33.106  26.916  24.835  1.00  0.00    -0.250 NA
ATOM     12  C   UNL A   1      33.656  26.602  23.646  1.00  0.00     0.112 A 
BRANCH   8  13
ATOM     13  C   UNL A   1      29.956  28.667  23.549  1.00  0.00    -0.016 A 
ATOM     14  C   UNL A   1      28.770  32.298  23.277  1.00  0.00     0.044 C 
ATOM     15  C   UNL A   1      28.736  30.801  23.403  1.00  0.00    -0.051 A 
ATOM     16  C   UNL A   1      27.561  30.092  23.143  1.00  0.00     0.003 A 
ATOM     17  C   UNL A   1      29.912  30.080  23.648  1.00  0.00     0.012 A 
ATOM     18  C   UNL A   1      27.572  28.694  23.096  1.00  0.00     0.001 A 
ATOM     19  C   UNL A   1      28.763  27.983  23.290  1.00  0.00     0.009 A 
ENDBRANCH   8  13
ENDBRANCH   4   7
ENDBRANCH   2   3
ENDBRANCH   1   2
BRANCH   1  20
ATOM     20  C   UNL A   1      34.722  31.395  27.292  1.00  0.00     0.118 C 
BRANCH  20  21
ATOM     21  N   UNL A   1      35.506  31.841  28.460  1.00  0.00    -0.352 N 
ATOM     22  C   UNL A   1      36.585  31.278  29.133  1.00  0.00     0.251 C 
ATOM     23  H   UNL A   1      35.210  32.703  28.833  1.00  0.00     0.163 HD
ATOM     24  O   UNL A   1      37.206  31.898  29.971  1.00  0.00    -0.269 OA
BRANCH  22  25
ATOM     25  C   UNL A   1      37.030  29.934  28.718  1.00  0.00     0.039 A 
ATOM     26  C   UNL A   1      37.052  28.954  29.717  1.00  0.00     0.014 A 
ATOM     27  C   UNL A   1      37.843  29.856  27.600  1.00  0.00     0.014 A 
ATOM     28  C   UNL A   1      38.153  28.113  29.781  1.00  0.00     0.010 A 
ATOM     29  C   UNL A   1      38.991  29.103  27.733  1.00  0.00     0.010 A 
ATOM     30  C   UNL A   1      39.199  28.331  28.890  1.00  0.00    -0.014 A 
BRANCH  30  31
ATOM     31  C   UNL A   1      40.595  28.024  29.215  1.00  0.00     0.031 A 
ATOM     32  C   UNL A   1      41.206  26.770  28.721  1.00  0.00     0.074 A 
ATOM     33  C   UNL A   1      41.377  28.965  29.809  1.00  0.00     0.049 A 
ATOM     34  N   UNL A   1      42.378  26.355  29.060  1.00  0.00    -0.248 NA
ATOM     35  C   UNL A   1      40.510  25.827  27.848  1.00  0.00     0.031 C 
ATOM     36  C   UNL A   1      42.841  29.019  29.828  1.00  0.00     0.029 A 
ATOM     37  N   UNL A   1      40.994  29.984  30.707  1.00  0.00    -0.354 N 
ATOM     38  C   UNL A   1      42.703  25.295  28.252  1.00  0.00     0.074 A 
ATOM     39  C   UNL A   1      41.473  24.936  27.601  1.00  0.00     0.031 C 
ATOM     40  C   UNL A   1      43.243  29.761  30.870  1.00  0.00     0.029 A 
ATOM     41  C   UNL A   1      42.060  30.086  31.639  1.00  0.00     0.049 A 
ATOM     42  H   UNL A   1      40.163  30.512  30.690  1.00  0.00     0.167 HD
ATOM     43  C   UNL A   1      44.014  24.942  28.154  1.00  0.00     0.037 A 
ATOM     44  C   UNL A   1      41.896  29.803  32.964  1.00  0.00     0.037 A 
ATOM     45  C   UNL A   1      44.776  25.508  29.272  1.00  0.00     0.049 A 
ATOM     46  C   UNL A   1      42.788  28.694  33.479  1.00  0.00     0.074 A 
ATOM     47  C   UNL A   1      45.713  26.518  29.393  1.00  0.00     0.029 A 
ATOM     48  N   UNL A   1      44.392  25.172  30.569  1.00  0.00    -0.354 N 
ATOM     49  N   UNL A   1      43.420  27.852  32.710  1.00  0.00    -0.248 NA
ATOM     50  C   UNL A   1      42.997  28.417  34.897  1.00  0.00     0.031 C 
ATOM     51  C   UNL A   1      45.831  26.838  30.775  1.00  0.00     0.029 A 
ATOM     52  C   UNL A   1      44.994  26.001  31.492  1.00  0.00     0.049 A 
ATOM     53  H   UNL A   1      43.773  24.441  30.796  1.00  0.00     0.167 HD
ATOM     54  C   UNL A   1      44.054  26.911  33.479  1.00  0.00     0.074 A 
ATOM     55  C   UNL A   1      43.787  27.330  34.842  1.00  0.00     0.031 C 
ATOM     56  C   UNL A   1      44.713  25.853  32.917  1.00  0.00     0.037 A 
BRANCH  43  57
ATOM     57  C   UNL A   1      44.654  24.243  26.966  1.00  0.00     0.064 A 
ATOM     58  C   UNL A   1      44.395  22.873  26.727  1.00  0.00     0.173 A 
ATOM     59  C   UNL A   1      45.629  24.801  26.109  1.00  0.00     0.173 A 
ATOM     60  F   UNL A   1      43.496  22.197  27.455  1.00  0.00    -0.203 F 
ATOM     61  C   UNL A   1      45.071  22.132  25.748  1.00  0.00     0.198 A 
ATOM     62  C   UNL A   1      46.272  24.071  25.104  1.00  0.00     0.198 A 
ATOM     63  F   UNL A   1      46.050  26.062  26.220  1.00  0.00    -0.203 F 
ATOM     64  F   UNL A   1      44.823  20.822  25.615  1.00  0.00    -0.200 F 
ATOM     65  C   UNL A   1      46.007  22.733  24.933  1.00  0.00     0.200 A 
ATOM     66  F   UNL A   1      47.179  24.681  24.325  1.00  0.00    -0.200 F 
ATOM     67  F   UNL A   1      46.661  22.027  24.002  1.00  0.00    -0.200 F 
ENDBRANCH  43  57
BRANCH  44  68
ATOM     68  C   UNL A   1      40.529  30.104  33.458  1.00  0.00     0.064 A 
ATOM     69  C   UNL A   1      40.216  31.443  33.762  1.00  0.00     0.173 A 
ATOM     70  C   UNL A   1      39.466  29.220  33.244  1.00  0.00     0.173 A 
ATOM     71  F   UNL A   1      41.202  32.328  33.980  1.00  0.00    -0.203 F 
ATOM     72  C   UNL A   1      38.903  31.905  33.720  1.00  0.00     0.198 A 
ATOM     73  C   UNL A   1      38.150  29.686  33.216  1.00  0.00     0.198 A 
ATOM     74  F   UNL A   1      39.704  27.939  32.928  1.00  0.00    -0.203 F 
ATOM     75  F   UNL A   1      38.648  33.211  33.889  1.00  0.00    -0.200 F 
ATOM     76  C   UNL A   1      37.874  31.032  33.412  1.00  0.00     0.200 A 
ATOM     77  F   UNL A   1      37.157  28.851  32.880  1.00  0.00    -0.200 F 
ATOM     78  F   UNL A   1      36.627  31.494  33.252  1.00  0.00    -0.200 F 
ENDBRANCH  44  68
BRANCH  56  79
ATOM     79  C   UNL A   1      45.204  24.612  33.636  1.00  0.00     0.064 A 
ATOM     80  C   UNL A   1      44.421  23.471  33.880  1.00  0.00     0.173 A 
ATOM     81  C   UNL A   1      46.574  24.483  33.981  1.00  0.00     0.173 A 
ATOM     82  F   UNL A   1      43.144  23.400  33.487  1.00  0.00    -0.203 F 
ATOM     83  C   UNL A   1      44.947  22.321  34.482  1.00  0.00     0.198 A 
ATOM     84  C   UNL A   1      47.108  23.313  34.522  1.00  0.00     0.198 A 
ATOM     85  F   UNL A   1      47.447  25.480  33.772  1.00  0.00    -0.203 F 
ATOM     86  F   UNL A   1      44.143  21.278  34.732  1.00  0.00    -0.200 F 
ATOM     87  C   UNL A   1      46.291  22.238  34.790  1.00  0.00     0.200 A 
ATOM     88  F   UNL A   1      48.425  23.229  34.757  1.00  0.00    -0.200 F 
ATOM     89  F   UNL A   1      46.798  21.116  35.319  1.00  0.00    -0.200 F 
ENDBRANCH  56  79
ENDBRANCH  30  31
ENDBRANCH  22  25
ENDBRANCH  20  21
ENDBRANCH   1  20
TORSDOF 11
ENDMDL
MODEL 2
REMARK VINA RESULT:     -13.4      1.328      2.580
REMARK SMILES Cc1cccc(-c2cccnc2C(=O)NCCCNC(=O)c2ccc(-c3c4nc(c(-c5c(F)c(F)c(F)c(F)c5F)c5ccc([nH]5)c(-c5c(F)c(F)c(F)c(F)c5F)c5nc(c(-c6c(F)c(F)c(F)c(F)c6F)c6ccc3[nH]6)C=C5)C=C4)cc2)c1
REMARK SMILES IDX 17 1 16 2 15 3 13 4 14 5 12 7 7 8 8 9 9 10 11 11 10 12 6 13
REMARK SMILES IDX 1 14 2 15 3 16 85 17 4 18 5 19 18 20 19 21 20 22 21 24 22 25
REMARK SMILES IDX 23 26 84 27 24 28 83 29 25 30 26 31 27 32 77 33 28 34 82 35
REMARK SMILES IDX 76 36 78 37 29 38 81 39 75 40 74 41 30 43 62 44 42 45 61 46
REMARK SMILES IDX 43 47 46 48 60 49 79 50 44 51 45 52 59 54 80 55 47 56 31 57
REMARK SMILES IDX 32 58 40 59 33 60 34 61 38 62 41 63 35 64 36 65 39 66 37 67
REMARK SMILES IDX 63 68 64 69 72 70 65 71 66 72 70 73 73 74 67 75 68 76 71 77
REMARK SMILES IDX 69 78 48 79 49 80 57 81 50 82 51 83 55 84 58 85 52 86 53 87
REMARK SMILES IDX 56 88 54 89
REMARK H PARENT 15 6 19 23 78 42 46 53
REMARK Flexibility Score: inf
ROOT
ATOM      1  C   UNL A   1      34.379  31.003  27.250  1.00  0.00     0.042 C 
ENDROOT
BRANCH   1   2
ATOM      2  C   UNL A   1      34.026  29.544  27.084  1.00  0.00     0.118 C 
BRANCH   2   3
ATOM      3  N   UNL A   1      32.836  29.064  27.720  1.00  0.00    -0.351 N 
ATOM      4  C   UNL A   1      31.869  28.252  27.153  1.00  0.00     0.270 C 
ATOM      5  O   UNL A   1      31.027  27.777  27.919  1.00  0.00    -0.267 OA
ATOM      6  H   UNL A   1      32.690  29.340  28.654  1.00  0.00     0.163 HD
BRANCH   4   7
ATOM      7  C   UNL A   1      31.735  28.015  25.658  1.00  0.00     0.135 A 
ATOM      8  C   UNL A   1      32.027  26.837  24.935  1.00  0.00     0.013 A 
ATOM      9  C   UNL A   1      31.779  26.877  23.546  1.00  0.00     0.013 A 
ATOM     10  C   UNL A   1      31.276  28.016  22.929  1.00  0.00     0.021 A 
ATOM     11  N   UNL A   1      31.239  29.138  25.046  1.00  0.00    -0.250 NA
ATOM     12  C   UNL A   1      31.023  29.114  23.716  1.00  0.00     0.112 A 
BRANCH   8  13
ATOM     13  C   UNL A   1      32.615  25.591  25.454  1.00  0.00    -0.016 A 
ATOM     14  C   UNL A   1      36.125  24.071  25.630  1.00  0.00     0.044 C 
ATOM     15  C   UNL A   1      34.634  24.213  25.750  1.00  0.00    -0.051 A 
ATOM     16  C   UNL A   1      33.898  23.337  26.552  1.00  0.00     0.003 A 
ATOM     17  C   UNL A   1      33.974  25.305  25.172  1.00  0.00     0.012 A 
ATOM     18  C   UNL A   1      32.542  23.571  26.797  1.00  0.00     0.001 A 
ATOM     19  C   UNL A   1      31.902  24.695  26.259  1.00  0.00     0.009 A 
ENDBRANCH   8  13
ENDBRANCH   4   7
ENDBRANCH   2   3
ENDBRANCH   1   2
BRANCH   1  20
ATOM     20  C   UNL A   1      34.502  31.434  28.712  1.00  0.00     0.118 C 
BRANCH  20  21
ATOM     21  N   UNL A   1      35.793  32.067  29.046  1.00  0.00    -0.352 N 
ATOM     22  C   UNL A   1      37.091  31.573  29.101  1.00  0.00     0.251 C 
ATOM     23  H   UNL A   1      35.720  33.023  29.271  1.00  0.00     0.163 HD
ATOM     24  O   UNL A   1      38.048  32.308  29.227  1.00  0.00    -0.269 OA
BRANCH  22  25
ATOM     25  C   UNL A   1      37.286  30.125  28.889  1.00  0.00     0.039 A 
ATOM     26  C   UNL A   1      37.337  29.333  30.041  1.00  0.00     0.014 A 
ATOM     27  C   UNL A   1      37.895  29.738  27.707  1.00  0.00     0.014 A 
ATOM     28  C   UNL A   1      38.316  28.352  30.115  1.00  0.00     0.010 A 
ATOM     29  C   UNL A   1      38.942  28.847  27.826  1.00  0.00     0.010 A 
ATOM     30  C   UNL A   1      39.228  28.254  29.069  1.00  0.00    -0.014 A 
BRANCH  30  31
ATOM     31  C   UNL A   1      40.606  27.791  29.259  1.00  0.00     0.031 A 
ATOM     32  C   UNL A   1      40.987  26.427  28.832  1.00  0.00     0.074 A 
ATOM     33  C   UNL A   1      41.568  28.666  29.653  1.00  0.00     0.049 A 
ATOM     34  N   UNL A   1      42.133  25.889  29.073  1.00  0.00    -0.248 NA
ATOM     35  C   UNL A   1      40.072  25.512  28.152  1.00  0.00     0.031 C 
ATOM     36  C   UNL A   1      43.018  28.523  29.493  1.00  0.00     0.029 A 
ATOM     37  N   UNL A   1      41.435  29.805  30.476  1.00  0.00    -0.354 N 
ATOM     38  C   UNL A   1      42.217  24.725  28.350  1.00  0.00     0.074 A 
ATOM     39  C   UNL A   1      40.877  24.480  27.890  1.00  0.00     0.031 C 
ATOM     40  C   UNL A   1      43.641  29.295  30.396  1.00  0.00     0.029 A 
ATOM     41  C   UNL A   1      42.617  29.845  31.260  1.00  0.00     0.049 A 
ATOM     42  H   UNL A   1      40.681  30.437  30.501  1.00  0.00     0.167 HD
ATOM     43  C   UNL A   1      43.450  24.191  28.136  1.00  0.00     0.037 A 
ATOM     44  C   UNL A   1      42.594  29.707  32.617  1.00  0.00     0.037 A 
ATOM     45  C   UNL A   1      44.416  24.746  29.090  1.00  0.00     0.049 A 
ATOM     46  C   UNL A   1      43.402  28.539  33.139  1.00  0.00     0.074 A 
ATOM     47  C   UNL A   1      45.478  25.626  28.992  1.00  0.00     0.029 A 
ATOM     48  N   UNL A   1      44.165  24.584  30.451  1.00  0.00    -0.354 N 
ATOM     49  N   UNL A   1      43.819  27.552  32.395  1.00  0.00    -0.248 NA
ATOM     50  C   UNL A   1      43.759  28.364  34.544  1.00  0.00     0.031 C 
ATOM     51  C   UNL A   1      45.813  26.051  30.308  1.00  0.00     0.029 A 
ATOM     52  C   UNL A   1      44.980  25.403  31.204  1.00  0.00     0.049 A 
ATOM     53  H   UNL A   1      43.496  23.967  30.826  1.00  0.00     0.167 HD
ATOM     54  C   UNL A   1      44.428  26.608  33.179  1.00  0.00     0.074 A 
ATOM     55  C   UNL A   1      44.394  27.179  34.512  1.00  0.00     0.031 C 
ATOM     56  C   UNL A   1      44.872  25.424  32.660  1.00  0.00     0.037 A 
BRANCH  43  57
ATOM     57  C   UNL A   1      43.838  23.306  26.962  1.00  0.00     0.064 A 
ATOM     58  C   UNL A   1      43.341  21.985  26.877  1.00  0.00     0.173 A 
ATOM     59  C   UNL A   1      44.790  23.628  25.968  1.00  0.00     0.173 A 
ATOM     60  F   UNL A   1      42.431  21.525  27.746  1.00  0.00    -0.203 F 
ATOM     61  C   UNL A   1      43.782  21.070  25.910  1.00  0.00     0.198 A 
ATOM     62  C   UNL A   1      45.197  22.727  24.979  1.00  0.00     0.198 A 
ATOM     63  F   UNL A   1      45.414  24.807  25.923  1.00  0.00    -0.203 F 
ATOM     64  F   UNL A   1      43.316  19.813  25.923  1.00  0.00    -0.200 F 
ATOM     65  C   UNL A   1      44.706  21.443  24.958  1.00  0.00     0.200 A 
ATOM     66  F   UNL A   1      46.098  23.117  24.064  1.00  0.00    -0.200 F 
ATOM     67  F   UNL A   1      45.135  20.570  24.038  1.00  0.00    -0.200 F 
ENDBRANCH  43  57
BRANCH  44  68
ATOM     68  C   UNL A   1      41.351  30.235  33.234  1.00  0.00     0.064 A 
ATOM     69  C   UNL A   1      41.217  31.631  33.362  1.00  0.00     0.173 A 
ATOM     70  C   UNL A   1      40.189  29.460  33.305  1.00  0.00     0.173 A 
ATOM     71  F   UNL A   1      42.305  32.415  33.305  1.00  0.00    -0.203 F 
ATOM     72  C   UNL A   1      39.963  32.233  33.421  1.00  0.00     0.198 A 
ATOM     73  C   UNL A   1      38.934  30.069  33.377  1.00  0.00     0.198 A 
ATOM     74  F   UNL A   1      40.252  28.129  33.166  1.00  0.00    -0.203 F 
ATOM     75  F   UNL A   1      39.862  33.570  33.414  1.00  0.00    -0.200 F 
ATOM     76  C   UNL A   1      38.821  31.452  33.394  1.00  0.00     0.200 A 
ATOM     77  F   UNL A   1      37.826  29.317  33.312  1.00  0.00    -0.200 F 
ATOM     78  F   UNL A   1      37.614  32.030  33.329  1.00  0.00    -0.200 F 
ENDBRANCH  44  68
BRANCH  56  79
ATOM     79  C   UNL A   1      45.296  24.198  33.444  1.00  0.00     0.064 A 
ATOM     80  C   UNL A   1      44.498  23.055  33.628  1.00  0.00     0.173 A 
ATOM     81  C   UNL A   1      46.625  24.083  33.924  1.00  0.00     0.173 A 
ATOM     82  F   UNL A   1      43.266  22.969  33.112  1.00  0.00    -0.203 F 
ATOM     83  C   UNL A   1      44.968  21.918  34.297  1.00  0.00     0.198 A 
ATOM     84  C   UNL A   1      47.109  22.925  34.534  1.00  0.00     0.198 A 
ATOM     85  F   UNL A   1      47.510  25.082  33.787  1.00  0.00    -0.203 F 
ATOM     86  F   UNL A   1      44.148  20.873  34.483  1.00  0.00    -0.200 F 
ATOM     87  C   UNL A   1      46.275  21.848  34.738  1.00  0.00     0.200 A 
ATOM     88  F   UNL A   1      48.397  22.853  34.900  1.00  0.00    -0.200 F 
ATOM     89  F   UNL A   1      46.733  20.739  35.332  1.00  0.00    -0.200 F 
ENDBRANCH  56  79
ENDBRANCH  30  31
ENDBRANCH  22  25
ENDBRANCH  20  21
ENDBRANCH   1  20
TORSDOF 11
ENDMDL
MODEL 3
REMARK VINA RESULT:     -13.3      1.117      1.627
REMARK SMILES Cc1cccc(-c2cccnc2C(=O)NCCCNC(=O)c2ccc(-c3c4nc(c(-c5c(F)c(F)c(F)c(F)c5F)c5ccc([nH]5)c(-c5c(F)c(F)c(F)c(F)c5F)c5nc(c(-c6c(F)c(F)c(F)c(F)c6F)c6ccc3[nH]6)C=C5)C=C4)cc2)c1
REMARK SMILES IDX 17 1 16 2 15 3 13 4 14 5 12 7 7 8 8 9 9 10 11 11 10 12 6 13
REMARK SMILES IDX 1 14 2 15 3 16 85 17 4 18 5 19 18 20 19 21 20 22 21 24 22 25
REMARK SMILES IDX 23 26 84 27 24 28 83 29 25 30 26 31 27 32 77 33 28 34 82 35
REMARK SMILES IDX 76 36 78 37 29 38 81 39 75 40 74 41 30 43 62 44 42 45 61 46
REMARK SMILES IDX 43 47 46 48 60 49 79 50 44 51 45 52 59 54 80 55 47 56 31 57
REMARK SMILES IDX 32 58 40 59 33 60 34 61 38 62 41 63 35 64 36 65 39 66 37 67
REMARK SMILES IDX 63 68 64 69 72 70 65 71 66 72 70 73 73 74 67 75 68 76 71 77
REMARK SMILES IDX 69 78 48 79 49 80 57 81 50 82 51 83 55 84 58 85 52 86 53 87
REMARK SMILES IDX 56 88 54 89
REMARK H PARENT 15 6 19 23 78 42 46 53
REMARK Flexibility Score: inf
ROOT
ATOM      1  C   UNL A   1      33.751  30.580  26.867  1.00  0.00     0.042 C 
ENDROOT
BRANCH   1   2
ATOM      2  C   UNL A   1      32.423  30.260  26.221  1.00  0.00     0.118 C 
BRANCH   2   3
ATOM      3  N   UNL A   1      31.660  29.173  26.756  1.00  0.00    -0.351 N 
ATOM      4  C   UNL A   1      31.536  27.907  26.210  1.00  0.00     0.270 C 
ATOM      5  O   UNL A   1      31.007  27.047  26.919  1.00  0.00    -0.267 OA
ATOM      6  H   UNL A   1      31.175  29.341  27.596  1.00  0.00     0.163 HD
BRANCH   4   7
ATOM      7  C   UNL A   1      31.907  27.565  24.776  1.00  0.00     0.135 A 
ATOM      8  C   UNL A   1      31.207  27.895  23.595  1.00  0.00     0.013 A 
ATOM      9  C   UNL A   1      31.795  27.478  22.381  1.00  0.00     0.013 A 
ATOM     10  C   UNL A   1      32.996  26.781  22.356  1.00  0.00     0.021 A 
ATOM     11  N   UNL A   1      33.093  26.875  24.748  1.00  0.00    -0.250 NA
ATOM     12  C   UNL A   1      33.604  26.505  23.558  1.00  0.00     0.112 A 
BRANCH   8  13
ATOM     13  C   UNL A   1      29.905  28.574  23.486  1.00  0.00    -0.016 A 
ATOM     14  C   UNL A   1      28.715  32.186  23.048  1.00  0.00     0.044 C 
ATOM     15  C   UNL A   1      28.684  30.700  23.263  1.00  0.00    -0.051 A 
ATOM     16  C   UNL A   1      27.498  29.982  23.091  1.00  0.00     0.003 A 
ATOM     17  C   UNL A   1      29.867  29.990  23.504  1.00  0.00     0.012 A 
ATOM     18  C   UNL A   1      27.505  28.584  23.126  1.00  0.00     0.001 A 
ATOM     19  C   UNL A   1      28.701  27.880  23.314  1.00  0.00     0.009 A 
ENDBRANCH   8  13
ENDBRANCH   4   7
ENDBRANCH   2   3
ENDBRANCH   1   2
BRANCH   1  20
ATOM     20  C   UNL A   1      33.635  31.553  28.041  1.00  0.00     0.118 C 
BRANCH  20  21
ATOM     21  N   UNL A   1      34.880  32.286  28.339  1.00  0.00    -0.352 N 
ATOM     22  C   UNL A   1      36.187  31.862  28.552  1.00  0.00     0.251 C 
ATOM     23  H   UNL A   1      34.763  33.262  28.397  1.00  0.00     0.163 HD
ATOM     24  O   UNL A   1      37.110  32.648  28.610  1.00  0.00    -0.269 OA
BRANCH  22  25
ATOM     25  C   UNL A   1      36.441  30.409  28.596  1.00  0.00     0.039 A 
ATOM     26  C   UNL A   1      36.642  29.854  29.865  1.00  0.00     0.014 A 
ATOM     27  C   UNL A   1      36.960  29.825  27.453  1.00  0.00     0.014 A 
ATOM     28  C   UNL A   1      37.675  28.943  30.023  1.00  0.00     0.010 A 
ATOM     29  C   UNL A   1      38.061  29.013  27.631  1.00  0.00     0.010 A 
ATOM     30  C   UNL A   1      38.492  28.679  28.928  1.00  0.00    -0.014 A 
BRANCH  30  31
ATOM     31  C   UNL A   1      39.905  28.313  29.062  1.00  0.00     0.031 A 
ATOM     32  C   UNL A   1      40.338  26.934  28.745  1.00  0.00     0.074 A 
ATOM     33  C   UNL A   1      40.837  29.273  29.298  1.00  0.00     0.049 A 
ATOM     34  N   UNL A   1      41.528  26.485  28.954  1.00  0.00    -0.248 NA
ATOM     35  C   UNL A   1      39.436  25.907  28.226  1.00  0.00     0.031 C 
ATOM     36  C   UNL A   1      42.278  29.192  29.048  1.00  0.00     0.029 A 
ATOM     37  N   UNL A   1      40.690  30.481  30.012  1.00  0.00    -0.354 N 
ATOM     38  C   UNL A   1      41.633  25.260  28.344  1.00  0.00     0.074 A 
ATOM     39  C   UNL A   1      40.283  24.898  28.009  1.00  0.00     0.031 C 
ATOM     40  C   UNL A   1      42.913  30.084  29.823  1.00  0.00     0.029 A 
ATOM     41  C   UNL A   1      41.918  30.664  30.701  1.00  0.00     0.049 A 
ATOM     42  H   UNL A   1      39.903  31.072  30.029  1.00  0.00     0.167 HD
ATOM     43  C   UNL A   1      42.879  24.773  28.095  1.00  0.00     0.037 A 
ATOM     44  C   UNL A   1      41.994  30.664  32.063  1.00  0.00     0.037 A 
ATOM     45  C   UNL A   1      43.871  25.473  28.917  1.00  0.00     0.049 A 
ATOM     46  C   UNL A   1      42.903  29.600  32.637  1.00  0.00     0.074 A 
ATOM     47  C   UNL A   1      44.870  26.394  28.657  1.00  0.00     0.029 A 
ATOM     48  N   UNL A   1      43.722  25.438  30.302  1.00  0.00    -0.354 N 
ATOM     49  N   UNL A   1      43.329  28.567  31.965  1.00  0.00    -0.248 NA
ATOM     50  C   UNL A   1      43.363  29.589  34.023  1.00  0.00     0.031 C 
ATOM     51  C   UNL A   1      45.266  26.968  29.897  1.00  0.00     0.029 A 
ATOM     52  C   UNL A   1      44.535  26.372  30.910  1.00  0.00     0.049 A 
ATOM     53  H   UNL A   1      43.118  24.827  30.783  1.00  0.00     0.167 HD
ATOM     54  C   UNL A   1      44.044  27.741  32.792  1.00  0.00     0.074 A 
ATOM     55  C   UNL A   1      44.065  28.443  34.062  1.00  0.00     0.031 C 
ATOM     56  C   UNL A   1      44.523  26.535  32.360  1.00  0.00     0.037 A 
BRANCH  43  57
ATOM     57  C   UNL A   1      43.240  23.795  26.988  1.00  0.00     0.064 A 
ATOM     58  C   UNL A   1      42.897  22.429  27.111  1.00  0.00     0.173 A 
ATOM     59  C   UNL A   1      44.035  24.089  25.857  1.00  0.00     0.173 A 
ATOM     60  F   UNL A   1      42.147  21.988  28.130  1.00  0.00    -0.203 F 
ATOM     61  C   UNL A   1      43.336  21.452  26.207  1.00  0.00     0.198 A 
ATOM     62  C   UNL A   1      44.437  23.120  24.932  1.00  0.00     0.198 A 
ATOM     63  F   UNL A   1      44.507  25.311  25.606  1.00  0.00    -0.203 F 
ATOM     64  F   UNL A   1      43.026  20.165  26.415  1.00  0.00    -0.200 F 
ATOM     65  C   UNL A   1      44.102  21.799  25.114  1.00  0.00     0.200 A 
ATOM     66  F   UNL A   1      45.182  23.485  23.877  1.00  0.00    -0.200 F 
ATOM     67  F   UNL A   1      44.530  20.868  24.251  1.00  0.00    -0.200 F 
ENDBRANCH  43  57
BRANCH  44  68
ATOM     68  C   UNL A   1      40.765  31.186  32.714  1.00  0.00     0.064 A 
ATOM     69  C   UNL A   1      40.553  32.578  32.709  1.00  0.00     0.173 A 
ATOM     70  C   UNL A   1      39.661  30.360  32.949  1.00  0.00     0.173 A 
ATOM     71  F   UNL A   1      41.584  33.411  32.492  1.00  0.00    -0.203 F 
ATOM     72  C   UNL A   1      39.271  33.113  32.799  1.00  0.00     0.198 A 
ATOM     73  C   UNL A   1      38.378  30.903  33.052  1.00  0.00     0.198 A 
ATOM     74  F   UNL A   1      39.797  29.027  32.942  1.00  0.00    -0.203 F 
ATOM     75  F   UNL A   1      39.087  34.434  32.663  1.00  0.00    -0.200 F 
ATOM     76  C   UNL A   1      38.181  32.272  32.936  1.00  0.00     0.200 A 
ATOM     77  F   UNL A   1      37.317  30.089  33.146  1.00  0.00    -0.200 F 
ATOM     78  F   UNL A   1      36.938  32.773  32.903  1.00  0.00    -0.200 F 
ENDBRANCH  44  68
BRANCH  56  79
ATOM     79  C   UNL A   1      45.071  25.420  33.228  1.00  0.00     0.064 A 
ATOM     80  C   UNL A   1      46.430  25.063  33.302  1.00  0.00     0.173 A 
ATOM     81  C   UNL A   1      44.227  24.755  34.153  1.00  0.00     0.173 A 
ATOM     82  F   UNL A   1      47.362  25.699  32.583  1.00  0.00    -0.203 F 
ATOM     83  C   UNL A   1      46.893  24.074  34.178  1.00  0.00     0.198 A 
ATOM     84  C   UNL A   1      44.703  23.816  35.069  1.00  0.00     0.198 A 
ATOM     85  F   UNL A   1      42.914  25.020  34.221  1.00  0.00    -0.203 F 
ATOM     86  F   UNL A   1      48.192  23.743  34.175  1.00  0.00    -0.200 F 
ATOM     87  C   UNL A   1      46.034  23.461  35.069  1.00  0.00     0.200 A 
ATOM     88  F   UNL A   1      43.866  23.277  35.967  1.00  0.00    -0.200 F 
ATOM     89  F   UNL A   1      46.493  22.552  35.940  1.00  0.00    -0.200 F 
ENDBRANCH  56  79
ENDBRANCH  30  31
ENDBRANCH  22  25
ENDBRANCH  20  21
ENDBRANCH   1  20
TORSDOF 11
ENDMDL
