MODEL 1
REMARK VINA RESULT:     -14.7      0.000      0.000
REMARK SMILES C[N@@H+]1CCN(C(=O)c2ccc3[nH]c4c(c3c2)CSCC4)C[C@H]1C(=O)NCCCNC(=O)c1ccc(-c2c3nc(c(-c4c(F)c(F)c(F)c(F)c4F)c4ccc([nH]4)c(-c4c(F)c(F)c(F)c(F)c4F)c4nc(c(-c5c(F)c(F)c(F)c(F)c5F)c5ccc2[nH]5)C=C4)C=C3)cc1
REMARK SMILES IDX 27 1 26 2 25 3 23 4 24 5 22 7 1 8 2 9 3 10 4 12 21 13 5 14
REMARK SMILES IDX 6 15 7 16 8 17 9 18 16 19 10 20 15 21 11 22 14 23 12 24
REMARK SMILES IDX 13 25 17 26 20 28 18 29 19 30 28 31 29 32 30 33 31 35 32 36
REMARK SMILES IDX 33 37 94 38 34 39 93 40 35 41 36 42 37 43 87 44 38 45 92 46
REMARK SMILES IDX 86 47 88 48 39 49 91 50 85 51 84 52 40 54 72 55 52 56 71 57
REMARK SMILES IDX 53 58 56 59 70 60 89 61 54 62 55 63 69 65 90 66 57 67 41 68
REMARK SMILES IDX 42 69 50 70 43 71 44 72 48 73 51 74 45 75 46 76 49 77 47 78
REMARK SMILES IDX 73 79 74 80 82 81 75 82 76 83 80 84 83 85 77 86 78 87 81 88
REMARK SMILES IDX 79 89 58 90 59 91 67 92 60 93 61 94 65 95 68 96 62 97 63 98
REMARK SMILES IDX 66 99 64 100
REMARK H PARENT 25 6 2 11 12 27 29 34 88 53 56 64
REMARK Flexibility Score: inf
ROOT
ATOM      1  C   UNL A   1      33.045  30.076  27.248  1.00  0.00     0.042 C 
ENDROOT
BRANCH   1   2
ATOM      2  C   UNL A   1      32.437  30.319  25.869  1.00  0.00     0.118 C 
BRANCH   2   3
ATOM      3  N   UNL A   1      33.208  29.725  24.791  1.00  0.00    -0.351 N 
ATOM      4  C   UNL A   1      33.050  28.531  24.153  1.00  0.00     0.280 C 
ATOM      5  O   UNL A   1      33.842  28.263  23.244  1.00  0.00    -0.268 OA
ATOM      6  H   UNL A   1      33.963  30.270  24.473  1.00  0.00     0.163 HD
BRANCH   4   7
ATOM      7  C   UNL A   1      31.917  27.557  24.511  1.00  0.00     0.293 C 
ATOM      8  C   UNL A   1      30.278  28.650  23.068  1.00  0.00     0.333 C 
ATOM      9  N   UNL A   1      30.943  27.381  23.388  1.00  0.00    -0.324 N 
ATOM     10  C   UNL A   1      29.925  26.380  23.786  1.00  0.00     0.284 C 
ATOM     11  H   UNL A   1      31.450  27.065  22.560  1.00  0.00     0.348 HD
ATOM     12  C   UNL A   1      30.538  25.039  24.227  1.00  0.00     0.181 C 
ATOM     13  C   UNL A   1      32.541  26.238  25.015  1.00  0.00     0.195 C 
ATOM     14  N   UNL A   1      31.531  25.208  25.289  1.00  0.00    -0.326 N 
BRANCH  14  15
ATOM     15  C   UNL A   1      31.640  24.222  26.261  1.00  0.00     0.254 C 
ATOM     16  O   UNL A   1      30.874  24.132  27.227  1.00  0.00    -0.269 OA
BRANCH  15  17
ATOM     17  C   UNL A   1      32.694  23.196  26.130  1.00  0.00     0.040 A 
ATOM     18  C   UNL A   1      33.941  23.372  26.735  1.00  0.00     0.016 A 
ATOM     19  C   UNL A   1      32.398  22.035  25.402  1.00  0.00     0.024 A 
ATOM     20  C   UNL A   1      34.958  22.430  26.557  1.00  0.00     0.027 A 
ATOM     21  C   UNL A   1      33.401  21.062  25.233  1.00  0.00     0.004 A 
ATOM     22  C   UNL A   1      34.659  21.291  25.799  1.00  0.00     0.046 A 
ATOM     23  C   UNL A   1      33.448  19.787  24.590  1.00  0.00    -0.009 A 
ATOM     24  N   UNL A   1      35.453  20.215  25.475  1.00  0.00    -0.358 N 
ATOM     25  C   UNL A   1      34.723  19.287  24.786  1.00  0.00     0.021 A 
ATOM     26  C   UNL A   1      32.324  19.083  23.897  1.00  0.00     0.107 C 
ATOM     27  H   UNL A   1      36.407  20.126  25.706  1.00  0.00     0.166 HD
ATOM     28  C   UNL A   1      35.256  17.968  24.347  1.00  0.00     0.065 C 
ATOM     29  S   UNL A   1      32.834  17.553  23.027  1.00  0.00    -0.157 SA
ATOM     30  C   UNL A   1      34.115  16.957  24.194  1.00  0.00     0.076 C 
ENDBRANCH  15  17
ENDBRANCH  14  15
ENDBRANCH   4   7
ENDBRANCH   2   3
ENDBRANCH   1   2
BRANCH   1  31
ATOM     31  C   UNL A   1      34.338  30.842  27.523  1.00  0.00     0.118 C 
BRANCH  31  32
ATOM     32  N   UNL A   1      34.337  31.593  28.764  1.00  0.00    -0.352 N 
ATOM     33  C   UNL A   1      35.253  31.862  29.741  1.00  0.00     0.251 C 
ATOM     34  H   UNL A   1      33.465  32.010  28.947  1.00  0.00     0.163 HD
ATOM     35  O   UNL A   1      34.915  32.714  30.567  1.00  0.00    -0.269 OA
BRANCH  33  36
ATOM     36  C   UNL A   1      36.563  31.179  29.924  1.00  0.00     0.039 A 
ATOM     37  C   UNL A   1      37.801  31.669  29.519  1.00  0.00     0.014 A 
ATOM     38  C   UNL A   1      36.503  29.881  30.474  1.00  0.00     0.014 A 
ATOM     39  C   UNL A   1      38.926  30.845  29.559  1.00  0.00     0.010 A 
ATOM     40  C   UNL A   1      37.626  29.061  30.530  1.00  0.00     0.010 A 
ATOM     41  C   UNL A   1      38.830  29.525  30.021  1.00  0.00    -0.014 A 
BRANCH  41  42
ATOM     42  C   UNL A   1      40.041  28.705  30.017  1.00  0.00     0.031 A 
ATOM     43  C   UNL A   1      40.707  28.566  31.342  1.00  0.00     0.074 A 
ATOM     44  C   UNL A   1      40.538  28.063  28.938  1.00  0.00     0.049 A 
ATOM     45  N   UNL A   1      41.860  29.032  31.696  1.00  0.00    -0.248 NA
ATOM     46  C   UNL A   1      39.958  27.928  32.434  1.00  0.00     0.031 C 
ATOM     47  C   UNL A   1      39.928  27.859  27.624  1.00  0.00     0.029 A 
ATOM     48  N   UNL A   1      41.723  27.390  28.830  1.00  0.00    -0.354 N 
ATOM     49  C   UNL A   1      42.061  28.629  33.014  1.00  0.00     0.074 A 
ATOM     50  C   UNL A   1      40.815  28.050  33.450  1.00  0.00     0.031 C 
ATOM     51  C   UNL A   1      40.648  26.946  26.929  1.00  0.00     0.029 A 
ATOM     52  C   UNL A   1      41.846  26.615  27.685  1.00  0.00     0.049 A 
ATOM     53  H   UNL A   1      42.432  27.450  29.510  1.00  0.00     0.167 HD
ATOM     54  C   UNL A   1      43.302  28.650  33.577  1.00  0.00     0.037 A 
ATOM     55  C   UNL A   1      42.846  25.745  27.397  1.00  0.00     0.037 A 
ATOM     56  C   UNL A   1      44.191  29.509  32.839  1.00  0.00     0.049 A 
ATOM     57  C   UNL A   1      44.025  26.139  28.206  1.00  0.00     0.074 A 
ATOM     58  C   UNL A   1      44.210  30.856  32.533  1.00  0.00     0.029 A 
ATOM     59  N   UNL A   1      45.105  28.930  31.995  1.00  0.00    -0.354 N 
ATOM     60  N   UNL A   1      44.712  27.229  28.005  1.00  0.00    -0.248 NA
ATOM     61  C   UNL A   1      44.174  25.535  29.522  1.00  0.00     0.031 C 
ATOM     62  C   UNL A   1      44.732  30.925  31.210  1.00  0.00     0.029 A 
ATOM     63  C   UNL A   1      45.052  29.625  30.817  1.00  0.00     0.049 A 
ATOM     64  H   UNL A   1      45.687  28.161  32.197  1.00  0.00     0.167 HD
ATOM     65  C   UNL A   1      45.022  27.683  29.276  1.00  0.00     0.074 A 
ATOM     66  C   UNL A   1      44.739  26.560  30.166  1.00  0.00     0.031 C 
ATOM     67  C   UNL A   1      45.210  29.010  29.523  1.00  0.00     0.037 A 
BRANCH  54  68
ATOM     68  C   UNL A   1      43.825  27.635  34.567  1.00  0.00     0.064 A 
ATOM     69  C   UNL A   1      43.759  26.264  34.235  1.00  0.00     0.173 A 
ATOM     70  C   UNL A   1      44.062  27.917  35.929  1.00  0.00     0.173 A 
ATOM     71  F   UNL A   1      43.551  25.874  32.969  1.00  0.00    -0.203 F 
ATOM     72  C   UNL A   1      43.794  25.264  35.209  1.00  0.00     0.198 A 
ATOM     73  C   UNL A   1      44.146  26.912  36.892  1.00  0.00     0.198 A 
ATOM     74  F   UNL A   1      44.110  29.167  36.402  1.00  0.00    -0.203 F 
ATOM     75  F   UNL A   1      43.573  23.990  34.862  1.00  0.00    -0.200 F 
ATOM     76  C   UNL A   1      43.970  25.591  36.540  1.00  0.00     0.200 A 
ATOM     77  F   UNL A   1      44.312  27.249  38.179  1.00  0.00    -0.200 F 
ATOM     78  F   UNL A   1      43.924  24.644  37.486  1.00  0.00    -0.200 F 
ENDBRANCH  54  68
BRANCH  55  79
ATOM     79  C   UNL A   1      42.770  24.435  26.705  1.00  0.00     0.064 A 
ATOM     80  C   UNL A   1      43.374  24.232  25.451  1.00  0.00     0.173 A 
ATOM     81  C   UNL A   1      42.362  23.275  27.393  1.00  0.00     0.173 A 
ATOM     82  F   UNL A   1      43.835  25.277  24.747  1.00  0.00    -0.203 F 
ATOM     83  C   UNL A   1      43.584  22.948  24.934  1.00  0.00     0.198 A 
ATOM     84  C   UNL A   1      42.568  21.996  26.874  1.00  0.00     0.198 A 
ATOM     85  F   UNL A   1      41.848  23.357  28.628  1.00  0.00    -0.203 F 
ATOM     86  F   UNL A   1      44.223  22.793  23.765  1.00  0.00    -0.200 F 
ATOM     87  C   UNL A   1      43.191  21.831  25.651  1.00  0.00     0.200 A 
ATOM     88  F   UNL A   1      42.220  20.922  27.598  1.00  0.00    -0.200 F 
ATOM     89  F   UNL A   1      43.451  20.601  25.189  1.00  0.00    -0.200 F 
ENDBRANCH  55  79
BRANCH  67  90
ATOM     90  C   UNL A   1      45.327  29.945  28.357  1.00  0.00     0.064 A 
ATOM     91  C   UNL A   1      44.226  30.559  27.736  1.00  0.00     0.173 A 
ATOM     92  C   UNL A   1      46.606  30.391  27.997  1.00  0.00     0.173 A 
ATOM     93  F   UNL A   1      42.972  30.253  28.093  1.00  0.00    -0.203 F 
ATOM     94  C   UNL A   1      44.404  31.565  26.787  1.00  0.00     0.198 A 
ATOM     95  C   UNL A   1      46.780  31.418  27.075  1.00  0.00     0.198 A 
ATOM     96  F   UNL A   1      47.690  29.874  28.598  1.00  0.00    -0.203 F 
ATOM     97  F   UNL A   1      43.339  32.147  26.217  1.00  0.00    -0.200 F 
ATOM     98  C   UNL A   1      45.679  32.002  26.469  1.00  0.00     0.200 A 
ATOM     99  F   UNL A   1      48.012  31.872  26.809  1.00  0.00    -0.200 F 
ATOM    100  F   UNL A   1      45.849  33.012  25.604  1.00  0.00    -0.200 F 
ENDBRANCH  67  90
ENDBRANCH  41  42
ENDBRANCH  33  36
ENDBRANCH  31  32
ENDBRANCH   1  31
TORSDOF 12
ENDMDL
MODEL 2
REMARK VINA RESULT:     -14.5      3.546      9.309
REMARK SMILES C[N@@H+]1CCN(C(=O)c2ccc3[nH]c4c(c3c2)CSCC4)C[C@H]1C(=O)NCCCNC(=O)c1ccc(-c2c3nc(c(-c4c(F)c(F)c(F)c(F)c4F)c4ccc([nH]4)c(-c4c(F)c(F)c(F)c(F)c4F)c4nc(c(-c5c(F)c(F)c(F)c(F)c5F)c5ccc2[nH]5)C=C4)C=C3)cc1
REMARK SMILES IDX 27 1 26 2 25 3 23 4 24 5 22 7 1 8 2 9 3 10 4 12 21 13 5 14
REMARK SMILES IDX 6 15 7 16 8 17 9 18 16 19 10 20 15 21 11 22 14 23 12 24
REMARK SMILES IDX 13 25 17 26 20 28 18 29 19 30 28 31 29 32 30 33 31 35 32 36
REMARK SMILES IDX 33 37 94 38 34 39 93 40 35 41 36 42 37 43 87 44 38 45 92 46
REMARK SMILES IDX 86 47 88 48 39 49 91 50 85 51 84 52 40 54 72 55 52 56 71 57
REMARK SMILES IDX 53 58 56 59 70 60 89 61 54 62 55 63 69 65 90 66 57 67 41 68
REMARK SMILES IDX 42 69 50 70 43 71 44 72 48 73 51 74 45 75 46 76 49 77 47 78
REMARK SMILES IDX 73 79 74 80 82 81 75 82 76 83 80 84 83 85 77 86 78 87 81 88
REMARK SMILES IDX 79 89 58 90 59 91 67 92 60 93 61 94 65 95 68 96 62 97 63 98
REMARK SMILES IDX 66 99 64 100
REMARK H PARENT 25 6 2 11 12 27 29 34 88 53 56 64
REMARK Flexibility Score: inf
ROOT
ATOM      1  C   UNL A   1      38.401  22.228  25.413  1.00  0.00     0.042 C 
ENDROOT
BRANCH   1   2
ATOM      2  C   UNL A   1      37.105  21.432  25.283  1.00  0.00     0.118 C 
BRANCH   2   3
ATOM      3  N   UNL A   1      36.146  21.725  26.334  1.00  0.00    -0.351 N 
ATOM      4  C   UNL A   1      34.857  22.162  26.249  1.00  0.00     0.280 C 
ATOM      5  O   UNL A   1      34.241  22.321  27.308  1.00  0.00    -0.268 OA
ATOM      6  H   UNL A   1      36.479  21.586  27.249  1.00  0.00     0.163 HD
BRANCH   4   7
ATOM      7  C   UNL A   1      34.169  22.420  24.900  1.00  0.00     0.293 C 
ATOM      8  C   UNL A   1      33.218  20.176  24.752  1.00  0.00     0.333 C 
ATOM      9  N   UNL A   1      32.920  21.613  24.737  1.00  0.00    -0.324 N 
ATOM     10  C   UNL A   1      32.282  21.969  23.447  1.00  0.00     0.284 C 
ATOM     11  H   UNL A   1      32.291  21.819  25.514  1.00  0.00     0.348 HD
ATOM     12  C   UNL A   1      32.012  23.477  23.303  1.00  0.00     0.181 C 
ATOM     13  C   UNL A   1      33.962  23.941  24.736  1.00  0.00     0.195 C 
ATOM     14  N   UNL A   1      33.219  24.278  23.515  1.00  0.00    -0.326 N 
BRANCH  14  15
ATOM     15  C   UNL A   1      33.383  25.442  22.776  1.00  0.00     0.254 C 
ATOM     16  O   UNL A   1      33.827  25.458  21.622  1.00  0.00    -0.269 OA
BRANCH  15  17
ATOM     17  C   UNL A   1      32.976  26.733  23.366  1.00  0.00     0.040 A 
ATOM     18  C   UNL A   1      33.808  27.398  24.269  1.00  0.00     0.016 A 
ATOM     19  C   UNL A   1      31.744  27.277  22.977  1.00  0.00     0.024 A 
ATOM     20  C   UNL A   1      33.393  28.587  24.875  1.00  0.00     0.027 A 
ATOM     21  C   UNL A   1      31.320  28.487  23.557  1.00  0.00     0.004 A 
ATOM     22  C   UNL A   1      32.146  29.103  24.502  1.00  0.00     0.046 A 
ATOM     23  C   UNL A   1      30.170  29.318  23.389  1.00  0.00    -0.009 A 
ATOM     24  N   UNL A   1      31.501  30.242  24.925  1.00  0.00    -0.358 N 
ATOM     25  C   UNL A   1      30.334  30.402  24.232  1.00  0.00     0.021 A 
ATOM     26  C   UNL A   1      29.033  29.106  22.438  1.00  0.00     0.107 C 
ATOM     27  H   UNL A   1      31.832  30.853  25.624  1.00  0.00     0.166 HD
ATOM     28  C   UNL A   1      29.427  31.573  24.388  1.00  0.00     0.065 C 
ATOM     29  S   UNL A   1      27.651  30.288  22.664  1.00  0.00    -0.157 SA
ATOM     30  C   UNL A   1      28.607  31.786  23.111  1.00  0.00     0.076 C 
ENDBRANCH  15  17
ENDBRANCH  14  15
ENDBRANCH   4   7
ENDBRANCH   2   3
ENDBRANCH   1   2
BRANCH   1  31
ATOM     31  C   UNL A   1      39.457  21.592  26.316  1.00  0.00     0.118 C 
BRANCH  31  32
ATOM     32  N   UNL A   1      40.824  21.918  25.960  1.00  0.00    -0.352 N 
ATOM     33  C   UNL A   1      41.685  22.942  26.234  1.00  0.00     0.251 C 
ATOM     34  H   UNL A   1      41.231  21.235  25.380  1.00  0.00     0.163 HD
ATOM     35  O   UNL A   1      42.856  22.762  25.887  1.00  0.00    -0.269 OA
BRANCH  33  36
ATOM     36  C   UNL A   1      41.321  24.253  26.840  1.00  0.00     0.039 A 
ATOM     37  C   UNL A   1      40.575  25.255  26.226  1.00  0.00     0.014 A 
ATOM     38  C   UNL A   1      41.876  24.513  28.110  1.00  0.00     0.014 A 
ATOM     39  C   UNL A   1      40.480  26.516  26.815  1.00  0.00     0.010 A 
ATOM     40  C   UNL A   1      41.771  25.765  28.709  1.00  0.00     0.010 A 
ATOM     41  C   UNL A   1      41.117  26.786  28.035  1.00  0.00    -0.014 A 
BRANCH  41  42
ATOM     42  C   UNL A   1      40.999  28.134  28.589  1.00  0.00     0.031 A 
ATOM     43  C   UNL A   1      42.108  29.059  28.227  1.00  0.00     0.074 A 
ATOM     44  C   UNL A   1      39.966  28.575  29.339  1.00  0.00     0.049 A 
ATOM     45  N   UNL A   1      43.000  29.565  29.015  1.00  0.00    -0.248 NA
ATOM     46  C   UNL A   1      42.317  29.374  26.807  1.00  0.00     0.031 C 
ATOM     47  C   UNL A   1      38.679  27.932  29.604  1.00  0.00     0.029 A 
ATOM     48  N   UNL A   1      39.849  29.769  29.992  1.00  0.00    -0.354 N 
ATOM     49  C   UNL A   1      43.806  30.382  28.226  1.00  0.00     0.074 A 
ATOM     50  C   UNL A   1      43.409  30.140  26.863  1.00  0.00     0.031 C 
ATOM     51  C   UNL A   1      37.840  28.825  30.183  1.00  0.00     0.029 A 
ATOM     52  C   UNL A   1      38.574  30.048  30.464  1.00  0.00     0.049 A 
ATOM     53  H   UNL A   1      40.608  30.383  30.118  1.00  0.00     0.167 HD
ATOM     54  C   UNL A   1      44.618  31.323  28.785  1.00  0.00     0.037 A 
ATOM     55  C   UNL A   1      38.149  31.212  31.018  1.00  0.00     0.037 A 
ATOM     56  C   UNL A   1      44.847  31.048  30.180  1.00  0.00     0.049 A 
ATOM     57  C   UNL A   1      39.346  31.924  31.528  1.00  0.00     0.074 A 
ATOM     58  C   UNL A   1      45.422  30.008  30.883  1.00  0.00     0.029 A 
ATOM     59  N   UNL A   1      44.154  31.780  31.111  1.00  0.00    -0.354 N 
ATOM     60  N   UNL A   1      40.051  31.521  32.548  1.00  0.00    -0.248 NA
ATOM     61  C   UNL A   1      40.016  32.851  30.628  1.00  0.00     0.031 C 
ATOM     62  C   UNL A   1      44.635  29.883  32.064  1.00  0.00     0.029 A 
ATOM     63  C   UNL A   1      43.670  30.891  32.032  1.00  0.00     0.049 A 
ATOM     64  H   UNL A   1      44.027  32.757  31.115  1.00  0.00     0.167 HD
ATOM     65  C   UNL A   1      41.362  31.783  32.188  1.00  0.00     0.074 A 
ATOM     66  C   UNL A   1      41.275  32.676  31.036  1.00  0.00     0.031 C 
ATOM     67  C   UNL A   1      42.390  31.032  32.678  1.00  0.00     0.037 A 
BRANCH  54  68
ATOM     68  C   UNL A   1      44.916  32.680  28.189  1.00  0.00     0.064 A 
ATOM     69  C   UNL A   1      46.234  32.963  27.765  1.00  0.00     0.173 A 
ATOM     70  C   UNL A   1      44.072  33.801  28.329  1.00  0.00     0.173 A 
ATOM     71  F   UNL A   1      47.123  31.974  27.584  1.00  0.00    -0.203 F 
ATOM     72  C   UNL A   1      46.701  34.271  27.623  1.00  0.00     0.198 A 
ATOM     73  C   UNL A   1      44.531  35.104  28.138  1.00  0.00     0.198 A 
ATOM     74  F   UNL A   1      42.811  33.696  28.761  1.00  0.00    -0.203 F 
ATOM     75  F   UNL A   1      47.998  34.489  27.370  1.00  0.00    -0.200 F 
ATOM     76  C   UNL A   1      45.852  35.342  27.828  1.00  0.00     0.200 A 
ATOM     77  F   UNL A   1      43.694  36.131  28.346  1.00  0.00    -0.200 F 
ATOM     78  F   UNL A   1      46.315  36.597  27.772  1.00  0.00    -0.200 F 
ENDBRANCH  54  68
BRANCH  55  79
ATOM     79  C   UNL A   1      36.835  31.885  30.878  1.00  0.00     0.064 A 
ATOM     80  C   UNL A   1      35.958  32.014  31.970  1.00  0.00     0.173 A 
ATOM     81  C   UNL A   1      36.542  32.674  29.748  1.00  0.00     0.173 A 
ATOM     82  F   UNL A   1      36.187  31.335  33.104  1.00  0.00    -0.203 F 
ATOM     83  C   UNL A   1      34.875  32.902  31.943  1.00  0.00     0.198 A 
ATOM     84  C   UNL A   1      35.460  33.555  29.722  1.00  0.00     0.198 A 
ATOM     85  F   UNL A   1      37.361  32.681  28.687  1.00  0.00    -0.203 F 
ATOM     86  F   UNL A   1      34.101  33.046  33.028  1.00  0.00    -0.200 F 
ATOM     87  C   UNL A   1      34.634  33.680  30.823  1.00  0.00     0.200 A 
ATOM     88  F   UNL A   1      35.263  34.332  28.646  1.00  0.00    -0.200 F 
ATOM     89  F   UNL A   1      33.640  34.577  30.821  1.00  0.00    -0.200 F 
ENDBRANCH  55  79
BRANCH  67  90
ATOM     90  C   UNL A   1      42.109  30.083  33.805  1.00  0.00     0.064 A 
ATOM     91  C   UNL A   1      41.683  28.758  33.619  1.00  0.00     0.173 A 
ATOM     92  C   UNL A   1      42.485  30.469  35.099  1.00  0.00     0.173 A 
ATOM     93  F   UNL A   1      41.395  28.288  32.399  1.00  0.00    -0.203 F 
ATOM     94  C   UNL A   1      41.624  27.865  34.689  1.00  0.00     0.198 A 
ATOM     95  C   UNL A   1      42.458  29.568  36.157  1.00  0.00     0.198 A 
ATOM     96  F   UNL A   1      42.949  31.710  35.320  1.00  0.00    -0.203 F 
ATOM     97  F   UNL A   1      41.229  26.600  34.488  1.00  0.00    -0.200 F 
ATOM     98  C   UNL A   1      42.025  28.268  35.952  1.00  0.00     0.200 A 
ATOM     99  F   UNL A   1      42.896  29.947  37.366  1.00  0.00    -0.200 F 
ATOM    100  F   UNL A   1      42.030  27.393  36.968  1.00  0.00    -0.200 F 
ENDBRANCH  67  90
ENDBRANCH  41  42
ENDBRANCH  33  36
ENDBRANCH  31  32
ENDBRANCH   1  31
TORSDOF 12
ENDMDL
MODEL 3
REMARK VINA RESULT:     -14.2      3.465      9.349
REMARK SMILES C[N@@H+]1CCN(C(=O)c2ccc3[nH]c4c(c3c2)CSCC4)C[C@H]1C(=O)NCCCNC(=O)c1ccc(-c2c3nc(c(-c4c(F)c(F)c(F)c(F)c4F)c4ccc([nH]4)c(-c4c(F)c(F)c(F)c(F)c4F)c4nc(c(-c5c(F)c(F)c(F)c(F)c5F)c5ccc2[nH]5)C=C4)C=C3)cc1
REMARK SMILES IDX 27 1 26 2 25 3 23 4 24 5 22 7 1 8 2 9 3 10 4 12 21 13 5 14
REMARK SMILES IDX 6 15 7 16 8 17 9 18 16 19 10 20 15 21 11 22 14 23 12 24
REMARK SMILES IDX 13 25 17 26 20 28 18 29 19 30 28 31 29 32 30 33 31 35 32 36
REMARK SMILES IDX 33 37 94 38 34 39 93 40 35 41 36 42 37 43 87 44 38 45 92 46
REMARK SMILES IDX 86 47 88 48 39 49 91 50 85 51 84 52 40 54 72 55 52 56 71 57
REMARK SMILES IDX 53 58 56 59 70 60 89 61 54 62 55 63 69 65 90 66 57 67 41 68
REMARK SMILES IDX 42 69 50 70 43 71 44 72 48 73 51 74 45 75 46 76 49 77 47 78
REMARK SMILES IDX 73 79 74 80 82 81 75 82 76 83 80 84 83 85 77 86 78 87 81 88
REMARK SMILES IDX 79 89 58 90 59 91 67 92 60 93 61 94 65 95 68 96 62 97 63 98
REMARK SMILES IDX 66 99 64 100
REMARK H PARENT 25 6 2 11 12 27 29 34 88 53 56 64
REMARK Flexibility Score: inf
ROOT
ATOM      1  C   UNL A   1      38.572  20.625  25.196  1.00  0.00     0.042 C 
ENDROOT
BRANCH   1   2
ATOM      2  C   UNL A   1      37.136  20.964  24.803  1.00  0.00     0.118 C 
BRANCH   2   3
ATOM      3  N   UNL A   1      36.366  21.541  25.892  1.00  0.00    -0.351 N 
ATOM      4  C   UNL A   1      35.114  22.078  25.892  1.00  0.00     0.280 C 
ATOM      5  O   UNL A   1      34.673  22.493  26.970  1.00  0.00    -0.268 OA
ATOM      6  H   UNL A   1      36.821  21.544  26.765  1.00  0.00     0.163 HD
BRANCH   4   7
ATOM      7  C   UNL A   1      34.253  22.145  24.622  1.00  0.00     0.293 C 
ATOM      8  C   UNL A   1      33.543  19.814  24.763  1.00  0.00     0.333 C 
ATOM      9  N   UNL A   1      33.089  21.207  24.675  1.00  0.00    -0.324 N 
ATOM     10  C   UNL A   1      32.274  21.381  23.449  1.00  0.00     0.284 C 
ATOM     11  H   UNL A   1      32.534  21.417  25.505  1.00  0.00     0.348 HD
ATOM     12  C   UNL A   1      31.825  22.835  23.224  1.00  0.00     0.181 C 
ATOM     13  C   UNL A   1      33.863  23.617  24.368  1.00  0.00     0.195 C 
ATOM     14  N   UNL A   1      32.953  23.768  23.225  1.00  0.00    -0.326 N 
BRANCH  14  15
ATOM     15  C   UNL A   1      32.905  24.872  22.384  1.00  0.00     0.254 C 
ATOM     16  O   UNL A   1      33.309  24.856  21.216  1.00  0.00    -0.269 OA
BRANCH  15  17
ATOM     17  C   UNL A   1      32.305  26.128  22.879  1.00  0.00     0.040 A 
ATOM     18  C   UNL A   1      31.086  26.585  22.373  1.00  0.00     0.016 A 
ATOM     19  C   UNL A   1      32.985  26.832  23.883  1.00  0.00     0.024 A 
ATOM     20  C   UNL A   1      30.553  27.805  22.797  1.00  0.00     0.027 A 
ATOM     21  C   UNL A   1      32.450  28.051  24.342  1.00  0.00     0.004 A 
ATOM     22  C   UNL A   1      31.258  28.515  23.777  1.00  0.00     0.046 A 
ATOM     23  C   UNL A   1      32.847  28.997  25.337  1.00  0.00    -0.009 A 
ATOM     24  N   UNL A   1      30.966  29.719  24.374  1.00  0.00    -0.358 N 
ATOM     25  C   UNL A   1      31.891  29.996  25.342  1.00  0.00     0.021 A 
ATOM     26  C   UNL A   1      34.028  28.903  26.252  1.00  0.00     0.107 C 
ATOM     27  H   UNL A   1      30.203  30.296  24.140  1.00  0.00     0.166 HD
ATOM     28  C   UNL A   1      31.830  31.187  26.234  1.00  0.00     0.065 C 
ATOM     29  S   UNL A   1      34.310  30.412  27.251  1.00  0.00    -0.157 SA
ATOM     30  C   UNL A   1      32.570  30.906  27.547  1.00  0.00     0.076 C 
ENDBRANCH  15  17
ENDBRANCH  14  15
ENDBRANCH   4   7
ENDBRANCH   2   3
ENDBRANCH   1   2
BRANCH   1  31
ATOM     31  C   UNL A   1      39.222  21.614  26.162  1.00  0.00     0.118 C 
BRANCH  31  32
ATOM     32  N   UNL A   1      40.622  21.882  25.893  1.00  0.00    -0.352 N 
ATOM     33  C   UNL A   1      41.514  22.853  26.250  1.00  0.00     0.251 C 
ATOM     34  H   UNL A   1      41.028  21.198  25.313  1.00  0.00     0.163 HD
ATOM     35  O   UNL A   1      42.693  22.624  25.962  1.00  0.00    -0.269 OA
BRANCH  33  36
ATOM     36  C   UNL A   1      41.181  24.160  26.879  1.00  0.00     0.039 A 
ATOM     37  C   UNL A   1      40.298  25.108  26.371  1.00  0.00     0.014 A 
ATOM     38  C   UNL A   1      41.912  24.481  28.043  1.00  0.00     0.014 A 
ATOM     39  C   UNL A   1      40.230  26.378  26.943  1.00  0.00     0.010 A 
ATOM     40  C   UNL A   1      41.836  25.741  28.627  1.00  0.00     0.010 A 
ATOM     41  C   UNL A   1      41.033  26.711  28.043  1.00  0.00    -0.014 A 
BRANCH  41  42
ATOM     42  C   UNL A   1      40.932  28.066  28.584  1.00  0.00     0.031 A 
ATOM     43  C   UNL A   1      42.060  28.970  28.222  1.00  0.00     0.074 A 
ATOM     44  C   UNL A   1      39.901  28.532  29.320  1.00  0.00     0.049 A 
ATOM     45  N   UNL A   1      42.954  29.468  29.013  1.00  0.00    -0.248 NA
ATOM     46  C   UNL A   1      42.286  29.267  26.802  1.00  0.00     0.031 C 
ATOM     47  C   UNL A   1      38.601  27.912  29.580  1.00  0.00     0.029 A 
ATOM     48  N   UNL A   1      39.798  29.734  29.961  1.00  0.00    -0.354 N 
ATOM     49  C   UNL A   1      43.780  30.264  28.224  1.00  0.00     0.074 A 
ATOM     50  C   UNL A   1      43.390  30.016  26.859  1.00  0.00     0.031 C 
ATOM     51  C   UNL A   1      37.772  28.824  30.143  1.00  0.00     0.029 A 
ATOM     52  C   UNL A   1      38.523  30.038  30.419  1.00  0.00     0.049 A 
ATOM     53  H   UNL A   1      40.566  30.336  30.087  1.00  0.00     0.167 HD
ATOM     54  C   UNL A   1      44.602  31.198  28.781  1.00  0.00     0.037 A 
ATOM     55  C   UNL A   1      38.113  31.214  30.958  1.00  0.00     0.037 A 
ATOM     56  C   UNL A   1      44.815  30.933  30.180  1.00  0.00     0.049 A 
ATOM     57  C   UNL A   1      39.317  31.912  31.471  1.00  0.00     0.074 A 
ATOM     58  C   UNL A   1      45.366  29.890  30.898  1.00  0.00     0.029 A 
ATOM     59  N   UNL A   1      44.125  31.685  31.098  1.00  0.00    -0.354 N 
ATOM     60  N   UNL A   1      40.006  31.507  32.501  1.00  0.00    -0.248 NA
ATOM     61  C   UNL A   1      40.010  32.818  30.568  1.00  0.00     0.031 C 
ATOM     62  C   UNL A   1      44.567  29.790  32.073  1.00  0.00     0.029 A 
ATOM     63  C   UNL A   1      43.619  30.813  32.023  1.00  0.00     0.049 A 
ATOM     64  H   UNL A   1      44.015  32.663  31.091  1.00  0.00     0.167 HD
ATOM     65  C   UNL A   1      41.325  31.744  32.150  1.00  0.00     0.074 A 
ATOM     66  C   UNL A   1      41.262  32.627  30.989  1.00  0.00     0.031 C 
ATOM     67  C   UNL A   1      42.336  30.981  32.656  1.00  0.00     0.037 A 
BRANCH  54  68
ATOM     68  C   UNL A   1      44.927  32.543  28.173  1.00  0.00     0.064 A 
ATOM     69  C   UNL A   1      43.879  33.469  27.968  1.00  0.00     0.173 A 
ATOM     70  C   UNL A   1      46.126  32.825  27.485  1.00  0.00     0.173 A 
ATOM     71  F   UNL A   1      42.696  33.311  28.580  1.00  0.00    -0.203 F 
ATOM     72  C   UNL A   1      43.983  34.512  27.046  1.00  0.00     0.198 A 
ATOM     73  C   UNL A   1      46.241  33.899  26.603  1.00  0.00     0.198 A 
ATOM     74  F   UNL A   1      47.191  32.019  27.548  1.00  0.00    -0.203 F 
ATOM     75  F   UNL A   1      42.912  35.268  26.774  1.00  0.00    -0.200 F 
ATOM     76  C   UNL A   1      45.160  34.716  26.351  1.00  0.00     0.200 A 
ATOM     77  F   UNL A   1      47.389  34.077  25.933  1.00  0.00    -0.200 F 
ATOM     78  F   UNL A   1      45.238  35.664  25.409  1.00  0.00    -0.200 F 
ENDBRANCH  54  68
BRANCH  55  79
ATOM     79  C   UNL A   1      36.811  31.907  30.800  1.00  0.00     0.064 A 
ATOM     80  C   UNL A   1      35.936  32.078  31.887  1.00  0.00     0.173 A 
ATOM     81  C   UNL A   1      36.534  32.674  29.651  1.00  0.00     0.173 A 
ATOM     82  F   UNL A   1      36.151  31.422  33.037  1.00  0.00    -0.203 F 
ATOM     83  C   UNL A   1      34.869  32.984  31.837  1.00  0.00     0.198 A 
ATOM     84  C   UNL A   1      35.468  33.574  29.602  1.00  0.00     0.198 A 
ATOM     85  F   UNL A   1      37.354  32.641  28.591  1.00  0.00    -0.203 F 
ATOM     86  F   UNL A   1      34.096  33.168  32.918  1.00  0.00    -0.200 F 
ATOM     87  C   UNL A   1      34.643  33.739  30.699  1.00  0.00     0.200 A 
ATOM     88  F   UNL A   1      35.286  34.328  28.509  1.00  0.00    -0.200 F 
ATOM     89  F   UNL A   1      33.665  34.654  30.674  1.00  0.00    -0.200 F 
ENDBRANCH  55  79
BRANCH  67  90
ATOM     90  C   UNL A   1      42.030  30.048  33.790  1.00  0.00     0.064 A 
ATOM     91  C   UNL A   1      41.619  28.716  33.614  1.00  0.00     0.173 A 
ATOM     92  C   UNL A   1      42.366  30.457  35.087  1.00  0.00     0.173 A 
ATOM     93  F   UNL A   1      41.369  28.226  32.393  1.00  0.00    -0.203 F 
ATOM     94  C   UNL A   1      41.536  27.841  34.695  1.00  0.00     0.198 A 
ATOM     95  C   UNL A   1      42.315  29.572  36.159  1.00  0.00     0.198 A 
ATOM     96  F   UNL A   1      42.815  31.705  35.302  1.00  0.00    -0.203 F 
ATOM     97  F   UNL A   1      41.155  26.569  34.503  1.00  0.00    -0.200 F 
ATOM     98  C   UNL A   1      41.898  28.266  35.963  1.00  0.00     0.200 A 
ATOM     99  F   UNL A   1      42.716  29.974  37.373  1.00  0.00    -0.200 F 
ATOM    100  F   UNL A   1      41.880  27.407  36.992  1.00  0.00    -0.200 F 
ENDBRANCH  67  90
ENDBRANCH  41  42
ENDBRANCH  33  36
ENDBRANCH  31  32
ENDBRANCH   1  31
TORSDOF 12
ENDMDL
