MODEL 1
REMARK VINA RESULT:     -14.2      0.000      0.000
REMARK SMILES Cn1c(=O)c(=O)n(C)c2cc(S(=O)(=O)N3CCC[C@H]3C(=O)NCCCNC(=O)c3ccc(-c4c5nc(c(-c6c(F)c(F)c(F)c(F)c6F)c6ccc([nH]6)c(-c6c(F)c(F)c(F)c(F)c6F)c6nc(c(-c7c(F)c(F)c(F)c(F)c7F)c7ccc4[nH]7)C=C6)C=C5)cc3)ccc21
REMARK SMILES IDX 24 1 23 2 22 3 20 4 21 5 19 7 15 8 16 9 17 10 18 11 12 12
REMARK SMILES IDX 13 13 14 14 11 15 1 16 2 17 3 18 94 19 4 20 5 21 9 22 93 23
REMARK SMILES IDX 6 24 7 25 10 26 92 27 8 28 25 29 26 30 27 31 28 33 29 34
REMARK SMILES IDX 30 35 91 36 31 37 90 38 32 39 33 40 34 41 84 42 35 43 89 44
REMARK SMILES IDX 83 45 85 46 36 47 88 48 82 49 81 50 37 52 69 53 49 54 68 55
REMARK SMILES IDX 50 56 53 57 67 58 86 59 51 60 52 61 66 63 87 64 54 65 38 66
REMARK SMILES IDX 39 67 47 68 40 69 41 70 45 71 48 72 42 73 43 74 46 75 44 76
REMARK SMILES IDX 70 77 71 78 79 79 72 80 73 81 77 82 80 83 74 84 75 85 78 86
REMARK SMILES IDX 76 87 55 88 56 89 64 90 57 91 58 92 62 93 65 94 59 95 60 96
REMARK SMILES IDX 63 97 61 98
REMARK H PARENT 22 6 26 32 85 51 53 62
REMARK Flexibility Score: inf
ROOT
ATOM      1  C   UNL A   1      31.485  31.997  26.826  1.00  0.00     0.042 C 
ENDROOT
BRANCH   1   2
ATOM      2  C   UNL A   1      31.785  30.669  26.140  1.00  0.00     0.117 C 
BRANCH   2   3
ATOM      3  N   UNL A   1      30.931  30.433  24.981  1.00  0.00    -0.355 N 
ATOM      4  C   UNL A   1      31.002  29.446  24.025  1.00  0.00     0.238 C 
ATOM      5  O   UNL A   1      30.169  29.443  23.119  1.00  0.00    -0.273 OA
ATOM      6  H   UNL A   1      30.194  31.076  24.867  1.00  0.00     0.163 HD
BRANCH   4   7
ATOM      7  C   UNL A   1      32.162  28.466  24.095  1.00  0.00     0.162 C 
ATOM      8  N   UNL A   1      31.850  27.038  23.879  1.00  0.00    -0.185 NA
ATOM      9  C   UNL A   1      32.445  26.577  22.619  1.00  0.00     0.103 C 
ATOM     10  C   UNL A   1      33.651  27.475  22.437  1.00  0.00     0.019 C 
ATOM     11  C   UNL A   1      33.211  28.806  23.026  1.00  0.00     0.032 C 
BRANCH   8  12
ATOM     12  S   UNL A   1      31.732  26.007  25.200  1.00  0.00     0.243 S 
ATOM     13  O   UNL A   1      30.540  25.209  25.023  1.00  0.00    -0.207 OA
ATOM     14  O   UNL A   1      31.953  26.794  26.396  1.00  0.00    -0.207 OA
BRANCH  12  15
ATOM     15  C   UNL A   1      33.113  24.859  25.135  1.00  0.00     0.084 A 
ATOM     16  C   UNL A   1      37.619  22.447  25.464  1.00  0.00     0.154 C 
ATOM     17  N   UNL A   1      36.251  22.006  25.224  1.00  0.00    -0.305 N 
ATOM     18  C   UNL A   1      36.028  20.646  25.029  1.00  0.00     0.316 A 
ATOM     19  C   UNL A   1      35.189  22.944  25.194  1.00  0.00     0.068 A 
ATOM     20  O   UNL A   1      36.925  19.807  25.041  1.00  0.00    -0.263 OA
ATOM     21  C   UNL A   1      34.585  20.184  24.796  1.00  0.00     0.316 A 
ATOM     22  C   UNL A   1      33.868  22.537  24.932  1.00  0.00     0.069 A 
ATOM     23  C   UNL A   1      35.444  24.298  25.432  1.00  0.00     0.030 A 
ATOM     24  O   UNL A   1      34.372  18.982  24.668  1.00  0.00    -0.263 OA
ATOM     25  N   UNL A   1      33.584  21.157  24.742  1.00  0.00    -0.305 N 
ATOM     26  C   UNL A   1      32.841  23.506  24.888  1.00  0.00     0.050 A 
ATOM     27  C   UNL A   1      34.421  25.240  25.405  1.00  0.00     0.024 A 
ATOM     28  C   UNL A   1      32.218  20.710  24.521  1.00  0.00     0.154 C 
ENDBRANCH  12  15
ENDBRANCH   8  12
ENDBRANCH   4   7
ENDBRANCH   2   3
ENDBRANCH   1   2
BRANCH   1  29
ATOM     29  C   UNL A   1      32.741  32.751  27.243  1.00  0.00     0.118 C 
BRANCH  29  30
ATOM     30  N   UNL A   1      32.457  34.129  27.625  1.00  0.00    -0.352 N 
ATOM     31  C   UNL A   1      33.021  34.909  28.606  1.00  0.00     0.251 C 
ATOM     32  H   UNL A   1      31.752  34.569  27.097  1.00  0.00     0.163 HD
ATOM     33  O   UNL A   1      32.515  35.988  28.897  1.00  0.00    -0.269 OA
BRANCH  31  34
ATOM     34  C   UNL A   1      34.214  34.434  29.341  1.00  0.00     0.039 A 
ATOM     35  C   UNL A   1      35.494  34.607  28.812  1.00  0.00     0.014 A 
ATOM     36  C   UNL A   1      34.045  33.793  30.571  1.00  0.00     0.014 A 
ATOM     37  C   UNL A   1      36.579  33.978  29.414  1.00  0.00     0.010 A 
ATOM     38  C   UNL A   1      35.150  33.238  31.221  1.00  0.00     0.010 A 
ATOM     39  C   UNL A   1      36.417  33.276  30.619  1.00  0.00    -0.014 A 
BRANCH  39  40
ATOM     40  C   UNL A   1      37.579  32.570  31.218  1.00  0.00     0.031 A 
ATOM     41  C   UNL A   1      38.043  32.905  32.609  1.00  0.00     0.074 A 
ATOM     42  C   UNL A   1      38.179  31.583  30.527  1.00  0.00     0.049 A 
ATOM     43  N   UNL A   1      39.040  32.400  33.293  1.00  0.00    -0.248 NA
ATOM     44  C   UNL A   1      37.292  33.945  33.331  1.00  0.00     0.031 C 
ATOM     45  C   UNL A   1      37.806  31.151  29.179  1.00  0.00     0.029 A 
ATOM     46  N   UNL A   1      39.213  30.749  30.870  1.00  0.00    -0.354 N 
ATOM     47  C   UNL A   1      39.049  33.072  34.508  1.00  0.00     0.074 A 
ATOM     48  C   UNL A   1      37.974  34.039  34.464  1.00  0.00     0.031 C 
ATOM     49  C   UNL A   1      38.565  30.102  28.830  1.00  0.00     0.029 A 
ATOM     50  C   UNL A   1      39.519  29.829  29.898  1.00  0.00     0.049 A 
ATOM     51  H   UNL A   1      39.690  30.805  31.729  1.00  0.00     0.167 HD
ATOM     52  C   UNL A   1      39.873  32.890  35.567  1.00  0.00     0.037 A 
ATOM     53  C   UNL A   1      40.473  28.880  29.863  1.00  0.00     0.037 A 
ATOM     54  C   UNL A   1      40.927  31.911  35.618  1.00  0.00     0.049 A 
ATOM     55  C   UNL A   1      41.399  28.726  31.036  1.00  0.00     0.074 A 
ATOM     56  C   UNL A   1      41.805  31.642  36.654  1.00  0.00     0.029 A 
ATOM     57  N   UNL A   1      41.240  31.034  34.591  1.00  0.00    -0.354 N 
ATOM     58  N   UNL A   1      41.405  29.379  32.174  1.00  0.00    -0.248 NA
ATOM     59  C   UNL A   1      42.456  27.714  30.916  1.00  0.00     0.031 C 
ATOM     60  C   UNL A   1      42.675  30.628  36.239  1.00  0.00     0.029 A 
ATOM     61  C   UNL A   1      42.310  30.234  34.962  1.00  0.00     0.049 A 
ATOM     62  H   UNL A   1      40.773  30.985  33.726  1.00  0.00     0.167 HD
ATOM     63  C   UNL A   1      42.459  28.853  32.908  1.00  0.00     0.074 A 
ATOM     64  C   UNL A   1      43.054  27.811  32.096  1.00  0.00     0.031 C 
ATOM     65  C   UNL A   1      42.895  29.206  34.141  1.00  0.00     0.037 A 
BRANCH  52  66
ATOM     66  C   UNL A   1      39.680  33.775  36.764  1.00  0.00     0.064 A 
ATOM     67  C   UNL A   1      40.251  35.055  36.831  1.00  0.00     0.173 A 
ATOM     68  C   UNL A   1      38.861  33.365  37.827  1.00  0.00     0.173 A 
ATOM     69  F   UNL A   1      41.056  35.487  35.848  1.00  0.00    -0.203 F 
ATOM     70  C   UNL A   1      40.021  35.884  37.925  1.00  0.00     0.198 A 
ATOM     71  C   UNL A   1      38.614  34.207  38.908  1.00  0.00     0.198 A 
ATOM     72  F   UNL A   1      38.290  32.152  37.811  1.00  0.00    -0.203 F 
ATOM     73  F   UNL A   1      40.606  37.089  37.985  1.00  0.00    -0.200 F 
ATOM     74  C   UNL A   1      39.196  35.465  38.958  1.00  0.00     0.200 A 
ATOM     75  F   UNL A   1      37.809  33.803  39.901  1.00  0.00    -0.200 F 
ATOM     76  F   UNL A   1      38.967  36.269  40.005  1.00  0.00    -0.200 F 
ENDBRANCH  52  66
BRANCH  53  77
ATOM     77  C   UNL A   1      40.591  28.006  28.670  1.00  0.00     0.064 A 
ATOM     78  C   UNL A   1      39.903  26.789  28.599  1.00  0.00     0.173 A 
ATOM     79  C   UNL A   1      41.363  28.388  27.562  1.00  0.00     0.173 A 
ATOM     80  F   UNL A   1      39.170  26.373  29.643  1.00  0.00    -0.203 F 
ATOM     81  C   UNL A   1      39.983  25.983  27.464  1.00  0.00     0.198 A 
ATOM     82  C   UNL A   1      41.420  27.596  26.418  1.00  0.00     0.198 A 
ATOM     83  F   UNL A   1      42.038  29.547  27.581  1.00  0.00    -0.203 F 
ATOM     84  F   UNL A   1      39.336  24.811  27.431  1.00  0.00    -0.200 F 
ATOM     85  C   UNL A   1      40.733  26.393  26.372  1.00  0.00     0.200 A 
ATOM     86  F   UNL A   1      42.132  28.004  25.359  1.00  0.00    -0.200 F 
ATOM     87  F   UNL A   1      40.795  25.626  25.275  1.00  0.00    -0.200 F 
ENDBRANCH  53  77
BRANCH  65  88
ATOM     88  C   UNL A   1      44.069  28.455  34.694  1.00  0.00     0.064 A 
ATOM     89  C   UNL A   1      45.380  28.925  34.529  1.00  0.00     0.173 A 
ATOM     90  C   UNL A   1      43.877  27.282  35.439  1.00  0.00     0.173 A 
ATOM     91  F   UNL A   1      45.613  30.036  33.813  1.00  0.00    -0.203 F 
ATOM     92  C   UNL A   1      46.460  28.236  35.073  1.00  0.00     0.198 A 
ATOM     93  C   UNL A   1      44.958  26.609  36.003  1.00  0.00     0.198 A 
ATOM     94  F   UNL A   1      42.641  26.796  35.630  1.00  0.00    -0.203 F 
ATOM     95  F   UNL A   1      47.707  28.681  34.871  1.00  0.00    -0.200 F 
ATOM     96  C   UNL A   1      46.247  27.083  35.815  1.00  0.00     0.200 A 
ATOM     97  F   UNL A   1      44.750  25.503  36.731  1.00  0.00    -0.200 F 
ATOM     98  F   UNL A   1      47.287  26.426  36.346  1.00  0.00    -0.200 F 
ENDBRANCH  65  88
ENDBRANCH  39  40
ENDBRANCH  31  34
ENDBRANCH  29  30
ENDBRANCH   1  29
TORSDOF 12
ENDMDL
MODEL 2
REMARK VINA RESULT:     -14.1      0.508      7.124
REMARK SMILES Cn1c(=O)c(=O)n(C)c2cc(S(=O)(=O)N3CCC[C@H]3C(=O)NCCCNC(=O)c3ccc(-c4c5nc(c(-c6c(F)c(F)c(F)c(F)c6F)c6ccc([nH]6)c(-c6c(F)c(F)c(F)c(F)c6F)c6nc(c(-c7c(F)c(F)c(F)c(F)c7F)c7ccc4[nH]7)C=C6)C=C5)cc3)ccc21
REMARK SMILES IDX 24 1 23 2 22 3 20 4 21 5 19 7 15 8 16 9 17 10 18 11 12 12
REMARK SMILES IDX 13 13 14 14 11 15 1 16 2 17 3 18 94 19 4 20 5 21 9 22 93 23
REMARK SMILES IDX 6 24 7 25 10 26 92 27 8 28 25 29 26 30 27 31 28 33 29 34
REMARK SMILES IDX 30 35 91 36 31 37 90 38 32 39 33 40 34 41 84 42 35 43 89 44
REMARK SMILES IDX 83 45 85 46 36 47 88 48 82 49 81 50 37 52 69 53 49 54 68 55
REMARK SMILES IDX 50 56 53 57 67 58 86 59 51 60 52 61 66 63 87 64 54 65 38 66
REMARK SMILES IDX 39 67 47 68 40 69 41 70 45 71 48 72 42 73 43 74 46 75 44 76
REMARK SMILES IDX 70 77 71 78 79 79 72 80 73 81 77 82 80 83 74 84 75 85 78 86
REMARK SMILES IDX 76 87 55 88 56 89 64 90 57 91 58 92 62 93 65 94 59 95 60 96
REMARK SMILES IDX 63 97 61 98
REMARK H PARENT 22 6 26 32 85 51 53 62
REMARK Flexibility Score: inf
ROOT
ATOM      1  C   UNL A   1      31.511  31.976  26.866  1.00  0.00     0.042 C 
ENDROOT
BRANCH   1   2
ATOM      2  C   UNL A   1      31.809  30.663  26.152  1.00  0.00     0.117 C 
BRANCH   2   3
ATOM      3  N   UNL A   1      30.958  30.454  24.986  1.00  0.00    -0.355 N 
ATOM      4  C   UNL A   1      31.021  29.480  24.016  1.00  0.00     0.238 C 
ATOM      5  O   UNL A   1      30.194  29.501  23.105  1.00  0.00    -0.273 OA
ATOM      6  H   UNL A   1      30.231  31.109  24.876  1.00  0.00     0.163 HD
BRANCH   4   7
ATOM      7  C   UNL A   1      32.168  28.483  24.079  1.00  0.00     0.162 C 
ATOM      8  N   UNL A   1      31.836  27.062  23.848  1.00  0.00    -0.185 NA
ATOM      9  C   UNL A   1      32.427  26.605  22.585  1.00  0.00     0.103 C 
ATOM     10  C   UNL A   1      33.646  27.488  22.414  1.00  0.00     0.019 C 
ATOM     11  C   UNL A   1      33.223  28.819  23.016  1.00  0.00     0.032 C 
BRANCH   8  12
ATOM     12  S   UNL A   1      31.701  26.020  25.159  1.00  0.00     0.243 S 
ATOM     13  O   UNL A   1      30.505  25.231  24.965  1.00  0.00    -0.207 OA
ATOM     14  O   UNL A   1      31.918  26.794  26.364  1.00  0.00    -0.207 OA
BRANCH  12  15
ATOM     15  C   UNL A   1      33.075  24.863  25.094  1.00  0.00     0.084 A 
ATOM     16  C   UNL A   1      37.565  22.423  25.424  1.00  0.00     0.154 C 
ATOM     17  N   UNL A   1      36.195  21.990  25.184  1.00  0.00    -0.305 N 
ATOM     18  C   UNL A   1      35.964  20.632  24.989  1.00  0.00     0.316 A 
ATOM     19  C   UNL A   1      35.138  22.935  25.154  1.00  0.00     0.068 A 
ATOM     20  O   UNL A   1      36.855  19.788  25.001  1.00  0.00    -0.263 OA
ATOM     21  C   UNL A   1      34.517  20.179  24.755  1.00  0.00     0.316 A 
ATOM     22  C   UNL A   1      33.815  22.536  24.890  1.00  0.00     0.069 A 
ATOM     23  C   UNL A   1      35.402  24.287  25.392  1.00  0.00     0.030 A 
ATOM     24  O   UNL A   1      34.297  18.978  24.626  1.00  0.00    -0.263 OA
ATOM     25  N   UNL A   1      33.523  21.158  24.700  1.00  0.00    -0.305 N 
ATOM     26  C   UNL A   1      32.795  23.512  24.846  1.00  0.00     0.050 A 
ATOM     27  C   UNL A   1      34.385  25.235  25.364  1.00  0.00     0.024 A 
ATOM     28  C   UNL A   1      32.154  20.720  24.479  1.00  0.00     0.154 C 
ENDBRANCH  12  15
ENDBRANCH   8  12
ENDBRANCH   4   7
ENDBRANCH   2   3
ENDBRANCH   1   2
BRANCH   1  29
ATOM     29  C   UNL A   1      32.767  32.725  27.288  1.00  0.00     0.118 C 
BRANCH  29  30
ATOM     30  N   UNL A   1      32.498  34.122  27.608  1.00  0.00    -0.352 N 
ATOM     31  C   UNL A   1      33.025  34.922  28.594  1.00  0.00     0.251 C 
ATOM     32  H   UNL A   1      31.835  34.561  27.026  1.00  0.00     0.163 HD
ATOM     33  O   UNL A   1      32.530  36.022  28.820  1.00  0.00    -0.269 OA
BRANCH  31  34
ATOM     34  C   UNL A   1      34.161  34.444  29.411  1.00  0.00     0.039 A 
ATOM     35  C   UNL A   1      35.467  34.497  28.919  1.00  0.00     0.014 A 
ATOM     36  C   UNL A   1      33.914  33.923  30.683  1.00  0.00     0.014 A 
ATOM     37  C   UNL A   1      36.491  33.861  29.612  1.00  0.00     0.010 A 
ATOM     38  C   UNL A   1      34.961  33.363  31.420  1.00  0.00     0.010 A 
ATOM     39  C   UNL A   1      36.247  33.277  30.865  1.00  0.00    -0.014 A 
BRANCH  39  40
ATOM     40  C   UNL A   1      37.344  32.559  31.565  1.00  0.00     0.031 A 
ATOM     41  C   UNL A   1      38.071  31.428  30.889  1.00  0.00     0.074 A 
ATOM     42  C   UNL A   1      37.724  32.967  32.790  1.00  0.00     0.049 A 
ATOM     43  N   UNL A   1      39.047  30.683  31.345  1.00  0.00    -0.248 NA
ATOM     44  C   UNL A   1      37.649  31.086  29.521  1.00  0.00     0.031 C 
ATOM     45  C   UNL A   1      37.111  34.065  33.539  1.00  0.00     0.029 A 
ATOM     46  N   UNL A   1      38.729  32.523  33.612  1.00  0.00    -0.354 N 
ATOM     47  C   UNL A   1      39.338  29.774  30.335  1.00  0.00     0.074 A 
ATOM     48  C   UNL A   1      38.421  30.044  29.248  1.00  0.00     0.031 C 
ATOM     49  C   UNL A   1      37.783  34.240  34.686  1.00  0.00     0.029 A 
ATOM     50  C   UNL A   1      38.830  33.230  34.784  1.00  0.00     0.049 A 
ATOM     51  H   UNL A   1      39.320  31.769  33.383  1.00  0.00     0.167 HD
ATOM     52  C   UNL A   1      40.290  28.812  30.313  1.00  0.00     0.037 A 
ATOM     53  C   UNL A   1      39.663  33.072  35.829  1.00  0.00     0.037 A 
ATOM     54  C   UNL A   1      41.217  28.562  31.386  1.00  0.00     0.049 A 
ATOM     55  C   UNL A   1      40.684  31.971  35.796  1.00  0.00     0.074 A 
ATOM     56  C   UNL A   1      42.226  27.617  31.450  1.00  0.00     0.029 A 
ATOM     57  N   UNL A   1      41.251  29.265  32.580  1.00  0.00    -0.354 N 
ATOM     58  N   UNL A   1      40.938  31.111  34.839  1.00  0.00    -0.248 NA
ATOM     59  C   UNL A   1      41.524  31.812  36.989  1.00  0.00     0.031 C 
ATOM     60  C   UNL A   1      42.848  27.724  32.698  1.00  0.00     0.029 A 
ATOM     61  C   UNL A   1      42.255  28.765  33.395  1.00  0.00     0.049 A 
ATOM     62  H   UNL A   1      40.652  30.010  32.816  1.00  0.00     0.167 HD
ATOM     63  C   UNL A   1      41.971  30.313  35.311  1.00  0.00     0.074 A 
ATOM     64  C   UNL A   1      42.312  30.808  36.629  1.00  0.00     0.031 C 
ATOM     65  C   UNL A   1      42.578  29.263  34.707  1.00  0.00     0.037 A 
BRANCH  52  66
ATOM     66  C   UNL A   1      40.378  27.942  29.093  1.00  0.00     0.064 A 
ATOM     67  C   UNL A   1      39.645  26.752  28.984  1.00  0.00     0.173 A 
ATOM     68  C   UNL A   1      41.154  28.338  27.992  1.00  0.00     0.173 A 
ATOM     69  F   UNL A   1      38.901  26.321  30.015  1.00  0.00    -0.203 F 
ATOM     70  C   UNL A   1      39.698  25.982  27.826  1.00  0.00     0.198 A 
ATOM     71  C   UNL A   1      41.186  27.579  26.826  1.00  0.00     0.198 A 
ATOM     72  F   UNL A   1      41.873  29.470  28.044  1.00  0.00    -0.203 F 
ATOM     73  F   UNL A   1      39.018  24.828  27.758  1.00  0.00    -0.200 F 
ATOM     74  C   UNL A   1      40.460  26.399  26.745  1.00  0.00     0.200 A 
ATOM     75  F   UNL A   1      41.915  27.989  25.779  1.00  0.00    -0.200 F 
ATOM     76  F   UNL A   1      40.500  25.663  25.626  1.00  0.00    -0.200 F 
ENDBRANCH  52  66
BRANCH  53  77
ATOM     77  C   UNL A   1      39.556  33.988  36.992  1.00  0.00     0.064 A 
ATOM     78  C   UNL A   1      38.814  33.629  38.125  1.00  0.00     0.173 A 
ATOM     79  C   UNL A   1      40.223  35.222  37.011  1.00  0.00     0.173 A 
ATOM     80  F   UNL A   1      38.142  32.468  38.144  1.00  0.00    -0.203 F 
ATOM     81  C   UNL A   1      38.742  34.471  39.233  1.00  0.00     0.198 A 
ATOM     82  C   UNL A   1      40.174  36.050  38.129  1.00  0.00     0.198 A 
ATOM     83  F   UNL A   1      40.949  35.608  35.951  1.00  0.00    -0.203 F 
ATOM     84  F   UNL A   1      38.005  34.117  40.294  1.00  0.00    -0.200 F 
ATOM     85  C   UNL A   1      39.430  35.676  39.237  1.00  0.00     0.200 A 
ATOM     86  F   UNL A   1      40.853  37.205  38.135  1.00  0.00    -0.200 F 
ATOM     87  F   UNL A   1      39.374  36.477  40.310  1.00  0.00    -0.200 F 
ENDBRANCH  53  77
BRANCH  65  88
ATOM     88  C   UNL A   1      43.680  28.580  35.460  1.00  0.00     0.064 A 
ATOM     89  C   UNL A   1      45.017  28.974  35.314  1.00  0.00     0.173 A 
ATOM     90  C   UNL A   1      43.389  27.556  36.373  1.00  0.00     0.173 A 
ATOM     91  F   UNL A   1      45.345  29.941  34.442  1.00  0.00    -0.203 F 
ATOM     92  C   UNL A   1      46.028  28.354  36.041  1.00  0.00     0.198 A 
ATOM     93  C   UNL A   1      44.400  26.954  37.117  1.00  0.00     0.198 A 
ATOM     94  F   UNL A   1      42.123  27.148  36.552  1.00  0.00    -0.203 F 
ATOM     95  F   UNL A   1      47.304  28.719  35.859  1.00  0.00    -0.200 F 
ATOM     96  C   UNL A   1      45.718  27.349  36.947  1.00  0.00     0.200 A 
ATOM     97  F   UNL A   1      44.097  25.993  38.001  1.00  0.00    -0.200 F 
ATOM     98  F   UNL A   1      46.692  26.758  37.653  1.00  0.00    -0.200 F 
ENDBRANCH  65  88
ENDBRANCH  39  40
ENDBRANCH  31  34
ENDBRANCH  29  30
ENDBRANCH   1  29
TORSDOF 12
ENDMDL
MODEL 3
REMARK VINA RESULT:     -14.0      5.013     11.086
REMARK SMILES Cn1c(=O)c(=O)n(C)c2cc(S(=O)(=O)N3CCC[C@H]3C(=O)NCCCNC(=O)c3ccc(-c4c5nc(c(-c6c(F)c(F)c(F)c(F)c6F)c6ccc([nH]6)c(-c6c(F)c(F)c(F)c(F)c6F)c6nc(c(-c7c(F)c(F)c(F)c(F)c7F)c7ccc4[nH]7)C=C6)C=C5)cc3)ccc21
REMARK SMILES IDX 24 1 23 2 22 3 20 4 21 5 19 7 15 8 16 9 17 10 18 11 12 12
REMARK SMILES IDX 13 13 14 14 11 15 1 16 2 17 3 18 94 19 4 20 5 21 9 22 93 23
REMARK SMILES IDX 6 24 7 25 10 26 92 27 8 28 25 29 26 30 27 31 28 33 29 34
REMARK SMILES IDX 30 35 91 36 31 37 90 38 32 39 33 40 34 41 84 42 35 43 89 44
REMARK SMILES IDX 83 45 85 46 36 47 88 48 82 49 81 50 37 52 69 53 49 54 68 55
REMARK SMILES IDX 50 56 53 57 67 58 86 59 51 60 52 61 66 63 87 64 54 65 38 66
REMARK SMILES IDX 39 67 47 68 40 69 41 70 45 71 48 72 42 73 43 74 46 75 44 76
REMARK SMILES IDX 70 77 71 78 79 79 72 80 73 81 77 82 80 83 74 84 75 85 78 86
REMARK SMILES IDX 76 87 55 88 56 89 64 90 57 91 58 92 62 93 65 94 59 95 60 96
REMARK SMILES IDX 63 97 61 98
REMARK H PARENT 22 6 26 32 85 51 53 62
REMARK Flexibility Score: inf
ROOT
ATOM      1  C   UNL A   1      37.974  19.649  24.978  1.00  0.00     0.042 C 
ENDROOT
BRANCH   1   2
ATOM      2  C   UNL A   1      36.785  20.600  25.069  1.00  0.00     0.117 C 
BRANCH   2   3
ATOM      3  N   UNL A   1      35.506  19.903  25.001  1.00  0.00    -0.355 N 
ATOM      4  C   UNL A   1      34.241  20.360  25.292  1.00  0.00     0.238 C 
ATOM      5  O   UNL A   1      33.292  19.585  25.170  1.00  0.00    -0.273 OA
ATOM      6  H   UNL A   1      35.555  18.966  24.703  1.00  0.00     0.163 HD
BRANCH   4   7
ATOM      7  C   UNL A   1      34.099  21.773  25.835  1.00  0.00     0.162 C 
ATOM      8  N   UNL A   1      33.149  22.667  25.141  1.00  0.00    -0.185 NA
ATOM      9  C   UNL A   1      32.007  22.963  26.014  1.00  0.00     0.103 C 
ATOM     10  C   UNL A   1      32.577  22.843  27.412  1.00  0.00     0.019 C 
ATOM     11  C   UNL A   1      33.615  21.738  27.291  1.00  0.00     0.032 C 
BRANCH   8  12
ATOM     12  S   UNL A   1      33.731  23.821  24.068  1.00  0.00     0.243 S 
ATOM     13  O   UNL A   1      32.985  23.685  22.837  1.00  0.00    -0.207 OA
ATOM     14  O   UNL A   1      35.178  23.760  24.095  1.00  0.00    -0.207 OA
BRANCH  12  15
ATOM     15  C   UNL A   1      33.320  25.445  24.720  1.00  0.00     0.084 A 
ATOM     16  C   UNL A   1      33.182  29.987  27.082  1.00  0.00     0.154 C 
ATOM     17  N   UNL A   1      32.429  29.394  25.985  1.00  0.00    -0.305 N 
ATOM     18  C   UNL A   1      31.431  30.161  25.390  1.00  0.00     0.316 A 
ATOM     19  C   UNL A   1      32.715  28.077  25.546  1.00  0.00     0.068 A 
ATOM     20  O   UNL A   1      31.152  31.301  25.750  1.00  0.00    -0.263 OA
ATOM     21  C   UNL A   1      30.653  29.540  24.223  1.00  0.00     0.316 A 
ATOM     22  C   UNL A   1      31.973  27.481  24.509  1.00  0.00     0.069 A 
ATOM     23  C   UNL A   1      33.750  27.350  26.141  1.00  0.00     0.030 A 
ATOM     24  O   UNL A   1      29.801  30.225  23.662  1.00  0.00    -0.263 OA
ATOM     25  N   UNL A   1      30.954  28.227  23.857  1.00  0.00    -0.305 N 
ATOM     26  C   UNL A   1      32.275  26.158  24.116  1.00  0.00     0.050 A 
ATOM     27  C   UNL A   1      34.048  26.055  25.732  1.00  0.00     0.024 A 
ATOM     28  C   UNL A   1      30.212  27.647  22.749  1.00  0.00     0.154 C 
ENDBRANCH  12  15
ENDBRANCH   8  12
ENDBRANCH   4   7
ENDBRANCH   2   3
ENDBRANCH   1   2
BRANCH   1  29
ATOM     29  C   UNL A   1      39.185  20.131  25.764  1.00  0.00     0.118 C 
BRANCH  29  30
ATOM     30  N   UNL A   1      40.203  19.096  25.903  1.00  0.00    -0.352 N 
ATOM     31  C   UNL A   1      41.556  19.208  26.117  1.00  0.00     0.251 C 
ATOM     32  H   UNL A   1      39.867  18.173  25.832  1.00  0.00     0.163 HD
ATOM     33  O   UNL A   1      42.276  18.220  26.016  1.00  0.00    -0.269 OA
BRANCH  31  34
ATOM     34  C   UNL A   1      42.153  20.525  26.428  1.00  0.00     0.039 A 
ATOM     35  C   UNL A   1      42.245  20.973  27.747  1.00  0.00     0.014 A 
ATOM     36  C   UNL A   1      42.615  21.327  25.382  1.00  0.00     0.014 A 
ATOM     37  C   UNL A   1      42.619  22.289  28.003  1.00  0.00     0.010 A 
ATOM     38  C   UNL A   1      43.076  22.619  25.650  1.00  0.00     0.010 A 
ATOM     39  C   UNL A   1      43.027  23.129  26.956  1.00  0.00    -0.014 A 
BRANCH  39  40
ATOM     40  C   UNL A   1      43.374  24.545  27.245  1.00  0.00     0.031 A 
ATOM     41  C   UNL A   1      44.745  25.077  26.925  1.00  0.00     0.074 A 
ATOM     42  C   UNL A   1      42.433  25.368  27.744  1.00  0.00     0.049 A 
ATOM     43  N   UNL A   1      45.230  26.279  27.113  1.00  0.00    -0.248 NA
ATOM     44  C   UNL A   1      45.700  24.138  26.315  1.00  0.00     0.031 C 
ATOM     45  C   UNL A   1      41.061  24.975  28.074  1.00  0.00     0.029 A 
ATOM     46  N   UNL A   1      42.476  26.707  28.038  1.00  0.00    -0.354 N 
ATOM     47  C   UNL A   1      46.545  26.235  26.667  1.00  0.00     0.074 A 
ATOM     48  C   UNL A   1      46.793  24.881  26.220  1.00  0.00     0.031 C 
ATOM     49  C   UNL A   1      40.382  26.058  28.478  1.00  0.00     0.029 A 
ATOM     50  C   UNL A   1      41.281  27.205  28.497  1.00  0.00     0.049 A 
ATOM     51  H   UNL A   1      43.285  27.257  27.930  1.00  0.00     0.167 HD
ATOM     52  C   UNL A   1      47.457  27.235  26.625  1.00  0.00     0.037 A 
ATOM     53  C   UNL A   1      40.952  28.445  28.904  1.00  0.00     0.037 A 
ATOM     54  C   UNL A   1      47.200  28.587  27.048  1.00  0.00     0.049 A 
ATOM     55  C   UNL A   1      41.994  29.526  28.884  1.00  0.00     0.074 A 
ATOM     56  C   UNL A   1      48.058  29.673  27.031  1.00  0.00     0.029 A 
ATOM     57  N   UNL A   1      45.993  29.039  27.559  1.00  0.00    -0.354 N 
ATOM     58  N   UNL A   1      43.238  29.466  28.473  1.00  0.00    -0.248 NA
ATOM     59  C   UNL A   1      41.591  30.842  29.394  1.00  0.00     0.031 C 
ATOM     60  C   UNL A   1      47.381  30.774  27.566  1.00  0.00     0.029 A 
ATOM     61  C   UNL A   1      46.088  30.385  27.875  1.00  0.00     0.049 A 
ATOM     62  H   UNL A   1      45.187  28.486  27.679  1.00  0.00     0.167 HD
ATOM     63  C   UNL A   1      43.764  30.735  28.668  1.00  0.00     0.074 A 
ATOM     64  C   UNL A   1      42.697  31.551  29.212  1.00  0.00     0.031 C 
ATOM     65  C   UNL A   1      45.019  31.181  28.422  1.00  0.00     0.037 A 
BRANCH  52  66
ATOM     66  C   UNL A   1      48.829  26.909  26.112  1.00  0.00     0.064 A 
ATOM     67  C   UNL A   1      49.822  26.384  26.952  1.00  0.00     0.173 A 
ATOM     68  C   UNL A   1      49.135  27.063  24.751  1.00  0.00     0.173 A 
ATOM     69  F   UNL A   1      49.586  26.233  28.265  1.00  0.00    -0.203 F 
ATOM     70  C   UNL A   1      51.075  26.039  26.451  1.00  0.00     0.198 A 
ATOM     71  C   UNL A   1      50.380  26.694  24.249  1.00  0.00     0.198 A 
ATOM     72  F   UNL A   1      48.219  27.560  23.906  1.00  0.00    -0.203 F 
ATOM     73  F   UNL A   1      52.020  25.572  27.279  1.00  0.00    -0.200 F 
ATOM     74  C   UNL A   1      51.350  26.185  25.099  1.00  0.00     0.200 A 
ATOM     75  F   UNL A   1      50.640  26.828  22.941  1.00  0.00    -0.200 F 
ATOM     76  F   UNL A   1      52.552  25.842  24.617  1.00  0.00    -0.200 F 
ENDBRANCH  52  66
BRANCH  53  77
ATOM     77  C   UNL A   1      39.567  28.718  29.363  1.00  0.00     0.064 A 
ATOM     78  C   UNL A   1      39.202  28.525  30.701  1.00  0.00     0.173 A 
ATOM     79  C   UNL A   1      38.593  29.213  28.483  1.00  0.00     0.173 A 
ATOM     80  F   UNL A   1      40.094  28.034  31.574  1.00  0.00    -0.203 F 
ATOM     81  C   UNL A   1      37.912  28.816  31.143  1.00  0.00     0.198 A 
ATOM     82  C   UNL A   1      37.313  29.529  28.931  1.00  0.00     0.198 A 
ATOM     83  F   UNL A   1      38.896  29.418  27.192  1.00  0.00    -0.203 F 
ATOM     84  F   UNL A   1      37.580  28.598  32.422  1.00  0.00    -0.200 F 
ATOM     85  C   UNL A   1      36.973  29.327  30.259  1.00  0.00     0.200 A 
ATOM     86  F   UNL A   1      36.414  30.038  28.078  1.00  0.00    -0.200 F 
ATOM     87  F   UNL A   1      35.738  29.622  30.689  1.00  0.00    -0.200 F 
ENDBRANCH  53  77
BRANCH  65  88
ATOM     88  C   UNL A   1      45.310  32.619  28.731  1.00  0.00     0.064 A 
ATOM     89  C   UNL A   1      45.846  33.006  29.967  1.00  0.00     0.173 A 
ATOM     90  C   UNL A   1      45.095  33.612  27.764  1.00  0.00     0.173 A 
ATOM     91  F   UNL A   1      46.055  32.093  30.928  1.00  0.00    -0.203 F 
ATOM     92  C   UNL A   1      46.140  34.341  30.232  1.00  0.00     0.198 A 
ATOM     93  C   UNL A   1      45.413  34.942  28.023  1.00  0.00     0.198 A 
ATOM     94  F   UNL A   1      44.590  33.290  26.563  1.00  0.00    -0.203 F 
ATOM     95  F   UNL A   1      46.616  34.695  31.433  1.00  0.00    -0.200 F 
ATOM     96  C   UNL A   1      45.930  35.306  29.258  1.00  0.00     0.200 A 
ATOM     97  F   UNL A   1      45.223  35.872  27.076  1.00  0.00    -0.200 F 
ATOM     98  F   UNL A   1      46.222  36.590  29.511  1.00  0.00    -0.200 F 
ENDBRANCH  65  88
ENDBRANCH  39  40
ENDBRANCH  31  34
ENDBRANCH  29  30
ENDBRANCH   1  29
TORSDOF 12
ENDMDL
