MODEL 1
REMARK VINA RESULT:     -11.0      0.000      0.000
REMARK SMILES Cc1c(Cl)cc2c(c1C)O[C@@H](C(F)(F)F)C(C(=O)NCCCNC(=O)c1ccc(-c3c4nc(c(-c5c(F)c(F)c(F)c(F)c5F)c5ccc([nH]5)c(-c5c(F)c(F)c(F)c(F)c5F)c5nc(c(-c6c(F)c(F)c(F)c(F)c6F)c6ccc3[nH]6)C=C5)C=C4)cc1)=C2
REMARK SMILES IDX 21 1 20 2 19 3 17 4 18 5 16 7 1 8 2 9 3 10 8 11 4 12 5 13
REMARK SMILES IDX 7 14 9 15 6 16 10 17 89 18 11 19 12 20 13 21 14 22 15 23
REMARK SMILES IDX 22 24 23 25 24 26 25 28 26 29 27 30 88 31 28 32 87 33 29 34
REMARK SMILES IDX 30 35 31 36 81 37 32 38 86 39 80 40 82 41 33 42 85 43 79 44
REMARK SMILES IDX 78 45 34 47 66 48 46 49 65 50 47 51 50 52 64 53 83 54 48 55
REMARK SMILES IDX 49 56 63 58 84 59 51 60 35 61 36 62 44 63 37 64 38 65 42 66
REMARK SMILES IDX 45 67 39 68 40 69 43 70 41 71 67 72 68 73 76 74 69 75 70 76
REMARK SMILES IDX 74 77 77 78 71 79 72 80 75 81 73 82 52 83 53 84 61 85 54 86
REMARK SMILES IDX 55 87 59 88 62 89 56 90 57 91 60 92 58 93
REMARK H PARENT 19 6 23 27 82 46 50 57
REMARK Flexibility Score: inf
ROOT
ATOM      1  C   UNL A   1      35.375  32.838  29.381  1.00  0.00     0.042 C 
ENDROOT
BRANCH   1   2
ATOM      2  C   UNL A   1      34.940  34.070  30.173  1.00  0.00     0.118 C 
BRANCH   2   3
ATOM      3  N   UNL A   1      34.111  33.706  31.310  1.00  0.00    -0.352 N 
ATOM      4  C   UNL A   1      34.312  33.150  32.526  1.00  0.00     0.251 C 
ATOM      5  O   UNL A   1      33.314  33.080  33.248  1.00  0.00    -0.270 OA
ATOM      6  H   UNL A   1      33.162  33.917  31.154  1.00  0.00     0.163 HD
BRANCH   4   7
ATOM      7  C   UNL A   1      35.618  32.641  33.025  1.00  0.00     0.067 C 
ATOM      8  C   UNL A   1      40.997  29.130  34.283  1.00  0.00     0.046 C 
ATOM      9  C   UNL A   1      39.683  29.733  33.852  1.00  0.00    -0.026 A 
ATOM     10  C   UNL A   1      38.860  29.068  32.919  1.00  0.00     0.045 A 
ATOM     11  C   UNL A   1      39.217  30.946  34.424  1.00  0.00    -0.004 A 
ATOM     12  Cl  UNL A   1      39.297  27.544  32.223  1.00  0.00    -0.084 Cl
ATOM     13  C   UNL A   1      37.631  29.605  32.526  1.00  0.00     0.032 A 
ATOM     14  C   UNL A   1      37.998  31.495  33.974  1.00  0.00     0.131 A 
ATOM     15  C   UNL A   1      39.990  31.698  35.478  1.00  0.00     0.049 C 
ATOM     16  C   UNL A   1      37.198  30.821  33.050  1.00  0.00     0.019 A 
ATOM     17  O   UNL A   1      37.604  32.695  34.513  1.00  0.00    -0.475 OA
ATOM     18  C   UNL A   1      35.901  31.372  32.682  1.00  0.00     0.025 C 
ATOM     19  C   UNL A   1      36.647  33.472  33.738  1.00  0.00     0.314 C 
BRANCH  19  20
ATOM     20  C   UNL A   1      37.376  34.461  32.815  1.00  0.00     0.429 C 
ATOM     21  F   UNL A   1      37.783  33.903  31.654  1.00  0.00    -0.167 F 
ATOM     22  F   UNL A   1      36.607  35.529  32.499  1.00  0.00    -0.167 F 
ATOM     23  F   UNL A   1      38.479  34.953  33.436  1.00  0.00    -0.167 F 
ENDBRANCH  19  20
ENDBRANCH   4   7
ENDBRANCH   2   3
ENDBRANCH   1   2
BRANCH   1  24
ATOM     24  C   UNL A   1      34.748  32.776  27.987  1.00  0.00     0.118 C 
BRANCH  24  25
ATOM     25  N   UNL A   1      33.974  31.555  27.804  1.00  0.00    -0.352 N 
ATOM     26  C   UNL A   1      34.397  30.261  27.631  1.00  0.00     0.251 C 
ATOM     27  H   UNL A   1      32.997  31.677  27.805  1.00  0.00     0.163 HD
ATOM     28  O   UNL A   1      33.609  29.418  27.213  1.00  0.00    -0.269 OA
BRANCH  26  29
ATOM     29  C   UNL A   1      35.787  29.868  27.947  1.00  0.00     0.039 A 
ATOM     30  C   UNL A   1      36.067  29.328  29.207  1.00  0.00     0.014 A 
ATOM     31  C   UNL A   1      36.827  30.104  27.043  1.00  0.00     0.014 A 
ATOM     32  C   UNL A   1      37.380  28.990  29.545  1.00  0.00     0.010 A 
ATOM     33  C   UNL A   1      38.126  29.703  27.354  1.00  0.00     0.010 A 
ATOM     34  C   UNL A   1      38.417  29.160  28.614  1.00  0.00    -0.014 A 
BRANCH  34  35
ATOM     35  C   UNL A   1      39.819  28.812  28.955  1.00  0.00     0.031 A 
ATOM     36  C   UNL A   1      40.657  29.768  29.757  1.00  0.00     0.074 A 
ATOM     37  C   UNL A   1      40.352  27.661  28.505  1.00  0.00     0.049 A 
ATOM     38  N   UNL A   1      41.916  29.675  30.107  1.00  0.00    -0.248 NA
ATOM     39  C   UNL A   1      40.001  31.006  30.205  1.00  0.00     0.031 C 
ATOM     40  C   UNL A   1      39.652  26.670  27.690  1.00  0.00     0.029 A 
ATOM     41  N   UNL A   1      41.608  27.134  28.668  1.00  0.00    -0.354 N 
ATOM     42  C   UNL A   1      42.202  30.844  30.798  1.00  0.00     0.074 A 
ATOM     43  C   UNL A   1      41.005  31.655  30.775  1.00  0.00     0.031 C 
ATOM     44  C   UNL A   1      40.478  25.640  27.446  1.00  0.00     0.029 A 
ATOM     45  C   UNL A   1      41.774  25.915  28.060  1.00  0.00     0.049 A 
ATOM     46  H   UNL A   1      42.323  27.587  29.171  1.00  0.00     0.167 HD
ATOM     47  C   UNL A   1      43.353  31.198  31.420  1.00  0.00     0.037 A 
ATOM     48  C   UNL A   1      42.852  25.108  28.006  1.00  0.00     0.037 A 
ATOM     49  C   UNL A   1      44.532  30.375  31.468  1.00  0.00     0.049 A 
ATOM     50  C   UNL A   1      44.120  25.522  28.697  1.00  0.00     0.074 A 
ATOM     51  C   UNL A   1      45.726  30.617  32.124  1.00  0.00     0.029 A 
ATOM     52  N   UNL A   1      44.662  29.147  30.836  1.00  0.00    -0.354 N 
ATOM     53  N   UNL A   1      44.366  26.607  29.389  1.00  0.00    -0.248 NA
ATOM     54  C   UNL A   1      45.262  24.602  28.598  1.00  0.00     0.031 C 
ATOM     55  C   UNL A   1      46.593  29.553  31.857  1.00  0.00     0.029 A 
ATOM     56  C   UNL A   1      45.926  28.629  31.069  1.00  0.00     0.049 A 
ATOM     57  H   UNL A   1      43.961  28.709  30.301  1.00  0.00     0.167 HD
ATOM     58  C   UNL A   1      45.679  26.497  29.821  1.00  0.00     0.074 A 
ATOM     59  C   UNL A   1      46.177  25.230  29.324  1.00  0.00     0.031 C 
ATOM     60  C   UNL A   1      46.407  27.368  30.561  1.00  0.00     0.037 A 
BRANCH  47  61
ATOM     61  C   UNL A   1      43.386  32.532  32.105  1.00  0.00     0.064 A 
ATOM     62  C   UNL A   1      43.219  32.647  33.494  1.00  0.00     0.173 A 
ATOM     63  C   UNL A   1      43.614  33.706  31.373  1.00  0.00     0.173 A 
ATOM     64  F   UNL A   1      42.986  31.554  34.238  1.00  0.00    -0.203 F 
ATOM     65  C   UNL A   1      43.248  33.890  34.120  1.00  0.00     0.198 A 
ATOM     66  C   UNL A   1      43.670  34.945  32.005  1.00  0.00     0.198 A 
ATOM     67  F   UNL A   1      43.785  33.652  30.043  1.00  0.00    -0.203 F 
ATOM     68  F   UNL A   1      43.036  33.979  35.440  1.00  0.00    -0.200 F 
ATOM     69  C   UNL A   1      43.479  35.037  33.376  1.00  0.00     0.200 A 
ATOM     70  F   UNL A   1      43.906  36.053  31.288  1.00  0.00    -0.200 F 
ATOM     71  F   UNL A   1      43.511  36.234  33.980  1.00  0.00    -0.200 F 
ENDBRANCH  47  61
BRANCH  48  72
ATOM     72  C   UNL A   1      42.747  23.804  27.305  1.00  0.00     0.064 A 
ATOM     73  C   UNL A   1      43.151  23.678  25.969  1.00  0.00     0.173 A 
ATOM     74  C   UNL A   1      42.296  22.651  27.964  1.00  0.00     0.173 A 
ATOM     75  F   UNL A   1      43.571  24.758  25.293  1.00  0.00    -0.203 F 
ATOM     76  C   UNL A   1      43.110  22.448  25.318  1.00  0.00     0.198 A 
ATOM     77  C   UNL A   1      42.275  21.416  27.319  1.00  0.00     0.198 A 
ATOM     78  F   UNL A   1      41.904  22.721  29.245  1.00  0.00    -0.203 F 
ATOM     79  F   UNL A   1      43.487  22.357  24.036  1.00  0.00    -0.200 F 
ATOM     80  C   UNL A   1      42.682  21.316  25.997  1.00  0.00     0.200 A 
ATOM     81  F   UNL A   1      41.875  20.323  27.981  1.00  0.00    -0.200 F 
ATOM     82  F   UNL A   1      42.661  20.129  25.375  1.00  0.00    -0.200 F 
ENDBRANCH  48  72
BRANCH  60  83
ATOM     83  C   UNL A   1      47.820  26.987  30.888  1.00  0.00     0.064 A 
ATOM     84  C   UNL A   1      48.116  26.147  31.970  1.00  0.00     0.173 A 
ATOM     85  C   UNL A   1      48.879  27.404  30.066  1.00  0.00     0.173 A 
ATOM     86  F   UNL A   1      47.138  25.734  32.791  1.00  0.00    -0.203 F 
ATOM     87  C   UNL A   1      49.424  25.743  32.224  1.00  0.00     0.198 A 
ATOM     88  C   UNL A   1      50.182  26.978  30.308  1.00  0.00     0.198 A 
ATOM     89  F   UNL A   1      48.645  28.203  29.015  1.00  0.00    -0.203 F 
ATOM     90  F   UNL A   1      49.689  24.960  33.279  1.00  0.00    -0.200 F 
ATOM     91  C   UNL A   1      50.453  26.150  31.388  1.00  0.00     0.200 A 
ATOM     92  F   UNL A   1      51.173  27.361  29.493  1.00  0.00    -0.200 F 
ATOM     93  F   UNL A   1      51.709  25.747  31.624  1.00  0.00    -0.200 F 
ENDBRANCH  60  83
ENDBRANCH  34  35
ENDBRANCH  26  29
ENDBRANCH  24  25
ENDBRANCH   1  24
TORSDOF 11
ENDMDL
MODEL 2
REMARK VINA RESULT:     -10.9      3.269     10.487
REMARK SMILES Cc1c(Cl)cc2c(c1C)O[C@@H](C(F)(F)F)C(C(=O)NCCCNC(=O)c1ccc(-c3c4nc(c(-c5c(F)c(F)c(F)c(F)c5F)c5ccc([nH]5)c(-c5c(F)c(F)c(F)c(F)c5F)c5nc(c(-c6c(F)c(F)c(F)c(F)c6F)c6ccc3[nH]6)C=C5)C=C4)cc1)=C2
REMARK SMILES IDX 21 1 20 2 19 3 17 4 18 5 16 7 1 8 2 9 3 10 8 11 4 12 5 13
REMARK SMILES IDX 7 14 9 15 6 16 10 17 89 18 11 19 12 20 13 21 14 22 15 23
REMARK SMILES IDX 22 24 23 25 24 26 25 28 26 29 27 30 88 31 28 32 87 33 29 34
REMARK SMILES IDX 30 35 31 36 81 37 32 38 86 39 80 40 82 41 33 42 85 43 79 44
REMARK SMILES IDX 78 45 34 47 66 48 46 49 65 50 47 51 50 52 64 53 83 54 48 55
REMARK SMILES IDX 49 56 63 58 84 59 51 60 35 61 36 62 44 63 37 64 38 65 42 66
REMARK SMILES IDX 45 67 39 68 40 69 43 70 41 71 67 72 68 73 76 74 69 75 70 76
REMARK SMILES IDX 74 77 77 78 71 79 72 80 75 81 73 82 52 83 53 84 61 85 54 86
REMARK SMILES IDX 55 87 59 88 62 89 56 90 57 91 60 92 58 93
REMARK H PARENT 19 6 23 27 82 46 50 57
REMARK Flexibility Score: inf
ROOT
ATOM      1  C   UNL A   1      41.590  20.880  26.280  1.00  0.00     0.042 C 
ENDROOT
BRANCH   1   2
ATOM      2  C   UNL A   1      42.824  21.780  26.297  1.00  0.00     0.118 C 
BRANCH   2   3
ATOM      3  N   UNL A   1      43.394  21.927  24.968  1.00  0.00    -0.352 N 
ATOM      4  C   UNL A   1      44.161  22.839  24.330  1.00  0.00     0.251 C 
ATOM      5  O   UNL A   1      44.500  22.538  23.182  1.00  0.00    -0.270 OA
ATOM      6  H   UNL A   1      43.162  21.169  24.384  1.00  0.00     0.163 HD
BRANCH   4   7
ATOM      7  C   UNL A   1      44.605  24.135  24.911  1.00  0.00     0.067 C 
ATOM      8  C   UNL A   1      45.000  30.233  27.259  1.00  0.00     0.046 C 
ATOM      9  C   UNL A   1      44.661  28.887  26.665  1.00  0.00    -0.026 A 
ATOM     10  C   UNL A   1      43.334  28.578  26.300  1.00  0.00     0.045 A 
ATOM     11  C   UNL A   1      45.676  27.931  26.403  1.00  0.00    -0.004 A 
ATOM     12  Cl  UNL A   1      42.035  29.705  26.502  1.00  0.00    -0.084 Cl
ATOM     13  C   UNL A   1      43.009  27.344  25.731  1.00  0.00     0.032 A 
ATOM     14  C   UNL A   1      45.317  26.673  25.877  1.00  0.00     0.131 A 
ATOM     15  C   UNL A   1      47.133  28.191  26.695  1.00  0.00     0.049 C 
ATOM     16  C   UNL A   1      43.999  26.387  25.521  1.00  0.00     0.019 A 
ATOM     17  O   UNL A   1      46.320  25.755  25.683  1.00  0.00    -0.475 OA
ATOM     18  C   UNL A   1      43.682  25.113  24.891  1.00  0.00     0.025 C 
ATOM     19  C   UNL A   1      45.916  24.357  25.611  1.00  0.00     0.314 C 
BRANCH  19  20
ATOM     20  C   UNL A   1      45.984  23.702  26.999  1.00  0.00     0.429 C 
ATOM     21  F   UNL A   1      47.068  24.079  27.711  1.00  0.00    -0.167 F 
ATOM     22  F   UNL A   1      44.893  23.982  27.750  1.00  0.00    -0.167 F 
ATOM     23  F   UNL A   1      46.028  22.351  26.876  1.00  0.00    -0.167 F 
ENDBRANCH  19  20
ENDBRANCH   4   7
ENDBRANCH   2   3
ENDBRANCH   1   2
BRANCH   1  24
ATOM     24  C   UNL A   1      40.393  21.499  27.005  1.00  0.00     0.118 C 
BRANCH  24  25
ATOM     25  N   UNL A   1      39.383  21.967  26.065  1.00  0.00    -0.352 N 
ATOM     26  C   UNL A   1      38.707  23.161  26.019  1.00  0.00     0.251 C 
ATOM     27  H   UNL A   1      39.150  21.330  25.352  1.00  0.00     0.163 HD
ATOM     28  O   UNL A   1      37.698  23.258  25.326  1.00  0.00    -0.269 OA
BRANCH  26  29
ATOM     29  C   UNL A   1      39.179  24.330  26.791  1.00  0.00     0.039 A 
ATOM     30  C   UNL A   1      38.807  24.447  28.135  1.00  0.00     0.014 A 
ATOM     31  C   UNL A   1      39.915  25.350  26.180  1.00  0.00     0.014 A 
ATOM     32  C   UNL A   1      39.204  25.565  28.873  1.00  0.00     0.010 A 
ATOM     33  C   UNL A   1      40.369  26.430  26.934  1.00  0.00     0.010 A 
ATOM     34  C   UNL A   1      40.003  26.557  28.282  1.00  0.00    -0.014 A 
BRANCH  34  35
ATOM     35  C   UNL A   1      40.431  27.754  29.048  1.00  0.00     0.031 A 
ATOM     36  C   UNL A   1      41.835  27.844  29.579  1.00  0.00     0.074 A 
ATOM     37  C   UNL A   1      39.548  28.736  29.306  1.00  0.00     0.049 A 
ATOM     38  N   UNL A   1      42.385  28.775  30.318  1.00  0.00    -0.248 NA
ATOM     39  C   UNL A   1      42.735  26.725  29.257  1.00  0.00     0.031 C 
ATOM     40  C   UNL A   1      38.151  28.748  28.876  1.00  0.00     0.029 A 
ATOM     41  N   UNL A   1      39.697  29.912  29.997  1.00  0.00    -0.354 N 
ATOM     42  C   UNL A   1      43.682  28.348  30.560  1.00  0.00     0.074 A 
ATOM     43  C   UNL A   1      43.825  27.050  29.936  1.00  0.00     0.031 C 
ATOM     44  C   UNL A   1      37.576  29.889  29.287  1.00  0.00     0.029 A 
ATOM     45  C   UNL A   1      38.554  30.672  30.037  1.00  0.00     0.049 A 
ATOM     46  H   UNL A   1      40.541  30.185  30.423  1.00  0.00     0.167 HD
ATOM     47  C   UNL A   1      44.674  28.991  31.222  1.00  0.00     0.037 A 
ATOM     48  C   UNL A   1      38.323  31.868  30.613  1.00  0.00     0.037 A 
ATOM     49  C   UNL A   1      44.538  30.294  31.814  1.00  0.00     0.049 A 
ATOM     50  C   UNL A   1      39.435  32.561  31.347  1.00  0.00     0.074 A 
ATOM     51  C   UNL A   1      45.501  31.057  32.452  1.00  0.00     0.029 A 
ATOM     52  N   UNL A   1      43.362  31.031  31.838  1.00  0.00    -0.354 N 
ATOM     53  N   UNL A   1      40.673  32.171  31.529  1.00  0.00    -0.248 NA
ATOM     54  C   UNL A   1      39.120  33.860  31.958  1.00  0.00     0.031 C 
ATOM     55  C   UNL A   1      44.898  32.238  32.896  1.00  0.00     0.029 A 
ATOM     56  C   UNL A   1      43.571  32.231  32.498  1.00  0.00     0.049 A 
ATOM     57  H   UNL A   1      42.508  30.743  31.444  1.00  0.00     0.167 HD
ATOM     58  C   UNL A   1      41.288  33.177  32.260  1.00  0.00     0.074 A 
ATOM     59  C   UNL A   1      40.291  34.206  32.476  1.00  0.00     0.031 C 
ATOM     60  C   UNL A   1      42.564  33.241  32.711  1.00  0.00     0.037 A 
BRANCH  47  61
ATOM     61  C   UNL A   1      45.998  28.292  31.331  1.00  0.00     0.064 A 
ATOM     62  C   UNL A   1      46.210  27.267  32.265  1.00  0.00     0.173 A 
ATOM     63  C   UNL A   1      47.057  28.629  30.475  1.00  0.00     0.173 A 
ATOM     64  F   UNL A   1      45.233  26.915  33.114  1.00  0.00    -0.203 F 
ATOM     65  C   UNL A   1      47.443  26.627  32.360  1.00  0.00     0.198 A 
ATOM     66  C   UNL A   1      48.280  27.969  30.554  1.00  0.00     0.198 A 
ATOM     67  F   UNL A   1      46.904  29.599  29.560  1.00  0.00    -0.203 F 
ATOM     68  F   UNL A   1      47.638  25.686  33.294  1.00  0.00    -0.200 F 
ATOM     69  C   UNL A   1      48.475  26.975  31.501  1.00  0.00     0.200 A 
ATOM     70  F   UNL A   1      49.273  28.297  29.715  1.00  0.00    -0.200 F 
ATOM     71  F   UNL A   1      49.660  26.355  31.590  1.00  0.00    -0.200 F 
ENDBRANCH  47  61
BRANCH  48  72
ATOM     72  C   UNL A   1      36.986  32.496  30.468  1.00  0.00     0.064 A 
ATOM     73  C   UNL A   1      36.018  32.353  31.471  1.00  0.00     0.173 A 
ATOM     74  C   UNL A   1      36.666  33.293  29.359  1.00  0.00     0.173 A 
ATOM     75  F   UNL A   1      36.273  31.585  32.541  1.00  0.00    -0.203 F 
ATOM     76  C   UNL A   1      34.781  32.984  31.372  1.00  0.00     0.198 A 
ATOM     77  C   UNL A   1      35.436  33.941  29.271  1.00  0.00     0.198 A 
ATOM     78  F   UNL A   1      37.562  33.464  28.375  1.00  0.00    -0.203 F 
ATOM     79  F   UNL A   1      33.867  32.818  32.338  1.00  0.00    -0.200 F 
ATOM     80  C   UNL A   1      34.495  33.786  30.277  1.00  0.00     0.200 A 
ATOM     81  F   UNL A   1      35.168  34.726  28.219  1.00  0.00    -0.200 F 
ATOM     82  F   UNL A   1      33.311  34.409  30.192  1.00  0.00    -0.200 F 
ENDBRANCH  48  72
BRANCH  60  83
ATOM     83  C   UNL A   1      42.966  34.463  33.482  1.00  0.00     0.064 A 
ATOM     84  C   UNL A   1      43.329  35.648  32.828  1.00  0.00     0.173 A 
ATOM     85  C   UNL A   1      42.913  34.470  34.884  1.00  0.00     0.173 A 
ATOM     86  F   UNL A   1      43.407  35.685  31.490  1.00  0.00    -0.203 F 
ATOM     87  C   UNL A   1      43.634  36.798  33.553  1.00  0.00     0.198 A 
ATOM     88  C   UNL A   1      43.193  35.629  35.603  1.00  0.00     0.198 A 
ATOM     89  F   UNL A   1      42.564  33.362  35.553  1.00  0.00    -0.203 F 
ATOM     90  F   UNL A   1      44.004  37.914  32.910  1.00  0.00    -0.200 F 
ATOM     91  C   UNL A   1      43.555  36.790  34.938  1.00  0.00     0.200 A 
ATOM     92  F   UNL A   1      43.105  35.623  36.940  1.00  0.00    -0.200 F 
ATOM     93  F   UNL A   1      43.833  37.902  35.632  1.00  0.00    -0.200 F 
ENDBRANCH  60  83
ENDBRANCH  34  35
ENDBRANCH  26  29
ENDBRANCH  24  25
ENDBRANCH   1  24
TORSDOF 11
ENDMDL
MODEL 3
REMARK VINA RESULT:     -10.9      4.485     10.094
REMARK SMILES Cc1c(Cl)cc2c(c1C)O[C@@H](C(F)(F)F)C(C(=O)NCCCNC(=O)c1ccc(-c3c4nc(c(-c5c(F)c(F)c(F)c(F)c5F)c5ccc([nH]5)c(-c5c(F)c(F)c(F)c(F)c5F)c5nc(c(-c6c(F)c(F)c(F)c(F)c6F)c6ccc3[nH]6)C=C5)C=C4)cc1)=C2
REMARK SMILES IDX 21 1 20 2 19 3 17 4 18 5 16 7 1 8 2 9 3 10 8 11 4 12 5 13
REMARK SMILES IDX 7 14 9 15 6 16 10 17 89 18 11 19 12 20 13 21 14 22 15 23
REMARK SMILES IDX 22 24 23 25 24 26 25 28 26 29 27 30 88 31 28 32 87 33 29 34
REMARK SMILES IDX 30 35 31 36 81 37 32 38 86 39 80 40 82 41 33 42 85 43 79 44
REMARK SMILES IDX 78 45 34 47 66 48 46 49 65 50 47 51 50 52 64 53 83 54 48 55
REMARK SMILES IDX 49 56 63 58 84 59 51 60 35 61 36 62 44 63 37 64 38 65 42 66
REMARK SMILES IDX 45 67 39 68 40 69 43 70 41 71 67 72 68 73 76 74 69 75 70 76
REMARK SMILES IDX 74 77 77 78 71 79 72 80 75 81 73 82 52 83 53 84 61 85 54 86
REMARK SMILES IDX 55 87 59 88 62 89 56 90 57 91 60 92 58 93
REMARK H PARENT 19 6 23 27 82 46 50 57
REMARK Flexibility Score: inf
ROOT
ATOM      1  C   UNL A   1      31.393  32.325  26.499  1.00  0.00     0.042 C 
ENDROOT
BRANCH   1   2
ATOM      2  C   UNL A   1      31.408  30.814  26.273  1.00  0.00     0.118 C 
BRANCH   2   3
ATOM      3  N   UNL A   1      31.055  30.477  24.905  1.00  0.00    -0.352 N 
ATOM      4  C   UNL A   1      31.119  29.376  24.123  1.00  0.00     0.251 C 
ATOM      5  O   UNL A   1      30.624  29.495  22.998  1.00  0.00    -0.270 OA
ATOM      6  H   UNL A   1      30.671  31.247  24.425  1.00  0.00     0.163 HD
BRANCH   4   7
ATOM      7  C   UNL A   1      31.726  28.079  24.526  1.00  0.00     0.067 C 
ATOM      8  C   UNL A   1      32.880  22.036  26.761  1.00  0.00     0.046 C 
ATOM      9  C   UNL A   1      32.371  23.390  26.331  1.00  0.00    -0.026 A 
ATOM     10  C   UNL A   1      31.002  23.710  26.441  1.00  0.00     0.045 A 
ATOM     11  C   UNL A   1      33.266  24.391  25.870  1.00  0.00    -0.004 A 
ATOM     12  Cl  UNL A   1      29.839  22.589  27.068  1.00  0.00    -0.084 Cl
ATOM     13  C   UNL A   1      30.519  24.967  26.066  1.00  0.00     0.032 A 
ATOM     14  C   UNL A   1      32.750  25.634  25.448  1.00  0.00     0.131 A 
ATOM     15  C   UNL A   1      34.755  24.171  25.780  1.00  0.00     0.049 C 
ATOM     16  C   UNL A   1      31.391  25.930  25.566  1.00  0.00     0.019 A 
ATOM     17  O   UNL A   1      33.640  26.559  24.961  1.00  0.00    -0.475 OA
ATOM     18  C   UNL A   1      30.910  27.258  25.210  1.00  0.00     0.025 C 
ATOM     19  C   UNL A   1      33.089  27.603  24.107  1.00  0.00     0.314 C 
BRANCH  19  20
ATOM     20  C   UNL A   1      33.162  27.188  22.630  1.00  0.00     0.429 C 
ATOM     21  F   UNL A   1      31.966  26.821  22.121  1.00  0.00    -0.167 F 
ATOM     22  F   UNL A   1      33.646  28.178  21.844  1.00  0.00    -0.167 F 
ATOM     23  F   UNL A   1      34.007  26.134  22.483  1.00  0.00    -0.167 F 
ENDBRANCH  19  20
ENDBRANCH   4   7
ENDBRANCH   2   3
ENDBRANCH   1   2
BRANCH   1  24
ATOM     24  C   UNL A   1      32.691  32.847  27.118  1.00  0.00     0.118 C 
BRANCH  24  25
ATOM     25  N   UNL A   1      32.537  34.210  27.611  1.00  0.00    -0.352 N 
ATOM     26  C   UNL A   1      33.093  34.819  28.707  1.00  0.00     0.251 C 
ATOM     27  H   UNL A   1      31.942  34.782  27.074  1.00  0.00     0.163 HD
ATOM     28  O   UNL A   1      32.624  35.878  29.114  1.00  0.00    -0.269 OA
BRANCH  26  29
ATOM     29  C   UNL A   1      34.252  34.218  29.403  1.00  0.00     0.039 A 
ATOM     30  C   UNL A   1      35.542  34.534  28.962  1.00  0.00     0.014 A 
ATOM     31  C   UNL A   1      34.075  33.285  30.429  1.00  0.00     0.014 A 
ATOM     32  C   UNL A   1      36.651  33.946  29.574  1.00  0.00     0.010 A 
ATOM     33  C   UNL A   1      35.182  32.751  31.085  1.00  0.00     0.010 A 
ATOM     34  C   UNL A   1      36.480  33.062  30.652  1.00  0.00    -0.014 A 
BRANCH  34  35
ATOM     35  C   UNL A   1      37.645  32.423  31.312  1.00  0.00     0.031 A 
ATOM     36  C   UNL A   1      38.393  31.320  30.616  1.00  0.00     0.074 A 
ATOM     37  C   UNL A   1      38.001  32.798  32.554  1.00  0.00     0.049 A 
ATOM     38  N   UNL A   1      39.397  30.598  31.046  1.00  0.00    -0.248 NA
ATOM     39  C   UNL A   1      37.936  30.965  29.263  1.00  0.00     0.031 C 
ATOM     40  C   UNL A   1      37.333  33.830  33.346  1.00  0.00     0.029 A 
ATOM     41  N   UNL A   1      39.011  32.352  33.368  1.00  0.00    -0.354 N 
ATOM     42  C   UNL A   1      39.678  29.697  30.028  1.00  0.00     0.074 A 
ATOM     43  C   UNL A   1      38.708  29.927  28.979  1.00  0.00     0.031 C 
ATOM     44  C   UNL A   1      37.968  33.959  34.522  1.00  0.00     0.029 A 
ATOM     45  C   UNL A   1      39.065  32.997  34.579  1.00  0.00     0.049 A 
ATOM     46  H   UNL A   1      39.637  31.638  33.110  1.00  0.00     0.167 HD
ATOM     47  C   UNL A   1      40.672  28.779  29.962  1.00  0.00     0.037 A 
ATOM     48  C   UNL A   1      39.908  32.832  35.617  1.00  0.00     0.037 A 
ATOM     49  C   UNL A   1      41.654  28.575  30.993  1.00  0.00     0.049 A 
ATOM     50  C   UNL A   1      40.999  31.804  35.525  1.00  0.00     0.074 A 
ATOM     51  C   UNL A   1      42.736  27.714  30.994  1.00  0.00     0.029 A 
ATOM     52  N   UNL A   1      41.672  29.246  32.208  1.00  0.00    -0.354 N 
ATOM     53  N   UNL A   1      41.287  30.991  34.539  1.00  0.00    -0.248 NA
ATOM     54  C   UNL A   1      41.884  31.668  36.692  1.00  0.00     0.031 C 
ATOM     55  C   UNL A   1      43.388  27.835  32.226  1.00  0.00     0.029 A 
ATOM     56  C   UNL A   1      42.737  28.802  32.975  1.00  0.00     0.049 A 
ATOM     57  H   UNL A   1      41.025  29.935  32.482  1.00  0.00     0.167 HD
ATOM     58  C   UNL A   1      42.389  30.259  34.955  1.00  0.00     0.074 A 
ATOM     59  C   UNL A   1      42.730  30.733  36.281  1.00  0.00     0.031 C 
ATOM     60  C   UNL A   1      43.057  29.281  34.296  1.00  0.00     0.037 A 
BRANCH  47  61
ATOM     61  C   UNL A   1      40.748  27.932  28.726  1.00  0.00     0.064 A 
ATOM     62  C   UNL A   1      40.023  26.736  28.612  1.00  0.00     0.173 A 
ATOM     63  C   UNL A   1      41.531  28.331  27.633  1.00  0.00     0.173 A 
ATOM     64  F   UNL A   1      39.269  26.304  29.634  1.00  0.00    -0.203 F 
ATOM     65  C   UNL A   1      40.104  25.955  27.462  1.00  0.00     0.198 A 
ATOM     66  C   UNL A   1      41.588  27.562  26.474  1.00  0.00     0.198 A 
ATOM     67  F   UNL A   1      42.240  29.469  27.688  1.00  0.00    -0.203 F 
ATOM     68  F   UNL A   1      39.442  24.792  27.396  1.00  0.00    -0.200 F 
ATOM     69  C   UNL A   1      40.881  26.371  26.392  1.00  0.00     0.200 A 
ATOM     70  F   UNL A   1      42.330  27.971  25.435  1.00  0.00    -0.200 F 
ATOM     71  F   UNL A   1      40.955  25.621  25.283  1.00  0.00    -0.200 F 
ENDBRANCH  47  61
BRANCH  48  72
ATOM     72  C   UNL A   1      39.768  33.704  36.810  1.00  0.00     0.064 A 
ATOM     73  C   UNL A   1      40.419  34.944  36.866  1.00  0.00     0.173 A 
ATOM     74  C   UNL A   1      38.945  33.347  37.887  1.00  0.00     0.173 A 
ATOM     75  F   UNL A   1      41.232  35.318  35.867  1.00  0.00    -0.203 F 
ATOM     76  C   UNL A   1      40.250  35.795  37.955  1.00  0.00     0.198 A 
ATOM     77  C   UNL A   1      38.759  34.209  38.967  1.00  0.00     0.198 A 
ATOM     78  F   UNL A   1      38.296  32.173  37.876  1.00  0.00    -0.203 F 
ATOM     79  F   UNL A   1      40.897  36.969  37.992  1.00  0.00    -0.200 F 
ATOM     80  C   UNL A   1      39.413  35.432  39.000  1.00  0.00     0.200 A 
ATOM     81  F   UNL A   1      37.939  33.861  39.967  1.00  0.00    -0.200 F 
ATOM     82  F   UNL A   1      39.236  36.260  40.038  1.00  0.00    -0.200 F 
ENDBRANCH  48  72
BRANCH  60  83
ATOM     83  C   UNL A   1      44.230  28.654  34.991  1.00  0.00     0.064 A 
ATOM     84  C   UNL A   1      44.081  27.497  35.768  1.00  0.00     0.173 A 
ATOM     85  C   UNL A   1      45.522  29.171  34.814  1.00  0.00     0.173 A 
ATOM     86  F   UNL A   1      42.864  26.975  35.976  1.00  0.00    -0.203 F 
ATOM     87  C   UNL A   1      45.187  26.883  36.352  1.00  0.00     0.198 A 
ATOM     88  C   UNL A   1      46.627  28.540  35.379  1.00  0.00     0.198 A 
ATOM     89  F   UNL A   1      45.715  30.272  34.074  1.00  0.00    -0.203 F 
ATOM     90  F   UNL A   1      45.021  25.792  37.113  1.00  0.00    -0.200 F 
ATOM     91  C   UNL A   1      46.458  27.399  36.149  1.00  0.00     0.200 A 
ATOM     92  F   UNL A   1      47.856  29.032  35.171  1.00  0.00    -0.200 F 
ATOM     93  F   UNL A   1      47.522  26.797  36.698  1.00  0.00    -0.200 F 
ENDBRANCH  60  83
ENDBRANCH  34  35
ENDBRANCH  26  29
ENDBRANCH  24  25
ENDBRANCH   1  24
TORSDOF 11
ENDMDL
