MODEL 1
REMARK VINA RESULT:     -12.7      0.000      0.000
REMARK SMILES O=C(NCCCNC(=O)[C@@H]1CC[C@@H](CNC(=O)c2cc(Cl)ccc2Cl)O1)c1ccc(-c2c3nc(c(-c4c(F)c(F)c(F)c(F)c4F)c4ccc([nH]4)c(-c4c(F)c(F)c(F)c(F)c4F)c4nc(c(-c5c(F)c(F)c(F)c(F)c5F)c5ccc2[nH]5)C=C4)C=C3)cc1
REMARK SMILES IDX 5 1 4 2 3 3 1 4 2 5 27 7 28 8 89 9 29 10 88 11 30 12 31 13
REMARK SMILES IDX 32 14 82 15 33 16 87 17 81 18 83 19 34 20 86 21 80 22 79 23
REMARK SMILES IDX 35 25 67 26 47 27 66 28 48 29 51 30 65 31 84 32 49 33 50 34
REMARK SMILES IDX 64 36 85 37 52 38 36 39 37 40 45 41 38 42 39 43 43 44 46 45
REMARK SMILES IDX 40 46 41 47 44 48 42 49 68 50 69 51 77 52 70 53 71 54 75 55
REMARK SMILES IDX 78 56 72 57 73 58 76 59 74 60 53 61 54 62 62 63 55 64 56 65
REMARK SMILES IDX 60 66 63 67 57 68 58 69 61 70 59 71 6 72 7 73 8 74 9 76
REMARK SMILES IDX 10 77 11 78 26 79 12 80 13 81 14 82 15 83 16 84 17 86 18 87
REMARK SMILES IDX 19 88 24 89 20 90 23 91 25 92 21 93 22 94
REMARK H PARENT 3 6 83 24 51 35 7 75 15 85
REMARK Flexibility Score: inf
ROOT
ATOM      1  C   UNL A   1      31.349  31.794  26.499  1.00  0.00     0.042 C 
ENDROOT
BRANCH   1   2
ATOM      2  C   UNL A   1      32.656  32.436  26.946  1.00  0.00     0.118 C 
BRANCH   2   3
ATOM      3  N   UNL A   1      32.463  33.801  27.431  1.00  0.00    -0.352 N 
ATOM      4  O   UNL A   1      32.611  35.543  28.848  1.00  0.00    -0.269 OA
ATOM      5  C   UNL A   1      33.070  34.472  28.460  1.00  0.00     0.251 C 
ATOM      6  H   UNL A   1      31.788  34.322  26.939  1.00  0.00     0.163 HD
BRANCH   5   7
ATOM      7  C   UNL A   1      34.276  33.911  29.105  1.00  0.00     0.039 A 
ATOM      8  C   UNL A   1      34.173  32.804  29.947  1.00  0.00     0.014 A 
ATOM      9  C   UNL A   1      35.528  34.468  28.828  1.00  0.00     0.014 A 
ATOM     10  C   UNL A   1      35.292  32.351  30.629  1.00  0.00     0.010 A 
ATOM     11  C   UNL A   1      36.672  33.940  29.432  1.00  0.00     0.010 A 
ATOM     12  C   UNL A   1      36.559  32.890  30.354  1.00  0.00    -0.014 A 
BRANCH  12  13
ATOM     13  C   UNL A   1      37.744  32.257  30.982  1.00  0.00     0.031 A 
ATOM     14  C   UNL A   1      38.172  32.606  32.377  1.00  0.00     0.074 A 
ATOM     15  C   UNL A   1      38.400  31.311  30.281  1.00  0.00     0.049 A 
ATOM     16  N   UNL A   1      39.149  32.099  33.087  1.00  0.00    -0.248 NA
ATOM     17  C   UNL A   1      37.415  33.661  33.068  1.00  0.00     0.031 C 
ATOM     18  C   UNL A   1      38.078  30.910  28.908  1.00  0.00     0.029 A 
ATOM     19  N   UNL A   1      39.443  30.493  30.628  1.00  0.00    -0.354 N 
ATOM     20  C   UNL A   1      39.132  32.776  34.298  1.00  0.00     0.074 A 
ATOM     21  C   UNL A   1      38.066  33.752  34.221  1.00  0.00     0.031 C 
ATOM     22  C   UNL A   1      38.863  29.884  28.553  1.00  0.00     0.029 A 
ATOM     23  C   UNL A   1      39.790  29.602  29.641  1.00  0.00     0.049 A 
ATOM     24  H   UNL A   1      39.900  30.540  31.498  1.00  0.00     0.167 HD
ATOM     25  C   UNL A   1      39.931  32.589  35.377  1.00  0.00     0.037 A 
ATOM     26  C   UNL A   1      40.759  28.671  29.609  1.00  0.00     0.037 A 
ATOM     27  C   UNL A   1      40.983  31.606  35.445  1.00  0.00     0.049 A 
ATOM     28  C   UNL A   1      41.637  28.503  30.814  1.00  0.00     0.074 A 
ATOM     29  C   UNL A   1      41.835  31.325  36.500  1.00  0.00     0.029 A 
ATOM     30  N   UNL A   1      41.330  30.745  34.414  1.00  0.00    -0.354 N 
ATOM     31  N   UNL A   1      41.590  29.131  31.964  1.00  0.00    -0.248 NA
ATOM     32  C   UNL A   1      42.706  27.503  30.716  1.00  0.00     0.031 C 
ATOM     33  C   UNL A   1      42.724  30.325  36.093  1.00  0.00     0.029 A 
ATOM     34  C   UNL A   1      42.396  29.946  34.801  1.00  0.00     0.049 A 
ATOM     35  H   UNL A   1      40.885  30.706  33.537  1.00  0.00     0.167 HD
ATOM     36  C   UNL A   1      42.615  28.596  32.731  1.00  0.00     0.074 A 
ATOM     37  C   UNL A   1      43.242  27.568  31.926  1.00  0.00     0.031 C 
ATOM     38  C   UNL A   1      43.008  28.932  33.983  1.00  0.00     0.037 A 
BRANCH  25  39
ATOM     39  C   UNL A   1      39.709  33.466  36.575  1.00  0.00     0.064 A 
ATOM     40  C   UNL A   1      40.325  34.720  36.692  1.00  0.00     0.173 A 
ATOM     41  C   UNL A   1      38.811  33.081  37.583  1.00  0.00     0.173 A 
ATOM     42  F   UNL A   1      41.200  35.132  35.761  1.00  0.00    -0.203 F 
ATOM     43  C   UNL A   1      40.061  35.550  37.779  1.00  0.00     0.198 A 
ATOM     44  C   UNL A   1      38.529  33.924  38.655  1.00  0.00     0.198 A 
ATOM     45  F   UNL A   1      38.189  31.893  37.517  1.00  0.00    -0.203 F 
ATOM     46  F   UNL A   1      40.685  36.733  37.885  1.00  0.00    -0.200 F 
ATOM     47  C   UNL A   1      39.157  35.156  38.754  1.00  0.00     0.200 A 
ATOM     48  F   UNL A   1      37.646  33.547  39.589  1.00  0.00    -0.200 F 
ATOM     49  F   UNL A   1      38.891  35.964  39.790  1.00  0.00    -0.200 F 
ENDBRANCH  25  39
BRANCH  26  50
ATOM     50  C   UNL A   1      40.957  27.845  28.389  1.00  0.00     0.064 A 
ATOM     51  C   UNL A   1      40.319  26.607  28.240  1.00  0.00     0.173 A 
ATOM     52  C   UNL A   1      41.794  28.277  27.350  1.00  0.00     0.173 A 
ATOM     53  F   UNL A   1      39.522  26.142  29.213  1.00  0.00    -0.203 F 
ATOM     54  C   UNL A   1      40.530  25.822  27.109  1.00  0.00     0.198 A 
ATOM     55  C   UNL A   1      41.977  27.508  26.203  1.00  0.00     0.198 A 
ATOM     56  F   UNL A   1      42.424  29.459  27.441  1.00  0.00    -0.203 F 
ATOM     57  F   UNL A   1      39.949  24.618  27.014  1.00  0.00    -0.200 F 
ATOM     58  C   UNL A   1      41.353  26.276  26.089  1.00  0.00     0.200 A 
ATOM     59  F   UNL A   1      42.757  27.961  25.213  1.00  0.00    -0.200 F 
ATOM     60  F   UNL A   1      41.552  25.523  24.999  1.00  0.00    -0.200 F 
ENDBRANCH  26  50
BRANCH  38  61
ATOM     61  C   UNL A   1      44.162  28.162  34.555  1.00  0.00     0.064 A 
ATOM     62  C   UNL A   1      45.484  28.613  34.418  1.00  0.00     0.173 A 
ATOM     63  C   UNL A   1      43.943  26.964  35.250  1.00  0.00     0.173 A 
ATOM     64  F   UNL A   1      45.745  29.744  33.746  1.00  0.00    -0.203 F 
ATOM     65  C   UNL A   1      46.547  27.871  34.925  1.00  0.00     0.198 A 
ATOM     66  C   UNL A   1      45.007  26.242  35.783  1.00  0.00     0.198 A 
ATOM     67  F   UNL A   1      42.697  26.493  35.412  1.00  0.00    -0.203 F 
ATOM     68  F   UNL A   1      47.806  28.289  34.729  1.00  0.00    -0.200 F 
ATOM     69  C   UNL A   1      46.308  26.691  35.611  1.00  0.00     0.200 A 
ATOM     70  F   UNL A   1      44.774  25.107  36.456  1.00  0.00    -0.200 F 
ATOM     71  F   UNL A   1      47.333  25.977  36.097  1.00  0.00    -0.200 F 
ENDBRANCH  38  61
ENDBRANCH  12  13
ENDBRANCH   5   7
ENDBRANCH   2   3
ENDBRANCH   1   2
BRANCH   1  72
ATOM     72  C   UNL A   1      31.573  30.482  25.760  1.00  0.00     0.117 C 
BRANCH  72  73
ATOM     73  N   UNL A   1      30.692  30.347  24.617  1.00  0.00    -0.354 N 
ATOM     74  C   UNL A   1      30.559  29.328  23.721  1.00  0.00     0.249 C 
ATOM     75  H   UNL A   1      30.092  31.112  24.464  1.00  0.00     0.163 HD
ATOM     76  O   UNL A   1      29.768  29.494  22.788  1.00  0.00    -0.272 OA
BRANCH  74  77
ATOM     77  C   UNL A   1      31.285  27.980  23.902  1.00  0.00     0.207 C 
ATOM     78  C   UNL A   1      32.247  27.736  22.745  1.00  0.00     0.045 C 
ATOM     79  O   UNL A   1      30.486  26.801  24.034  1.00  0.00    -0.363 OA
ATOM     80  C   UNL A   1      32.341  26.229  22.701  1.00  0.00     0.037 C 
ATOM     81  C   UNL A   1      30.919  25.838  23.050  1.00  0.00     0.138 C 
BRANCH  81  82
ATOM     82  C   UNL A   1      30.738  24.426  23.604  1.00  0.00     0.148 C 
BRANCH  82  83
ATOM     83  N   UNL A   1      30.557  24.423  25.053  1.00  0.00    -0.349 N 
ATOM     84  C   UNL A   1      31.432  24.106  26.059  1.00  0.00     0.252 C 
ATOM     85  H   UNL A   1      29.660  24.692  25.356  1.00  0.00     0.163 HD
ATOM     86  O   UNL A   1      31.064  24.138  27.228  1.00  0.00    -0.269 OA
BRANCH  84  87
ATOM     87  C   UNL A   1      32.825  23.758  25.731  1.00  0.00     0.059 A 
ATOM     88  C   UNL A   1      33.121  22.424  25.416  1.00  0.00     0.036 A 
ATOM     89  C   UNL A   1      33.834  24.729  25.704  1.00  0.00     0.053 A 
ATOM     90  C   UNL A   1      34.436  22.054  25.154  1.00  0.00     0.041 A 
ATOM     91  C   UNL A   1      35.146  24.348  25.405  1.00  0.00     0.023 A 
ATOM     92  Cl  UNL A   1      33.548  26.388  26.083  1.00  0.00    -0.083 Cl
ATOM     93  Cl  UNL A   1      34.812  20.401  24.871  1.00  0.00    -0.084 Cl
ATOM     94  C   UNL A   1      35.450  23.009  25.146  1.00  0.00     0.022 A 
ENDBRANCH  84  87
ENDBRANCH  82  83
ENDBRANCH  81  82
ENDBRANCH  74  77
ENDBRANCH  72  73
ENDBRANCH   1  72
TORSDOF 13
ENDMDL
MODEL 2
REMARK VINA RESULT:     -12.6      0.137      1.955
REMARK SMILES O=C(NCCCNC(=O)[C@@H]1CC[C@@H](CNC(=O)c2cc(Cl)ccc2Cl)O1)c1ccc(-c2c3nc(c(-c4c(F)c(F)c(F)c(F)c4F)c4ccc([nH]4)c(-c4c(F)c(F)c(F)c(F)c4F)c4nc(c(-c5c(F)c(F)c(F)c(F)c5F)c5ccc2[nH]5)C=C4)C=C3)cc1
REMARK SMILES IDX 5 1 4 2 3 3 1 4 2 5 27 7 28 8 89 9 29 10 88 11 30 12 31 13
REMARK SMILES IDX 32 14 82 15 33 16 87 17 81 18 83 19 34 20 86 21 80 22 79 23
REMARK SMILES IDX 35 25 67 26 47 27 66 28 48 29 51 30 65 31 84 32 49 33 50 34
REMARK SMILES IDX 64 36 85 37 52 38 36 39 37 40 45 41 38 42 39 43 43 44 46 45
REMARK SMILES IDX 40 46 41 47 44 48 42 49 68 50 69 51 77 52 70 53 71 54 75 55
REMARK SMILES IDX 78 56 72 57 73 58 76 59 74 60 53 61 54 62 62 63 55 64 56 65
REMARK SMILES IDX 60 66 63 67 57 68 58 69 61 70 59 71 6 72 7 73 8 74 9 76
REMARK SMILES IDX 10 77 11 78 26 79 12 80 13 81 14 82 15 83 16 84 17 86 18 87
REMARK SMILES IDX 19 88 24 89 20 90 23 91 25 92 21 93 22 94
REMARK H PARENT 3 6 83 24 51 35 7 75 15 85
REMARK Flexibility Score: inf
ROOT
ATOM      1  C   UNL A   1      31.280  31.717  26.469  1.00  0.00     0.042 C 
ENDROOT
BRANCH   1   2
ATOM      2  C   UNL A   1      32.574  32.282  27.040  1.00  0.00     0.118 C 
BRANCH   2   3
ATOM      3  N   UNL A   1      32.436  33.680  27.441  1.00  0.00    -0.352 N 
ATOM      4  O   UNL A   1      32.669  35.501  28.743  1.00  0.00    -0.269 OA
ATOM      5  C   UNL A   1      33.085  34.393  28.416  1.00  0.00     0.251 C 
ATOM      6  H   UNL A   1      31.769  34.193  26.929  1.00  0.00     0.163 HD
BRANCH   5   7
ATOM      7  C   UNL A   1      34.283  33.832  29.074  1.00  0.00     0.039 A 
ATOM      8  C   UNL A   1      34.161  32.772  29.972  1.00  0.00     0.014 A 
ATOM      9  C   UNL A   1      35.546  34.341  28.756  1.00  0.00     0.014 A 
ATOM     10  C   UNL A   1      35.276  32.322  30.663  1.00  0.00     0.010 A 
ATOM     11  C   UNL A   1      36.683  33.812  29.373  1.00  0.00     0.010 A 
ATOM     12  C   UNL A   1      36.554  32.813  30.347  1.00  0.00    -0.014 A 
BRANCH  12  13
ATOM     13  C   UNL A   1      37.730  32.180  30.993  1.00  0.00     0.031 A 
ATOM     14  C   UNL A   1      38.133  32.524  32.396  1.00  0.00     0.074 A 
ATOM     15  C   UNL A   1      38.398  31.237  30.300  1.00  0.00     0.049 A 
ATOM     16  N   UNL A   1      39.099  32.016  33.120  1.00  0.00    -0.248 NA
ATOM     17  C   UNL A   1      37.362  33.574  33.078  1.00  0.00     0.031 C 
ATOM     18  C   UNL A   1      38.101  30.841  28.920  1.00  0.00     0.029 A 
ATOM     19  N   UNL A   1      39.438  30.420  30.661  1.00  0.00    -0.354 N 
ATOM     20  C   UNL A   1      39.060  32.689  34.334  1.00  0.00     0.074 A 
ATOM     21  C   UNL A   1      37.993  33.663  34.242  1.00  0.00     0.031 C 
ATOM     22  C   UNL A   1      38.893  29.818  28.574  1.00  0.00     0.029 A 
ATOM     23  C   UNL A   1      39.802  29.533  29.677  1.00  0.00     0.049 A 
ATOM     24  H   UNL A   1      39.880  30.465  31.539  1.00  0.00     0.167 HD
ATOM     25  C   UNL A   1      39.841  32.499  35.425  1.00  0.00     0.037 A 
ATOM     26  C   UNL A   1      40.774  28.604  29.657  1.00  0.00     0.037 A 
ATOM     27  C   UNL A   1      40.894  31.518  35.508  1.00  0.00     0.049 A 
ATOM     28  C   UNL A   1      41.632  28.434  30.877  1.00  0.00     0.074 A 
ATOM     29  C   UNL A   1      41.728  31.234  36.576  1.00  0.00     0.029 A 
ATOM     30  N   UNL A   1      41.260  30.661  34.479  1.00  0.00    -0.354 N 
ATOM     31  N   UNL A   1      41.564  29.057  32.028  1.00  0.00    -0.248 NA
ATOM     32  C   UNL A   1      42.704  27.436  30.793  1.00  0.00     0.031 C 
ATOM     33  C   UNL A   1      42.626  30.238  36.180  1.00  0.00     0.029 A 
ATOM     34  C   UNL A   1      42.320  29.863  34.881  1.00  0.00     0.049 A 
ATOM     35  H   UNL A   1      40.830  30.625  33.595  1.00  0.00     0.167 HD
ATOM     36  C   UNL A   1      42.577  28.521  32.810  1.00  0.00     0.074 A 
ATOM     37  C   UNL A   1      43.220  27.497  32.012  1.00  0.00     0.031 C 
ATOM     38  C   UNL A   1      42.948  28.853  34.070  1.00  0.00     0.037 A 
BRANCH  25  39
ATOM     39  C   UNL A   1      39.597  33.371  36.623  1.00  0.00     0.064 A 
ATOM     40  C   UNL A   1      38.724  32.984  37.649  1.00  0.00     0.173 A 
ATOM     41  C   UNL A   1      40.303  34.574  36.782  1.00  0.00     0.173 A 
ATOM     42  F   UNL A   1      38.018  31.848  37.542  1.00  0.00    -0.203 F 
ATOM     43  C   UNL A   1      38.557  33.774  38.784  1.00  0.00     0.198 A 
ATOM     44  C   UNL A   1      40.153  35.349  37.929  1.00  0.00     0.198 A 
ATOM     45  F   UNL A   1      41.156  34.988  35.832  1.00  0.00    -0.203 F 
ATOM     46  F   UNL A   1      37.693  33.398  39.740  1.00  0.00    -0.200 F 
ATOM     47  C   UNL A   1      39.277  34.951  38.928  1.00  0.00     0.200 A 
ATOM     48  F   UNL A   1      40.860  36.478  38.072  1.00  0.00    -0.200 F 
ATOM     49  F   UNL A   1      39.127  35.700  40.028  1.00  0.00    -0.200 F 
ENDBRANCH  25  39
BRANCH  26  50
ATOM     50  C   UNL A   1      40.994  27.784  28.438  1.00  0.00     0.064 A 
ATOM     51  C   UNL A   1      41.853  28.215  27.419  1.00  0.00     0.173 A 
ATOM     52  C   UNL A   1      40.344  26.552  28.266  1.00  0.00     0.173 A 
ATOM     53  F   UNL A   1      42.484  29.394  27.529  1.00  0.00    -0.203 F 
ATOM     54  C   UNL A   1      42.033  27.459  26.263  1.00  0.00     0.198 A 
ATOM     55  C   UNL A   1      40.552  25.780  27.126  1.00  0.00     0.198 A 
ATOM     56  F   UNL A   1      39.516  26.091  29.215  1.00  0.00    -0.203 F 
ATOM     57  F   UNL A   1      42.819  27.919  25.280  1.00  0.00    -0.200 F 
ATOM     58  C   UNL A   1      41.389  26.239  26.121  1.00  0.00     0.200 A 
ATOM     59  F   UNL A   1      39.943  24.594  27.003  1.00  0.00    -0.200 F 
ATOM     60  F   UNL A   1      41.567  25.510  25.012  1.00  0.00    -0.200 F 
ENDBRANCH  26  50
BRANCH  38  61
ATOM     61  C   UNL A   1      44.094  28.084  34.658  1.00  0.00     0.064 A 
ATOM     62  C   UNL A   1      43.891  26.877  35.345  1.00  0.00     0.173 A 
ATOM     63  C   UNL A   1      45.408  28.557  34.531  1.00  0.00     0.173 A 
ATOM     64  F   UNL A   1      42.650  26.393  35.507  1.00  0.00    -0.203 F 
ATOM     65  C   UNL A   1      44.961  26.191  35.915  1.00  0.00     0.198 A 
ATOM     66  C   UNL A   1      46.478  27.852  35.075  1.00  0.00     0.198 A 
ATOM     67  F   UNL A   1      45.655  29.703  33.880  1.00  0.00    -0.203 F 
ATOM     68  F   UNL A   1      44.737  25.073  36.619  1.00  0.00    -0.200 F 
ATOM     69  C   UNL A   1      46.252  26.676  35.775  1.00  0.00     0.200 A 
ATOM     70  F   UNL A   1      47.727  28.314  34.930  1.00  0.00    -0.200 F 
ATOM     71  F   UNL A   1      47.280  26.016  36.326  1.00  0.00    -0.200 F 
ENDBRANCH  38  61
ENDBRANCH  12  13
ENDBRANCH   5   7
ENDBRANCH   2   3
ENDBRANCH   1   2
BRANCH   1  72
ATOM     72  C   UNL A   1      31.498  30.397  25.743  1.00  0.00     0.117 C 
BRANCH  72  73
ATOM     73  N   UNL A   1      30.655  30.278  24.569  1.00  0.00    -0.354 N 
ATOM     74  C   UNL A   1      30.562  29.279  23.648  1.00  0.00     0.249 C 
ATOM     75  H   UNL A   1      30.053  31.041  24.414  1.00  0.00     0.163 HD
ATOM     76  O   UNL A   1      29.800  29.457  22.693  1.00  0.00    -0.272 OA
BRANCH  74  77
ATOM     77  C   UNL A   1      31.296  27.934  23.822  1.00  0.00     0.207 C 
ATOM     78  C   UNL A   1      32.208  27.668  22.629  1.00  0.00     0.045 C 
ATOM     79  O   UNL A   1      30.504  26.758  24.010  1.00  0.00    -0.363 OA
ATOM     80  C   UNL A   1      32.300  26.161  22.609  1.00  0.00     0.037 C 
ATOM     81  C   UNL A   1      30.895  25.776  23.026  1.00  0.00     0.138 C 
BRANCH  81  82
ATOM     82  C   UNL A   1      30.738  24.375  23.614  1.00  0.00     0.148 C 
BRANCH  82  83
ATOM     83  N   UNL A   1      30.563  24.403  25.063  1.00  0.00    -0.349 N 
ATOM     84  C   UNL A   1      31.443  24.115  26.073  1.00  0.00     0.252 C 
ATOM     85  H   UNL A   1      29.665  24.672  25.364  1.00  0.00     0.163 HD
ATOM     86  O   UNL A   1      31.079  24.170  27.242  1.00  0.00    -0.269 OA
BRANCH  84  87
ATOM     87  C   UNL A   1      32.838  23.769  25.748  1.00  0.00     0.059 A 
ATOM     88  C   UNL A   1      33.146  22.428  25.481  1.00  0.00     0.036 A 
ATOM     89  C   UNL A   1      33.835  24.749  25.676  1.00  0.00     0.053 A 
ATOM     90  C   UNL A   1      34.463  22.062  25.224  1.00  0.00     0.041 A 
ATOM     91  C   UNL A   1      35.149  24.372  25.381  1.00  0.00     0.023 A 
ATOM     92  Cl  UNL A   1      33.535  26.419  25.993  1.00  0.00    -0.083 Cl
ATOM     93  Cl  UNL A   1      34.855  20.404  25.000  1.00  0.00    -0.084 Cl
ATOM     94  C   UNL A   1      35.466  23.027  25.171  1.00  0.00     0.022 A 
ENDBRANCH  84  87
ENDBRANCH  82  83
ENDBRANCH  81  82
ENDBRANCH  74  77
ENDBRANCH  72  73
ENDBRANCH   1  72
TORSDOF 13
ENDMDL
MODEL 3
REMARK VINA RESULT:     -12.6      5.246     10.769
REMARK SMILES O=C(NCCCNC(=O)[C@@H]1CC[C@@H](CNC(=O)c2cc(Cl)ccc2Cl)O1)c1ccc(-c2c3nc(c(-c4c(F)c(F)c(F)c(F)c4F)c4ccc([nH]4)c(-c4c(F)c(F)c(F)c(F)c4F)c4nc(c(-c5c(F)c(F)c(F)c(F)c5F)c5ccc2[nH]5)C=C4)C=C3)cc1
REMARK SMILES IDX 5 1 4 2 3 3 1 4 2 5 27 7 28 8 89 9 29 10 88 11 30 12 31 13
REMARK SMILES IDX 32 14 82 15 33 16 87 17 81 18 83 19 34 20 86 21 80 22 79 23
REMARK SMILES IDX 35 25 67 26 47 27 66 28 48 29 51 30 65 31 84 32 49 33 50 34
REMARK SMILES IDX 64 36 85 37 52 38 36 39 37 40 45 41 38 42 39 43 43 44 46 45
REMARK SMILES IDX 40 46 41 47 44 48 42 49 68 50 69 51 77 52 70 53 71 54 75 55
REMARK SMILES IDX 78 56 72 57 73 58 76 59 74 60 53 61 54 62 62 63 55 64 56 65
REMARK SMILES IDX 60 66 63 67 57 68 58 69 61 70 59 71 6 72 7 73 8 74 9 76
REMARK SMILES IDX 10 77 11 78 26 79 12 80 13 81 14 82 15 83 16 84 17 86 18 87
REMARK SMILES IDX 19 88 24 89 20 90 23 91 25 92 21 93 22 94
REMARK H PARENT 3 6 83 24 51 35 7 75 15 85
REMARK Flexibility Score: inf
ROOT
ATOM      1  C   UNL A   1      37.778  19.651  24.922  1.00  0.00     0.042 C 
ENDROOT
BRANCH   1   2
ATOM      2  C   UNL A   1      38.924  20.199  25.762  1.00  0.00     0.118 C 
BRANCH   2   3
ATOM      3  N   UNL A   1      40.026  19.247  25.880  1.00  0.00    -0.352 N 
ATOM      4  O   UNL A   1      42.160  18.534  25.917  1.00  0.00    -0.269 OA
ATOM      5  C   UNL A   1      41.367  19.460  26.065  1.00  0.00     0.251 C 
ATOM      6  H   UNL A   1      39.763  18.301  25.815  1.00  0.00     0.163 HD
BRANCH   5   7
ATOM      7  C   UNL A   1      41.862  20.800  26.442  1.00  0.00     0.039 A 
ATOM      8  C   UNL A   1      41.973  21.805  25.482  1.00  0.00     0.014 A 
ATOM      9  C   UNL A   1      42.175  21.069  27.778  1.00  0.00     0.014 A 
ATOM     10  C   UNL A   1      42.536  23.025  25.822  1.00  0.00     0.010 A 
ATOM     11  C   UNL A   1      42.641  22.336  28.141  1.00  0.00     0.010 A 
ATOM     12  C   UNL A   1      42.845  23.317  27.161  1.00  0.00    -0.014 A 
BRANCH  12  13
ATOM     13  C   UNL A   1      43.285  24.693  27.498  1.00  0.00     0.031 A 
ATOM     14  C   UNL A   1      44.679  25.164  27.204  1.00  0.00     0.074 A 
ATOM     15  C   UNL A   1      42.375  25.534  28.028  1.00  0.00     0.049 A 
ATOM     16  N   UNL A   1      45.198  26.353  27.385  1.00  0.00    -0.248 NA
ATOM     17  C   UNL A   1      45.616  24.180  26.642  1.00  0.00     0.031 C 
ATOM     18  C   UNL A   1      40.997  25.172  28.372  1.00  0.00     0.029 A 
ATOM     19  N   UNL A   1      42.453  26.866  28.340  1.00  0.00    -0.354 N 
ATOM     20  C   UNL A   1      46.519  26.258  26.970  1.00  0.00     0.074 A 
ATOM     21  C   UNL A   1      46.734  24.888  26.554  1.00  0.00     0.031 C 
ATOM     22  C   UNL A   1      40.343  26.264  28.786  1.00  0.00     0.029 A 
ATOM     23  C   UNL A   1      41.271  27.387  28.808  1.00  0.00     0.049 A 
ATOM     24  H   UNL A   1      43.276  27.397  28.240  1.00  0.00     0.167 HD
ATOM     25  C   UNL A   1      47.460  27.233  26.933  1.00  0.00     0.037 A 
ATOM     26  C   UNL A   1      40.971  28.630  29.225  1.00  0.00     0.037 A 
ATOM     27  C   UNL A   1      47.231  28.597  27.341  1.00  0.00     0.049 A 
ATOM     28  C   UNL A   1      42.043  29.680  29.189  1.00  0.00     0.074 A 
ATOM     29  C   UNL A   1      48.113  29.664  27.323  1.00  0.00     0.029 A 
ATOM     30  N   UNL A   1      46.031  29.082  27.844  1.00  0.00    -0.354 N 
ATOM     31  N   UNL A   1      43.280  29.584  28.766  1.00  0.00    -0.248 NA
ATOM     32  C   UNL A   1      41.679  31.010  29.691  1.00  0.00     0.031 C 
ATOM     33  C   UNL A   1      47.462  30.782  27.855  1.00  0.00     0.029 A 
ATOM     34  C   UNL A   1      46.158  30.426  28.158  1.00  0.00     0.049 A 
ATOM     35  H   UNL A   1      45.212  28.549  27.960  1.00  0.00     0.167 HD
ATOM     36  C   UNL A   1      43.840  30.840  28.942  1.00  0.00     0.074 A 
ATOM     37  C   UNL A   1      42.795  31.690  29.476  1.00  0.00     0.031 C 
ATOM     38  C   UNL A   1      45.106  31.252  28.694  1.00  0.00     0.037 A 
BRANCH  25  39
ATOM     39  C   UNL A   1      48.831  26.868  26.442  1.00  0.00     0.064 A 
ATOM     40  C   UNL A   1      49.782  26.280  27.288  1.00  0.00     0.173 A 
ATOM     41  C   UNL A   1      49.172  27.038  25.091  1.00  0.00     0.173 A 
ATOM     42  F   UNL A   1      49.510  26.104  28.591  1.00  0.00    -0.203 F 
ATOM     43  C   UNL A   1      51.028  25.888  26.804  1.00  0.00     0.198 A 
ATOM     44  C   UNL A   1      50.409  26.621  24.605  1.00  0.00     0.198 A 
ATOM     45  F   UNL A   1      48.296  27.590  24.237  1.00  0.00    -0.203 F 
ATOM     46  F   UNL A   1      51.933  25.355  27.639  1.00  0.00    -0.200 F 
ATOM     47  C   UNL A   1      51.337  26.050  25.461  1.00  0.00     0.200 A 
ATOM     48  F   UNL A   1      50.700  26.766  23.305  1.00  0.00    -0.200 F 
ATOM     49  F   UNL A   1      52.529  25.656  24.994  1.00  0.00    -0.200 F 
ENDBRANCH  25  39
BRANCH  26  50
ATOM     50  C   UNL A   1      39.607  28.936  29.728  1.00  0.00     0.064 A 
ATOM     51  C   UNL A   1      39.253  28.688  31.060  1.00  0.00     0.173 A 
ATOM     52  C   UNL A   1      38.628  29.479  28.883  1.00  0.00     0.173 A 
ATOM     53  F   UNL A   1      40.148  28.153  31.903  1.00  0.00    -0.203 F 
ATOM     54  C   UNL A   1      37.964  28.947  31.522  1.00  0.00     0.198 A 
ATOM     55  C   UNL A   1      37.350  29.772  29.354  1.00  0.00     0.198 A 
ATOM     56  F   UNL A   1      38.918  29.742  27.599  1.00  0.00    -0.203 F 
ATOM     57  F   UNL A   1      37.635  28.652  32.786  1.00  0.00    -0.200 F 
ATOM     58  C   UNL A   1      37.016  29.495  30.670  1.00  0.00     0.200 A 
ATOM     59  F   UNL A   1      36.445  30.320  28.532  1.00  0.00    -0.200 F 
ATOM     60  F   UNL A   1      35.779  29.750  31.115  1.00  0.00    -0.200 F 
ENDBRANCH  26  50
BRANCH  38  61
ATOM     61  C   UNL A   1      45.416  32.690  28.987  1.00  0.00     0.064 A 
ATOM     62  C   UNL A   1      45.212  33.694  28.029  1.00  0.00     0.173 A 
ATOM     63  C   UNL A   1      45.920  33.067  30.241  1.00  0.00     0.173 A 
ATOM     64  F   UNL A   1      44.749  33.380  26.810  1.00  0.00    -0.203 F 
ATOM     65  C   UNL A   1      45.536  35.021  28.304  1.00  0.00     0.198 A 
ATOM     66  C   UNL A   1      46.212  34.399  30.522  1.00  0.00     0.198 A 
ATOM     67  F   UNL A   1      46.128  32.146  31.192  1.00  0.00    -0.203 F 
ATOM     68  F   UNL A   1      45.391  35.954  27.353  1.00  0.00    -0.200 F 
ATOM     69  C   UNL A   1      46.030  35.372  29.550  1.00  0.00     0.200 A 
ATOM     70  F   UNL A   1      46.679  34.740  31.731  1.00  0.00    -0.200 F 
ATOM     71  F   UNL A   1      46.343  36.648  29.813  1.00  0.00    -0.200 F 
ENDBRANCH  38  61
ENDBRANCH  12  13
ENDBRANCH   5   7
ENDBRANCH   2   3
ENDBRANCH   1   2
BRANCH   1  72
ATOM     72  C   UNL A   1      36.525  20.511  25.022  1.00  0.00     0.117 C 
BRANCH  72  73
ATOM     73  N   UNL A   1      35.315  19.719  24.929  1.00  0.00    -0.354 N 
ATOM     74  C   UNL A   1      34.007  20.100  24.955  1.00  0.00     0.249 C 
ATOM     75  H   UNL A   1      35.461  18.751  24.828  1.00  0.00     0.163 HD
ATOM     76  O   UNL A   1      33.155  19.207  24.923  1.00  0.00    -0.272 OA
BRANCH  74  77
ATOM     77  C   UNL A   1      33.587  21.583  24.930  1.00  0.00     0.207 C 
ATOM     78  C   UNL A   1      32.882  21.958  26.229  1.00  0.00     0.045 C 
ATOM     79  O   UNL A   1      32.746  22.024  23.860  1.00  0.00    -0.363 OA
ATOM     80  C   UNL A   1      32.001  23.111  25.811  1.00  0.00     0.037 C 
ATOM     81  C   UNL A   1      31.585  22.672  24.420  1.00  0.00     0.138 C 
BRANCH  81  82
ATOM     82  C   UNL A   1      31.121  23.786  23.485  1.00  0.00     0.148 C 
BRANCH  82  83
ATOM     83  N   UNL A   1      32.164  24.185  22.544  1.00  0.00    -0.349 N 
ATOM     84  C   UNL A   1      33.008  25.264  22.554  1.00  0.00     0.252 C 
ATOM     85  H   UNL A   1      32.279  23.579  21.777  1.00  0.00     0.163 HD
ATOM     86  O   UNL A   1      33.803  25.434  21.636  1.00  0.00    -0.269 OA
BRANCH  84  87
ATOM     87  C   UNL A   1      32.978  26.202  23.690  1.00  0.00     0.059 A 
ATOM     88  C   UNL A   1      32.054  27.256  23.658  1.00  0.00     0.036 A 
ATOM     89  C   UNL A   1      33.826  26.041  24.792  1.00  0.00     0.053 A 
ATOM     90  C   UNL A   1      32.038  28.189  24.690  1.00  0.00     0.041 A 
ATOM     91  C   UNL A   1      33.774  26.967  25.839  1.00  0.00     0.023 A 
ATOM     92  Cl  UNL A   1      34.991  24.773  24.903  1.00  0.00    -0.083 Cl
ATOM     93  Cl  UNL A   1      30.976  29.537  24.598  1.00  0.00    -0.084 Cl
ATOM     94  C   UNL A   1      32.892  28.050  25.781  1.00  0.00     0.022 A 
ENDBRANCH  84  87
ENDBRANCH  82  83
ENDBRANCH  81  82
ENDBRANCH  74  77
ENDBRANCH  72  73
ENDBRANCH   1  72
TORSDOF 13
ENDMDL
