MODEL 1
REMARK VINA RESULT:     -14.4      0.000      0.000
REMARK SMILES Cc1cc([N+](=O)[O-])ccc1NC(=O)[C@@H]1[C@@H](C(=O)NCCCNC(=O)c2ccc(-c3c4nc(c(-c5c(F)c(F)c(F)c(F)c5F)c5ccc([nH]5)c(-c5c(F)c(F)c(F)c(F)c5F)c5nc(c(-c6c(F)c(F)c(F)c(F)c6F)c6ccc3[nH]6)C=C5)C=C4)cc2)[C@H]2C=C[C@@H]1C2
REMARK SMILES IDX 19 1 18 2 16 3 17 4 15 6 14 7 91 8 88 9 90 10 92 11 89 12
REMARK SMILES IDX 12 13 11 14 13 16 10 17 1 18 2 19 3 20 4 21 9 22 8 23 5 24
REMARK SMILES IDX 6 25 7 26 20 27 21 28 22 29 23 30 24 32 25 33 26 34 87 35
REMARK SMILES IDX 27 36 86 37 28 38 29 39 30 40 80 41 31 42 85 43 79 44 81 45
REMARK SMILES IDX 32 46 84 47 78 48 77 49 33 51 65 52 45 53 64 54 46 55 49 56
REMARK SMILES IDX 63 57 82 58 47 59 48 60 62 62 83 63 50 64 34 65 35 66 43 67
REMARK SMILES IDX 36 68 37 69 41 70 44 71 38 72 39 73 42 74 40 75 66 76 67 77
REMARK SMILES IDX 75 78 68 79 69 80 73 81 76 82 70 83 71 84 74 85 72 86 51 87
REMARK SMILES IDX 52 88 60 89 53 90 54 91 58 92 61 93 55 94 56 95 59 96 57 97
REMARK H PARENT 18 5 11 15 22 31 81 50 49 61
REMARK Flexibility Score: inf
ROOT
ATOM      1  C   UNL A   1      31.949  30.579  26.877  1.00  0.00     0.117 C 
ENDROOT
BRANCH   1   2
ATOM      2  N   UNL A   1      31.770  29.188  27.262  1.00  0.00    -0.356 N 
ATOM      3  C   UNL A   1      31.584  28.042  26.558  1.00  0.00     0.224 C 
ATOM      4  O   UNL A   1      31.435  27.021  27.240  1.00  0.00    -0.275 OA
ATOM      5  H   UNL A   1      31.788  29.049  28.237  1.00  0.00     0.163 HD
BRANCH   3   6
ATOM      6  C   UNL A   1      31.445  27.981  25.035  1.00  0.00     0.098 C 
ATOM      7  C   UNL A   1      31.532  26.465  24.553  1.00  0.00     0.099 C 
ATOM      8  C   UNL A   1      32.605  26.534  23.435  1.00  0.00     0.025 C 
ATOM      9  C   UNL A   1      32.542  28.638  24.166  1.00  0.00     0.025 C 
ATOM     10  C   UNL A   1      33.931  26.806  24.104  1.00  0.00    -0.027 C 
ATOM     11  C   UNL A   1      32.349  27.913  22.835  1.00  0.00     0.017 C 
ATOM     12  C   UNL A   1      33.896  28.073  24.539  1.00  0.00    -0.027 C 
BRANCH   7  13
ATOM     13  C   UNL A   1      30.227  25.871  24.041  1.00  0.00     0.228 C 
ATOM     14  N   UNL A   1      30.062  24.515  23.879  1.00  0.00    -0.326 N 
ATOM     15  H   UNL A   1      29.181  24.267  23.518  1.00  0.00     0.169 HD
ATOM     16  O   UNL A   1      29.287  26.595  23.697  1.00  0.00    -0.274 OA
BRANCH  14  17
ATOM     17  C   UNL A   1      30.902  23.407  24.126  1.00  0.00     0.044 A 
ATOM     18  C   UNL A   1      30.322  23.472  26.644  1.00  0.00     0.047 C 
ATOM     19  C   UNL A   1      30.964  22.856  25.426  1.00  0.00    -0.021 A 
ATOM     20  C   UNL A   1      31.675  21.652  25.637  1.00  0.00     0.091 A 
ATOM     21  C   UNL A   1      32.325  21.015  24.576  1.00  0.00     0.269 A 
ATOM     22  C   UNL A   1      31.669  22.811  23.114  1.00  0.00     0.033 A 
ATOM     23  C   UNL A   1      32.353  21.609  23.319  1.00  0.00     0.088 A 
BRANCH  21  24
ATOM     24  N   UNL A   1      32.978  19.718  24.781  1.00  0.00     0.062 N 
ATOM     25  O   UNL A   1      34.214  19.681  24.725  1.00  0.00    -0.258 OA
ATOM     26  O   UNL A   1      32.252  18.741  25.013  1.00  0.00    -0.258 OA
ENDBRANCH  21  24
ENDBRANCH  14  17
ENDBRANCH   7  13
ENDBRANCH   3   6
ENDBRANCH   1   2
BRANCH   1  27
ATOM     27  C   UNL A   1      33.418  30.973  26.826  1.00  0.00     0.042 C 
BRANCH  27  28
ATOM     28  C   UNL A   1      34.222  30.281  27.921  1.00  0.00     0.118 C 
BRANCH  28  29
ATOM     29  N   UNL A   1      34.904  31.198  28.825  1.00  0.00    -0.352 N 
ATOM     30  C   UNL A   1      36.115  31.019  29.500  1.00  0.00     0.251 C 
ATOM     31  H   UNL A   1      34.452  32.058  28.983  1.00  0.00     0.163 HD
ATOM     32  O   UNL A   1      36.554  31.886  30.234  1.00  0.00    -0.269 OA
BRANCH  30  33
ATOM     33  C   UNL A   1      36.901  29.805  29.206  1.00  0.00     0.039 A 
ATOM     34  C   UNL A   1      37.277  28.984  30.272  1.00  0.00     0.014 A 
ATOM     35  C   UNL A   1      37.461  29.631  27.943  1.00  0.00     0.014 A 
ATOM     36  C   UNL A   1      38.394  28.162  30.133  1.00  0.00     0.010 A 
ATOM     37  C   UNL A   1      38.632  28.907  27.835  1.00  0.00     0.010 A 
ATOM     38  C   UNL A   1      39.133  28.225  28.948  1.00  0.00    -0.014 A 
BRANCH  38  39
ATOM     39  C   UNL A   1      40.493  27.708  28.840  1.00  0.00     0.031 A 
ATOM     40  C   UNL A   1      40.737  26.299  28.468  1.00  0.00     0.074 A 
ATOM     41  C   UNL A   1      41.548  28.529  29.047  1.00  0.00     0.049 A 
ATOM     42  N   UNL A   1      41.750  25.615  28.886  1.00  0.00    -0.248 NA
ATOM     43  C   UNL A   1      39.838  25.536  27.607  1.00  0.00     0.031 C 
ATOM     44  C   UNL A   1      42.954  28.235  28.784  1.00  0.00     0.029 A 
ATOM     45  N   UNL A   1      41.571  29.760  29.729  1.00  0.00    -0.354 N 
ATOM     46  C   UNL A   1      41.780  24.445  28.169  1.00  0.00     0.074 A 
ATOM     47  C   UNL A   1      40.539  24.412  27.429  1.00  0.00     0.031 C 
ATOM     48  C   UNL A   1      43.714  29.047  29.535  1.00  0.00     0.029 A 
ATOM     49  C   UNL A   1      42.820  29.806  30.391  1.00  0.00     0.049 A 
ATOM     50  H   UNL A   1      40.865  30.445  29.742  1.00  0.00     0.167 HD
ATOM     51  C   UNL A   1      42.903  23.675  28.158  1.00  0.00     0.037 A 
ATOM     52  C   UNL A   1      42.914  29.891  31.749  1.00  0.00     0.037 A 
ATOM     53  C   UNL A   1      43.971  24.255  28.958  1.00  0.00     0.049 A 
ATOM     54  C   UNL A   1      43.659  28.744  32.388  1.00  0.00     0.074 A 
ATOM     55  C   UNL A   1      45.052  25.055  28.624  1.00  0.00     0.029 A 
ATOM     56  N   UNL A   1      43.835  24.333  30.339  1.00  0.00    -0.354 N 
ATOM     57  N   UNL A   1      43.912  27.619  31.779  1.00  0.00    -0.248 NA
ATOM     58  C   UNL A   1      44.125  28.746  33.772  1.00  0.00     0.031 C 
ATOM     59  C   UNL A   1      45.539  25.655  29.809  1.00  0.00     0.029 A 
ATOM     60  C   UNL A   1      44.769  25.206  30.865  1.00  0.00     0.049 A 
ATOM     61  H   UNL A   1      43.169  23.837  30.868  1.00  0.00     0.167 HD
ATOM     62  C   UNL A   1      44.512  26.752  32.654  1.00  0.00     0.074 A 
ATOM     63  C   UNL A   1      44.646  27.511  33.882  1.00  0.00     0.031 C 
ATOM     64  C   UNL A   1      44.828  25.475  32.292  1.00  0.00     0.037 A 
BRANCH  51  65
ATOM     65  C   UNL A   1      43.084  22.566  27.160  1.00  0.00     0.064 A 
ATOM     66  C   UNL A   1      42.371  21.355  27.263  1.00  0.00     0.173 A 
ATOM     67  C   UNL A   1      44.012  22.635  26.103  1.00  0.00     0.173 A 
ATOM     68  F   UNL A   1      41.409  21.185  28.178  1.00  0.00    -0.203 F 
ATOM     69  C   UNL A   1      42.642  20.261  26.440  1.00  0.00     0.198 A 
ATOM     70  C   UNL A   1      44.319  21.524  25.314  1.00  0.00     0.198 A 
ATOM     71  F   UNL A   1      44.642  23.786  25.821  1.00  0.00    -0.203 F 
ATOM     72  F   UNL A   1      41.945  19.126  26.592  1.00  0.00    -0.200 F 
ATOM     73  C   UNL A   1      43.641  20.333  25.490  1.00  0.00     0.200 A 
ATOM     74  F   UNL A   1      45.290  21.609  24.394  1.00  0.00    -0.200 F 
ATOM     75  F   UNL A   1      43.944  19.262  24.743  1.00  0.00    -0.200 F 
ENDBRANCH  51  65
BRANCH  52  76
ATOM     76  C   UNL A   1      41.790  30.636  32.369  1.00  0.00     0.064 A 
ATOM     77  C   UNL A   1      41.802  32.041  32.293  1.00  0.00     0.173 A 
ATOM     78  C   UNL A   1      40.575  30.013  32.674  1.00  0.00     0.173 A 
ATOM     79  F   UNL A   1      42.943  32.687  32.003  1.00  0.00    -0.203 F 
ATOM     80  C   UNL A   1      40.628  32.782  32.397  1.00  0.00     0.198 A 
ATOM     81  C   UNL A   1      39.402  30.760  32.791  1.00  0.00     0.198 A 
ATOM     82  F   UNL A   1      40.496  28.676  32.742  1.00  0.00    -0.203 F 
ATOM     83  F   UNL A   1      40.654  34.108  32.203  1.00  0.00    -0.200 F 
ATOM     84  C   UNL A   1      39.423  32.137  32.617  1.00  0.00     0.200 A 
ATOM     85  F   UNL A   1      38.230  30.136  32.981  1.00  0.00    -0.200 F 
ATOM     86  F   UNL A   1      38.280  32.837  32.621  1.00  0.00    -0.200 F 
ENDBRANCH  52  76
BRANCH  64  87
ATOM     87  C   UNL A   1      45.304  24.384  33.214  1.00  0.00     0.064 A 
ATOM     88  C   UNL A   1      44.532  23.266  33.562  1.00  0.00     0.173 A 
ATOM     89  C   UNL A   1      46.649  24.366  33.659  1.00  0.00     0.173 A 
ATOM     90  F   UNL A   1      43.278  23.119  33.113  1.00  0.00    -0.203 F 
ATOM     91  C   UNL A   1      45.052  22.227  34.341  1.00  0.00     0.198 A 
ATOM     92  C   UNL A   1      47.178  23.305  34.390  1.00  0.00     0.198 A 
ATOM     93  F   UNL A   1      47.492  25.370  33.374  1.00  0.00    -0.203 F 
ATOM     94  F   UNL A   1      44.266  21.195  34.679  1.00  0.00    -0.200 F 
ATOM     95  C   UNL A   1      46.375  22.241  34.743  1.00  0.00     0.200 A 
ATOM     96  F   UNL A   1      48.475  23.312  34.730  1.00  0.00    -0.200 F 
ATOM     97  F   UNL A   1      46.881  21.222  35.450  1.00  0.00    -0.200 F 
ENDBRANCH  64  87
ENDBRANCH  38  39
ENDBRANCH  30  33
ENDBRANCH  28  29
ENDBRANCH  27  28
ENDBRANCH   1  27
TORSDOF 13
ENDMDL
MODEL 2
REMARK VINA RESULT:     -14.2      1.614      2.205
REMARK SMILES Cc1cc([N+](=O)[O-])ccc1NC(=O)[C@@H]1[C@@H](C(=O)NCCCNC(=O)c2ccc(-c3c4nc(c(-c5c(F)c(F)c(F)c(F)c5F)c5ccc([nH]5)c(-c5c(F)c(F)c(F)c(F)c5F)c5nc(c(-c6c(F)c(F)c(F)c(F)c6F)c6ccc3[nH]6)C=C5)C=C4)cc2)[C@H]2C=C[C@@H]1C2
REMARK SMILES IDX 19 1 18 2 16 3 17 4 15 6 14 7 91 8 88 9 90 10 92 11 89 12
REMARK SMILES IDX 12 13 11 14 13 16 10 17 1 18 2 19 3 20 4 21 9 22 8 23 5 24
REMARK SMILES IDX 6 25 7 26 20 27 21 28 22 29 23 30 24 32 25 33 26 34 87 35
REMARK SMILES IDX 27 36 86 37 28 38 29 39 30 40 80 41 31 42 85 43 79 44 81 45
REMARK SMILES IDX 32 46 84 47 78 48 77 49 33 51 65 52 45 53 64 54 46 55 49 56
REMARK SMILES IDX 63 57 82 58 47 59 48 60 62 62 83 63 50 64 34 65 35 66 43 67
REMARK SMILES IDX 36 68 37 69 41 70 44 71 38 72 39 73 42 74 40 75 66 76 67 77
REMARK SMILES IDX 75 78 68 79 69 80 73 81 76 82 70 83 71 84 74 85 72 86 51 87
REMARK SMILES IDX 52 88 60 89 53 90 54 91 58 92 61 93 55 94 56 95 59 96 57 97
REMARK H PARENT 18 5 11 15 22 31 81 50 49 61
REMARK Flexibility Score: inf
ROOT
ATOM      1  C   UNL A   1      31.791  30.263  25.806  1.00  0.00     0.117 C 
ENDROOT
BRANCH   1   2
ATOM      2  N   UNL A   1      32.717  29.181  25.514  1.00  0.00    -0.356 N 
ATOM      3  C   UNL A   1      32.551  27.869  25.203  1.00  0.00     0.224 C 
ATOM      4  O   UNL A   1      33.597  27.227  25.045  1.00  0.00    -0.275 OA
ATOM      5  H   UNL A   1      33.662  29.458  25.548  1.00  0.00     0.163 HD
BRANCH   3   6
ATOM      6  C   UNL A   1      31.195  27.163  25.151  1.00  0.00     0.098 C 
ATOM      7  C   UNL A   1      31.416  25.604  24.909  1.00  0.00     0.099 C 
ATOM      8  C   UNL A   1      30.468  25.316  23.715  1.00  0.00     0.025 C 
ATOM      9  C   UNL A   1      30.222  27.513  24.001  1.00  0.00     0.025 C 
ATOM     10  C   UNL A   1      31.063  25.987  22.501  1.00  0.00    -0.027 C 
ATOM     11  C   UNL A   1      29.317  26.281  23.985  1.00  0.00     0.017 C 
ATOM     12  C   UNL A   1      30.911  27.308  22.669  1.00  0.00    -0.027 C 
BRANCH   7  13
ATOM     13  C   UNL A   1      31.101  24.711  26.101  1.00  0.00     0.228 C 
ATOM     14  N   UNL A   1      31.938  23.688  26.482  1.00  0.00    -0.326 N 
ATOM     15  H   UNL A   1      31.604  23.174  27.252  1.00  0.00     0.169 HD
ATOM     16  O   UNL A   1      30.049  24.839  26.736  1.00  0.00    -0.274 OA
BRANCH  14  17
ATOM     17  C   UNL A   1      33.179  23.226  25.990  1.00  0.00     0.044 A 
ATOM     18  C   UNL A   1      31.983  21.675  24.303  1.00  0.00     0.047 C 
ATOM     19  C   UNL A   1      33.205  22.331  24.896  1.00  0.00    -0.021 A 
ATOM     20  C   UNL A   1      34.443  21.998  24.301  1.00  0.00     0.091 A 
ATOM     21  C   UNL A   1      35.636  22.535  24.793  1.00  0.00     0.269 A 
ATOM     22  C   UNL A   1      34.401  23.646  26.534  1.00  0.00     0.033 A 
ATOM     23  C   UNL A   1      35.623  23.333  25.932  1.00  0.00     0.088 A 
BRANCH  21  24
ATOM     24  N   UNL A   1      36.906  22.264  24.111  1.00  0.00     0.062 N 
ATOM     25  O   UNL A   1      37.813  21.741  24.772  1.00  0.00    -0.258 OA
ATOM     26  O   UNL A   1      36.987  22.559  22.910  1.00  0.00    -0.258 OA
ENDBRANCH  21  24
ENDBRANCH  14  17
ENDBRANCH   7  13
ENDBRANCH   3   6
ENDBRANCH   1   2
BRANCH   1  27
ATOM     27  C   UNL A   1      32.221  31.069  27.024  1.00  0.00     0.042 C 
BRANCH  27  28
ATOM     28  C   UNL A   1      33.581  30.617  27.544  1.00  0.00     0.118 C 
BRANCH  28  29
ATOM     29  N   UNL A   1      34.217  31.568  28.446  1.00  0.00    -0.352 N 
ATOM     30  C   UNL A   1      35.423  31.440  29.140  1.00  0.00     0.251 C 
ATOM     31  H   UNL A   1      33.733  32.414  28.585  1.00  0.00     0.163 HD
ATOM     32  O   UNL A   1      35.820  32.331  29.870  1.00  0.00    -0.269 OA
BRANCH  30  33
ATOM     33  C   UNL A   1      36.255  30.251  28.874  1.00  0.00     0.039 A 
ATOM     34  C   UNL A   1      36.644  29.457  29.957  1.00  0.00     0.014 A 
ATOM     35  C   UNL A   1      36.839  30.080  27.622  1.00  0.00     0.014 A 
ATOM     36  C   UNL A   1      37.790  28.674  29.844  1.00  0.00     0.010 A 
ATOM     37  C   UNL A   1      38.035  29.396  27.540  1.00  0.00     0.010 A 
ATOM     38  C   UNL A   1      38.544  28.746  28.669  1.00  0.00    -0.014 A 
BRANCH  38  39
ATOM     39  C   UNL A   1      39.922  28.276  28.587  1.00  0.00     0.031 A 
ATOM     40  C   UNL A   1      40.219  26.857  28.302  1.00  0.00     0.074 A 
ATOM     41  C   UNL A   1      40.946  29.148  28.737  1.00  0.00     0.049 A 
ATOM     42  N   UNL A   1      41.259  26.240  28.757  1.00  0.00    -0.248 NA
ATOM     43  C   UNL A   1      39.349  26.008  27.495  1.00  0.00     0.031 C 
ATOM     44  C   UNL A   1      42.362  28.892  28.486  1.00  0.00     0.029 A 
ATOM     45  N   UNL A   1      40.923  30.420  29.341  1.00  0.00    -0.354 N 
ATOM     46  C   UNL A   1      41.332  25.029  28.115  1.00  0.00     0.074 A 
ATOM     47  C   UNL A   1      40.092  24.903  27.384  1.00  0.00     0.031 C 
ATOM     48  C   UNL A   1      43.091  29.778  29.181  1.00  0.00     0.029 A 
ATOM     49  C   UNL A   1      42.171  30.554  29.993  1.00  0.00     0.049 A 
ATOM     50  H   UNL A   1      40.191  31.077  29.315  1.00  0.00     0.167 HD
ATOM     51  C   UNL A   1      42.484  24.303  28.146  1.00  0.00     0.037 A 
ATOM     52  C   UNL A   1      42.265  30.728  31.342  1.00  0.00     0.037 A 
ATOM     53  C   UNL A   1      43.530  24.973  28.903  1.00  0.00     0.049 A 
ATOM     54  C   UNL A   1      43.054  29.652  32.048  1.00  0.00     0.074 A 
ATOM     55  C   UNL A   1      44.580  25.791  28.515  1.00  0.00     0.029 A 
ATOM     56  N   UNL A   1      43.395  25.132  30.277  1.00  0.00    -0.354 N 
ATOM     57  N   UNL A   1      43.349  28.502  31.509  1.00  0.00    -0.248 NA
ATOM     58  C   UNL A   1      43.524  29.758  33.427  1.00  0.00     0.031 C 
ATOM     59  C   UNL A   1      45.046  26.482  29.658  1.00  0.00     0.029 A 
ATOM     60  C   UNL A   1      44.296  26.070  30.743  1.00  0.00     0.049 A 
ATOM     61  H   UNL A   1      42.750  24.645  30.839  1.00  0.00     0.167 HD
ATOM     62  C   UNL A   1      43.984  27.714  32.433  1.00  0.00     0.074 A 
ATOM     63  C   UNL A   1      44.092  28.553  33.611  1.00  0.00     0.031 C 
ATOM     64  C   UNL A   1      44.348  26.431  32.150  1.00  0.00     0.037 A 
BRANCH  51  65
ATOM     65  C   UNL A   1      42.705  23.142  27.218  1.00  0.00     0.064 A 
ATOM     66  C   UNL A   1      42.137  21.877  27.469  1.00  0.00     0.173 A 
ATOM     67  C   UNL A   1      43.535  23.220  26.083  1.00  0.00     0.173 A 
ATOM     68  F   UNL A   1      41.274  21.684  28.473  1.00  0.00    -0.203 F 
ATOM     69  C   UNL A   1      42.460  20.753  26.706  1.00  0.00     0.198 A 
ATOM     70  C   UNL A   1      43.898  22.086  25.352  1.00  0.00     0.198 A 
ATOM     71  F   UNL A   1      44.013  24.402  25.666  1.00  0.00    -0.203 F 
ATOM     72  F   UNL A   1      41.904  19.569  26.999  1.00  0.00    -0.200 F 
ATOM     73  C   UNL A   1      43.368  20.850  25.671  1.00  0.00     0.200 A 
ATOM     74  F   UNL A   1      44.779  22.195  24.348  1.00  0.00    -0.200 F 
ATOM     75  F   UNL A   1      43.725  19.759  24.979  1.00  0.00    -0.200 F 
ENDBRANCH  51  65
BRANCH  52  76
ATOM     76  C   UNL A   1      41.114  31.466  31.920  1.00  0.00     0.064 A 
ATOM     77  C   UNL A   1      41.062  32.861  31.739  1.00  0.00     0.173 A 
ATOM     78  C   UNL A   1      39.932  30.814  32.287  1.00  0.00     0.173 A 
ATOM     79  F   UNL A   1      42.170  33.533  31.387  1.00  0.00    -0.203 F 
ATOM     80  C   UNL A   1      39.857  33.555  31.804  1.00  0.00     0.198 A 
ATOM     81  C   UNL A   1      38.727  31.516  32.363  1.00  0.00     0.198 A 
ATOM     82  F   UNL A   1      39.914  29.484  32.455  1.00  0.00    -0.203 F 
ATOM     83  F   UNL A   1      39.820  34.862  31.511  1.00  0.00    -0.200 F 
ATOM     84  C   UNL A   1      38.684  32.875  32.087  1.00  0.00     0.200 A 
ATOM     85  F   UNL A   1      37.587  30.856  32.615  1.00  0.00    -0.200 F 
ATOM     86  F   UNL A   1      37.511  33.522  32.054  1.00  0.00    -0.200 F 
ENDBRANCH  52  76
BRANCH  64  87
ATOM     87  C   UNL A   1      44.868  25.418  33.136  1.00  0.00     0.064 A 
ATOM     88  C   UNL A   1      46.209  25.012  33.202  1.00  0.00     0.173 A 
ATOM     89  C   UNL A   1      44.027  24.933  34.167  1.00  0.00     0.173 A 
ATOM     90  F   UNL A   1      47.122  25.486  32.343  1.00  0.00    -0.203 F 
ATOM     91  C   UNL A   1      46.667  24.144  34.199  1.00  0.00     0.198 A 
ATOM     92  C   UNL A   1      44.499  24.112  35.189  1.00  0.00     0.198 A 
ATOM     93  F   UNL A   1      42.729  25.265  34.224  1.00  0.00    -0.203 F 
ATOM     94  F   UNL A   1      47.950  23.756  34.202  1.00  0.00    -0.200 F 
ATOM     95  C   UNL A   1      45.816  23.706  35.197  1.00  0.00     0.200 A 
ATOM     96  F   UNL A   1      43.672  23.735  36.175  1.00  0.00    -0.200 F 
ATOM     97  F   UNL A   1      46.270  22.912  36.176  1.00  0.00    -0.200 F 
ENDBRANCH  64  87
ENDBRANCH  38  39
ENDBRANCH  30  33
ENDBRANCH  28  29
ENDBRANCH  27  28
ENDBRANCH   1  27
TORSDOF 13
ENDMDL
MODEL 3
REMARK VINA RESULT:     -14.2      1.785      3.658
REMARK SMILES Cc1cc([N+](=O)[O-])ccc1NC(=O)[C@@H]1[C@@H](C(=O)NCCCNC(=O)c2ccc(-c3c4nc(c(-c5c(F)c(F)c(F)c(F)c5F)c5ccc([nH]5)c(-c5c(F)c(F)c(F)c(F)c5F)c5nc(c(-c6c(F)c(F)c(F)c(F)c6F)c6ccc3[nH]6)C=C5)C=C4)cc2)[C@H]2C=C[C@@H]1C2
REMARK SMILES IDX 19 1 18 2 16 3 17 4 15 6 14 7 91 8 88 9 90 10 92 11 89 12
REMARK SMILES IDX 12 13 11 14 13 16 10 17 1 18 2 19 3 20 4 21 9 22 8 23 5 24
REMARK SMILES IDX 6 25 7 26 20 27 21 28 22 29 23 30 24 32 25 33 26 34 87 35
REMARK SMILES IDX 27 36 86 37 28 38 29 39 30 40 80 41 31 42 85 43 79 44 81 45
REMARK SMILES IDX 32 46 84 47 78 48 77 49 33 51 65 52 45 53 64 54 46 55 49 56
REMARK SMILES IDX 63 57 82 58 47 59 48 60 62 62 83 63 50 64 34 65 35 66 43 67
REMARK SMILES IDX 36 68 37 69 41 70 44 71 38 72 39 73 42 74 40 75 66 76 67 77
REMARK SMILES IDX 75 78 68 79 69 80 73 81 76 82 70 83 71 84 74 85 72 86 51 87
REMARK SMILES IDX 52 88 60 89 53 90 54 91 58 92 61 93 55 94 56 95 59 96 57 97
REMARK H PARENT 18 5 11 15 22 31 81 50 49 61
REMARK Flexibility Score: inf
ROOT
ATOM      1  C   UNL A   1      32.668  28.229  27.301  1.00  0.00     0.117 C 
ENDROOT
BRANCH   1   2
ATOM      2  N   UNL A   1      31.520  27.455  26.856  1.00  0.00    -0.356 N 
ATOM      3  C   UNL A   1      31.391  26.282  26.182  1.00  0.00     0.224 C 
ATOM      4  O   UNL A   1      30.227  25.934  25.946  1.00  0.00    -0.275 OA
ATOM      5  H   UNL A   1      30.657  27.866  27.093  1.00  0.00     0.163 HD
BRANCH   3   6
ATOM      6  C   UNL A   1      32.567  25.471  25.634  1.00  0.00     0.098 C 
ATOM      7  C   UNL A   1      32.112  24.701  24.316  1.00  0.00     0.099 C 
ATOM      8  C   UNL A   1      32.564  23.246  24.609  1.00  0.00     0.025 C 
ATOM      9  C   UNL A   1      33.125  24.308  26.487  1.00  0.00     0.025 C 
ATOM     10  C   UNL A   1      31.668  22.712  25.701  1.00  0.00    -0.027 C 
ATOM     11  C   UNL A   1      33.834  23.468  25.425  1.00  0.00     0.017 C 
ATOM     12  C   UNL A   1      32.008  23.346  26.831  1.00  0.00    -0.027 C 
BRANCH   7  13
ATOM     13  C   UNL A   1      32.715  25.223  23.018  1.00  0.00     0.228 C 
ATOM     14  N   UNL A   1      32.306  26.408  22.454  1.00  0.00    -0.326 N 
ATOM     15  H   UNL A   1      32.758  26.616  21.605  1.00  0.00     0.169 HD
ATOM     16  O   UNL A   1      33.556  24.567  22.395  1.00  0.00    -0.274 OA
BRANCH  14  17
ATOM     17  C   UNL A   1      31.366  27.387  22.847  1.00  0.00     0.044 A 
ATOM     18  C   UNL A   1      33.264  28.949  23.652  1.00  0.00     0.047 C 
ATOM     19  C   UNL A   1      31.822  28.631  23.341  1.00  0.00    -0.021 A 
ATOM     20  C   UNL A   1      30.890  29.667  23.579  1.00  0.00     0.091 A 
ATOM     21  C   UNL A   1      29.527  29.465  23.344  1.00  0.00     0.269 A 
ATOM     22  C   UNL A   1      29.983  27.180  22.743  1.00  0.00     0.033 A 
ATOM     23  C   UNL A   1      29.065  28.211  22.959  1.00  0.00     0.088 A 
BRANCH  21  24
ATOM     24  N   UNL A   1      28.577  30.572  23.500  1.00  0.00     0.062 N 
ATOM     25  O   UNL A   1      27.385  30.347  23.252  1.00  0.00    -0.258 OA
ATOM     26  O   UNL A   1      29.024  31.661  23.886  1.00  0.00    -0.258 OA
ENDBRANCH  21  24
ENDBRANCH  14  17
ENDBRANCH   7  13
ENDBRANCH   3   6
ENDBRANCH   1   2
BRANCH   1  27
ATOM     27  C   UNL A   1      32.392  29.725  27.274  1.00  0.00     0.042 C 
BRANCH  27  28
ATOM     28  C   UNL A   1      33.667  30.527  27.038  1.00  0.00     0.118 C 
BRANCH  28  29
ATOM     29  N   UNL A   1      34.050  31.375  28.159  1.00  0.00    -0.352 N 
ATOM     30  C   UNL A   1      35.111  31.212  29.054  1.00  0.00     0.251 C 
ATOM     31  H   UNL A   1      33.487  32.169  28.306  1.00  0.00     0.163 HD
ATOM     32  O   UNL A   1      35.298  32.013  29.953  1.00  0.00    -0.269 OA
BRANCH  30  33
ATOM     33  C   UNL A   1      36.064  30.113  28.809  1.00  0.00     0.039 A 
ATOM     34  C   UNL A   1      36.468  29.330  29.894  1.00  0.00     0.014 A 
ATOM     35  C   UNL A   1      36.728  30.030  27.587  1.00  0.00     0.014 A 
ATOM     36  C   UNL A   1      37.688  28.659  29.828  1.00  0.00     0.010 A 
ATOM     37  C   UNL A   1      37.986  29.464  27.558  1.00  0.00     0.010 A 
ATOM     38  C   UNL A   1      38.492  28.834  28.699  1.00  0.00    -0.014 A 
BRANCH  38  39
ATOM     39  C   UNL A   1      39.912  28.496  28.683  1.00  0.00     0.031 A 
ATOM     40  C   UNL A   1      40.364  27.161  28.240  1.00  0.00     0.074 A 
ATOM     41  C   UNL A   1      40.832  29.420  29.043  1.00  0.00     0.049 A 
ATOM     42  N   UNL A   1      41.418  26.574  28.704  1.00  0.00    -0.248 NA
ATOM     43  C   UNL A   1      39.646  26.364  27.250  1.00  0.00     0.031 C 
ATOM     44  C   UNL A   1      42.281  29.320  28.892  1.00  0.00     0.029 A 
ATOM     45  N   UNL A   1      40.640  30.587  29.806  1.00  0.00    -0.354 N 
ATOM     46  C   UNL A   1      41.657  25.476  27.915  1.00  0.00     0.074 A 
ATOM     47  C   UNL A   1      40.497  25.352  27.062  1.00  0.00     0.031 C 
ATOM     48  C   UNL A   1      42.865  30.157  29.765  1.00  0.00     0.029 A 
ATOM     49  C   UNL A   1      41.813  30.732  30.583  1.00  0.00     0.049 A 
ATOM     50  H   UNL A   1      39.853  31.178  29.800  1.00  0.00     0.167 HD
ATOM     51  C   UNL A   1      42.866  24.851  27.957  1.00  0.00     0.037 A 
ATOM     52  C   UNL A   1      41.780  30.720  31.946  1.00  0.00     0.037 A 
ATOM     53  C   UNL A   1      43.780  25.492  28.890  1.00  0.00     0.049 A 
ATOM     54  C   UNL A   1      42.609  29.625  32.573  1.00  0.00     0.074 A 
ATOM     55  C   UNL A   1      44.775  26.441  28.714  1.00  0.00     0.029 A 
ATOM     56  N   UNL A   1      43.520  25.444  30.255  1.00  0.00    -0.354 N 
ATOM     57  N   UNL A   1      43.054  28.591  31.915  1.00  0.00    -0.248 NA
ATOM     58  C   UNL A   1      42.954  29.574  33.991  1.00  0.00     0.031 C 
ATOM     59  C   UNL A   1      45.080  27.000  29.977  1.00  0.00     0.029 A 
ATOM     60  C   UNL A   1      44.287  26.379  30.923  1.00  0.00     0.049 A 
ATOM     61  H   UNL A   1      42.880  24.830  30.684  1.00  0.00     0.167 HD
ATOM     62  C   UNL A   1      43.685  27.736  32.781  1.00  0.00     0.074 A 
ATOM     63  C   UNL A   1      43.617  28.407  34.065  1.00  0.00     0.031 C 
ATOM     64  C   UNL A   1      44.191  26.540  32.364  1.00  0.00     0.037 A 
BRANCH  51  65
ATOM     65  C   UNL A   1      43.271  23.855  26.907  1.00  0.00     0.064 A 
ATOM     66  C   UNL A   1      42.901  22.498  26.994  1.00  0.00     0.173 A 
ATOM     67  C   UNL A   1      44.090  24.191  25.812  1.00  0.00     0.173 A 
ATOM     68  F   UNL A   1      42.068  22.060  27.945  1.00  0.00    -0.203 F 
ATOM     69  C   UNL A   1      43.399  21.535  26.115  1.00  0.00     0.198 A 
ATOM     70  C   UNL A   1      44.629  23.220  24.964  1.00  0.00     0.198 A 
ATOM     71  F   UNL A   1      44.386  25.473  25.548  1.00  0.00    -0.203 F 
ATOM     72  F   UNL A   1      43.027  20.254  26.253  1.00  0.00    -0.200 F 
ATOM     73  C   UNL A   1      44.291  21.889  25.123  1.00  0.00     0.200 A 
ATOM     74  F   UNL A   1      45.492  23.579  24.005  1.00  0.00    -0.200 F 
ATOM     75  F   UNL A   1      44.817  20.955  24.320  1.00  0.00    -0.200 F 
ENDBRANCH  51  65
BRANCH  52  76
ATOM     76  C   UNL A   1      40.522  31.271  32.508  1.00  0.00     0.064 A 
ATOM     77  C   UNL A   1      40.328  32.664  32.461  1.00  0.00     0.173 A 
ATOM     78  C   UNL A   1      39.398  30.466  32.722  1.00  0.00     0.173 A 
ATOM     79  F   UNL A   1      41.375  33.480  32.258  1.00  0.00    -0.203 F 
ATOM     80  C   UNL A   1      39.052  33.220  32.505  1.00  0.00     0.198 A 
ATOM     81  C   UNL A   1      38.121  31.028  32.778  1.00  0.00     0.198 A 
ATOM     82  F   UNL A   1      39.516  29.131  32.758  1.00  0.00    -0.203 F 
ATOM     83  F   UNL A   1      38.891  34.540  32.339  1.00  0.00    -0.200 F 
ATOM     84  C   UNL A   1      37.946  32.397  32.634  1.00  0.00     0.200 A 
ATOM     85  F   UNL A   1      37.047  30.232  32.880  1.00  0.00    -0.200 F 
ATOM     86  F   UNL A   1      36.714  32.920  32.578  1.00  0.00    -0.200 F 
ENDBRANCH  52  76
BRANCH  64  87
ATOM     87  C   UNL A   1      44.724  25.445  33.251  1.00  0.00     0.064 A 
ATOM     88  C   UNL A   1      46.063  25.027  33.254  1.00  0.00     0.173 A 
ATOM     89  C   UNL A   1      43.900  24.880  34.255  1.00  0.00     0.173 A 
ATOM     90  F   UNL A   1      46.961  25.566  32.419  1.00  0.00    -0.203 F 
ATOM     91  C   UNL A   1      46.534  24.076  34.164  1.00  0.00     0.198 A 
ATOM     92  C   UNL A   1      44.387  23.973  35.194  1.00  0.00     0.198 A 
ATOM     93  F   UNL A   1      42.606  25.213  34.367  1.00  0.00    -0.203 F 
ATOM     94  F   UNL A   1      47.814  23.682  34.107  1.00  0.00    -0.200 F 
ATOM     95  C   UNL A   1      45.701  23.561  35.140  1.00  0.00     0.200 A 
ATOM     96  F   UNL A   1      43.578  23.519  36.163  1.00  0.00    -0.200 F 
ATOM     97  F   UNL A   1      46.169  22.684  36.039  1.00  0.00    -0.200 F 
ENDBRANCH  64  87
ENDBRANCH  38  39
ENDBRANCH  30  33
ENDBRANCH  28  29
ENDBRANCH  27  28
ENDBRANCH   1  27
TORSDOF 13
ENDMDL
