MODEL 1
REMARK VINA RESULT:     -12.2      0.000      0.000
REMARK SMILES CC1(C)C[C@](CC(=O)NCCCNC(=O)c2ccc(-c3c4nc(c(-c5c(F)c(F)c(F)c(F)c5F)c5ccc([nH]5)c(-c5c(F)c(F)c(F)c(F)c5F)c5nc(c(-c6c(F)c(F)c(F)c(F)c6F)c6ccc3[nH]6)C=C5)C=C4)cc2)([NH+]2CCCC2)C(C)(C)O1
REMARK SMILES IDX 11 1 10 2 9 3 7 4 8 5 6 7 5 8 1 9 2 10 3 11 4 12 87 13 84 14
REMARK SMILES IDX 85 15 86 16 79 17 80 18 83 19 81 21 82 22 12 23 13 24 14 25
REMARK SMILES IDX 15 27 16 28 17 29 78 30 18 31 77 32 19 33 20 34 21 35 71 36
REMARK SMILES IDX 22 37 76 38 70 39 72 40 23 41 75 42 69 43 68 44 24 46 56 47
REMARK SMILES IDX 36 48 55 49 37 50 40 51 54 52 73 53 38 54 39 55 53 57 74 58
REMARK SMILES IDX 41 59 25 60 26 61 34 62 27 63 28 64 32 65 35 66 29 67 30 68
REMARK SMILES IDX 33 69 31 70 57 71 58 72 66 73 59 74 60 75 64 76 67 77 61 78
REMARK SMILES IDX 62 79 65 80 63 81 42 82 43 83 51 84 44 85 45 86 49 87 52 88
REMARK SMILES IDX 46 89 47 90 50 91 48 92
REMARK H PARENT 9 6 79 20 13 26 72 45 40 56
REMARK Flexibility Score: inf
ROOT
ATOM      1  C   UNL A   1      33.011  29.216  23.131  1.00  0.00     0.042 C 
ENDROOT
BRANCH   1   2
ATOM      2  C   UNL A   1      32.118  28.036  22.772  1.00  0.00     0.117 C 
BRANCH   2   3
ATOM      3  N   UNL A   1      32.764  27.135  21.841  1.00  0.00    -0.356 N 
ATOM      4  C   UNL A   1      32.730  25.791  21.683  1.00  0.00     0.226 C 
ATOM      5  O   UNL A   1      33.232  25.386  20.624  1.00  0.00    -0.275 OA
ATOM      6  H   UNL A   1      33.347  27.592  21.192  1.00  0.00     0.163 HD
BRANCH   4   7
ATOM      7  C   UNL A   1      32.071  24.792  22.637  1.00  0.00     0.171 C 
BRANCH   7   8
ATOM      8  C   UNL A   1      32.689  24.260  24.001  1.00  0.00     0.138 C 
ATOM      9  C   UNL A   1      36.036  22.815  23.521  1.00  0.00     0.042 C 
ATOM     10  C   UNL A   1      35.006  23.388  24.510  1.00  0.00     0.070 C 
ATOM     11  C   UNL A   1      35.784  23.717  25.789  1.00  0.00     0.042 C 
ATOM     12  C   UNL A   1      34.234  24.558  23.891  1.00  0.00     0.107 C 
ATOM     13  O   UNL A   1      34.038  22.385  24.833  1.00  0.00    -0.363 OA
ATOM     14  C   UNL A   1      32.766  22.666  24.169  1.00  0.00     0.118 C 
ATOM     15  C   UNL A   1      32.857  21.817  22.875  1.00  0.00     0.049 C 
ATOM     16  C   UNL A   1      31.714  22.063  25.119  1.00  0.00     0.049 C 
BRANCH   8  17
ATOM     17  N   UNL A   1      32.218  25.056  25.176  1.00  0.00    -0.327 N 
ATOM     18  C   UNL A   1      33.082  26.006  25.864  1.00  0.00     0.263 C 
ATOM     19  C   UNL A   1      30.836  25.509  25.285  1.00  0.00     0.263 C 
ATOM     20  H   UNL A   1      32.300  24.167  25.670  1.00  0.00     0.348 HD
ATOM     21  C   UNL A   1      32.173  26.777  26.804  1.00  0.00     0.067 C 
ATOM     22  C   UNL A   1      30.860  26.814  26.067  1.00  0.00     0.067 C 
ENDBRANCH   8  17
ENDBRANCH   7   8
ENDBRANCH   4   7
ENDBRANCH   2   3
ENDBRANCH   1   2
BRANCH   1  23
ATOM     23  C   UNL A   1      33.492  29.213  24.576  1.00  0.00     0.118 C 
BRANCH  23  24
ATOM     24  N   UNL A   1      32.860  30.252  25.372  1.00  0.00    -0.352 N 
ATOM     25  C   UNL A   1      33.176  30.832  26.578  1.00  0.00     0.251 C 
ATOM     26  H   UNL A   1      32.038  30.613  24.966  1.00  0.00     0.163 HD
ATOM     27  O   UNL A   1      32.326  31.554  27.100  1.00  0.00    -0.269 OA
BRANCH  25  28
ATOM     28  C   UNL A   1      34.469  30.625  27.289  1.00  0.00     0.039 A 
ATOM     29  C   UNL A   1      34.760  29.331  27.750  1.00  0.00     0.014 A 
ATOM     30  C   UNL A   1      35.344  31.657  27.625  1.00  0.00     0.014 A 
ATOM     31  C   UNL A   1      35.911  29.078  28.512  1.00  0.00     0.010 A 
ATOM     32  C   UNL A   1      36.542  31.389  28.299  1.00  0.00     0.010 A 
ATOM     33  C   UNL A   1      36.829  30.103  28.780  1.00  0.00    -0.014 A 
BRANCH  33  34
ATOM     34  C   UNL A   1      38.047  29.867  29.609  1.00  0.00     0.031 A 
ATOM     35  C   UNL A   1      39.151  28.970  29.103  1.00  0.00     0.074 A 
ATOM     36  C   UNL A   1      38.157  30.420  30.834  1.00  0.00     0.049 A 
ATOM     37  N   UNL A   1      40.240  28.563  29.710  1.00  0.00    -0.248 NA
ATOM     38  C   UNL A   1      38.998  28.436  27.740  1.00  0.00     0.031 C 
ATOM     39  C   UNL A   1      37.158  31.282  31.467  1.00  0.00     0.029 A 
ATOM     40  N   UNL A   1      39.159  30.332  31.771  1.00  0.00    -0.354 N 
ATOM     41  C   UNL A   1      40.878  27.709  28.818  1.00  0.00     0.074 A 
ATOM     42  C   UNL A   1      40.031  27.612  27.650  1.00  0.00     0.031 C 
ATOM     43  C   UNL A   1      37.607  31.664  32.674  1.00  0.00     0.029 A 
ATOM     44  C   UNL A   1      38.906  31.044  32.919  1.00  0.00     0.049 A 
ATOM     45  H   UNL A   1      39.982  29.809  31.632  1.00  0.00     0.167 HD
ATOM     46  C   UNL A   1      42.074  27.083  28.944  1.00  0.00     0.037 A 
ATOM     47  C   UNL A   1      39.633  31.176  34.046  1.00  0.00     0.037 A 
ATOM     48  C   UNL A   1      42.945  27.211  30.082  1.00  0.00     0.049 A 
ATOM     49  C   UNL A   1      40.960  30.474  34.159  1.00  0.00     0.074 A 
ATOM     50  C   UNL A   1      44.197  26.653  30.280  1.00  0.00     0.029 A 
ATOM     51  N   UNL A   1      42.661  27.964  31.211  1.00  0.00    -0.354 N 
ATOM     52  N   UNL A   1      41.566  29.702  33.291  1.00  0.00    -0.248 NA
ATOM     53  C   UNL A   1      41.707  30.667  35.411  1.00  0.00     0.031 C 
ATOM     54  C   UNL A   1      44.656  27.042  31.543  1.00  0.00     0.029 A 
ATOM     55  C   UNL A   1      43.708  27.876  32.113  1.00  0.00     0.049 A 
ATOM     56  H   UNL A   1      41.835  28.482  31.352  1.00  0.00     0.167 HD
ATOM     57  C   UNL A   1      42.773  29.344  33.877  1.00  0.00     0.074 A 
ATOM     58  C   UNL A   1      42.822  29.994  35.169  1.00  0.00     0.031 C 
ATOM     59  C   UNL A   1      43.753  28.545  33.388  1.00  0.00     0.037 A 
BRANCH  46  60
ATOM     60  C   UNL A   1      42.522  26.207  27.807  1.00  0.00     0.064 A 
ATOM     61  C   UNL A   1      42.069  24.886  27.676  1.00  0.00     0.173 A 
ATOM     62  C   UNL A   1      43.384  26.705  26.817  1.00  0.00     0.173 A 
ATOM     63  F   UNL A   1      41.252  24.358  28.600  1.00  0.00    -0.203 F 
ATOM     64  C   UNL A   1      42.486  24.085  26.615  1.00  0.00     0.198 A 
ATOM     65  C   UNL A   1      43.774  25.911  25.741  1.00  0.00     0.198 A 
ATOM     66  F   UNL A   1      43.840  27.964  26.887  1.00  0.00    -0.203 F 
ATOM     67  F   UNL A   1      42.080  22.811  26.541  1.00  0.00    -0.200 F 
ATOM     68  C   UNL A   1      43.333  24.600  25.646  1.00  0.00     0.200 A 
ATOM     69  F   UNL A   1      44.582  26.415  24.797  1.00  0.00    -0.200 F 
ATOM     70  F   UNL A   1      43.729  23.831  24.623  1.00  0.00    -0.200 F 
ENDBRANCH  46  60
BRANCH  47  71
ATOM     71  C   UNL A   1      39.134  32.027  35.159  1.00  0.00     0.064 A 
ATOM     72  C   UNL A   1      39.395  33.404  35.182  1.00  0.00     0.173 A 
ATOM     73  C   UNL A   1      38.409  31.483  36.229  1.00  0.00     0.173 A 
ATOM     74  F   UNL A   1      40.106  33.967  34.192  1.00  0.00    -0.203 F 
ATOM     75  C   UNL A   1      38.971  34.201  36.242  1.00  0.00     0.198 A 
ATOM     76  C   UNL A   1      37.961  32.286  37.276  1.00  0.00     0.198 A 
ATOM     77  F   UNL A   1      38.133  30.172  36.255  1.00  0.00    -0.203 F 
ATOM     78  F   UNL A   1      39.279  35.505  36.264  1.00  0.00    -0.200 F 
ATOM     79  C   UNL A   1      38.250  33.643  37.287  1.00  0.00     0.200 A 
ATOM     80  F   UNL A   1      37.256  31.745  38.278  1.00  0.00    -0.200 F 
ATOM     81  F   UNL A   1      37.844  34.409  38.308  1.00  0.00    -0.200 F 
ENDBRANCH  47  71
BRANCH  59  82
ATOM     82  C   UNL A   1      44.980  28.363  34.231  1.00  0.00     0.064 A 
ATOM     83  C   UNL A   1      45.089  27.315  35.156  1.00  0.00     0.173 A 
ATOM     84  C   UNL A   1      46.076  29.228  34.084  1.00  0.00     0.173 A 
ATOM     85  F   UNL A   1      44.064  26.471  35.344  1.00  0.00    -0.203 F 
ATOM     86  C   UNL A   1      46.242  27.152  35.920  1.00  0.00     0.198 A 
ATOM     87  C   UNL A   1      47.238  29.046  34.830  1.00  0.00     0.198 A 
ATOM     88  F   UNL A   1      46.024  30.243  33.209  1.00  0.00    -0.203 F 
ATOM     89  F   UNL A   1      46.308  26.170  36.830  1.00  0.00    -0.200 F 
ATOM     90  C   UNL A   1      47.316  28.013  35.752  1.00  0.00     0.200 A 
ATOM     91  F   UNL A   1      48.280  29.871  34.658  1.00  0.00    -0.200 F 
ATOM     92  F   UNL A   1      48.427  27.851  36.484  1.00  0.00    -0.200 F 
ENDBRANCH  59  82
ENDBRANCH  33  34
ENDBRANCH  25  28
ENDBRANCH  23  24
ENDBRANCH   1  23
TORSDOF 12
ENDMDL
MODEL 2
REMARK VINA RESULT:     -12.2      0.081      1.613
REMARK SMILES CC1(C)C[C@](CC(=O)NCCCNC(=O)c2ccc(-c3c4nc(c(-c5c(F)c(F)c(F)c(F)c5F)c5ccc([nH]5)c(-c5c(F)c(F)c(F)c(F)c5F)c5nc(c(-c6c(F)c(F)c(F)c(F)c6F)c6ccc3[nH]6)C=C5)C=C4)cc2)([NH+]2CCCC2)C(C)(C)O1
REMARK SMILES IDX 11 1 10 2 9 3 7 4 8 5 6 7 5 8 1 9 2 10 3 11 4 12 87 13 84 14
REMARK SMILES IDX 85 15 86 16 79 17 80 18 83 19 81 21 82 22 12 23 13 24 14 25
REMARK SMILES IDX 15 27 16 28 17 29 78 30 18 31 77 32 19 33 20 34 21 35 71 36
REMARK SMILES IDX 22 37 76 38 70 39 72 40 23 41 75 42 69 43 68 44 24 46 56 47
REMARK SMILES IDX 36 48 55 49 37 50 40 51 54 52 73 53 38 54 39 55 53 57 74 58
REMARK SMILES IDX 41 59 25 60 26 61 34 62 27 63 28 64 32 65 35 66 29 67 30 68
REMARK SMILES IDX 33 69 31 70 57 71 58 72 66 73 59 74 60 75 64 76 67 77 61 78
REMARK SMILES IDX 62 79 65 80 63 81 42 82 43 83 51 84 44 85 45 86 49 87 52 88
REMARK SMILES IDX 46 89 47 90 50 91 48 92
REMARK H PARENT 9 6 79 20 13 26 72 45 40 56
REMARK Flexibility Score: inf
ROOT
ATOM      1  C   UNL A   1      32.907  29.213  23.173  1.00  0.00     0.042 C 
ENDROOT
BRANCH   1   2
ATOM      2  C   UNL A   1      32.006  28.038  22.819  1.00  0.00     0.117 C 
BRANCH   2   3
ATOM      3  N   UNL A   1      32.637  27.138  21.877  1.00  0.00    -0.356 N 
ATOM      4  C   UNL A   1      32.617  25.793  21.730  1.00  0.00     0.226 C 
ATOM      5  O   UNL A   1      33.094  25.386  20.661  1.00  0.00    -0.275 OA
ATOM      6  H   UNL A   1      33.195  27.599  21.208  1.00  0.00     0.163 HD
BRANCH   4   7
ATOM      7  C   UNL A   1      32.001  24.793  22.711  1.00  0.00     0.171 C 
BRANCH   7   8
ATOM      8  C   UNL A   1      32.669  24.275  24.057  1.00  0.00     0.138 C 
ATOM      9  C   UNL A   1      36.015  22.865  23.475  1.00  0.00     0.042 C 
ATOM     10  C   UNL A   1      35.011  23.432  24.495  1.00  0.00     0.070 C 
ATOM     11  C   UNL A   1      35.826  23.777  25.746  1.00  0.00     0.042 C 
ATOM     12  C   UNL A   1      34.206  24.590  23.896  1.00  0.00     0.107 C 
ATOM     13  O   UNL A   1      34.066  22.420  24.854  1.00  0.00    -0.363 OA
ATOM     14  C   UNL A   1      32.770  22.683  24.230  1.00  0.00     0.118 C 
ATOM     15  C   UNL A   1      32.828  21.828  22.938  1.00  0.00     0.049 C 
ATOM     16  C   UNL A   1      31.756  22.073  25.217  1.00  0.00     0.049 C 
BRANCH   8  17
ATOM     17  N   UNL A   1      32.228  25.072  25.243  1.00  0.00    -0.327 N 
ATOM     18  C   UNL A   1      33.092  26.056  25.879  1.00  0.00     0.263 C 
ATOM     19  C   UNL A   1      30.839  25.485  25.409  1.00  0.00     0.263 C 
ATOM     20  H   UNL A   1      32.358  24.192  25.743  1.00  0.00     0.348 HD
ATOM     21  C   UNL A   1      32.203  26.812  26.851  1.00  0.00     0.067 C 
ATOM     22  C   UNL A   1      30.858  26.800  26.173  1.00  0.00     0.067 C 
ENDBRANCH   8  17
ENDBRANCH   7   8
ENDBRANCH   4   7
ENDBRANCH   2   3
ENDBRANCH   1   2
BRANCH   1  23
ATOM     23  C   UNL A   1      33.393  29.211  24.616  1.00  0.00     0.118 C 
BRANCH  23  24
ATOM     24  N   UNL A   1      32.768  30.255  25.412  1.00  0.00    -0.352 N 
ATOM     25  C   UNL A   1      33.093  30.840  26.612  1.00  0.00     0.251 C 
ATOM     26  H   UNL A   1      31.944  30.615  25.010  1.00  0.00     0.163 HD
ATOM     27  O   UNL A   1      32.248  31.565  27.137  1.00  0.00    -0.269 OA
BRANCH  25  28
ATOM     28  C   UNL A   1      34.391  30.634  27.315  1.00  0.00     0.039 A 
ATOM     29  C   UNL A   1      34.701  29.335  27.746  1.00  0.00     0.014 A 
ATOM     30  C   UNL A   1      35.253  31.671  27.673  1.00  0.00     0.014 A 
ATOM     31  C   UNL A   1      35.858  29.080  28.499  1.00  0.00     0.010 A 
ATOM     32  C   UNL A   1      36.457  31.404  28.336  1.00  0.00     0.010 A 
ATOM     33  C   UNL A   1      36.762  30.112  28.787  1.00  0.00    -0.014 A 
BRANCH  33  34
ATOM     34  C   UNL A   1      37.986  29.874  29.608  1.00  0.00     0.031 A 
ATOM     35  C   UNL A   1      39.083  28.972  29.096  1.00  0.00     0.074 A 
ATOM     36  C   UNL A   1      38.108  30.429  30.830  1.00  0.00     0.049 A 
ATOM     37  N   UNL A   1      40.175  28.562  29.695  1.00  0.00    -0.248 NA
ATOM     38  C   UNL A   1      38.917  28.434  27.736  1.00  0.00     0.031 C 
ATOM     39  C   UNL A   1      37.117  31.297  31.468  1.00  0.00     0.029 A 
ATOM     40  N   UNL A   1      39.117  30.341  31.760  1.00  0.00    -0.354 N 
ATOM     41  C   UNL A   1      40.803  27.703  28.801  1.00  0.00     0.074 A 
ATOM     42  C   UNL A   1      39.947  27.606  27.640  1.00  0.00     0.031 C 
ATOM     43  C   UNL A   1      37.577  31.681  32.671  1.00  0.00     0.029 A 
ATOM     44  C   UNL A   1      38.875  31.057  32.908  1.00  0.00     0.049 A 
ATOM     45  H   UNL A   1      39.936  29.815  31.616  1.00  0.00     0.167 HD
ATOM     46  C   UNL A   1      41.998  27.073  28.919  1.00  0.00     0.037 A 
ATOM     47  C   UNL A   1      39.611  31.189  34.029  1.00  0.00     0.037 A 
ATOM     48  C   UNL A   1      42.879  27.202  30.050  1.00  0.00     0.049 A 
ATOM     49  C   UNL A   1      40.936  30.483  34.134  1.00  0.00     0.074 A 
ATOM     50  C   UNL A   1      44.129  26.640  30.240  1.00  0.00     0.029 A 
ATOM     51  N   UNL A   1      42.605  27.959  31.180  1.00  0.00    -0.354 N 
ATOM     52  N   UNL A   1      41.533  29.707  33.263  1.00  0.00    -0.248 NA
ATOM     53  C   UNL A   1      41.694  30.678  35.379  1.00  0.00     0.031 C 
ATOM     54  C   UNL A   1      44.600  27.031  31.498  1.00  0.00     0.029 A 
ATOM     55  C   UNL A   1      43.660  27.870  32.074  1.00  0.00     0.049 A 
ATOM     56  H   UNL A   1      41.783  28.480  31.326  1.00  0.00     0.167 HD
ATOM     57  C   UNL A   1      42.743  29.347  33.840  1.00  0.00     0.074 A 
ATOM     58  C   UNL A   1      42.805  30.000  35.130  1.00  0.00     0.031 C 
ATOM     59  C   UNL A   1      43.717  28.543  33.346  1.00  0.00     0.037 A 
BRANCH  46  60
ATOM     60  C   UNL A   1      42.435  26.193  27.782  1.00  0.00     0.064 A 
ATOM     61  C   UNL A   1      43.337  26.646  26.807  1.00  0.00     0.173 A 
ATOM     62  C   UNL A   1      41.978  24.869  27.686  1.00  0.00     0.173 A 
ATOM     63  F   UNL A   1      43.795  27.906  26.847  1.00  0.00    -0.203 F 
ATOM     64  C   UNL A   1      43.739  25.819  25.762  1.00  0.00     0.198 A 
ATOM     65  C   UNL A   1      42.407  24.035  26.657  1.00  0.00     0.198 A 
ATOM     66  F   UNL A   1      41.123  24.380  28.597  1.00  0.00    -0.203 F 
ATOM     67  F   UNL A   1      44.560  26.292  24.815  1.00  0.00    -0.200 F 
ATOM     68  C   UNL A   1      43.279  24.513  25.691  1.00  0.00     0.200 A 
ATOM     69  F   UNL A   1      41.974  22.768  26.597  1.00  0.00    -0.200 F 
ATOM     70  F   UNL A   1      43.673  23.717  24.687  1.00  0.00    -0.200 F 
ENDBRANCH  46  60
BRANCH  47  71
ATOM     71  C   UNL A   1      39.124  32.045  35.143  1.00  0.00     0.064 A 
ATOM     72  C   UNL A   1      39.396  33.421  35.163  1.00  0.00     0.173 A 
ATOM     73  C   UNL A   1      38.399  31.508  36.217  1.00  0.00     0.173 A 
ATOM     74  F   UNL A   1      40.108  33.977  34.171  1.00  0.00    -0.203 F 
ATOM     75  C   UNL A   1      38.984  34.221  36.225  1.00  0.00     0.198 A 
ATOM     76  C   UNL A   1      37.962  32.316  37.265  1.00  0.00     0.198 A 
ATOM     77  F   UNL A   1      38.112  30.199  36.245  1.00  0.00    -0.203 F 
ATOM     78  F   UNL A   1      39.303  35.523  36.245  1.00  0.00    -0.200 F 
ATOM     79  C   UNL A   1      38.262  33.670  37.273  1.00  0.00     0.200 A 
ATOM     80  F   UNL A   1      37.256  31.781  38.270  1.00  0.00    -0.200 F 
ATOM     81  F   UNL A   1      37.866  34.440  38.295  1.00  0.00    -0.200 F 
ENDBRANCH  47  71
BRANCH  59  82
ATOM     82  C   UNL A   1      44.950  28.359  34.180  1.00  0.00     0.064 A 
ATOM     83  C   UNL A   1      46.049  29.221  34.071  1.00  0.00     0.173 A 
ATOM     84  C   UNL A   1      45.016  27.326  35.128  1.00  0.00     0.173 A 
ATOM     85  F   UNL A   1      46.041  30.215  33.170  1.00  0.00    -0.203 F 
ATOM     86  C   UNL A   1      47.180  29.044  34.865  1.00  0.00     0.198 A 
ATOM     87  C   UNL A   1      46.136  27.168  35.940  1.00  0.00     0.198 A 
ATOM     88  F   UNL A   1      43.988  26.476  35.276  1.00  0.00    -0.203 F 
ATOM     89  F   UNL A   1      48.237  29.855  34.713  1.00  0.00    -0.200 F 
ATOM     90  C   UNL A   1      47.219  28.022  35.802  1.00  0.00     0.200 A 
ATOM     91  F   UNL A   1      46.169  26.188  36.853  1.00  0.00    -0.200 F 
ATOM     92  F   UNL A   1      48.306  27.857  36.569  1.00  0.00    -0.200 F 
ENDBRANCH  59  82
ENDBRANCH  33  34
ENDBRANCH  25  28
ENDBRANCH  23  24
ENDBRANCH   1  23
TORSDOF 12
ENDMDL
MODEL 3
REMARK VINA RESULT:     -12.0      0.918      2.529
REMARK SMILES CC1(C)C[C@](CC(=O)NCCCNC(=O)c2ccc(-c3c4nc(c(-c5c(F)c(F)c(F)c(F)c5F)c5ccc([nH]5)c(-c5c(F)c(F)c(F)c(F)c5F)c5nc(c(-c6c(F)c(F)c(F)c(F)c6F)c6ccc3[nH]6)C=C5)C=C4)cc2)([NH+]2CCCC2)C(C)(C)O1
REMARK SMILES IDX 11 1 10 2 9 3 7 4 8 5 6 7 5 8 1 9 2 10 3 11 4 12 87 13 84 14
REMARK SMILES IDX 85 15 86 16 79 17 80 18 83 19 81 21 82 22 12 23 13 24 14 25
REMARK SMILES IDX 15 27 16 28 17 29 78 30 18 31 77 32 19 33 20 34 21 35 71 36
REMARK SMILES IDX 22 37 76 38 70 39 72 40 23 41 75 42 69 43 68 44 24 46 56 47
REMARK SMILES IDX 36 48 55 49 37 50 40 51 54 52 73 53 38 54 39 55 53 57 74 58
REMARK SMILES IDX 41 59 25 60 26 61 34 62 27 63 28 64 32 65 35 66 29 67 30 68
REMARK SMILES IDX 33 69 31 70 57 71 58 72 66 73 59 74 60 75 64 76 67 77 61 78
REMARK SMILES IDX 62 79 65 80 63 81 42 82 43 83 51 84 44 85 45 86 49 87 52 88
REMARK SMILES IDX 46 89 47 90 50 91 48 92
REMARK H PARENT 9 6 79 20 13 26 72 45 40 56
REMARK Flexibility Score: inf
ROOT
ATOM      1  C   UNL A   1      31.824  28.109  26.402  1.00  0.00     0.042 C 
ENDROOT
BRANCH   1   2
ATOM      2  C   UNL A   1      30.958  27.180  25.560  1.00  0.00     0.117 C 
BRANCH   2   3
ATOM      3  N   UNL A   1      30.699  25.926  26.234  1.00  0.00    -0.356 N 
ATOM      4  C   UNL A   1      31.459  24.830  26.468  1.00  0.00     0.226 C 
ATOM      5  O   UNL A   1      30.974  24.034  27.286  1.00  0.00    -0.275 OA
ATOM      6  H   UNL A   1      29.785  25.855  26.595  1.00  0.00     0.163 HD
BRANCH   4   7
ATOM      7  C   UNL A   1      32.846  24.558  25.882  1.00  0.00     0.171 C 
BRANCH   7   8
ATOM      8  C   UNL A   1      33.150  23.820  24.508  1.00  0.00     0.138 C 
ATOM      9  C   UNL A   1      32.239  20.259  24.634  1.00  0.00     0.042 C 
ATOM     10  C   UNL A   1      32.570  21.478  23.754  1.00  0.00     0.070 C 
ATOM     11  C   UNL A   1      32.084  21.128  22.344  1.00  0.00     0.042 C 
ATOM     12  C   UNL A   1      31.988  22.765  24.349  1.00  0.00     0.107 C 
ATOM     13  O   UNL A   1      33.987  21.660  23.696  1.00  0.00    -0.363 OA
ATOM     14  C   UNL A   1      34.393  22.806  24.509  1.00  0.00     0.118 C 
ATOM     15  C   UNL A   1      34.777  22.150  25.861  1.00  0.00     0.049 C 
ATOM     16  C   UNL A   1      35.657  23.330  23.802  1.00  0.00     0.049 C 
BRANCH   8  17
ATOM     17  N   UNL A   1      33.008  24.739  23.337  1.00  0.00    -0.327 N 
ATOM     18  C   UNL A   1      31.778  24.821  22.561  1.00  0.00     0.263 C 
ATOM     19  C   UNL A   1      33.679  26.033  23.299  1.00  0.00     0.263 C 
ATOM     20  H   UNL A   1      33.609  24.057  22.872  1.00  0.00     0.348 HD
ATOM     21  C   UNL A   1      31.950  26.025  21.653  1.00  0.00     0.067 C 
ATOM     22  C   UNL A   1      32.803  26.960  22.470  1.00  0.00     0.067 C 
ENDBRANCH   8  17
ENDBRANCH   7   8
ENDBRANCH   4   7
ENDBRANCH   2   3
ENDBRANCH   1   2
BRANCH   1  23
ATOM     23  C   UNL A   1      32.638  29.106  25.588  1.00  0.00     0.118 C 
BRANCH  23  24
ATOM     24  N   UNL A   1      32.363  30.483  25.964  1.00  0.00    -0.352 N 
ATOM     25  C   UNL A   1      32.958  31.349  26.850  1.00  0.00     0.251 C 
ATOM     26  H   UNL A   1      31.594  30.874  25.489  1.00  0.00     0.163 HD
ATOM     27  O   UNL A   1      32.366  32.399  27.100  1.00  0.00    -0.269 OA
BRANCH  25  28
ATOM     28  C   UNL A   1      34.257  31.084  27.530  1.00  0.00     0.039 A 
ATOM     29  C   UNL A   1      34.520  29.769  27.945  1.00  0.00     0.014 A 
ATOM     30  C   UNL A   1      35.166  32.081  27.882  1.00  0.00     0.014 A 
ATOM     31  C   UNL A   1      35.676  29.460  28.678  1.00  0.00     0.010 A 
ATOM     32  C   UNL A   1      36.368  31.759  28.525  1.00  0.00     0.010 A 
ATOM     33  C   UNL A   1      36.627  30.451  28.960  1.00  0.00    -0.014 A 
BRANCH  33  34
ATOM     34  C   UNL A   1      37.853  30.155  29.759  1.00  0.00     0.031 A 
ATOM     35  C   UNL A   1      38.919  29.239  29.208  1.00  0.00     0.074 A 
ATOM     36  C   UNL A   1      38.003  30.672  30.995  1.00  0.00     0.049 A 
ATOM     37  N   UNL A   1      40.005  28.782  29.783  1.00  0.00    -0.248 NA
ATOM     38  C   UNL A   1      38.723  28.746  27.835  1.00  0.00     0.031 C 
ATOM     39  C   UNL A   1      37.044  31.547  31.670  1.00  0.00     0.029 A 
ATOM     40  N   UNL A   1      39.020  30.529  31.910  1.00  0.00    -0.354 N 
ATOM     41  C   UNL A   1      40.599  27.932  28.857  1.00  0.00     0.074 A 
ATOM     42  C   UNL A   1      39.728  27.893  27.703  1.00  0.00     0.031 C 
ATOM     43  C   UNL A   1      37.527  31.883  32.877  1.00  0.00     0.029 A 
ATOM     44  C   UNL A   1      38.810  31.217  33.081  1.00  0.00     0.049 A 
ATOM     45  H   UNL A   1      39.822  29.984  31.742  1.00  0.00     0.167 HD
ATOM     46  C   UNL A   1      41.777  27.267  28.943  1.00  0.00     0.037 A 
ATOM     47  C   UNL A   1      39.562  31.296  34.196  1.00  0.00     0.037 A 
ATOM     48  C   UNL A   1      42.673  27.338  30.066  1.00  0.00     0.049 A 
ATOM     49  C   UNL A   1      40.868  30.551  34.266  1.00  0.00     0.074 A 
ATOM     50  C   UNL A   1      43.910  26.737  30.226  1.00  0.00     0.029 A 
ATOM     51  N   UNL A   1      42.434  28.069  31.220  1.00  0.00    -0.354 N 
ATOM     52  N   UNL A   1      41.433  29.784  33.366  1.00  0.00    -0.248 NA
ATOM     53  C   UNL A   1      41.645  30.688  35.507  1.00  0.00     0.031 C 
ATOM     54  C   UNL A   1      44.405  27.078  31.489  1.00  0.00     0.029 A 
ATOM     55  C   UNL A   1      43.495  27.925  32.099  1.00  0.00     0.049 A 
ATOM     56  H   UNL A   1      41.628  28.608  31.391  1.00  0.00     0.167 HD
ATOM     57  C   UNL A   1      42.639  29.374  33.918  1.00  0.00     0.074 A 
ATOM     58  C   UNL A   1      42.733  29.988  35.226  1.00  0.00     0.031 C 
ATOM     59  C   UNL A   1      43.584  28.559  33.389  1.00  0.00     0.037 A 
BRANCH  46  60
ATOM     60  C   UNL A   1      42.176  26.408  27.776  1.00  0.00     0.064 A 
ATOM     61  C   UNL A   1      43.086  26.861  26.808  1.00  0.00     0.173 A 
ATOM     62  C   UNL A   1      41.676  25.103  27.643  1.00  0.00     0.173 A 
ATOM     63  F   UNL A   1      43.587  28.104  26.883  1.00  0.00    -0.203 F 
ATOM     64  C   UNL A   1      43.454  26.054  25.734  1.00  0.00     0.198 A 
ATOM     65  C   UNL A   1      42.070  24.288  26.585  1.00  0.00     0.198 A 
ATOM     66  F   UNL A   1      40.812  24.614  28.545  1.00  0.00    -0.203 F 
ATOM     67  F   UNL A   1      44.283  26.530  24.796  1.00  0.00    -0.200 F 
ATOM     68  C   UNL A   1      42.951  24.767  25.627  1.00  0.00     0.200 A 
ATOM     69  F   UNL A   1      41.594  23.038  26.490  1.00  0.00    -0.200 F 
ATOM     70  F   UNL A   1      43.310  23.990  24.596  1.00  0.00    -0.200 F 
ENDBRANCH  46  60
BRANCH  47  71
ATOM     71  C   UNL A   1      39.111  32.133  35.340  1.00  0.00     0.064 A 
ATOM     72  C   UNL A   1      39.435  33.495  35.405  1.00  0.00     0.173 A 
ATOM     73  C   UNL A   1      38.370  31.588  36.400  1.00  0.00     0.173 A 
ATOM     74  F   UNL A   1      40.164  34.056  34.428  1.00  0.00    -0.203 F 
ATOM     75  C   UNL A   1      39.057  34.275  36.495  1.00  0.00     0.198 A 
ATOM     76  C   UNL A   1      37.968  32.376  37.476  1.00  0.00     0.198 A 
ATOM     77  F   UNL A   1      38.034  30.290  36.386  1.00  0.00    -0.203 F 
ATOM     78  F   UNL A   1      39.425  35.562  36.556  1.00  0.00    -0.200 F 
ATOM     79  C   UNL A   1      38.318  33.717  37.527  1.00  0.00     0.200 A 
ATOM     80  F   UNL A   1      37.245  31.835  38.466  1.00  0.00    -0.200 F 
ATOM     81  F   UNL A   1      37.955  34.467  38.576  1.00  0.00    -0.200 F 
ENDBRANCH  47  71
BRANCH  59  82
ATOM     82  C   UNL A   1      44.821  28.316  34.204  1.00  0.00     0.064 A 
ATOM     83  C   UNL A   1      45.935  29.163  34.122  1.00  0.00     0.173 A 
ATOM     84  C   UNL A   1      44.876  27.242  35.105  1.00  0.00     0.173 A 
ATOM     85  F   UNL A   1      45.937  30.194  33.264  1.00  0.00    -0.203 F 
ATOM     86  C   UNL A   1      47.069  28.931  34.897  1.00  0.00     0.198 A 
ATOM     87  C   UNL A   1      46.000  27.029  35.899  1.00  0.00     0.198 A 
ATOM     88  F   UNL A   1      43.834  26.405  35.226  1.00  0.00    -0.203 F 
ATOM     89  F   UNL A   1      48.139  29.728  34.770  1.00  0.00    -0.200 F 
ATOM     90  C   UNL A   1      47.098  27.869  35.788  1.00  0.00     0.200 A 
ATOM     91  F   UNL A   1      46.022  26.009  36.769  1.00  0.00    -0.200 F 
ATOM     92  F   UNL A   1      48.188  27.651  36.537  1.00  0.00    -0.200 F 
ENDBRANCH  59  82
ENDBRANCH  33  34
ENDBRANCH  25  28
ENDBRANCH  23  24
ENDBRANCH   1  23
TORSDOF 12
ENDMDL
