MODEL 1
REMARK VINA RESULT:     -10.7      0.000      0.000
REMARK SMILES CN(CC(=O)NCCCNC(=O)c1ccc(-c2c3nc(c(-c4c(F)c(F)c(F)c(F)c4F)c4ccc([nH]4)c(-c4c(F)c(F)c(F)c(F)c4F)c4nc(c(-c5c(F)c(F)c(F)c(F)c5F)c5ccc2[nH]5)C=C4)C=C3)cc1)C(=O)N(C)[C@@H]1CCSC1
REMARK SMILES IDX 7 1 6 2 4 3 5 4 3 6 2 7 1 8 76 9 77 10 78 11 79 12 80 13
REMARK SMILES IDX 81 14 84 15 82 16 83 17 8 18 9 19 10 20 11 21 12 23 13 24
REMARK SMILES IDX 14 25 75 26 15 27 74 28 16 29 17 30 18 31 68 32 19 33 73 34
REMARK SMILES IDX 67 35 69 36 20 37 72 38 66 39 65 40 21 42 53 43 33 44 52 45
REMARK SMILES IDX 34 46 37 47 51 48 70 49 35 50 36 51 50 53 71 54 38 55 22 56
REMARK SMILES IDX 23 57 31 58 24 59 25 60 29 61 32 62 26 63 27 64 30 65 28 66
REMARK SMILES IDX 54 67 55 68 63 69 56 70 57 71 61 72 64 73 58 74 59 75 62 76
REMARK SMILES IDX 60 77 39 78 40 79 48 80 41 81 42 82 46 83 49 84 43 85 44 86
REMARK SMILES IDX 47 87 45 88
REMARK H PARENT 6 5 10 22 69 41 37 52
REMARK Flexibility Score: inf
ROOT
ATOM      1  C   UNL A   1      31.355  30.704  26.362  1.00  0.00     0.117 C 
ENDROOT
BRANCH   1   2
ATOM      2  N   UNL A   1      32.418  30.247  25.492  1.00  0.00    -0.354 N 
ATOM      3  C   UNL A   1      32.573  29.039  24.883  1.00  0.00     0.239 C 
ATOM      4  O   UNL A   1      33.435  28.952  24.004  1.00  0.00    -0.273 OA
ATOM      5  H   UNL A   1      33.129  30.903  25.315  1.00  0.00     0.163 HD
BRANCH   3   6
ATOM      6  C   UNL A   1      31.619  27.876  25.172  1.00  0.00     0.220 C 
BRANCH   6   7
ATOM      7  N   UNL A   1      31.046  27.167  24.020  1.00  0.00    -0.318 N 
ATOM      8  C   UNL A   1      31.086  25.706  24.103  1.00  0.00     0.149 C 
BRANCH   7   9
ATOM      9  C   UNL A   1      30.376  27.642  22.904  1.00  0.00     0.320 C 
ATOM     10  O   UNL A   1      30.733  27.196  21.808  1.00  0.00    -0.248 OA
BRANCH   9  11
ATOM     11  N   UNL A   1      29.364  28.577  22.961  1.00  0.00    -0.324 N 
ATOM     12  C   UNL A   1      27.947  28.310  23.182  1.00  0.00     0.149 C 
BRANCH  11  13
ATOM     13  C   UNL A   1      29.650  30.039  22.828  1.00  0.00     0.097 C 
ATOM     14  C   UNL A   1      28.926  31.071  23.706  1.00  0.00     0.037 C 
ATOM     15  C   UNL A   1      29.551  30.542  21.381  1.00  0.00     0.094 C 
ATOM     16  C   UNL A   1      27.676  31.578  22.999  1.00  0.00     0.072 C 
ATOM     17  S   UNL A   1      27.997  31.458  21.220  1.00  0.00    -0.160 SA
ENDBRANCH  11  13
ENDBRANCH   9  11
ENDBRANCH   7   9
ENDBRANCH   6   7
ENDBRANCH   3   6
ENDBRANCH   1   2
BRANCH   1  18
ATOM     18  C   UNL A   1      31.345  32.217  26.536  1.00  0.00     0.042 C 
BRANCH  18  19
ATOM     19  C   UNL A   1      32.674  32.808  27.002  1.00  0.00     0.118 C 
BRANCH  19  20
ATOM     20  N   UNL A   1      32.524  34.100  27.658  1.00  0.00    -0.352 N 
ATOM     21  C   UNL A   1      33.177  34.647  28.733  1.00  0.00     0.251 C 
ATOM     22  H   UNL A   1      31.836  34.680  27.262  1.00  0.00     0.163 HD
ATOM     23  O   UNL A   1      32.758  35.698  29.212  1.00  0.00    -0.269 OA
BRANCH  21  24
ATOM     24  C   UNL A   1      34.363  33.996  29.332  1.00  0.00     0.039 A 
ATOM     25  C   UNL A   1      34.159  32.969  30.260  1.00  0.00     0.014 A 
ATOM     26  C   UNL A   1      35.662  34.424  29.047  1.00  0.00     0.014 A 
ATOM     27  C   UNL A   1      35.252  32.343  30.862  1.00  0.00     0.010 A 
ATOM     28  C   UNL A   1      36.754  33.750  29.594  1.00  0.00     0.010 A 
ATOM     29  C   UNL A   1      36.560  32.712  30.515  1.00  0.00    -0.014 A 
BRANCH  29  30
ATOM     30  C   UNL A   1      37.731  32.026  31.118  1.00  0.00     0.031 A 
ATOM     31  C   UNL A   1      38.192  32.384  32.504  1.00  0.00     0.074 A 
ATOM     32  C   UNL A   1      38.408  31.113  30.397  1.00  0.00     0.049 A 
ATOM     33  N   UNL A   1      39.208  31.918  33.185  1.00  0.00    -0.248 NA
ATOM     34  C   UNL A   1      37.422  33.422  33.209  1.00  0.00     0.031 C 
ATOM     35  C   UNL A   1      38.092  30.717  29.024  1.00  0.00     0.029 A 
ATOM     36  N   UNL A   1      39.506  30.355  30.717  1.00  0.00    -0.354 N 
ATOM     37  C   UNL A   1      39.210  32.614  34.386  1.00  0.00     0.074 A 
ATOM     38  C   UNL A   1      38.123  33.568  34.324  1.00  0.00     0.031 C 
ATOM     39  C   UNL A   1      38.960  29.774  28.628  1.00  0.00     0.029 A 
ATOM     40  C   UNL A   1      39.911  29.519  29.706  1.00  0.00     0.049 A 
ATOM     41  H   UNL A   1      39.962  30.406  31.588  1.00  0.00     0.167 HD
ATOM     42  C   UNL A   1      40.029  32.458  35.453  1.00  0.00     0.037 A 
ATOM     43  C   UNL A   1      40.933  28.644  29.656  1.00  0.00     0.037 A 
ATOM     44  C   UNL A   1      41.091  31.489  35.524  1.00  0.00     0.049 A 
ATOM     45  C   UNL A   1      41.815  28.473  30.861  1.00  0.00     0.074 A 
ATOM     46  C   UNL A   1      41.939  31.211  36.583  1.00  0.00     0.029 A 
ATOM     47  N   UNL A   1      41.450  30.636  34.491  1.00  0.00    -0.354 N 
ATOM     48  N   UNL A   1      41.762  29.086  32.019  1.00  0.00    -0.248 NA
ATOM     49  C   UNL A   1      42.891  27.478  30.758  1.00  0.00     0.031 C 
ATOM     50  C   UNL A   1      42.834  30.216  36.177  1.00  0.00     0.029 A 
ATOM     51  C   UNL A   1      42.516  29.842  34.882  1.00  0.00     0.049 A 
ATOM     52  H   UNL A   1      41.013  30.601  33.610  1.00  0.00     0.167 HD
ATOM     53  C   UNL A   1      42.774  28.534  32.790  1.00  0.00     0.074 A 
ATOM     54  C   UNL A   1      43.419  27.526  31.973  1.00  0.00     0.031 C 
ATOM     55  C   UNL A   1      43.137  28.834  34.061  1.00  0.00     0.037 A 
BRANCH  42  56
ATOM     56  C   UNL A   1      39.804  33.353  36.638  1.00  0.00     0.064 A 
ATOM     57  C   UNL A   1      40.490  34.568  36.781  1.00  0.00     0.173 A 
ATOM     58  C   UNL A   1      38.865  33.010  37.623  1.00  0.00     0.173 A 
ATOM     59  F   UNL A   1      41.406  34.937  35.872  1.00  0.00    -0.203 F 
ATOM     60  C   UNL A   1      40.267  35.392  37.880  1.00  0.00     0.198 A 
ATOM     61  C   UNL A   1      38.624  33.850  38.706  1.00  0.00     0.198 A 
ATOM     62  F   UNL A   1      38.176  31.862  37.530  1.00  0.00    -0.203 F 
ATOM     63  F   UNL A   1      40.970  36.526  38.019  1.00  0.00    -0.200 F 
ATOM     64  C   UNL A   1      39.330  35.037  38.839  1.00  0.00     0.200 A 
ATOM     65  F   UNL A   1      37.709  33.512  39.625  1.00  0.00    -0.200 F 
ATOM     66  F   UNL A   1      39.112  35.834  39.893  1.00  0.00    -0.200 F 
ENDBRANCH  42  56
BRANCH  43  67
ATOM     67  C   UNL A   1      41.148  27.831  28.431  1.00  0.00     0.064 A 
ATOM     68  C   UNL A   1      40.483  26.609  28.256  1.00  0.00     0.173 A 
ATOM     69  C   UNL A   1      42.013  28.257  27.413  1.00  0.00     0.173 A 
ATOM     70  F   UNL A   1      39.661  26.152  29.212  1.00  0.00    -0.203 F 
ATOM     71  C   UNL A   1      40.687  25.837  27.115  1.00  0.00     0.198 A 
ATOM     72  C   UNL A   1      42.196  27.495  26.261  1.00  0.00     0.198 A 
ATOM     73  F   UNL A   1      42.668  29.420  27.531  1.00  0.00    -0.203 F 
ATOM     74  F   UNL A   1      40.069  24.654  26.991  1.00  0.00    -0.200 F 
ATOM     75  C   UNL A   1      41.539  26.282  26.116  1.00  0.00     0.200 A 
ATOM     76  F   UNL A   1      43.011  27.934  25.292  1.00  0.00    -0.200 F 
ATOM     77  F   UNL A   1      41.732  25.540  25.017  1.00  0.00    -0.200 F 
ENDBRANCH  43  67
BRANCH  55  78
ATOM     78  C   UNL A   1      44.254  28.036  34.663  1.00  0.00     0.064 A 
ATOM     79  C   UNL A   1      45.586  28.467  34.596  1.00  0.00     0.173 A 
ATOM     80  C   UNL A   1      43.982  26.841  35.348  1.00  0.00     0.173 A 
ATOM     81  F   UNL A   1      45.899  29.594  33.938  1.00  0.00    -0.203 F 
ATOM     82  C   UNL A   1      46.609  27.720  35.174  1.00  0.00     0.198 A 
ATOM     83  C   UNL A   1      45.004  26.111  35.947  1.00  0.00     0.198 A 
ATOM     84  F   UNL A   1      42.723  26.389  35.444  1.00  0.00    -0.203 F 
ATOM     85  F   UNL A   1      47.881  28.128  35.060  1.00  0.00    -0.200 F 
ATOM     86  C   UNL A   1      46.317  26.547  35.854  1.00  0.00     0.200 A 
ATOM     87  F   UNL A   1      44.719  24.984  36.614  1.00  0.00    -0.200 F 
ATOM     88  F   UNL A   1      47.303  25.832  36.414  1.00  0.00    -0.200 F 
ENDBRANCH  55  78
ENDBRANCH  29  30
ENDBRANCH  21  24
ENDBRANCH  19  20
ENDBRANCH  18  19
ENDBRANCH   1  18
TORSDOF 14
ENDMDL
MODEL 2
REMARK VINA RESULT:     -10.7      0.878      7.563
REMARK SMILES CN(CC(=O)NCCCNC(=O)c1ccc(-c2c3nc(c(-c4c(F)c(F)c(F)c(F)c4F)c4ccc([nH]4)c(-c4c(F)c(F)c(F)c(F)c4F)c4nc(c(-c5c(F)c(F)c(F)c(F)c5F)c5ccc2[nH]5)C=C4)C=C3)cc1)C(=O)N(C)[C@@H]1CCSC1
REMARK SMILES IDX 7 1 6 2 4 3 5 4 3 6 2 7 1 8 76 9 77 10 78 11 79 12 80 13
REMARK SMILES IDX 81 14 84 15 82 16 83 17 8 18 9 19 10 20 11 21 12 23 13 24
REMARK SMILES IDX 14 25 75 26 15 27 74 28 16 29 17 30 18 31 68 32 19 33 73 34
REMARK SMILES IDX 67 35 69 36 20 37 72 38 66 39 65 40 21 42 53 43 33 44 52 45
REMARK SMILES IDX 34 46 37 47 51 48 70 49 35 50 36 51 50 53 71 54 38 55 22 56
REMARK SMILES IDX 23 57 31 58 24 59 25 60 29 61 32 62 26 63 27 64 30 65 28 66
REMARK SMILES IDX 54 67 55 68 63 69 56 70 57 71 61 72 64 73 58 74 59 75 62 76
REMARK SMILES IDX 60 77 39 78 40 79 48 80 41 81 42 82 46 83 49 84 43 85 44 86
REMARK SMILES IDX 47 87 45 88
REMARK H PARENT 6 5 10 22 69 41 37 52
REMARK Flexibility Score: inf
ROOT
ATOM      1  C   UNL A   1      31.529  30.531  26.448  1.00  0.00     0.117 C 
ENDROOT
BRANCH   1   2
ATOM      2  N   UNL A   1      32.425  30.248  25.347  1.00  0.00    -0.354 N 
ATOM      3  C   UNL A   1      32.470  29.160  24.530  1.00  0.00     0.239 C 
ATOM      4  O   UNL A   1      33.167  29.239  23.514  1.00  0.00    -0.273 OA
ATOM      5  H   UNL A   1      33.098  30.943  25.161  1.00  0.00     0.163 HD
BRANCH   3   6
ATOM      6  C   UNL A   1      31.576  27.941  24.782  1.00  0.00     0.220 C 
BRANCH   6   7
ATOM      7  N   UNL A   1      30.701  27.504  23.686  1.00  0.00    -0.318 N 
ATOM      8  C   UNL A   1      31.371  26.783  22.602  1.00  0.00     0.149 C 
BRANCH   7   9
ATOM      9  C   UNL A   1      29.324  27.566  23.544  1.00  0.00     0.320 C 
ATOM     10  O   UNL A   1      28.697  26.518  23.734  1.00  0.00    -0.248 OA
BRANCH   9  11
ATOM     11  N   UNL A   1      28.643  28.713  23.195  1.00  0.00    -0.324 N 
ATOM     12  C   UNL A   1      27.198  28.851  23.040  1.00  0.00     0.149 C 
BRANCH  11  13
ATOM     13  C   UNL A   1      29.362  30.004  22.964  1.00  0.00     0.097 C 
ATOM     14  C   UNL A   1      28.984  31.272  23.745  1.00  0.00     0.037 C 
ATOM     15  C   UNL A   1      29.428  30.399  21.483  1.00  0.00     0.094 C 
ATOM     16  C   UNL A   1      27.951  32.078  22.968  1.00  0.00     0.072 C 
ATOM     17  S   UNL A   1      28.229  31.729  21.212  1.00  0.00    -0.160 SA
ENDBRANCH  11  13
ENDBRANCH   9  11
ENDBRANCH   7   9
ENDBRANCH   6   7
ENDBRANCH   3   6
ENDBRANCH   1   2
BRANCH   1  18
ATOM     18  C   UNL A   1      31.391  32.021  26.728  1.00  0.00     0.042 C 
BRANCH  18  19
ATOM     19  C   UNL A   1      32.708  32.734  27.022  1.00  0.00     0.118 C 
BRANCH  19  20
ATOM     20  N   UNL A   1      32.523  34.074  27.564  1.00  0.00    -0.352 N 
ATOM     21  C   UNL A   1      33.124  34.712  28.619  1.00  0.00     0.251 C 
ATOM     22  H   UNL A   1      31.849  34.614  27.093  1.00  0.00     0.163 HD
ATOM     23  O   UNL A   1      32.679  35.794  28.992  1.00  0.00    -0.269 OA
BRANCH  21  24
ATOM     24  C   UNL A   1      34.286  34.121  29.319  1.00  0.00     0.039 A 
ATOM     25  C   UNL A   1      34.045  33.257  30.393  1.00  0.00     0.014 A 
ATOM     26  C   UNL A   1      35.600  34.457  28.982  1.00  0.00     0.014 A 
ATOM     27  C   UNL A   1      35.115  32.696  31.093  1.00  0.00     0.010 A 
ATOM     28  C   UNL A   1      36.667  33.841  29.634  1.00  0.00     0.010 A 
ATOM     29  C   UNL A   1      36.436  32.964  30.702  1.00  0.00    -0.014 A 
BRANCH  29  30
ATOM     30  C   UNL A   1      37.582  32.341  31.413  1.00  0.00     0.031 A 
ATOM     31  C   UNL A   1      38.341  31.206  30.784  1.00  0.00     0.074 A 
ATOM     32  C   UNL A   1      37.908  32.769  32.647  1.00  0.00     0.049 A 
ATOM     33  N   UNL A   1      39.347  30.517  31.261  1.00  0.00    -0.248 NA
ATOM     34  C   UNL A   1      37.895  30.771  29.451  1.00  0.00     0.031 C 
ATOM     35  C   UNL A   1      37.215  33.826  33.385  1.00  0.00     0.029 A 
ATOM     36  N   UNL A   1      38.903  32.364  33.501  1.00  0.00    -0.354 N 
ATOM     37  C   UNL A   1      39.642  29.561  30.299  1.00  0.00     0.074 A 
ATOM     38  C   UNL A   1      38.680  29.726  29.231  1.00  0.00     0.031 C 
ATOM     39  C   UNL A   1      37.819  34.002  34.570  1.00  0.00     0.029 A 
ATOM     40  C   UNL A   1      38.922  33.053  34.689  1.00  0.00     0.049 A 
ATOM     41  H   UNL A   1      39.541  31.647  33.284  1.00  0.00     0.167 HD
ATOM     42  C   UNL A   1      40.638  28.644  30.296  1.00  0.00     0.037 A 
ATOM     43  C   UNL A   1      39.739  32.933  35.752  1.00  0.00     0.037 A 
ATOM     44  C   UNL A   1      41.611  28.500  31.347  1.00  0.00     0.049 A 
ATOM     45  C   UNL A   1      40.850  31.922  35.715  1.00  0.00     0.074 A 
ATOM     46  C   UNL A   1      42.695  27.642  31.410  1.00  0.00     0.029 A 
ATOM     47  N   UNL A   1      41.618  29.240  32.520  1.00  0.00    -0.354 N 
ATOM     48  N   UNL A   1      41.165  31.071  34.768  1.00  0.00    -0.248 NA
ATOM     49  C   UNL A   1      41.731  31.862  36.890  1.00  0.00     0.031 C 
ATOM     50  C   UNL A   1      43.336  27.836  32.638  1.00  0.00     0.029 A 
ATOM     51  C   UNL A   1      42.679  28.847  33.320  1.00  0.00     0.049 A 
ATOM     52  H   UNL A   1      40.966  29.940  32.751  1.00  0.00     0.167 HD
ATOM     53  C   UNL A   1      42.291  30.398  35.217  1.00  0.00     0.074 A 
ATOM     54  C   UNL A   1      42.614  30.947  36.518  1.00  0.00     0.031 C 
ATOM     55  C   UNL A   1      42.995  29.414  34.607  1.00  0.00     0.037 A 
BRANCH  42  56
ATOM     56  C   UNL A   1      40.730  27.724  29.113  1.00  0.00     0.064 A 
ATOM     57  C   UNL A   1      41.662  27.937  28.087  1.00  0.00     0.173 A 
ATOM     58  C   UNL A   1      39.901  26.595  29.021  1.00  0.00     0.173 A 
ATOM     59  F   UNL A   1      42.471  29.008  28.122  1.00  0.00    -0.203 F 
ATOM     60  C   UNL A   1      41.742  27.073  26.999  1.00  0.00     0.198 A 
ATOM     61  C   UNL A   1      40.002  25.717  27.945  1.00  0.00     0.198 A 
ATOM     62  F   UNL A   1      38.996  26.340  29.979  1.00  0.00    -0.203 F 
ATOM     63  F   UNL A   1      42.609  27.324  26.007  1.00  0.00    -0.200 F 
ATOM     64  C   UNL A   1      40.917  25.960  26.931  1.00  0.00     0.200 A 
ATOM     65  F   UNL A   1      39.213  24.635  27.887  1.00  0.00    -0.200 F 
ATOM     66  F   UNL A   1      40.999  25.126  25.886  1.00  0.00    -0.200 F 
ENDBRANCH  42  56
BRANCH  43  67
ATOM     67  C   UNL A   1      39.560  33.827  36.924  1.00  0.00     0.064 A 
ATOM     68  C   UNL A   1      40.146  35.101  36.950  1.00  0.00     0.173 A 
ATOM     69  C   UNL A   1      38.799  33.434  38.035  1.00  0.00     0.173 A 
ATOM     70  F   UNL A   1      40.898  35.513  35.919  1.00  0.00    -0.203 F 
ATOM     71  C   UNL A   1      39.990  35.942  38.050  1.00  0.00     0.198 A 
ATOM     72  C   UNL A   1      38.624  34.287  39.123  1.00  0.00     0.198 A 
ATOM     73  F   UNL A   1      38.215  32.229  38.056  1.00  0.00    -0.203 F 
ATOM     74  F   UNL A   1      40.594  37.138  38.066  1.00  0.00    -0.200 F 
ATOM     75  C   UNL A   1      39.225  35.537  39.133  1.00  0.00     0.200 A 
ATOM     76  F   UNL A   1      37.873  33.897  40.163  1.00  0.00    -0.200 F 
ATOM     77  F   UNL A   1      39.073  36.348  40.189  1.00  0.00    -0.200 F 
ENDBRANCH  43  67
BRANCH  55  78
ATOM     78  C   UNL A   1      44.209  28.895  35.318  1.00  0.00     0.064 A 
ATOM     79  C   UNL A   1      45.478  29.456  35.114  1.00  0.00     0.173 A 
ATOM     80  C   UNL A   1      44.092  27.847  36.244  1.00  0.00     0.173 A 
ATOM     81  F   UNL A   1      45.642  30.449  34.227  1.00  0.00    -0.203 F 
ATOM     82  C   UNL A   1      46.591  28.970  35.795  1.00  0.00     0.198 A 
ATOM     83  C   UNL A   1      45.203  27.382  36.942  1.00  0.00     0.198 A 
ATOM     84  F   UNL A   1      42.900  27.281  36.479  1.00  0.00    -0.203 F 
ATOM     85  F   UNL A   1      47.802  29.491  35.552  1.00  0.00    -0.200 F 
ATOM     86  C   UNL A   1      46.452  27.939  36.712  1.00  0.00     0.200 A 
ATOM     87  F   UNL A   1      45.065  26.394  37.837  1.00  0.00    -0.200 F 
ATOM     88  F   UNL A   1      47.525  27.477  37.371  1.00  0.00    -0.200 F 
ENDBRANCH  55  78
ENDBRANCH  29  30
ENDBRANCH  21  24
ENDBRANCH  19  20
ENDBRANCH  18  19
ENDBRANCH   1  18
TORSDOF 14
ENDMDL
MODEL 3
REMARK VINA RESULT:     -10.6      1.437      2.013
REMARK SMILES CN(CC(=O)NCCCNC(=O)c1ccc(-c2c3nc(c(-c4c(F)c(F)c(F)c(F)c4F)c4ccc([nH]4)c(-c4c(F)c(F)c(F)c(F)c4F)c4nc(c(-c5c(F)c(F)c(F)c(F)c5F)c5ccc2[nH]5)C=C4)C=C3)cc1)C(=O)N(C)[C@@H]1CCSC1
REMARK SMILES IDX 7 1 6 2 4 3 5 4 3 6 2 7 1 8 76 9 77 10 78 11 79 12 80 13
REMARK SMILES IDX 81 14 84 15 82 16 83 17 8 18 9 19 10 20 11 21 12 23 13 24
REMARK SMILES IDX 14 25 75 26 15 27 74 28 16 29 17 30 18 31 68 32 19 33 73 34
REMARK SMILES IDX 67 35 69 36 20 37 72 38 66 39 65 40 21 42 53 43 33 44 52 45
REMARK SMILES IDX 34 46 37 47 51 48 70 49 35 50 36 51 50 53 71 54 38 55 22 56
REMARK SMILES IDX 23 57 31 58 24 59 25 60 29 61 32 62 26 63 27 64 30 65 28 66
REMARK SMILES IDX 54 67 55 68 63 69 56 70 57 71 61 72 64 73 58 74 59 75 62 76
REMARK SMILES IDX 60 77 39 78 40 79 48 80 41 81 42 82 46 83 49 84 43 85 44 86
REMARK SMILES IDX 47 87 45 88
REMARK H PARENT 6 5 10 22 69 41 37 52
REMARK Flexibility Score: inf
ROOT
ATOM      1  C   UNL A   1      31.379  30.397  26.339  1.00  0.00     0.117 C 
ENDROOT
BRANCH   1   2
ATOM      2  N   UNL A   1      32.213  30.176  25.176  1.00  0.00    -0.354 N 
ATOM      3  C   UNL A   1      33.165  29.226  24.967  1.00  0.00     0.239 C 
ATOM      4  O   UNL A   1      33.586  29.086  23.815  1.00  0.00    -0.273 OA
ATOM      5  H   UNL A   1      32.071  30.803  24.430  1.00  0.00     0.163 HD
BRANCH   3   6
ATOM      6  C   UNL A   1      33.590  28.268  26.085  1.00  0.00     0.220 C 
BRANCH   6   7
ATOM      7  N   UNL A   1      33.019  26.915  26.070  1.00  0.00    -0.318 N 
ATOM      8  C   UNL A   1      33.936  25.854  25.649  1.00  0.00     0.149 C 
BRANCH   7   9
ATOM      9  C   UNL A   1      31.783  26.447  26.487  1.00  0.00     0.320 C 
ATOM     10  O   UNL A   1      31.203  27.104  27.358  1.00  0.00    -0.248 OA
BRANCH   9  11
ATOM     11  N   UNL A   1      31.195  25.300  25.997  1.00  0.00    -0.324 N 
ATOM     12  C   UNL A   1      31.211  23.981  26.620  1.00  0.00     0.149 C 
BRANCH  11  13
ATOM     13  C   UNL A   1      30.411  25.315  24.722  1.00  0.00     0.097 C 
ATOM     14  C   UNL A   1      30.606  24.222  23.660  1.00  0.00     0.037 C 
ATOM     15  C   UNL A   1      30.478  26.662  23.990  1.00  0.00     0.094 C 
ATOM     16  C   UNL A   1      31.654  24.658  22.645  1.00  0.00     0.072 C 
ATOM     17  S   UNL A   1      31.597  26.468  22.580  1.00  0.00    -0.160 SA
ENDBRANCH  11  13
ENDBRANCH   9  11
ENDBRANCH   7   9
ENDBRANCH   6   7
ENDBRANCH   3   6
ENDBRANCH   1   2
BRANCH   1  18
ATOM     18  C   UNL A   1      31.275  31.868  26.719  1.00  0.00     0.042 C 
BRANCH  18  19
ATOM     19  C   UNL A   1      32.619  32.571  26.894  1.00  0.00     0.118 C 
BRANCH  19  20
ATOM     20  N   UNL A   1      32.494  33.900  27.480  1.00  0.00    -0.352 N 
ATOM     21  C   UNL A   1      33.168  34.496  28.515  1.00  0.00     0.251 C 
ATOM     22  H   UNL A   1      31.808  34.467  27.061  1.00  0.00     0.163 HD
ATOM     23  O   UNL A   1      32.769  35.578  28.941  1.00  0.00    -0.269 OA
BRANCH  21  24
ATOM     24  C   UNL A   1      34.353  33.863  29.134  1.00  0.00     0.039 A 
ATOM     25  C   UNL A   1      34.149  32.822  30.047  1.00  0.00     0.014 A 
ATOM     26  C   UNL A   1      35.650  34.320  28.884  1.00  0.00     0.014 A 
ATOM     27  C   UNL A   1      35.240  32.212  30.669  1.00  0.00     0.010 A 
ATOM     28  C   UNL A   1      36.742  33.663  29.449  1.00  0.00     0.010 A 
ATOM     29  C   UNL A   1      36.548  32.611  30.355  1.00  0.00    -0.014 A 
BRANCH  29  30
ATOM     30  C   UNL A   1      37.719  31.943  30.978  1.00  0.00     0.031 A 
ATOM     31  C   UNL A   1      38.156  32.314  32.368  1.00  0.00     0.074 A 
ATOM     32  C   UNL A   1      38.417  31.034  30.272  1.00  0.00     0.049 A 
ATOM     33  N   UNL A   1      39.168  31.864  33.066  1.00  0.00    -0.248 NA
ATOM     34  C   UNL A   1      37.364  33.345  33.057  1.00  0.00     0.031 C 
ATOM     35  C   UNL A   1      38.125  30.628  28.896  1.00  0.00     0.029 A 
ATOM     36  N   UNL A   1      39.520  30.291  30.611  1.00  0.00    -0.354 N 
ATOM     37  C   UNL A   1      39.144  32.566  34.263  1.00  0.00     0.074 A 
ATOM     38  C   UNL A   1      38.048  33.506  34.181  1.00  0.00     0.031 C 
ATOM     39  C   UNL A   1      39.010  29.694  28.517  1.00  0.00     0.029 A 
ATOM     40  C   UNL A   1      39.949  29.455  29.610  1.00  0.00     0.049 A 
ATOM     41  H   UNL A   1      39.963  30.353  31.488  1.00  0.00     0.167 HD
ATOM     42  C   UNL A   1      39.951  32.425  35.343  1.00  0.00     0.037 A 
ATOM     43  C   UNL A   1      40.982  28.592  29.578  1.00  0.00     0.037 A 
ATOM     44  C   UNL A   1      41.024  31.470  35.433  1.00  0.00     0.049 A 
ATOM     45  C   UNL A   1      41.849  28.439  30.797  1.00  0.00     0.074 A 
ATOM     46  C   UNL A   1      41.859  31.207  36.505  1.00  0.00     0.029 A 
ATOM     47  N   UNL A   1      41.407  30.616  34.409  1.00  0.00    -0.354 N 
ATOM     48  N   UNL A   1      41.772  29.057  31.950  1.00  0.00    -0.248 NA
ATOM     49  C   UNL A   1      42.939  27.457  30.714  1.00  0.00     0.031 C 
ATOM     50  C   UNL A   1      42.772  30.221  36.117  1.00  0.00     0.029 A 
ATOM     51  C   UNL A   1      42.477  29.837  34.820  1.00  0.00     0.049 A 
ATOM     52  H   UNL A   1      40.983  30.571  33.523  1.00  0.00     0.167 HD
ATOM     53  C   UNL A   1      42.781  28.521  32.738  1.00  0.00     0.074 A 
ATOM     54  C   UNL A   1      43.448  27.517  31.936  1.00  0.00     0.031 C 
ATOM     55  C   UNL A   1      43.121  28.832  34.013  1.00  0.00     0.037 A 
BRANCH  42  56
ATOM     56  C   UNL A   1      39.698  33.323  36.519  1.00  0.00     0.064 A 
ATOM     57  C   UNL A   1      40.366  34.548  36.664  1.00  0.00     0.173 A 
ATOM     58  C   UNL A   1      38.751  32.973  37.494  1.00  0.00     0.173 A 
ATOM     59  F   UNL A   1      41.289  34.925  35.765  1.00  0.00    -0.203 F 
ATOM     60  C   UNL A   1      40.118  35.375  37.756  1.00  0.00     0.198 A 
ATOM     61  C   UNL A   1      38.485  33.816  38.569  1.00  0.00     0.198 A 
ATOM     62  F   UNL A   1      38.079  31.816  37.399  1.00  0.00    -0.203 F 
ATOM     63  F   UNL A   1      40.803  36.519  37.898  1.00  0.00    -0.200 F 
ATOM     64  C   UNL A   1      39.173  35.012  38.704  1.00  0.00     0.200 A 
ATOM     65  F   UNL A   1      37.562  33.470  39.478  1.00  0.00    -0.200 F 
ATOM     66  F   UNL A   1      38.931  35.812  39.751  1.00  0.00    -0.200 F 
ENDBRANCH  42  56
BRANCH  43  67
ATOM     67  C   UNL A   1      41.225  27.776  28.362  1.00  0.00     0.064 A 
ATOM     68  C   UNL A   1      40.568  26.551  28.179  1.00  0.00     0.173 A 
ATOM     69  C   UNL A   1      42.106  28.203  27.358  1.00  0.00     0.173 A 
ATOM     70  F   UNL A   1      39.731  26.093  29.120  1.00  0.00    -0.203 F 
ATOM     71  C   UNL A   1      40.798  25.775  27.044  1.00  0.00     0.198 A 
ATOM     72  C   UNL A   1      42.314  27.437  26.213  1.00  0.00     0.198 A 
ATOM     73  F   UNL A   1      42.754  29.369  27.484  1.00  0.00    -0.203 F 
ATOM     74  F   UNL A   1      40.188  24.589  26.913  1.00  0.00    -0.200 F 
ATOM     75  C   UNL A   1      41.666  26.220  26.060  1.00  0.00     0.200 A 
ATOM     76  F   UNL A   1      43.146  27.877  25.257  1.00  0.00    -0.200 F 
ATOM     77  F   UNL A   1      41.883  25.475  24.968  1.00  0.00    -0.200 F 
ENDBRANCH  43  67
BRANCH  55  78
ATOM     78  C   UNL A   1      44.240  28.051  34.634  1.00  0.00     0.064 A 
ATOM     79  C   UNL A   1      45.567  28.500  34.587  1.00  0.00     0.173 A 
ATOM     80  C   UNL A   1      43.973  26.855  35.320  1.00  0.00     0.173 A 
ATOM     81  F   UNL A   1      45.875  29.629  33.929  1.00  0.00    -0.203 F 
ATOM     82  C   UNL A   1      46.591  27.768  35.182  1.00  0.00     0.198 A 
ATOM     83  C   UNL A   1      44.996  26.140  35.937  1.00  0.00     0.198 A 
ATOM     84  F   UNL A   1      42.719  26.387  35.399  1.00  0.00    -0.203 F 
ATOM     85  F   UNL A   1      47.859  28.192  35.087  1.00  0.00    -0.200 F 
ATOM     86  C   UNL A   1      46.304  26.593  35.862  1.00  0.00     0.200 A 
ATOM     87  F   UNL A   1      44.715  25.012  36.603  1.00  0.00    -0.200 F 
ATOM     88  F   UNL A   1      47.291  25.893  36.439  1.00  0.00    -0.200 F 
ENDBRANCH  55  78
ENDBRANCH  29  30
ENDBRANCH  21  24
ENDBRANCH  19  20
ENDBRANCH  18  19
ENDBRANCH   1  18
TORSDOF 14
ENDMDL
