MODEL 1
REMARK VINA RESULT:     -12.8      0.000      0.000
REMARK SMILES COC(=O)C1CCN(C(=O)N[C@@H]2C=C[C@H](C(=O)NCCCNC(=O)c3ccc(-c4c5nc(c(-c6c(F)c(F)c(F)c(F)c6F)c6ccc([nH]6)c(-c6c(F)c(F)c(F)c(F)c6F)c6nc(c(-c7c(F)c(F)c(F)c(F)c7F)c7ccc4[nH]7)C=C6)C=C5)cc3)C2)CC1
REMARK SMILES IDX 19 1 18 2 16 3 17 4 15 6 12 7 13 8 88 9 14 10 11 11 5 12
REMARK SMILES IDX 6 13 90 14 7 15 89 16 8 17 9 18 10 19 3 21 4 22 2 23 1 24
REMARK SMILES IDX 20 25 21 26 22 27 23 28 24 30 25 31 26 32 87 33 27 34 86 35
REMARK SMILES IDX 28 36 29 37 30 38 80 39 31 40 85 41 79 42 81 43 32 44 84 45
REMARK SMILES IDX 78 46 77 47 33 49 65 50 45 51 64 52 46 53 49 54 63 55 82 56
REMARK SMILES IDX 47 57 48 58 62 60 83 61 50 62 34 63 35 64 43 65 36 66 37 67
REMARK SMILES IDX 41 68 44 69 38 70 39 71 42 72 40 73 66 74 67 75 75 76 68 77
REMARK SMILES IDX 69 78 73 79 76 80 70 81 71 82 74 83 72 84 51 85 52 86 60 87
REMARK SMILES IDX 53 88 54 89 58 90 61 91 55 92 56 93 59 94 57 95
REMARK H PARENT 18 5 11 20 22 29 81 48 49 59
REMARK Flexibility Score: inf
ROOT
ATOM      1  C   UNL A   1      37.544  21.080  24.623  1.00  0.00     0.117 C 
ENDROOT
BRANCH   1   2
ATOM      2  N   UNL A   1      36.684  21.558  25.693  1.00  0.00    -0.356 N 
ATOM      3  C   UNL A   1      35.333  21.366  25.850  1.00  0.00     0.227 C 
ATOM      4  O   UNL A   1      34.802  21.753  26.889  1.00  0.00    -0.274 OA
ATOM      5  H   UNL A   1      37.127  22.088  26.394  1.00  0.00     0.163 HD
BRANCH   3   6
ATOM      6  C   UNL A   1      34.584  20.696  24.698  1.00  0.00     0.103 C 
ATOM      7  C   UNL A   1      32.136  21.018  24.552  1.00  0.00     0.107 C 
ATOM      8  C   UNL A   1      32.529  19.610  24.786  1.00  0.00    -0.006 C 
ATOM      9  C   UNL A   1      33.492  21.613  24.119  1.00  0.00     0.047 C 
ATOM     10  C   UNL A   1      33.837  19.443  24.991  1.00  0.00    -0.016 C 
BRANCH   7  11
ATOM     11  N   UNL A   1      31.603  21.817  25.673  1.00  0.00    -0.332 N 
ATOM     12  C   UNL A   1      29.777  25.959  23.875  1.00  0.00     0.102 C 
ATOM     13  C   UNL A   1      29.665  26.004  25.420  1.00  0.00     0.037 C 
ATOM     14  C   UNL A   1      30.373  24.611  23.434  1.00  0.00     0.037 C 
ATOM     15  C   UNL A   1      30.870  25.421  26.190  1.00  0.00     0.122 C 
ATOM     16  C   UNL A   1      31.695  24.446  24.167  1.00  0.00     0.122 C 
ATOM     17  N   UNL A   1      31.393  24.210  25.550  1.00  0.00    -0.325 N 
ATOM     18  C   UNL A   1      31.340  23.019  26.196  1.00  0.00     0.317 C 
ATOM     19  O   UNL A   1      30.997  22.961  27.386  1.00  0.00    -0.249 OA
ATOM     20  H   UNL A   1      31.301  21.162  26.344  1.00  0.00     0.165 HD
BRANCH  12  21
ATOM     21  C   UNL A   1      30.621  27.043  23.212  1.00  0.00     0.308 C 
ATOM     22  O   UNL A   1      30.823  27.077  22.001  1.00  0.00    -0.252 OA
BRANCH  21  23
ATOM     23  O   UNL A   1      31.135  27.943  24.086  1.00  0.00    -0.469 OA
ATOM     24  C   UNL A   1      30.651  29.272  23.873  1.00  0.00     0.282 C 
ENDBRANCH  21  23
ENDBRANCH  12  21
ENDBRANCH   7  11
ENDBRANCH   3   6
ENDBRANCH   1   2
BRANCH   1  25
ATOM     25  C   UNL A   1      38.307  19.819  25.001  1.00  0.00     0.042 C 
BRANCH  25  26
ATOM     26  C   UNL A   1      39.248  20.052  26.172  1.00  0.00     0.118 C 
BRANCH  26  27
ATOM     27  N   UNL A   1      40.386  19.144  26.113  1.00  0.00    -0.352 N 
ATOM     28  C   UNL A   1      41.726  19.435  26.030  1.00  0.00     0.251 C 
ATOM     29  H   UNL A   1      40.163  18.186  26.138  1.00  0.00     0.163 HD
ATOM     30  O   UNL A   1      42.521  18.574  25.672  1.00  0.00    -0.269 OA
BRANCH  28  31
ATOM     31  C   UNL A   1      42.204  20.790  26.373  1.00  0.00     0.039 A 
ATOM     32  C   UNL A   1      42.505  21.099  27.702  1.00  0.00     0.014 A 
ATOM     33  C   UNL A   1      42.326  21.766  25.382  1.00  0.00     0.014 A 
ATOM     34  C   UNL A   1      42.977  22.374  28.027  1.00  0.00     0.010 A 
ATOM     35  C   UNL A   1      42.888  22.997  25.687  1.00  0.00     0.010 A 
ATOM     36  C   UNL A   1      43.196  23.324  27.016  1.00  0.00    -0.014 A 
BRANCH  36  37
ATOM     37  C   UNL A   1      43.689  24.693  27.312  1.00  0.00     0.031 A 
ATOM     38  C   UNL A   1      42.729  25.717  27.856  1.00  0.00     0.074 A 
ATOM     39  C   UNL A   1      44.954  25.038  27.007  1.00  0.00     0.049 A 
ATOM     40  N   UNL A   1      42.899  27.002  28.035  1.00  0.00    -0.248 NA
ATOM     41  C   UNL A   1      41.383  25.237  28.211  1.00  0.00     0.031 C 
ATOM     42  C   UNL A   1      45.966  24.144  26.444  1.00  0.00     0.029 A 
ATOM     43  N   UNL A   1      45.599  26.246  27.110  1.00  0.00    -0.354 N 
ATOM     44  C   UNL A   1      41.675  27.484  28.482  1.00  0.00     0.074 A 
ATOM     45  C   UNL A   1      40.758  26.367  28.503  1.00  0.00     0.031 C 
ATOM     46  C   UNL A   1      47.109  24.828  26.270  1.00  0.00     0.029 A 
ATOM     47  C   UNL A   1      46.897  26.218  26.662  1.00  0.00     0.049 A 
ATOM     48  H   UNL A   1      45.170  27.056  27.470  1.00  0.00     0.167 HD
ATOM     49  C   UNL A   1      41.353  28.742  28.863  1.00  0.00     0.037 A 
ATOM     50  C   UNL A   1      47.804  27.209  26.566  1.00  0.00     0.037 A 
ATOM     51  C   UNL A   1      42.286  29.837  28.890  1.00  0.00     0.049 A 
ATOM     52  C   UNL A   1      47.419  28.599  26.999  1.00  0.00     0.074 A 
ATOM     53  C   UNL A   1      42.083  31.131  29.333  1.00  0.00     0.029 A 
ATOM     54  N   UNL A   1      43.603  29.758  28.461  1.00  0.00    -0.354 N 
ATOM     55  N   UNL A   1      46.279  29.031  27.480  1.00  0.00    -0.248 NA
ATOM     56  C   UNL A   1      48.449  29.640  26.876  1.00  0.00     0.031 C 
ATOM     57  C   UNL A   1      43.263  31.851  29.126  1.00  0.00     0.029 A 
ATOM     58  C   UNL A   1      44.219  30.990  28.610  1.00  0.00     0.049 A 
ATOM     59  H   UNL A   1      44.035  28.949  28.105  1.00  0.00     0.167 HD
ATOM     60  C   UNL A   1      46.467  30.378  27.760  1.00  0.00     0.074 A 
ATOM     61  C   UNL A   1      47.833  30.692  27.396  1.00  0.00     0.031 C 
ATOM     62  C   UNL A   1      45.590  31.273  28.274  1.00  0.00     0.037 A 
BRANCH  49  63
ATOM     63  C   UNL A   1      39.937  29.007  29.284  1.00  0.00     0.064 A 
ATOM     64  C   UNL A   1      38.955  29.408  28.365  1.00  0.00     0.173 A 
ATOM     65  C   UNL A   1      39.545  28.814  30.617  1.00  0.00     0.173 A 
ATOM     66  F   UNL A   1      39.278  29.619  27.080  1.00  0.00    -0.203 F 
ATOM     67  C   UNL A   1      37.642  29.631  28.769  1.00  0.00     0.198 A 
ATOM     68  C   UNL A   1      38.224  29.005  31.012  1.00  0.00     0.198 A 
ATOM     69  F   UNL A   1      40.442  28.426  31.537  1.00  0.00    -0.203 F 
ATOM     70  F   UNL A   1      36.733  30.060  27.883  1.00  0.00    -0.200 F 
ATOM     71  C   UNL A   1      37.275  29.421  30.090  1.00  0.00     0.200 A 
ATOM     72  F   UNL A   1      37.868  28.787  32.286  1.00  0.00    -0.200 F 
ATOM     73  F   UNL A   1      36.008  29.624  30.476  1.00  0.00    -0.200 F 
ENDBRANCH  49  63
BRANCH  50  74
ATOM     74  C   UNL A   1      49.175  26.923  26.063  1.00  0.00     0.064 A 
ATOM     75  C   UNL A   1      49.485  27.080  24.705  1.00  0.00     0.173 A 
ATOM     76  C   UNL A   1      50.193  26.471  26.916  1.00  0.00     0.173 A 
ATOM     77  F   UNL A   1      48.542  27.492  23.847  1.00  0.00    -0.203 F 
ATOM     78  C   UNL A   1      50.752  26.768  24.214  1.00  0.00     0.198 A 
ATOM     79  C   UNL A   1      51.467  26.188  26.429  1.00  0.00     0.198 A 
ATOM     80  F   UNL A   1      49.951  26.310  28.225  1.00  0.00    -0.203 F 
ATOM     81  F   UNL A   1      51.004  26.875  22.902  1.00  0.00    -0.200 F 
ATOM     82  C   UNL A   1      51.743  26.326  25.076  1.00  0.00     0.200 A 
ATOM     83  F   UNL A   1      52.427  25.776  27.268  1.00  0.00    -0.200 F 
ATOM     84  F   UNL A   1      52.960  26.025  24.605  1.00  0.00    -0.200 F 
ENDBRANCH  50  74
BRANCH  62  85
ATOM     85  C   UNL A   1      46.091  32.662  28.544  1.00  0.00     0.064 A 
ATOM     86  C   UNL A   1      45.977  33.687  27.596  1.00  0.00     0.173 A 
ATOM     87  C   UNL A   1      46.629  32.982  29.800  1.00  0.00     0.173 A 
ATOM     88  F   UNL A   1      45.483  33.427  26.376  1.00  0.00    -0.203 F 
ATOM     89  C   UNL A   1      46.400  34.980  27.889  1.00  0.00     0.198 A 
ATOM     90  C   UNL A   1      47.021  34.282  30.102  1.00  0.00     0.198 A 
ATOM     91  F   UNL A   1      46.750  32.037  30.745  1.00  0.00    -0.203 F 
ATOM     92  F   UNL A   1      46.320  35.937  26.955  1.00  0.00    -0.200 F 
ATOM     93  C   UNL A   1      46.912  35.279  29.144  1.00  0.00     0.200 A 
ATOM     94  F   UNL A   1      47.498  34.572  31.320  1.00  0.00    -0.200 F 
ATOM     95  F   UNL A   1      47.303  36.529  29.430  1.00  0.00    -0.200 F 
ENDBRANCH  62  85
ENDBRANCH  36  37
ENDBRANCH  28  31
ENDBRANCH  26  27
ENDBRANCH  25  26
ENDBRANCH   1  25
TORSDOF 13
ENDMDL
MODEL 2
REMARK VINA RESULT:     -12.7      0.099      1.586
REMARK SMILES COC(=O)C1CCN(C(=O)N[C@@H]2C=C[C@H](C(=O)NCCCNC(=O)c3ccc(-c4c5nc(c(-c6c(F)c(F)c(F)c(F)c6F)c6ccc([nH]6)c(-c6c(F)c(F)c(F)c(F)c6F)c6nc(c(-c7c(F)c(F)c(F)c(F)c7F)c7ccc4[nH]7)C=C6)C=C5)cc3)C2)CC1
REMARK SMILES IDX 19 1 18 2 16 3 17 4 15 6 12 7 13 8 88 9 14 10 11 11 5 12
REMARK SMILES IDX 6 13 90 14 7 15 89 16 8 17 9 18 10 19 3 21 4 22 2 23 1 24
REMARK SMILES IDX 20 25 21 26 22 27 23 28 24 30 25 31 26 32 87 33 27 34 86 35
REMARK SMILES IDX 28 36 29 37 30 38 80 39 31 40 85 41 79 42 81 43 32 44 84 45
REMARK SMILES IDX 78 46 77 47 33 49 65 50 45 51 64 52 46 53 49 54 63 55 82 56
REMARK SMILES IDX 47 57 48 58 62 60 83 61 50 62 34 63 35 64 43 65 36 66 37 67
REMARK SMILES IDX 41 68 44 69 38 70 39 71 42 72 40 73 66 74 67 75 75 76 68 77
REMARK SMILES IDX 69 78 73 79 76 80 70 81 71 82 74 83 72 84 51 85 52 86 60 87
REMARK SMILES IDX 53 88 54 89 58 90 61 91 55 92 56 93 59 94 57 95
REMARK H PARENT 18 5 11 20 22 29 81 48 49 59
REMARK Flexibility Score: inf
ROOT
ATOM      1  C   UNL A   1      37.542  21.080  24.624  1.00  0.00     0.117 C 
ENDROOT
BRANCH   1   2
ATOM      2  N   UNL A   1      36.683  21.569  25.690  1.00  0.00    -0.356 N 
ATOM      3  C   UNL A   1      35.332  21.382  25.847  1.00  0.00     0.227 C 
ATOM      4  O   UNL A   1      34.801  21.779  26.882  1.00  0.00    -0.274 OA
ATOM      5  H   UNL A   1      37.128  22.103  26.387  1.00  0.00     0.163 HD
BRANCH   3   6
ATOM      6  C   UNL A   1      34.581  20.707  24.700  1.00  0.00     0.103 C 
ATOM      7  C   UNL A   1      32.132  21.024  24.559  1.00  0.00     0.107 C 
ATOM      8  C   UNL A   1      32.528  19.618  24.797  1.00  0.00    -0.006 C 
ATOM      9  C   UNL A   1      33.486  21.619  24.120  1.00  0.00     0.047 C 
ATOM     10  C   UNL A   1      33.837  19.453  24.999  1.00  0.00    -0.016 C 
BRANCH   7  11
ATOM     11  N   UNL A   1      31.600  21.826  25.677  1.00  0.00    -0.332 N 
ATOM     12  C   UNL A   1      29.836  25.993  23.876  1.00  0.00     0.102 C 
ATOM     13  C   UNL A   1      29.713  26.036  25.420  1.00  0.00     0.037 C 
ATOM     14  C   UNL A   1      30.419  24.639  23.436  1.00  0.00     0.037 C 
ATOM     15  C   UNL A   1      30.906  25.438  26.198  1.00  0.00     0.122 C 
ATOM     16  C   UNL A   1      31.734  24.457  24.178  1.00  0.00     0.122 C 
ATOM     17  N   UNL A   1      31.419  24.222  25.558  1.00  0.00    -0.325 N 
ATOM     18  C   UNL A   1      31.348  23.030  26.201  1.00  0.00     0.317 C 
ATOM     19  O   UNL A   1      30.995  22.974  27.389  1.00  0.00    -0.249 OA
ATOM     20  H   UNL A   1      31.286  21.173  26.345  1.00  0.00     0.165 HD
BRANCH  12  21
ATOM     21  C   UNL A   1      30.697  27.069  23.222  1.00  0.00     0.308 C 
ATOM     22  O   UNL A   1      30.954  27.071  22.021  1.00  0.00    -0.252 OA
BRANCH  21  23
ATOM     23  O   UNL A   1      31.159  28.000  24.092  1.00  0.00    -0.469 OA
ATOM     24  C   UNL A   1      30.653  29.312  23.832  1.00  0.00     0.282 C 
ENDBRANCH  21  23
ENDBRANCH  12  21
ENDBRANCH   7  11
ENDBRANCH   3   6
ENDBRANCH   1   2
BRANCH   1  25
ATOM     25  C   UNL A   1      38.281  19.804  25.002  1.00  0.00     0.042 C 
BRANCH  25  26
ATOM     26  C   UNL A   1      39.208  20.013  26.187  1.00  0.00     0.118 C 
BRANCH  26  27
ATOM     27  N   UNL A   1      40.347  19.106  26.124  1.00  0.00    -0.352 N 
ATOM     28  C   UNL A   1      41.686  19.398  26.035  1.00  0.00     0.251 C 
ATOM     29  H   UNL A   1      40.125  18.148  26.149  1.00  0.00     0.163 HD
ATOM     30  O   UNL A   1      42.480  18.538  25.673  1.00  0.00    -0.269 OA
BRANCH  28  31
ATOM     31  C   UNL A   1      42.166  20.753  26.377  1.00  0.00     0.039 A 
ATOM     32  C   UNL A   1      42.440  21.072  27.710  1.00  0.00     0.014 A 
ATOM     33  C   UNL A   1      42.314  21.720  25.380  1.00  0.00     0.014 A 
ATOM     34  C   UNL A   1      42.912  22.347  28.033  1.00  0.00     0.010 A 
ATOM     35  C   UNL A   1      42.877  22.950  25.688  1.00  0.00     0.010 A 
ATOM     36  C   UNL A   1      43.159  23.287  27.020  1.00  0.00    -0.014 A 
BRANCH  36  37
ATOM     37  C   UNL A   1      43.654  24.655  27.314  1.00  0.00     0.031 A 
ATOM     38  C   UNL A   1      42.695  25.681  27.858  1.00  0.00     0.074 A 
ATOM     39  C   UNL A   1      44.919  24.998  27.010  1.00  0.00     0.049 A 
ATOM     40  N   UNL A   1      42.866  26.966  28.035  1.00  0.00    -0.248 NA
ATOM     41  C   UNL A   1      41.348  25.203  28.212  1.00  0.00     0.031 C 
ATOM     42  C   UNL A   1      45.930  24.102  26.449  1.00  0.00     0.029 A 
ATOM     43  N   UNL A   1      45.566  26.205  27.112  1.00  0.00    -0.354 N 
ATOM     44  C   UNL A   1      41.643  27.450  28.482  1.00  0.00     0.074 A 
ATOM     45  C   UNL A   1      40.725  26.335  28.503  1.00  0.00     0.031 C 
ATOM     46  C   UNL A   1      47.075  24.784  26.274  1.00  0.00     0.029 A 
ATOM     47  C   UNL A   1      46.864  26.174  26.665  1.00  0.00     0.049 A 
ATOM     48  H   UNL A   1      45.138  27.015  27.472  1.00  0.00     0.167 HD
ATOM     49  C   UNL A   1      41.323  28.709  28.861  1.00  0.00     0.037 A 
ATOM     50  C   UNL A   1      47.773  27.164  26.568  1.00  0.00     0.037 A 
ATOM     51  C   UNL A   1      42.257  29.802  28.888  1.00  0.00     0.049 A 
ATOM     52  C   UNL A   1      47.389  28.555  26.999  1.00  0.00     0.074 A 
ATOM     53  C   UNL A   1      42.056  31.098  29.329  1.00  0.00     0.029 A 
ATOM     54  N   UNL A   1      43.575  29.722  28.459  1.00  0.00    -0.354 N 
ATOM     55  N   UNL A   1      46.249  28.989  27.480  1.00  0.00    -0.248 NA
ATOM     56  C   UNL A   1      48.421  29.595  26.876  1.00  0.00     0.031 C 
ATOM     57  C   UNL A   1      43.238  31.815  29.122  1.00  0.00     0.029 A 
ATOM     58  C   UNL A   1      44.192  30.952  28.608  1.00  0.00     0.049 A 
ATOM     59  H   UNL A   1      44.005  28.911  28.104  1.00  0.00     0.167 HD
ATOM     60  C   UNL A   1      46.440  30.336  27.758  1.00  0.00     0.074 A 
ATOM     61  C   UNL A   1      47.806  30.648  27.395  1.00  0.00     0.031 C 
ATOM     62  C   UNL A   1      45.564  31.233  28.271  1.00  0.00     0.037 A 
BRANCH  49  63
ATOM     63  C   UNL A   1      39.907  28.977  29.281  1.00  0.00     0.064 A 
ATOM     64  C   UNL A   1      38.929  29.389  28.363  1.00  0.00     0.173 A 
ATOM     65  C   UNL A   1      39.511  28.774  30.612  1.00  0.00     0.173 A 
ATOM     66  F   UNL A   1      39.256  29.610  27.081  1.00  0.00    -0.203 F 
ATOM     67  C   UNL A   1      37.616  29.614  28.767  1.00  0.00     0.198 A 
ATOM     68  C   UNL A   1      38.190  28.967  31.006  1.00  0.00     0.198 A 
ATOM     69  F   UNL A   1      40.405  28.374  31.530  1.00  0.00    -0.203 F 
ATOM     70  F   UNL A   1      36.710  30.055  27.882  1.00  0.00    -0.200 F 
ATOM     71  C   UNL A   1      37.245  29.394  30.084  1.00  0.00     0.200 A 
ATOM     72  F   UNL A   1      37.831  28.740  32.277  1.00  0.00    -0.200 F 
ATOM     73  F   UNL A   1      35.977  29.600  30.470  1.00  0.00    -0.200 F 
ENDBRANCH  49  63
BRANCH  50  74
ATOM     74  C   UNL A   1      49.144  26.876  26.066  1.00  0.00     0.064 A 
ATOM     75  C   UNL A   1      50.148  26.441  26.943  1.00  0.00     0.173 A 
ATOM     76  C   UNL A   1      49.485  27.047  24.717  1.00  0.00     0.173 A 
ATOM     77  F   UNL A   1      49.876  26.280  28.245  1.00  0.00    -0.203 F 
ATOM     78  C   UNL A   1      51.448  26.215  26.494  1.00  0.00     0.198 A 
ATOM     79  C   UNL A   1      50.778  26.793  24.264  1.00  0.00     0.198 A 
ATOM     80  F   UNL A   1      48.560  27.455  23.836  1.00  0.00    -0.203 F 
ATOM     81  F   UNL A   1      52.401  25.853  27.363  1.00  0.00    -0.200 F 
ATOM     82  C   UNL A   1      51.761  26.388  25.155  1.00  0.00     0.200 A 
ATOM     83  F   UNL A   1      51.073  26.944  22.966  1.00  0.00    -0.200 F 
ATOM     84  F   UNL A   1      53.011  26.172  24.723  1.00  0.00    -0.200 F 
ENDBRANCH  50  74
BRANCH  62  85
ATOM     85  C   UNL A   1      46.066  32.621  28.540  1.00  0.00     0.064 A 
ATOM     86  C   UNL A   1      46.683  32.964  29.750  1.00  0.00     0.173 A 
ATOM     87  C   UNL A   1      45.989  33.602  27.538  1.00  0.00     0.173 A 
ATOM     88  F   UNL A   1      46.769  32.065  30.743  1.00  0.00    -0.203 F 
ATOM     89  C   UNL A   1      47.190  34.244  29.956  1.00  0.00     0.198 A 
ATOM     90  C   UNL A   1      46.524  34.871  27.735  1.00  0.00     0.198 A 
ATOM     91  F   UNL A   1      45.415  33.321  26.359  1.00  0.00    -0.203 F 
ATOM     92  F   UNL A   1      47.741  34.563  31.135  1.00  0.00    -0.200 F 
ATOM     93  C   UNL A   1      47.119  35.193  28.946  1.00  0.00     0.200 A 
ATOM     94  F   UNL A   1      46.471  35.779  26.752  1.00  0.00    -0.200 F 
ATOM     95  F   UNL A   1      47.623  36.419  29.140  1.00  0.00    -0.200 F 
ENDBRANCH  62  85
ENDBRANCH  36  37
ENDBRANCH  28  31
ENDBRANCH  26  27
ENDBRANCH  25  26
ENDBRANCH   1  25
TORSDOF 13
ENDMDL
MODEL 3
REMARK VINA RESULT:     -12.7      5.434     11.177
REMARK SMILES COC(=O)C1CCN(C(=O)N[C@@H]2C=C[C@H](C(=O)NCCCNC(=O)c3ccc(-c4c5nc(c(-c6c(F)c(F)c(F)c(F)c6F)c6ccc([nH]6)c(-c6c(F)c(F)c(F)c(F)c6F)c6nc(c(-c7c(F)c(F)c(F)c(F)c7F)c7ccc4[nH]7)C=C6)C=C5)cc3)C2)CC1
REMARK SMILES IDX 19 1 18 2 16 3 17 4 15 6 12 7 13 8 88 9 14 10 11 11 5 12
REMARK SMILES IDX 6 13 90 14 7 15 89 16 8 17 9 18 10 19 3 21 4 22 2 23 1 24
REMARK SMILES IDX 20 25 21 26 22 27 23 28 24 30 25 31 26 32 87 33 27 34 86 35
REMARK SMILES IDX 28 36 29 37 30 38 80 39 31 40 85 41 79 42 81 43 32 44 84 45
REMARK SMILES IDX 78 46 77 47 33 49 65 50 45 51 64 52 46 53 49 54 63 55 82 56
REMARK SMILES IDX 47 57 48 58 62 60 83 61 50 62 34 63 35 64 43 65 36 66 37 67
REMARK SMILES IDX 41 68 44 69 38 70 39 71 42 72 40 73 66 74 67 75 75 76 68 77
REMARK SMILES IDX 69 78 73 79 76 80 70 81 71 82 74 83 72 84 51 85 52 86 60 87
REMARK SMILES IDX 53 88 54 89 58 90 61 91 55 92 56 93 59 94 57 95
REMARK H PARENT 18 5 11 20 22 29 81 48 49 59
REMARK Flexibility Score: inf
ROOT
ATOM      1  C   UNL A   1      31.565  30.673  26.856  1.00  0.00     0.117 C 
ENDROOT
BRANCH   1   2
ATOM      2  N   UNL A   1      32.527  30.152  25.900  1.00  0.00    -0.356 N 
ATOM      3  C   UNL A   1      32.283  29.534  24.698  1.00  0.00     0.227 C 
ATOM      4  O   UNL A   1      33.237  29.267  23.971  1.00  0.00    -0.274 OA
ATOM      5  H   UNL A   1      33.474  30.255  26.146  1.00  0.00     0.163 HD
BRANCH   3   6
ATOM      6  C   UNL A   1      30.828  29.205  24.363  1.00  0.00     0.103 C 
ATOM      7  C   UNL A   1      30.385  27.465  22.663  1.00  0.00     0.107 C 
ATOM      8  C   UNL A   1      29.911  28.809  22.262  1.00  0.00    -0.006 C 
ATOM      9  C   UNL A   1      30.616  27.693  24.171  1.00  0.00     0.047 C 
ATOM     10  C   UNL A   1      30.256  29.777  23.115  1.00  0.00    -0.016 C 
BRANCH   7  11
ATOM     11  N   UNL A   1      31.623  26.927  22.068  1.00  0.00    -0.332 N 
ATOM     12  C   UNL A   1      32.005  22.231  23.302  1.00  0.00     0.102 C 
ATOM     13  C   UNL A   1      33.272  22.632  22.506  1.00  0.00     0.037 C 
ATOM     14  C   UNL A   1      31.041  23.426  23.387  1.00  0.00     0.037 C 
ATOM     15  C   UNL A   1      33.834  24.037  22.816  1.00  0.00     0.122 C 
ATOM     16  C   UNL A   1      31.820  24.588  23.985  1.00  0.00     0.122 C 
ATOM     17  N   UNL A   1      32.765  25.024  22.998  1.00  0.00    -0.325 N 
ATOM     18  C   UNL A   1      32.644  26.066  22.138  1.00  0.00     0.317 C 
ATOM     19  O   UNL A   1      33.518  26.286  21.286  1.00  0.00    -0.249 OA
ATOM     20  H   UNL A   1      31.761  27.436  21.236  1.00  0.00     0.165 HD
BRANCH  12  21
ATOM     21  C   UNL A   1      32.215  21.742  24.732  1.00  0.00     0.308 C 
ATOM     22  O   UNL A   1      31.282  21.497  25.492  1.00  0.00    -0.252 OA
BRANCH  21  23
ATOM     23  O   UNL A   1      33.520  21.625  25.082  1.00  0.00    -0.469 OA
ATOM     24  C   UNL A   1      33.858  22.382  26.248  1.00  0.00     0.282 C 
ENDBRANCH  21  23
ENDBRANCH  12  21
ENDBRANCH   7  11
ENDBRANCH   3   6
ENDBRANCH   1   2
BRANCH   1  25
ATOM     25  C   UNL A   1      31.435  32.188  26.795  1.00  0.00     0.042 C 
BRANCH  25  26
ATOM     26  C   UNL A   1      32.760  32.884  27.054  1.00  0.00     0.118 C 
BRANCH  26  27
ATOM     27  N   UNL A   1      32.550  34.226  27.582  1.00  0.00    -0.352 N 
ATOM     28  C   UNL A   1      33.089  34.815  28.699  1.00  0.00     0.251 C 
ATOM     29  H   UNL A   1      31.933  34.791  27.063  1.00  0.00     0.163 HD
ATOM     30  O   UNL A   1      32.573  35.819  29.175  1.00  0.00    -0.269 OA
BRANCH  28  31
ATOM     31  C   UNL A   1      34.295  34.233  29.325  1.00  0.00     0.039 A 
ATOM     32  C   UNL A   1      35.559  34.594  28.853  1.00  0.00     0.014 A 
ATOM     33  C   UNL A   1      34.171  33.304  30.360  1.00  0.00     0.014 A 
ATOM     34  C   UNL A   1      36.701  34.060  29.456  1.00  0.00     0.010 A 
ATOM     35  C   UNL A   1      35.303  32.852  31.023  1.00  0.00     0.010 A 
ATOM     36  C   UNL A   1      36.581  33.205  30.563  1.00  0.00    -0.014 A 
BRANCH  36  37
ATOM     37  C   UNL A   1      37.763  32.607  31.233  1.00  0.00     0.031 A 
ATOM     38  C   UNL A   1      38.503  31.486  30.553  1.00  0.00     0.074 A 
ATOM     39  C   UNL A   1      38.110  33.000  32.473  1.00  0.00     0.049 A 
ATOM     40  N   UNL A   1      39.454  30.717  31.017  1.00  0.00    -0.248 NA
ATOM     41  C   UNL A   1      38.089  31.161  29.178  1.00  0.00     0.031 C 
ATOM     42  C   UNL A   1      37.450  34.051  33.246  1.00  0.00     0.029 A 
ATOM     43  N   UNL A   1      39.097  32.542  33.311  1.00  0.00    -0.354 N 
ATOM     44  C   UNL A   1      39.721  29.799  30.009  1.00  0.00     0.074 A 
ATOM     45  C   UNL A   1      38.802  30.073  28.928  1.00  0.00     0.031 C 
ATOM     46  C   UNL A   1      38.061  34.172  34.437  1.00  0.00     0.029 A 
ATOM     47  C   UNL A   1      39.123  33.175  34.529  1.00  0.00     0.049 A 
ATOM     48  H   UNL A   1      39.726  31.827  33.061  1.00  0.00     0.167 HD
ATOM     49  C   UNL A   1      40.664  28.828  29.981  1.00  0.00     0.037 A 
ATOM     50  C   UNL A   1      39.908  32.960  35.603  1.00  0.00     0.037 A 
ATOM     51  C   UNL A   1      41.610  28.597  31.039  1.00  0.00     0.049 A 
ATOM     52  C   UNL A   1      40.950  31.875  35.542  1.00  0.00     0.074 A 
ATOM     53  C   UNL A   1      42.655  27.692  31.078  1.00  0.00     0.029 A 
ATOM     54  N   UNL A   1      41.626  29.284  32.244  1.00  0.00    -0.354 N 
ATOM     55  N   UNL A   1      41.236  31.054  34.561  1.00  0.00    -0.248 NA
ATOM     56  C   UNL A   1      41.781  31.687  36.740  1.00  0.00     0.031 C 
ATOM     57  C   UNL A   1      43.275  27.797  32.326  1.00  0.00     0.029 A 
ATOM     58  C   UNL A   1      42.653  28.808  33.042  1.00  0.00     0.049 A 
ATOM     59  H   UNL A   1      41.001  30.002  32.494  1.00  0.00     0.167 HD
ATOM     60  C   UNL A   1      42.305  30.286  35.004  1.00  0.00     0.074 A 
ATOM     61  C   UNL A   1      42.619  30.740  36.342  1.00  0.00     0.031 C 
ATOM     62  C   UNL A   1      42.970  29.297  34.359  1.00  0.00     0.037 A 
BRANCH  49  63
ATOM     63  C   UNL A   1      40.724  27.944  28.770  1.00  0.00     0.064 A 
ATOM     64  C   UNL A   1      39.979  26.759  28.681  1.00  0.00     0.173 A 
ATOM     65  C   UNL A   1      41.505  28.310  27.662  1.00  0.00     0.173 A 
ATOM     66  F   UNL A   1      39.225  26.355  29.716  1.00  0.00    -0.203 F 
ATOM     67  C   UNL A   1      40.032  25.960  27.542  1.00  0.00     0.198 A 
ATOM     68  C   UNL A   1      41.531  27.527  26.512  1.00  0.00     0.198 A 
ATOM     69  F   UNL A   1      42.234  29.436  27.691  1.00  0.00    -0.203 F 
ATOM     70  F   UNL A   1      39.349  24.808  27.500  1.00  0.00    -0.200 F 
ATOM     71  C   UNL A   1      40.800  26.349  26.455  1.00  0.00     0.200 A 
ATOM     72  F   UNL A   1      42.263  27.912  25.457  1.00  0.00    -0.200 F 
ATOM     73  F   UNL A   1      40.842  25.586  25.354  1.00  0.00    -0.200 F 
ENDBRANCH  49  63
BRANCH  50  74
ATOM     74  C   UNL A   1      39.761  33.804  36.819  1.00  0.00     0.064 A 
ATOM     75  C   UNL A   1      38.933  33.396  37.876  1.00  0.00     0.173 A 
ATOM     76  C   UNL A   1      40.419  35.035  36.945  1.00  0.00     0.173 A 
ATOM     77  F   UNL A   1      38.268  32.235  37.795  1.00  0.00    -0.203 F 
ATOM     78  C   UNL A   1      38.749  34.201  38.998  1.00  0.00     0.198 A 
ATOM     79  C   UNL A   1      40.257  35.825  38.081  1.00  0.00     0.198 A 
ATOM     80  F   UNL A   1      41.227  35.469  35.966  1.00  0.00    -0.203 F 
ATOM     81  F   UNL A   1      37.910  33.811  39.968  1.00  0.00    -0.200 F 
ATOM     82  C   UNL A   1      39.413  35.413  39.102  1.00  0.00     0.200 A 
ATOM     83  F   UNL A   1      40.913  36.989  38.186  1.00  0.00    -0.200 F 
ATOM     84  F   UNL A   1      39.235  36.187  40.181  1.00  0.00    -0.200 F 
ENDBRANCH  50  74
BRANCH  62  85
ATOM     85  C   UNL A   1      44.147  28.681  35.056  1.00  0.00     0.064 A 
ATOM     86  C   UNL A   1      44.017  27.544  35.865  1.00  0.00     0.173 A 
ATOM     87  C   UNL A   1      45.435  29.200  34.849  1.00  0.00     0.173 A 
ATOM     88  F   UNL A   1      42.806  27.020  36.104  1.00  0.00    -0.203 F 
ATOM     89  C   UNL A   1      45.132  26.959  36.457  1.00  0.00     0.198 A 
ATOM     90  C   UNL A   1      46.551  28.593  35.417  1.00  0.00     0.198 A 
ATOM     91  F   UNL A   1      45.613  30.281  34.076  1.00  0.00    -0.203 F 
ATOM     92  F   UNL A   1      44.982  25.896  37.260  1.00  0.00    -0.200 F 
ATOM     93  C   UNL A   1      46.399  27.477  36.225  1.00  0.00     0.200 A 
ATOM     94  F   UNL A   1      47.774  29.085  35.177  1.00  0.00    -0.200 F 
ATOM     95  F   UNL A   1      47.473  26.902  36.783  1.00  0.00    -0.200 F 
ENDBRANCH  62  85
ENDBRANCH  36  37
ENDBRANCH  28  31
ENDBRANCH  26  27
ENDBRANCH  25  26
ENDBRANCH   1  25
TORSDOF 13
ENDMDL
