MODEL 1
REMARK VINA RESULT:     -11.6      0.000      0.000
REMARK SMILES C[C@H]1[C@H](C(=O)NCCCNC(=O)c2ccc(-c3c4nc(c(-c5c(F)c(F)c(F)c(F)c5F)c5ccc([nH]5)c(-c5c(F)c(F)c(F)c(F)c5F)c5nc(c(-c6c(F)c(F)c(F)c(F)c6F)c6ccc3[nH]6)C=C5)C=C4)cc2)CCN1C(=O)[C@](C)([NH3+])C1CC1
REMARK SMILES IDX 7 1 6 2 4 3 5 4 3 6 1 7 2 8 78 9 76 10 77 11 79 12 80 13
REMARK SMILES IDX 81 14 82 15 83 16 84 20 85 21 86 22 8 23 9 24 10 25 11 26
REMARK SMILES IDX 12 28 13 29 14 30 75 31 15 32 74 33 16 34 17 35 18 36 68 37
REMARK SMILES IDX 19 38 73 39 67 40 69 41 20 42 72 43 66 44 65 45 21 47 53 48
REMARK SMILES IDX 33 49 52 50 34 51 37 52 51 53 70 54 35 55 36 56 50 58 71 59
REMARK SMILES IDX 38 60 22 61 23 62 31 63 24 64 25 65 29 66 32 67 26 68 27 69
REMARK SMILES IDX 30 70 28 71 54 72 55 73 63 74 56 75 57 76 61 77 64 78 58 79
REMARK SMILES IDX 59 80 62 81 60 82 39 83 40 84 48 85 41 86 42 87 46 88 49 89
REMARK SMILES IDX 43 90 44 91 47 92 45 93
REMARK H PARENT 6 5 83 17 83 18 83 19 10 27 69 46 37 57
REMARK Flexibility Score: inf
ROOT
ATOM      1  C   UNL A   1      36.873  20.612  24.960  1.00  0.00     0.117 C 
ENDROOT
BRANCH   1   2
ATOM      2  N   UNL A   1      37.072  21.651  23.967  1.00  0.00    -0.356 N 
ATOM      3  C   UNL A   1      36.303  22.699  23.583  1.00  0.00     0.225 C 
ATOM      4  O   UNL A   1      36.749  23.408  22.674  1.00  0.00    -0.275 OA
ATOM      5  H   UNL A   1      37.925  21.581  23.481  1.00  0.00     0.163 HD
BRANCH   3   6
ATOM      6  C   UNL A   1      34.940  23.014  24.179  1.00  0.00     0.102 C 
ATOM      7  C   UNL A   1      34.182  24.989  25.525  1.00  0.00     0.032 C 
ATOM      8  C   UNL A   1      34.599  24.515  24.131  1.00  0.00     0.094 C 
ATOM      9  N   UNL A   1      33.480  24.613  23.202  1.00  0.00    -0.334 N 
ATOM     10  C   UNL A   1      33.763  22.271  23.549  1.00  0.00     0.037 C 
ATOM     11  C   UNL A   1      32.756  23.349  23.177  1.00  0.00     0.121 C 
BRANCH   9  12
ATOM     12  C   UNL A   1      33.060  25.650  22.402  1.00  0.00     0.284 C 
ATOM     13  O   UNL A   1      33.361  25.609  21.193  1.00  0.00    -0.268 OA
BRANCH  12  14
ATOM     14  C   UNL A   1      32.167  26.872  22.864  1.00  0.00     0.174 C 
ATOM     15  C   UNL A   1      31.219  26.365  23.958  1.00  0.00     0.090 C 
BRANCH  14  16
ATOM     16  N   UNL A   1      31.289  27.179  21.681  1.00  0.00    -0.345 N 
ATOM     17  H   UNL A   1      30.338  27.367  22.003  1.00  0.00     0.345 HD
ATOM     18  H   UNL A   1      31.281  26.381  21.046  1.00  0.00     0.345 HD
ATOM     19  H   UNL A   1      31.650  27.998  21.193  1.00  0.00     0.345 HD
ENDBRANCH  14  16
BRANCH  14  20
ATOM     20  C   UNL A   1      32.781  28.238  23.139  1.00  0.00     0.060 C 
ATOM     21  C   UNL A   1      33.860  28.403  24.204  1.00  0.00     0.011 C 
ATOM     22  C   UNL A   1      34.173  28.721  22.779  1.00  0.00     0.011 C 
ENDBRANCH  14  20
ENDBRANCH  12  14
ENDBRANCH   9  12
ENDBRANCH   3   6
ENDBRANCH   1   2
BRANCH   1  23
ATOM     23  C   UNL A   1      38.039  19.636  25.009  1.00  0.00     0.042 C 
BRANCH  23  24
ATOM     24  C   UNL A   1      39.125  19.987  26.017  1.00  0.00     0.118 C 
BRANCH  24  25
ATOM     25  N   UNL A   1      40.257  19.077  25.964  1.00  0.00    -0.352 N 
ATOM     26  C   UNL A   1      41.607  19.318  26.023  1.00  0.00     0.251 C 
ATOM     27  H   UNL A   1      40.015  18.128  25.869  1.00  0.00     0.163 HD
ATOM     28  O   UNL A   1      42.389  18.407  25.771  1.00  0.00    -0.269 OA
BRANCH  26  29
ATOM     29  C   UNL A   1      42.131  20.657  26.370  1.00  0.00     0.039 A 
ATOM     30  C   UNL A   1      42.429  21.545  25.331  1.00  0.00     0.014 A 
ATOM     31  C   UNL A   1      42.382  21.031  27.693  1.00  0.00     0.014 A 
ATOM     32  C   UNL A   1      42.922  22.819  25.620  1.00  0.00     0.010 A 
ATOM     33  C   UNL A   1      42.796  22.329  27.985  1.00  0.00     0.010 A 
ATOM     34  C   UNL A   1      43.078  23.234  26.953  1.00  0.00    -0.014 A 
BRANCH  34  35
ATOM     35  C   UNL A   1      43.536  24.608  27.275  1.00  0.00     0.031 A 
ATOM     36  C   UNL A   1      42.576  25.620  27.837  1.00  0.00     0.074 A 
ATOM     37  C   UNL A   1      44.807  24.962  27.009  1.00  0.00     0.049 A 
ATOM     38  N   UNL A   1      42.779  26.879  28.135  1.00  0.00    -0.248 NA
ATOM     39  C   UNL A   1      41.197  25.165  28.071  1.00  0.00     0.031 C 
ATOM     40  C   UNL A   1      45.819  24.091  26.410  1.00  0.00     0.029 A 
ATOM     41  N   UNL A   1      45.465  26.152  27.198  1.00  0.00    -0.354 N 
ATOM     42  C   UNL A   1      41.557  27.365  28.578  1.00  0.00     0.074 A 
ATOM     43  C   UNL A   1      40.603  26.283  28.459  1.00  0.00     0.031 C 
ATOM     44  C   UNL A   1      46.973  24.767  26.300  1.00  0.00     0.029 A 
ATOM     45  C   UNL A   1      46.776  26.128  26.789  1.00  0.00     0.049 A 
ATOM     46  H   UNL A   1      45.037  26.948  27.589  1.00  0.00     0.167 HD
ATOM     47  C   UNL A   1      41.261  28.595  29.065  1.00  0.00     0.037 A 
ATOM     48  C   UNL A   1      47.711  27.095  26.804  1.00  0.00     0.037 A 
ATOM     49  C   UNL A   1      42.216  29.663  29.203  1.00  0.00     0.049 A 
ATOM     50  C   UNL A   1      47.362  28.447  27.361  1.00  0.00     0.074 A 
ATOM     51  C   UNL A   1      42.027  30.928  29.733  1.00  0.00     0.029 A 
ATOM     52  N   UNL A   1      43.543  29.592  28.805  1.00  0.00    -0.354 N 
ATOM     53  N   UNL A   1      46.219  28.875  27.840  1.00  0.00    -0.248 NA
ATOM     54  C   UNL A   1      48.438  29.447  27.392  1.00  0.00     0.031 C 
ATOM     55  C   UNL A   1      43.230  31.635  29.620  1.00  0.00     0.029 A 
ATOM     56  C   UNL A   1      44.181  30.796  29.062  1.00  0.00     0.049 A 
ATOM     57  H   UNL A   1      43.969  28.803  28.399  1.00  0.00     0.167 HD
ATOM     58  C   UNL A   1      46.441  30.184  28.245  1.00  0.00     0.074 A 
ATOM     59  C   UNL A   1      47.835  30.472  27.977  1.00  0.00     0.031 C 
ATOM     60  C   UNL A   1      45.568  31.067  28.788  1.00  0.00     0.037 A 
BRANCH  47  61
ATOM     61  C   UNL A   1      39.843  28.847  29.492  1.00  0.00     0.064 A 
ATOM     62  C   UNL A   1      39.414  28.589  30.803  1.00  0.00     0.173 A 
ATOM     63  C   UNL A   1      38.909  29.381  28.591  1.00  0.00     0.173 A 
ATOM     64  F   UNL A   1      40.265  28.068  31.701  1.00  0.00    -0.203 F 
ATOM     65  C   UNL A   1      38.097  28.826  31.187  1.00  0.00     0.198 A 
ATOM     66  C   UNL A   1      37.600  29.644  28.987  1.00  0.00     0.198 A 
ATOM     67  F   UNL A   1      39.267  29.652  27.327  1.00  0.00    -0.203 F 
ATOM     68  F   UNL A   1      37.699  28.522  32.431  1.00  0.00    -0.200 F 
ATOM     69  C   UNL A   1      37.193  29.359  30.282  1.00  0.00     0.200 A 
ATOM     70  F   UNL A   1      36.731  30.172  28.113  1.00  0.00    -0.200 F 
ATOM     71  F   UNL A   1      35.927  29.591  30.655  1.00  0.00    -0.200 F 
ENDBRANCH  47  61
BRANCH  48  72
ATOM     72  C   UNL A   1      49.077  26.806  26.297  1.00  0.00     0.064 A 
ATOM     73  C   UNL A   1      49.420  27.063  24.962  1.00  0.00     0.173 A 
ATOM     74  C   UNL A   1      50.067  26.273  27.136  1.00  0.00     0.173 A 
ATOM     75  F   UNL A   1      48.501  27.553  24.119  1.00  0.00    -0.203 F 
ATOM     76  C   UNL A   1      50.696  26.782  24.481  1.00  0.00     0.198 A 
ATOM     77  C   UNL A   1      51.352  26.018  26.659  1.00  0.00     0.198 A 
ATOM     78  F   UNL A   1      49.789  26.014  28.422  1.00  0.00    -0.203 F 
ATOM     79  F   UNL A   1      50.986  26.997  23.191  1.00  0.00    -0.200 F 
ATOM     80  C   UNL A   1      51.663  26.266  25.331  1.00  0.00     0.200 A 
ATOM     81  F   UNL A   1      52.287  25.530  27.486  1.00  0.00    -0.200 F 
ATOM     82  F   UNL A   1      52.892  25.999  24.868  1.00  0.00    -0.200 F 
ENDBRANCH  48  72
BRANCH  60  83
ATOM     83  C   UNL A   1      46.104  32.423  29.146  1.00  0.00     0.064 A 
ATOM     84  C   UNL A   1      46.668  32.682  30.404  1.00  0.00     0.173 A 
ATOM     85  C   UNL A   1      46.073  33.469  28.211  1.00  0.00     0.173 A 
ATOM     86  F   UNL A   1      46.707  31.719  31.337  1.00  0.00    -0.203 F 
ATOM     87  C   UNL A   1      47.155  33.947  30.723  1.00  0.00     0.198 A 
ATOM     88  C   UNL A   1      46.587  34.724  28.524  1.00  0.00     0.198 A 
ATOM     89  F   UNL A   1      45.550  33.272  26.991  1.00  0.00    -0.203 F 
ATOM     90  F   UNL A   1      47.641  34.185  31.949  1.00  0.00    -0.200 F 
ATOM     91  C   UNL A   1      47.119  34.965  29.782  1.00  0.00     0.200 A 
ATOM     92  F   UNL A   1      46.563  35.704  27.610  1.00  0.00    -0.200 F 
ATOM     93  F   UNL A   1      47.589  36.182  30.091  1.00  0.00    -0.200 F 
ENDBRANCH  60  83
ENDBRANCH  34  35
ENDBRANCH  26  29
ENDBRANCH  24  25
ENDBRANCH  23  24
ENDBRANCH   1  23
TORSDOF 14
ENDMDL
MODEL 2
REMARK VINA RESULT:     -11.6      5.740     11.173
REMARK SMILES C[C@H]1[C@H](C(=O)NCCCNC(=O)c2ccc(-c3c4nc(c(-c5c(F)c(F)c(F)c(F)c5F)c5ccc([nH]5)c(-c5c(F)c(F)c(F)c(F)c5F)c5nc(c(-c6c(F)c(F)c(F)c(F)c6F)c6ccc3[nH]6)C=C5)C=C4)cc2)CCN1C(=O)[C@](C)([NH3+])C1CC1
REMARK SMILES IDX 7 1 6 2 4 3 5 4 3 6 1 7 2 8 78 9 76 10 77 11 79 12 80 13
REMARK SMILES IDX 81 14 82 15 83 16 84 20 85 21 86 22 8 23 9 24 10 25 11 26
REMARK SMILES IDX 12 28 13 29 14 30 75 31 15 32 74 33 16 34 17 35 18 36 68 37
REMARK SMILES IDX 19 38 73 39 67 40 69 41 20 42 72 43 66 44 65 45 21 47 53 48
REMARK SMILES IDX 33 49 52 50 34 51 37 52 51 53 70 54 35 55 36 56 50 58 71 59
REMARK SMILES IDX 38 60 22 61 23 62 31 63 24 64 25 65 29 66 32 67 26 68 27 69
REMARK SMILES IDX 30 70 28 71 54 72 55 73 63 74 56 75 57 76 61 77 64 78 58 79
REMARK SMILES IDX 59 80 62 81 60 82 39 83 40 84 48 85 41 86 42 87 46 88 49 89
REMARK SMILES IDX 43 90 44 91 47 92 45 93
REMARK H PARENT 6 5 83 17 83 18 83 19 10 27 69 46 37 57
REMARK Flexibility Score: inf
ROOT
ATOM      1  C   UNL A   1      31.527  30.728  25.969  1.00  0.00     0.117 C 
ENDROOT
BRANCH   1   2
ATOM      2  N   UNL A   1      31.574  29.748  27.038  1.00  0.00    -0.356 N 
ATOM      3  C   UNL A   1      31.748  28.403  27.031  1.00  0.00     0.225 C 
ATOM      4  O   UNL A   1      31.715  27.836  28.127  1.00  0.00    -0.275 OA
ATOM      5  H   UNL A   1      31.456  30.131  27.937  1.00  0.00     0.163 HD
BRANCH   3   6
ATOM      6  C   UNL A   1      31.942  27.581  25.766  1.00  0.00     0.102 C 
ATOM      7  C   UNL A   1      33.879  26.162  25.044  1.00  0.00     0.032 C 
ATOM      8  C   UNL A   1      32.704  26.267  26.019  1.00  0.00     0.094 C 
ATOM      9  N   UNL A   1      31.730  25.215  25.762  1.00  0.00    -0.334 N 
ATOM     10  C   UNL A   1      30.660  27.213  25.021  1.00  0.00     0.037 C 
ATOM     11  C   UNL A   1      30.719  25.705  24.833  1.00  0.00     0.121 C 
BRANCH   9  12
ATOM     12  C   UNL A   1      31.636  23.932  26.248  1.00  0.00     0.284 C 
ATOM     13  O   UNL A   1      30.904  23.738  27.239  1.00  0.00    -0.268 OA
BRANCH  12  14
ATOM     14  C   UNL A   1      32.330  22.653  25.625  1.00  0.00     0.174 C 
ATOM     15  C   UNL A   1      32.234  22.773  24.099  1.00  0.00     0.090 C 
BRANCH  14  16
ATOM     16  N   UNL A   1      31.430  21.505  25.996  1.00  0.00    -0.345 N 
ATOM     17  H   UNL A   1      31.303  21.486  27.009  1.00  0.00     0.345 HD
ATOM     18  H   UNL A   1      31.853  20.629  25.690  1.00  0.00     0.345 HD
ATOM     19  H   UNL A   1      30.524  21.622  25.542  1.00  0.00     0.345 HD
ENDBRANCH  14  16
BRANCH  14  20
ATOM     20  C   UNL A   1      33.673  22.154  26.140  1.00  0.00     0.060 C 
ATOM     21  C   UNL A   1      34.477  22.982  27.138  1.00  0.00     0.011 C 
ATOM     22  C   UNL A   1      33.999  21.621  27.523  1.00  0.00     0.011 C 
ENDBRANCH  14  20
ENDBRANCH  12  14
ENDBRANCH   9  12
ENDBRANCH   3   6
ENDBRANCH   1   2
BRANCH   1  23
ATOM     23  C   UNL A   1      31.395  32.148  26.499  1.00  0.00     0.042 C 
BRANCH  23  24
ATOM     24  C   UNL A   1      32.620  32.672  27.234  1.00  0.00     0.118 C 
BRANCH  24  25
ATOM     25  N   UNL A   1      32.482  34.062  27.638  1.00  0.00    -0.352 N 
ATOM     26  C   UNL A   1      33.118  34.779  28.620  1.00  0.00     0.251 C 
ATOM     27  H   UNL A   1      31.821  34.575  27.119  1.00  0.00     0.163 HD
ATOM     28  O   UNL A   1      32.705  35.899  28.905  1.00  0.00    -0.269 OA
BRANCH  26  29
ATOM     29  C   UNL A   1      34.278  34.220  29.347  1.00  0.00     0.039 A 
ATOM     30  C   UNL A   1      34.037  33.433  30.479  1.00  0.00     0.014 A 
ATOM     31  C   UNL A   1      35.593  34.501  28.966  1.00  0.00     0.014 A 
ATOM     32  C   UNL A   1      35.107  32.885  31.188  1.00  0.00     0.010 A 
ATOM     33  C   UNL A   1      36.657  33.889  29.626  1.00  0.00     0.010 A 
ATOM     34  C   UNL A   1      36.427  33.081  30.748  1.00  0.00    -0.014 A 
BRANCH  34  35
ATOM     35  C   UNL A   1      37.569  32.448  31.453  1.00  0.00     0.031 A 
ATOM     36  C   UNL A   1      38.305  31.294  30.831  1.00  0.00     0.074 A 
ATOM     37  C   UNL A   1      37.908  32.879  32.683  1.00  0.00     0.049 A 
ATOM     38  N   UNL A   1      39.293  30.584  31.315  1.00  0.00    -0.248 NA
ATOM     39  C   UNL A   1      37.854  30.863  29.500  1.00  0.00     0.031 C 
ATOM     40  C   UNL A   1      37.235  33.951  33.418  1.00  0.00     0.029 A 
ATOM     41  N   UNL A   1      38.899  32.462  33.537  1.00  0.00    -0.354 N 
ATOM     42  C   UNL A   1      39.572  29.620  30.356  1.00  0.00     0.074 A 
ATOM     43  C   UNL A   1      38.614  29.799  29.286  1.00  0.00     0.031 C 
ATOM     44  C   UNL A   1      37.844  34.121  34.603  1.00  0.00     0.029 A 
ATOM     45  C   UNL A   1      38.928  33.151  34.724  1.00  0.00     0.049 A 
ATOM     46  H   UNL A   1      39.529  31.737  33.319  1.00  0.00     0.167 HD
ATOM     47  C   UNL A   1      40.553  28.686  30.355  1.00  0.00     0.037 A 
ATOM     48  C   UNL A   1      39.735  33.013  35.793  1.00  0.00     0.037 A 
ATOM     49  C   UNL A   1      41.519  28.523  31.410  1.00  0.00     0.049 A 
ATOM     50  C   UNL A   1      40.825  31.979  35.761  1.00  0.00     0.074 A 
ATOM     51  C   UNL A   1      42.584  27.642  31.479  1.00  0.00     0.029 A 
ATOM     52  N   UNL A   1      41.535  29.260  32.585  1.00  0.00    -0.354 N 
ATOM     53  N   UNL A   1      41.122  31.117  34.819  1.00  0.00    -0.248 NA
ATOM     54  C   UNL A   1      41.703  31.908  36.938  1.00  0.00     0.031 C 
ATOM     55  C   UNL A   1      43.221  27.819  32.712  1.00  0.00     0.029 A 
ATOM     56  C   UNL A   1      42.581  28.842  33.393  1.00  0.00     0.049 A 
ATOM     57  H   UNL A   1      40.897  29.974  32.812  1.00  0.00     0.167 HD
ATOM     58  C   UNL A   1      42.227  30.414  35.278  1.00  0.00     0.074 A 
ATOM     59  C   UNL A   1      42.563  30.967  36.574  1.00  0.00     0.031 C 
ATOM     60  C   UNL A   1      42.901  29.401  34.681  1.00  0.00     0.037 A 
BRANCH  47  61
ATOM     61  C   UNL A   1      40.636  27.770  29.167  1.00  0.00     0.064 A 
ATOM     62  C   UNL A   1      39.803  26.646  29.047  1.00  0.00     0.173 A 
ATOM     63  C   UNL A   1      41.534  28.034  28.121  1.00  0.00     0.173 A 
ATOM     64  F   UNL A   1      38.935  26.343  30.024  1.00  0.00    -0.203 F 
ATOM     65  C   UNL A   1      39.890  25.804  27.942  1.00  0.00     0.198 A 
ATOM     66  C   UNL A   1      41.596  27.206  27.003  1.00  0.00     0.198 A 
ATOM     67  F   UNL A   1      42.347  29.098  28.181  1.00  0.00    -0.203 F 
ATOM     68  F   UNL A   1      39.120  24.708  27.876  1.00  0.00    -0.200 F 
ATOM     69  C   UNL A   1      40.780  26.088  26.918  1.00  0.00     0.200 A 
ATOM     70  F   UNL A   1      42.449  27.489  26.008  1.00  0.00    -0.200 F 
ATOM     71  F   UNL A   1      40.857  25.279  25.852  1.00  0.00    -0.200 F 
ENDBRANCH  47  61
BRANCH  48  72
ATOM     72  C   UNL A   1      39.556  33.901  36.970  1.00  0.00     0.064 A 
ATOM     73  C   UNL A   1      38.802  33.485  38.077  1.00  0.00     0.173 A 
ATOM     74  C   UNL A   1      40.137  35.176  37.016  1.00  0.00     0.173 A 
ATOM     75  F   UNL A   1      38.210  32.282  38.069  1.00  0.00    -0.203 F 
ATOM     76  C   UNL A   1      38.622  34.319  39.178  1.00  0.00     0.198 A 
ATOM     77  C   UNL A   1      39.978  35.998  38.130  1.00  0.00     0.198 A 
ATOM     78  F   UNL A   1      40.870  35.617  35.984  1.00  0.00    -0.203 F 
ATOM     79  F   UNL A   1      37.862  33.915  40.204  1.00  0.00    -0.200 F 
ATOM     80  C   UNL A   1      39.216  35.572  39.206  1.00  0.00     0.200 A 
ATOM     81  F   UNL A   1      40.563  37.204  38.159  1.00  0.00    -0.200 F 
ATOM     82  F   UNL A   1      39.045  36.373  40.267  1.00  0.00    -0.200 F 
ENDBRANCH  48  72
BRANCH  60  83
ATOM     83  C   UNL A   1      44.083  28.840  35.418  1.00  0.00     0.064 A 
ATOM     84  C   UNL A   1      43.947  27.784  36.331  1.00  0.00     0.173 A 
ATOM     85  C   UNL A   1      45.370  29.351  35.190  1.00  0.00     0.173 A 
ATOM     86  F   UNL A   1      42.735  27.272  36.594  1.00  0.00    -0.203 F 
ATOM     87  C   UNL A   1      45.052  27.280  37.011  1.00  0.00     0.198 A 
ATOM     88  C   UNL A   1      46.476  28.825  35.850  1.00  0.00     0.198 A 
ATOM     89  F   UNL A   1      45.555  30.357  34.322  1.00  0.00    -0.203 F 
ATOM     90  F   UNL A   1      44.891  26.306  37.917  1.00  0.00    -0.200 F 
ATOM     91  C   UNL A   1      46.316  27.796  36.767  1.00  0.00     0.200 A 
ATOM     92  F   UNL A   1      47.698  29.316  35.605  1.00  0.00    -0.200 F 
ATOM     93  F   UNL A   1      47.378  27.307  37.421  1.00  0.00    -0.200 F 
ENDBRANCH  60  83
ENDBRANCH  34  35
ENDBRANCH  26  29
ENDBRANCH  24  25
ENDBRANCH  23  24
ENDBRANCH   1  23
TORSDOF 14
ENDMDL
MODEL 3
REMARK VINA RESULT:     -11.6      5.773     11.236
REMARK SMILES C[C@H]1[C@H](C(=O)NCCCNC(=O)c2ccc(-c3c4nc(c(-c5c(F)c(F)c(F)c(F)c5F)c5ccc([nH]5)c(-c5c(F)c(F)c(F)c(F)c5F)c5nc(c(-c6c(F)c(F)c(F)c(F)c6F)c6ccc3[nH]6)C=C5)C=C4)cc2)CCN1C(=O)[C@](C)([NH3+])C1CC1
REMARK SMILES IDX 7 1 6 2 4 3 5 4 3 6 1 7 2 8 78 9 76 10 77 11 79 12 80 13
REMARK SMILES IDX 81 14 82 15 83 16 84 20 85 21 86 22 8 23 9 24 10 25 11 26
REMARK SMILES IDX 12 28 13 29 14 30 75 31 15 32 74 33 16 34 17 35 18 36 68 37
REMARK SMILES IDX 19 38 73 39 67 40 69 41 20 42 72 43 66 44 65 45 21 47 53 48
REMARK SMILES IDX 33 49 52 50 34 51 37 52 51 53 70 54 35 55 36 56 50 58 71 59
REMARK SMILES IDX 38 60 22 61 23 62 31 63 24 64 25 65 29 66 32 67 26 68 27 69
REMARK SMILES IDX 30 70 28 71 54 72 55 73 63 74 56 75 57 76 61 77 64 78 58 79
REMARK SMILES IDX 59 80 62 81 60 82 39 83 40 84 48 85 41 86 42 87 46 88 49 89
REMARK SMILES IDX 43 90 44 91 47 92 45 93
REMARK H PARENT 6 5 83 17 83 18 83 19 10 27 69 46 37 57
REMARK Flexibility Score: inf
ROOT
ATOM      1  C   UNL A   1      31.571  30.782  26.052  1.00  0.00     0.117 C 
ENDROOT
BRANCH   1   2
ATOM      2  N   UNL A   1      31.599  29.786  27.106  1.00  0.00    -0.356 N 
ATOM      3  C   UNL A   1      31.739  28.437  27.078  1.00  0.00     0.225 C 
ATOM      4  O   UNL A   1      31.699  27.854  28.166  1.00  0.00    -0.275 OA
ATOM      5  H   UNL A   1      31.497  30.158  28.011  1.00  0.00     0.163 HD
BRANCH   3   6
ATOM      6  C   UNL A   1      31.906  27.629  25.801  1.00  0.00     0.102 C 
ATOM      7  C   UNL A   1      33.814  26.195  25.032  1.00  0.00     0.032 C 
ATOM      8  C   UNL A   1      32.655  26.302  26.026  1.00  0.00     0.094 C 
ATOM      9  N   UNL A   1      31.663  25.266  25.769  1.00  0.00    -0.334 N 
ATOM     10  C   UNL A   1      30.609  27.287  25.069  1.00  0.00     0.037 C 
ATOM     11  C   UNL A   1      30.646  25.781  24.860  1.00  0.00     0.121 C 
BRANCH   9  12
ATOM     12  C   UNL A   1      31.560  23.978  26.240  1.00  0.00     0.284 C 
ATOM     13  O   UNL A   1      30.845  23.782  27.242  1.00  0.00    -0.268 OA
BRANCH  12  14
ATOM     14  C   UNL A   1      32.222  22.698  25.586  1.00  0.00     0.174 C 
ATOM     15  C   UNL A   1      31.980  22.774  24.073  1.00  0.00     0.090 C 
BRANCH  14  16
ATOM     16  N   UNL A   1      31.388  21.541  26.068  1.00  0.00    -0.345 N 
ATOM     17  H   UNL A   1      30.634  21.891  26.661  1.00  0.00     0.345 HD
ATOM     18  H   UNL A   1      31.973  20.900  26.604  1.00  0.00     0.345 HD
ATOM     19  H   UNL A   1      30.991  21.051  25.267  1.00  0.00     0.345 HD
ENDBRANCH  14  16
BRANCH  14  20
ATOM     20  C   UNL A   1      33.618  22.241  25.984  1.00  0.00     0.060 C 
ATOM     21  C   UNL A   1      34.418  23.011  27.031  1.00  0.00     0.011 C 
ATOM     22  C   UNL A   1      34.048  21.586  27.283  1.00  0.00     0.011 C 
ENDBRANCH  14  20
ENDBRANCH  12  14
ENDBRANCH   9  12
ENDBRANCH   3   6
ENDBRANCH   1   2
BRANCH   1  23
ATOM     23  C   UNL A   1      31.400  32.191  26.600  1.00  0.00     0.042 C 
BRANCH  23  24
ATOM     24  C   UNL A   1      32.680  32.837  27.112  1.00  0.00     0.118 C 
BRANCH  24  25
ATOM     25  N   UNL A   1      32.465  34.182  27.622  1.00  0.00    -0.352 N 
ATOM     26  C   UNL A   1      33.034  34.841  28.683  1.00  0.00     0.251 C 
ATOM     27  H   UNL A   1      31.800  34.708  27.123  1.00  0.00     0.163 HD
ATOM     28  O   UNL A   1      32.562  35.915  29.043  1.00  0.00    -0.269 OA
BRANCH  26  29
ATOM     29  C   UNL A   1      34.193  34.272  29.406  1.00  0.00     0.039 A 
ATOM     30  C   UNL A   1      33.954  33.544  30.577  1.00  0.00     0.014 A 
ATOM     31  C   UNL A   1      35.506  34.488  28.980  1.00  0.00     0.014 A 
ATOM     32  C   UNL A   1      35.023  32.989  31.283  1.00  0.00     0.010 A 
ATOM     33  C   UNL A   1      36.565  33.867  29.640  1.00  0.00     0.010 A 
ATOM     34  C   UNL A   1      36.336  33.118  30.803  1.00  0.00    -0.014 A 
BRANCH  34  35
ATOM     35  C   UNL A   1      37.474  32.475  31.506  1.00  0.00     0.031 A 
ATOM     36  C   UNL A   1      38.212  31.327  30.875  1.00  0.00     0.074 A 
ATOM     37  C   UNL A   1      37.807  32.891  32.743  1.00  0.00     0.049 A 
ATOM     38  N   UNL A   1      39.196  30.610  31.356  1.00  0.00    -0.248 NA
ATOM     39  C   UNL A   1      37.767  30.912  29.537  1.00  0.00     0.031 C 
ATOM     40  C   UNL A   1      37.131  33.956  33.487  1.00  0.00     0.029 A 
ATOM     41  N   UNL A   1      38.792  32.464  33.597  1.00  0.00    -0.354 N 
ATOM     42  C   UNL A   1      39.478  29.656  30.388  1.00  0.00     0.074 A 
ATOM     43  C   UNL A   1      38.526  29.849  29.315  1.00  0.00     0.031 C 
ATOM     44  C   UNL A   1      37.733  34.112  34.676  1.00  0.00     0.029 A 
ATOM     45  C   UNL A   1      38.816  33.139  34.793  1.00  0.00     0.049 A 
ATOM     46  H   UNL A   1      39.422  31.740  33.374  1.00  0.00     0.167 HD
ATOM     47  C   UNL A   1      40.459  28.721  30.381  1.00  0.00     0.037 A 
ATOM     48  C   UNL A   1      39.617  32.988  35.864  1.00  0.00     0.037 A 
ATOM     49  C   UNL A   1      41.418  28.545  31.440  1.00  0.00     0.049 A 
ATOM     50  C   UNL A   1      40.706  31.953  35.826  1.00  0.00     0.074 A 
ATOM     51  C   UNL A   1      42.482  27.661  31.505  1.00  0.00     0.029 A 
ATOM     52  N   UNL A   1      41.429  29.268  32.623  1.00  0.00    -0.354 N 
ATOM     53  N   UNL A   1      41.006  31.100  34.876  1.00  0.00    -0.248 NA
ATOM     54  C   UNL A   1      41.576  31.866  37.007  1.00  0.00     0.031 C 
ATOM     55  C   UNL A   1      43.112  27.823  32.743  1.00  0.00     0.029 A 
ATOM     56  C   UNL A   1      42.470  28.840  33.432  1.00  0.00     0.049 A 
ATOM     57  H   UNL A   1      40.790  29.981  32.855  1.00  0.00     0.167 HD
ATOM     58  C   UNL A   1      42.108  30.391  35.333  1.00  0.00     0.074 A 
ATOM     59  C   UNL A   1      42.437  30.928  36.637  1.00  0.00     0.031 C 
ATOM     60  C   UNL A   1      42.784  29.384  34.729  1.00  0.00     0.037 A 
BRANCH  47  61
ATOM     61  C   UNL A   1      40.546  27.819  29.184  1.00  0.00     0.064 A 
ATOM     62  C   UNL A   1      41.432  28.083  28.128  1.00  0.00     0.173 A 
ATOM     63  C   UNL A   1      39.758  26.660  29.102  1.00  0.00     0.173 A 
ATOM     64  F   UNL A   1      42.200  29.184  28.151  1.00  0.00    -0.203 F 
ATOM     65  C   UNL A   1      41.503  27.240  27.022  1.00  0.00     0.198 A 
ATOM     66  C   UNL A   1      39.854  25.804  28.008  1.00  0.00     0.198 A 
ATOM     67  F   UNL A   1      38.899  26.357  30.085  1.00  0.00    -0.203 F 
ATOM     68  F   UNL A   1      42.321  27.543  26.003  1.00  0.00    -0.200 F 
ATOM     69  C   UNL A   1      40.720  26.099  26.966  1.00  0.00     0.200 A 
ATOM     70  F   UNL A   1      39.104  24.694  27.961  1.00  0.00    -0.200 F 
ATOM     71  F   UNL A   1      40.794  25.286  25.903  1.00  0.00    -0.200 F 
ENDBRANCH  47  61
BRANCH  48  72
ATOM     72  C   UNL A   1      39.433  33.862  37.050  1.00  0.00     0.064 A 
ATOM     73  C   UNL A   1      39.987  35.149  37.090  1.00  0.00     0.173 A 
ATOM     74  C   UNL A   1      38.697  33.432  38.164  1.00  0.00     0.173 A 
ATOM     75  F   UNL A   1      40.715  35.595  36.056  1.00  0.00    -0.203 F 
ATOM     76  C   UNL A   1      39.826  35.967  38.205  1.00  0.00     0.198 A 
ATOM     77  C   UNL A   1      38.515  34.262  39.269  1.00  0.00     0.198 A 
ATOM     78  F   UNL A   1      38.145  32.210  38.173  1.00  0.00    -0.203 F 
ATOM     79  F   UNL A   1      40.401  37.177  38.235  1.00  0.00    -0.200 F 
ATOM     80  C   UNL A   1      39.085  35.525  39.291  1.00  0.00     0.200 A 
ATOM     81  F   UNL A   1      37.789  33.837  40.312  1.00  0.00    -0.200 F 
ATOM     82  F   UNL A   1      38.929  36.314  40.363  1.00  0.00    -0.200 F 
ENDBRANCH  48  72
BRANCH  60  83
ATOM     83  C   UNL A   1      43.961  28.813  35.465  1.00  0.00     0.064 A 
ATOM     84  C   UNL A   1      43.819  27.740  36.358  1.00  0.00     0.173 A 
ATOM     85  C   UNL A   1      45.248  29.330  35.257  1.00  0.00     0.173 A 
ATOM     86  F   UNL A   1      42.607  27.221  36.602  1.00  0.00    -0.203 F 
ATOM     87  C   UNL A   1      44.920  27.226  37.038  1.00  0.00     0.198 A 
ATOM     88  C   UNL A   1      46.350  28.795  35.917  1.00  0.00     0.198 A 
ATOM     89  F   UNL A   1      45.438  30.352  34.409  1.00  0.00    -0.203 F 
ATOM     90  F   UNL A   1      44.753  26.236  37.926  1.00  0.00    -0.200 F 
ATOM     91  C   UNL A   1      46.185  27.750  36.814  1.00  0.00     0.200 A 
ATOM     92  F   UNL A   1      47.573  29.293  35.691  1.00  0.00    -0.200 F 
ATOM     93  F   UNL A   1      47.243  27.252  37.469  1.00  0.00    -0.200 F 
ENDBRANCH  60  83
ENDBRANCH  34  35
ENDBRANCH  26  29
ENDBRANCH  24  25
ENDBRANCH  23  24
ENDBRANCH   1  23
TORSDOF 14
ENDMDL
