MODEL 1
REMARK VINA RESULT:     -12.4      0.000      0.000
REMARK SMILES CC[C@@H](C(=O)NCCCNC(=O)c1ccc(-c2c3nc(c(-c4c(F)c(F)c(F)c(F)c4F)c4ccc([nH]4)c(-c4c(F)c(F)c(F)c(F)c4F)c4nc(c(-c5c(F)c(F)c(F)c(F)c5F)c5ccc2[nH]5)C=C4)C=C3)cc1)N1C(=O)/C(=C/C(C)=C/c2ccccc2)SC1=S
REMARK SMILES IDX 7 1 6 2 4 3 5 4 3 6 2 7 1 8 76 9 77 10 91 11 78 12 79 13
REMARK SMILES IDX 90 14 92 15 80 16 81 17 82 18 83 19 84 20 85 21 89 22 86 23
REMARK SMILES IDX 88 24 87 25 8 26 9 27 10 28 11 29 12 31 13 32 14 33 75 34
REMARK SMILES IDX 15 35 74 36 16 37 17 38 18 39 68 40 19 41 73 42 67 43 69 44
REMARK SMILES IDX 20 45 72 46 66 47 65 48 21 50 53 51 33 52 52 53 34 54 37 55
REMARK SMILES IDX 51 56 70 57 35 58 36 59 50 61 71 62 38 63 22 64 23 65 31 66
REMARK SMILES IDX 24 67 25 68 29 69 32 70 26 71 27 72 30 73 28 74 54 75 55 76
REMARK SMILES IDX 63 77 56 78 57 79 61 80 64 81 58 82 59 83 62 84 60 85 39 86
REMARK SMILES IDX 40 87 48 88 41 89 42 90 46 91 49 92 43 93 44 94 47 95 45 96
REMARK H PARENT 6 5 10 30 69 49 37 60
REMARK Flexibility Score: inf
ROOT
ATOM      1  C   UNL A   1      31.537  26.767  26.895  1.00  0.00     0.117 C 
ENDROOT
BRANCH   1   2
ATOM      2  N   UNL A   1      30.846  27.000  25.635  1.00  0.00    -0.354 N 
ATOM      3  C   UNL A   1      31.310  27.152  24.359  1.00  0.00     0.243 C 
ATOM      4  O   UNL A   1      30.507  27.566  23.515  1.00  0.00    -0.273 OA
ATOM      5  H   UNL A   1      29.866  27.058  25.718  1.00  0.00     0.163 HD
BRANCH   3   6
ATOM      6  C   UNL A   1      32.798  26.911  24.013  1.00  0.00     0.181 C 
BRANCH   6   7
ATOM      7  C   UNL A   1      33.032  27.705  22.688  1.00  0.00     0.032 C 
ATOM      8  C   UNL A   1      34.075  28.806  22.785  1.00  0.00     0.006 C 
ENDBRANCH   6   7
BRANCH   6   9
ATOM      9  N   UNL A   1      33.138  25.477  23.779  1.00  0.00    -0.280 N 
ATOM     10  C   UNL A   1      34.008  24.759  24.583  1.00  0.00     0.266 C 
ATOM     11  C   UNL A   1      32.898  24.839  22.580  1.00  0.00     0.149 C 
ATOM     12  O   UNL A   1      34.823  25.227  25.376  1.00  0.00    -0.268 OA
ATOM     13  C   UNL A   1      33.950  23.296  24.243  1.00  0.00     0.080 C 
ATOM     14  S   UNL A   1      33.002  23.115  22.824  1.00  0.00    -0.054 SA
ATOM     15  S   UNL A   1      32.606  25.499  21.072  1.00  0.00    -0.052 S 
ATOM     16  C   UNL A   1      34.573  22.354  24.974  1.00  0.00     0.024 C 
BRANCH  16  17
ATOM     17  C   UNL A   1      34.598  20.882  24.860  1.00  0.00    -0.049 C 
ATOM     18  C   UNL A   1      35.975  20.278  25.034  1.00  0.00     0.044 C 
ATOM     19  C   UNL A   1      33.516  20.130  24.565  1.00  0.00     0.011 C 
BRANCH  19  20
ATOM     20  C   UNL A   1      33.318  18.667  24.527  1.00  0.00    -0.025 A 
ATOM     21  C   UNL A   1      32.781  18.054  25.670  1.00  0.00     0.008 A 
ATOM     22  C   UNL A   1      33.796  17.849  23.497  1.00  0.00     0.008 A 
ATOM     23  C   UNL A   1      32.701  16.663  25.772  1.00  0.00     0.001 A 
ATOM     24  C   UNL A   1      33.703  16.456  23.592  1.00  0.00     0.001 A 
ATOM     25  C   UNL A   1      33.160  15.864  24.730  1.00  0.00     0.000 A 
ENDBRANCH  19  20
ENDBRANCH  16  17
ENDBRANCH   6   9
ENDBRANCH   3   6
ENDBRANCH   1   2
BRANCH   1  26
ATOM     26  C   UNL A   1      31.932  28.079  27.577  1.00  0.00     0.042 C 
BRANCH  26  27
ATOM     27  C   UNL A   1      33.354  28.550  27.283  1.00  0.00     0.118 C 
BRANCH  27  28
ATOM     28  N   UNL A   1      33.450  29.997  27.192  1.00  0.00    -0.352 N 
ATOM     29  C   UNL A   1      34.425  30.850  27.652  1.00  0.00     0.251 C 
ATOM     30  H   UNL A   1      32.701  30.435  26.727  1.00  0.00     0.163 HD
ATOM     31  O   UNL A   1      34.215  32.060  27.638  1.00  0.00    -0.269 OA
BRANCH  29  32
ATOM     32  C   UNL A   1      35.717  30.345  28.182  1.00  0.00     0.039 A 
ATOM     33  C   UNL A   1      36.852  30.431  27.367  1.00  0.00     0.014 A 
ATOM     34  C   UNL A   1      35.818  29.727  29.432  1.00  0.00     0.014 A 
ATOM     35  C   UNL A   1      38.084  29.946  27.819  1.00  0.00     0.010 A 
ATOM     36  C   UNL A   1      37.061  29.306  29.911  1.00  0.00     0.010 A 
ATOM     37  C   UNL A   1      38.207  29.398  29.105  1.00  0.00    -0.014 A 
BRANCH  37  38
ATOM     38  C   UNL A   1      39.514  28.894  29.606  1.00  0.00     0.031 A 
ATOM     39  C   UNL A   1      40.286  29.674  30.637  1.00  0.00     0.074 A 
ATOM     40  C   UNL A   1      40.036  27.758  29.102  1.00  0.00     0.049 A 
ATOM     41  N   UNL A   1      41.467  29.430  31.150  1.00  0.00    -0.248 NA
ATOM     42  C   UNL A   1      39.658  30.904  31.141  1.00  0.00     0.031 C 
ATOM     43  C   UNL A   1      39.415  26.927  28.071  1.00  0.00     0.029 A 
ATOM     44  N   UNL A   1      41.214  27.111  29.386  1.00  0.00    -0.354 N 
ATOM     45  C   UNL A   1      41.731  30.485  32.015  1.00  0.00     0.074 A 
ATOM     46  C   UNL A   1      40.607  31.393  31.927  1.00  0.00     0.031 C 
ATOM     47  C   UNL A   1      40.208  25.872  27.820  1.00  0.00     0.029 A 
ATOM     48  C   UNL A   1      41.407  25.968  28.648  1.00  0.00     0.049 A 
ATOM     49  H   UNL A   1      41.860  27.436  30.053  1.00  0.00     0.167 HD
ATOM     50  C   UNL A   1      42.801  30.670  32.824  1.00  0.00     0.037 A 
ATOM     51  C   UNL A   1      42.435  25.097  28.637  1.00  0.00     0.037 A 
ATOM     52  C   UNL A   1      43.901  29.750  32.946  1.00  0.00     0.049 A 
ATOM     53  C   UNL A   1      43.603  25.317  29.559  1.00  0.00     0.074 A 
ATOM     54  C   UNL A   1      44.995  29.819  33.792  1.00  0.00     0.029 A 
ATOM     55  N   UNL A   1      44.045  28.590  32.202  1.00  0.00    -0.354 N 
ATOM     56  N   UNL A   1      43.809  26.286  30.417  1.00  0.00    -0.248 NA
ATOM     57  C   UNL A   1      44.679  24.316  29.515  1.00  0.00     0.031 C 
ATOM     58  C   UNL A   1      45.819  28.719  33.534  1.00  0.00     0.029 A 
ATOM     59  C   UNL A   1      45.218  27.943  32.557  1.00  0.00     0.049 A 
ATOM     60  H   UNL A   1      43.407  28.272  31.521  1.00  0.00     0.167 HD
ATOM     61  C   UNL A   1      45.020  25.999  31.031  1.00  0.00     0.074 A 
ATOM     62  C   UNL A   1      45.499  24.759  30.459  1.00  0.00     0.031 C 
ATOM     63  C   UNL A   1      45.678  26.703  31.984  1.00  0.00     0.037 A 
BRANCH  50  64
ATOM     64  C   UNL A   1      42.834  31.922  33.653  1.00  0.00     0.064 A 
ATOM     65  C   UNL A   1      43.438  33.098  33.182  1.00  0.00     0.173 A 
ATOM     66  C   UNL A   1      42.220  31.958  34.913  1.00  0.00     0.173 A 
ATOM     67  F   UNL A   1      44.049  33.112  31.988  1.00  0.00    -0.203 F 
ATOM     68  C   UNL A   1      43.449  34.256  33.956  1.00  0.00     0.198 A 
ATOM     69  C   UNL A   1      42.208  33.125  35.672  1.00  0.00     0.198 A 
ATOM     70  F   UNL A   1      41.621  30.863  35.405  1.00  0.00    -0.203 F 
ATOM     71  F   UNL A   1      44.072  35.354  33.506  1.00  0.00    -0.200 F 
ATOM     72  C   UNL A   1      42.830  34.271  35.197  1.00  0.00     0.200 A 
ATOM     73  F   UNL A   1      41.599  33.142  36.865  1.00  0.00    -0.200 F 
ATOM     74  F   UNL A   1      42.836  35.388  35.937  1.00  0.00    -0.200 F 
ENDBRANCH  50  64
BRANCH  51  75
ATOM     75  C   UNL A   1      42.394  23.917  27.735  1.00  0.00     0.064 A 
ATOM     76  C   UNL A   1      41.948  22.673  28.201  1.00  0.00     0.173 A 
ATOM     77  C   UNL A   1      42.800  24.008  26.397  1.00  0.00     0.173 A 
ATOM     78  F   UNL A   1      41.572  22.533  29.481  1.00  0.00    -0.203 F 
ATOM     79  C   UNL A   1      41.927  21.558  27.366  1.00  0.00     0.198 A 
ATOM     80  C   UNL A   1      42.755  22.898  25.555  1.00  0.00     0.198 A 
ATOM     81  F   UNL A   1      43.232  25.178  25.902  1.00  0.00    -0.203 F 
ATOM     82  F   UNL A   1      41.536  20.370  27.847  1.00  0.00    -0.200 F 
ATOM     83  C   UNL A   1      42.324  21.673  26.042  1.00  0.00     0.200 A 
ATOM     84  F   UNL A   1      43.128  23.015  24.273  1.00  0.00    -0.200 F 
ATOM     85  F   UNL A   1      42.300  20.602  25.238  1.00  0.00    -0.200 F 
ENDBRANCH  51  75
BRANCH  63  86
ATOM     86  C   UNL A   1      46.969  26.136  32.492  1.00  0.00     0.064 A 
ATOM     87  C   UNL A   1      48.198  26.472  31.906  1.00  0.00     0.173 A 
ATOM     88  C   UNL A   1      46.981  25.277  33.602  1.00  0.00     0.173 A 
ATOM     89  F   UNL A   1      48.238  27.276  30.834  1.00  0.00    -0.203 F 
ATOM     90  C   UNL A   1      49.392  25.951  32.401  1.00  0.00     0.198 A 
ATOM     91  C   UNL A   1      48.178  24.779  34.109  1.00  0.00     0.198 A 
ATOM     92  F   UNL A   1      45.832  24.930  34.200  1.00  0.00    -0.203 F 
ATOM     93  F   UNL A   1      50.552  26.252  31.801  1.00  0.00    -0.200 F 
ATOM     94  C   UNL A   1      49.381  25.111  33.504  1.00  0.00     0.200 A 
ATOM     95  F   UNL A   1      48.167  23.975  35.182  1.00  0.00    -0.200 F 
ATOM     96  F   UNL A   1      50.530  24.615  33.982  1.00  0.00    -0.200 F 
ENDBRANCH  63  86
ENDBRANCH  37  38
ENDBRANCH  29  32
ENDBRANCH  27  28
ENDBRANCH  26  27
ENDBRANCH   1  26
TORSDOF 14
ENDMDL
MODEL 2
REMARK VINA RESULT:     -12.4      2.340      3.415
REMARK SMILES CC[C@@H](C(=O)NCCCNC(=O)c1ccc(-c2c3nc(c(-c4c(F)c(F)c(F)c(F)c4F)c4ccc([nH]4)c(-c4c(F)c(F)c(F)c(F)c4F)c4nc(c(-c5c(F)c(F)c(F)c(F)c5F)c5ccc2[nH]5)C=C4)C=C3)cc1)N1C(=O)/C(=C/C(C)=C/c2ccccc2)SC1=S
REMARK SMILES IDX 7 1 6 2 4 3 5 4 3 6 2 7 1 8 76 9 77 10 91 11 78 12 79 13
REMARK SMILES IDX 90 14 92 15 80 16 81 17 82 18 83 19 84 20 85 21 89 22 86 23
REMARK SMILES IDX 88 24 87 25 8 26 9 27 10 28 11 29 12 31 13 32 14 33 75 34
REMARK SMILES IDX 15 35 74 36 16 37 17 38 18 39 68 40 19 41 73 42 67 43 69 44
REMARK SMILES IDX 20 45 72 46 66 47 65 48 21 50 53 51 33 52 52 53 34 54 37 55
REMARK SMILES IDX 51 56 70 57 35 58 36 59 50 61 71 62 38 63 22 64 23 65 31 66
REMARK SMILES IDX 24 67 25 68 29 69 32 70 26 71 27 72 30 73 28 74 54 75 55 76
REMARK SMILES IDX 63 77 56 78 57 79 61 80 64 81 58 82 59 83 62 84 60 85 39 86
REMARK SMILES IDX 40 87 48 88 41 89 42 90 46 91 49 92 43 93 44 94 47 95 45 96
REMARK H PARENT 6 5 10 30 69 49 37 60
REMARK Flexibility Score: inf
ROOT
ATOM      1  C   UNL A   1      33.407  28.869  26.028  1.00  0.00     0.117 C 
ENDROOT
BRANCH   1   2
ATOM      2  N   UNL A   1      32.391  28.001  26.608  1.00  0.00    -0.354 N 
ATOM      3  C   UNL A   1      31.510  27.127  26.038  1.00  0.00     0.243 C 
ATOM      4  O   UNL A   1      30.605  26.691  26.758  1.00  0.00    -0.273 OA
ATOM      5  H   UNL A   1      32.329  28.054  27.590  1.00  0.00     0.163 HD
BRANCH   3   6
ATOM      6  C   UNL A   1      31.587  26.778  24.533  1.00  0.00     0.181 C 
BRANCH   6   7
ATOM      7  C   UNL A   1      30.101  26.751  24.053  1.00  0.00     0.032 C 
ATOM      8  C   UNL A   1      29.670  27.971  23.255  1.00  0.00     0.006 C 
ENDBRANCH   6   7
BRANCH   6   9
ATOM      9  N   UNL A   1      32.205  25.449  24.253  1.00  0.00    -0.280 N 
ATOM     10  C   UNL A   1      33.005  24.774  25.160  1.00  0.00     0.266 C 
ATOM     11  C   UNL A   1      32.322  24.934  22.979  1.00  0.00     0.149 C 
ATOM     12  O   UNL A   1      33.554  25.256  26.150  1.00  0.00    -0.268 OA
ATOM     13  C   UNL A   1      33.265  23.371  24.688  1.00  0.00     0.080 C 
ATOM     14  S   UNL A   1      32.665  23.227  23.086  1.00  0.00    -0.054 SA
ATOM     15  S   UNL A   1      32.231  25.723  21.508  1.00  0.00    -0.052 S 
ATOM     16  C   UNL A   1      33.880  22.449  25.450  1.00  0.00     0.024 C 
BRANCH  16  17
ATOM     17  C   UNL A   1      34.176  21.021  25.215  1.00  0.00    -0.049 C 
ATOM     18  C   UNL A   1      35.652  20.720  25.065  1.00  0.00     0.044 C 
ATOM     19  C   UNL A   1      33.230  20.067  25.078  1.00  0.00     0.011 C 
BRANCH  19  20
ATOM     20  C   UNL A   1      33.327  18.599  24.961  1.00  0.00    -0.025 A 
ATOM     21  C   UNL A   1      33.716  18.070  23.719  1.00  0.00     0.008 A 
ATOM     22  C   UNL A   1      32.887  17.712  25.950  1.00  0.00     0.008 A 
ATOM     23  C   UNL A   1      33.689  16.695  23.480  1.00  0.00     0.001 A 
ATOM     24  C   UNL A   1      32.873  16.333  25.716  1.00  0.00     0.001 A 
ATOM     25  C   UNL A   1      33.270  15.825  24.481  1.00  0.00     0.000 A 
ENDBRANCH  19  20
ENDBRANCH  16  17
ENDBRANCH   6   9
ENDBRANCH   3   6
ENDBRANCH   1   2
BRANCH   1  26
ATOM     26  C   UNL A   1      32.865  30.273  25.755  1.00  0.00     0.042 C 
BRANCH  26  27
ATOM     27  C   UNL A   1      32.229  30.959  26.962  1.00  0.00     0.118 C 
BRANCH  27  28
ATOM     28  N   UNL A   1      32.445  32.396  26.959  1.00  0.00    -0.352 N 
ATOM     29  C   UNL A   1      33.383  33.152  27.621  1.00  0.00     0.251 C 
ATOM     30  H   UNL A   1      31.822  32.908  26.394  1.00  0.00     0.163 HD
ATOM     31  O   UNL A   1      33.266  34.374  27.631  1.00  0.00    -0.269 OA
BRANCH  29  32
ATOM     32  C   UNL A   1      34.522  32.526  28.340  1.00  0.00     0.039 A 
ATOM     33  C   UNL A   1      35.781  33.130  28.247  1.00  0.00     0.014 A 
ATOM     34  C   UNL A   1      34.390  31.325  29.041  1.00  0.00     0.014 A 
ATOM     35  C   UNL A   1      36.886  32.560  28.891  1.00  0.00     0.010 A 
ATOM     36  C   UNL A   1      35.476  30.794  29.741  1.00  0.00     0.010 A 
ATOM     37  C   UNL A   1      36.740  31.398  29.664  1.00  0.00    -0.014 A 
BRANCH  37  38
ATOM     38  C   UNL A   1      37.902  30.790  30.368  1.00  0.00     0.031 A 
ATOM     39  C   UNL A   1      38.200  31.154  31.798  1.00  0.00     0.074 A 
ATOM     40  C   UNL A   1      38.723  29.947  29.710  1.00  0.00     0.049 A 
ATOM     41  N   UNL A   1      39.198  30.779  32.560  1.00  0.00    -0.248 NA
ATOM     42  C   UNL A   1      37.265  32.081  32.453  1.00  0.00     0.031 C 
ATOM     43  C   UNL A   1      38.576  29.543  28.312  1.00  0.00     0.029 A 
ATOM     44  N   UNL A   1      39.851  29.286  30.131  1.00  0.00    -0.354 N 
ATOM     45  C   UNL A   1      39.023  31.440  33.769  1.00  0.00     0.074 A 
ATOM     46  C   UNL A   1      37.848  32.272  33.627  1.00  0.00     0.031 C 
ATOM     47  C   UNL A   1      39.564  28.690  27.995  1.00  0.00     0.029 A 
ATOM     48  C   UNL A   1      40.432  28.512  29.156  1.00  0.00     0.049 A 
ATOM     49  H   UNL A   1      40.209  29.359  31.044  1.00  0.00     0.167 HD
ATOM     50  C   UNL A   1      39.761  31.347  34.901  1.00  0.00     0.037 A 
ATOM     51  C   UNL A   1      41.540  27.747  29.191  1.00  0.00     0.037 A 
ATOM     52  C   UNL A   1      40.906  30.489  35.060  1.00  0.00     0.049 A 
ATOM     53  C   UNL A   1      42.333  27.647  30.466  1.00  0.00     0.074 A 
ATOM     54  C   UNL A   1      41.674  30.275  36.192  1.00  0.00     0.029 A 
ATOM     55  N   UNL A   1      41.446  29.700  34.057  1.00  0.00    -0.354 N 
ATOM     56  N   UNL A   1      42.118  28.229  31.621  1.00  0.00    -0.248 NA
ATOM     57  C   UNL A   1      43.516  26.776  30.445  1.00  0.00     0.031 C 
ATOM     58  C   UNL A   1      42.700  29.384  35.864  1.00  0.00     0.029 A 
ATOM     59  C   UNL A   1      42.547  29.011  34.539  1.00  0.00     0.049 A 
ATOM     60  H   UNL A   1      41.098  29.638  33.137  1.00  0.00     0.167 HD
ATOM     61  C   UNL A   1      43.122  27.777  32.467  1.00  0.00     0.074 A 
ATOM     62  C   UNL A   1      43.938  26.861  31.699  1.00  0.00     0.031 C 
ATOM     63  C   UNL A   1      43.346  28.095  33.765  1.00  0.00     0.037 A 
BRANCH  50  64
ATOM     64  C   UNL A   1      39.349  32.195  36.068  1.00  0.00     0.064 A 
ATOM     65  C   UNL A   1      38.390  31.754  36.994  1.00  0.00     0.173 A 
ATOM     66  C   UNL A   1      39.947  33.444  36.288  1.00  0.00     0.173 A 
ATOM     67  F   UNL A   1      37.781  30.571  36.823  1.00  0.00    -0.203 F 
ATOM     68  C   UNL A   1      38.028  32.546  38.081  1.00  0.00     0.198 A 
ATOM     69  C   UNL A   1      39.602  34.221  37.391  1.00  0.00     0.198 A 
ATOM     70  F   UNL A   1      40.875  33.908  35.438  1.00  0.00    -0.203 F 
ATOM     71  F   UNL A   1      37.077  32.124  38.927  1.00  0.00    -0.200 F 
ATOM     72  C   UNL A   1      38.637  33.775  38.282  1.00  0.00     0.200 A 
ATOM     73  F   UNL A   1      40.201  35.403  37.591  1.00  0.00    -0.200 F 
ATOM     74  F   UNL A   1      38.290  34.533  39.331  1.00  0.00    -0.200 F 
ENDBRANCH  50  64
BRANCH  51  75
ATOM     75  C   UNL A   1      41.957  26.992  27.981  1.00  0.00     0.064 A 
ATOM     76  C   UNL A   1      41.494  25.689  27.754  1.00  0.00     0.173 A 
ATOM     77  C   UNL A   1      42.823  27.554  27.033  1.00  0.00     0.173 A 
ATOM     78  F   UNL A   1      40.682  25.102  28.646  1.00  0.00    -0.203 F 
ATOM     79  C   UNL A   1      41.897  24.968  26.631  1.00  0.00     0.198 A 
ATOM     80  C   UNL A   1      43.205  26.841  25.898  1.00  0.00     0.198 A 
ATOM     81  F   UNL A   1      43.290  28.799  27.203  1.00  0.00    -0.203 F 
ATOM     82  F   UNL A   1      41.473  23.709  26.459  1.00  0.00    -0.200 F 
ATOM     83  C   UNL A   1      42.747  25.547  25.702  1.00  0.00     0.200 A 
ATOM     84  F   UNL A   1      44.017  27.408  24.994  1.00  0.00    -0.200 F 
ATOM     85  F   UNL A   1      43.131  24.856  24.620  1.00  0.00    -0.200 F 
ENDBRANCH  51  75
BRANCH  63  86
ATOM     86  C   UNL A   1      44.501  27.426  34.448  1.00  0.00     0.064 A 
ATOM     87  C   UNL A   1      45.763  28.034  34.520  1.00  0.00     0.173 A 
ATOM     88  C   UNL A   1      44.334  26.181  35.071  1.00  0.00     0.173 A 
ATOM     89  F   UNL A   1      45.977  29.217  33.925  1.00  0.00    -0.203 F 
ATOM     90  C   UNL A   1      46.821  27.409  35.174  1.00  0.00     0.198 A 
ATOM     91  C   UNL A   1      45.387  25.570  35.746  1.00  0.00     0.198 A 
ATOM     92  F   UNL A   1      43.145  25.560  35.035  1.00  0.00    -0.203 F 
ATOM     93  F   UNL A   1      48.030  27.988  35.195  1.00  0.00    -0.200 F 
ATOM     94  C   UNL A   1      46.631  26.181  35.791  1.00  0.00     0.200 A 
ATOM     95  F   UNL A   1      45.200  24.388  36.351  1.00  0.00    -0.200 F 
ATOM     96  F   UNL A   1      47.650  25.583  36.425  1.00  0.00    -0.200 F 
ENDBRANCH  63  86
ENDBRANCH  37  38
ENDBRANCH  29  32
ENDBRANCH  27  28
ENDBRANCH  26  27
ENDBRANCH   1  26
TORSDOF 14
ENDMDL
MODEL 3
REMARK VINA RESULT:     -12.1      2.427      7.536
REMARK SMILES CC[C@@H](C(=O)NCCCNC(=O)c1ccc(-c2c3nc(c(-c4c(F)c(F)c(F)c(F)c4F)c4ccc([nH]4)c(-c4c(F)c(F)c(F)c(F)c4F)c4nc(c(-c5c(F)c(F)c(F)c(F)c5F)c5ccc2[nH]5)C=C4)C=C3)cc1)N1C(=O)/C(=C/C(C)=C/c2ccccc2)SC1=S
REMARK SMILES IDX 7 1 6 2 4 3 5 4 3 6 2 7 1 8 76 9 77 10 91 11 78 12 79 13
REMARK SMILES IDX 90 14 92 15 80 16 81 17 82 18 83 19 84 20 85 21 89 22 86 23
REMARK SMILES IDX 88 24 87 25 8 26 9 27 10 28 11 29 12 31 13 32 14 33 75 34
REMARK SMILES IDX 15 35 74 36 16 37 17 38 18 39 68 40 19 41 73 42 67 43 69 44
REMARK SMILES IDX 20 45 72 46 66 47 65 48 21 50 53 51 33 52 52 53 34 54 37 55
REMARK SMILES IDX 51 56 70 57 35 58 36 59 50 61 71 62 38 63 22 64 23 65 31 66
REMARK SMILES IDX 24 67 25 68 29 69 32 70 26 71 27 72 30 73 28 74 54 75 55 76
REMARK SMILES IDX 63 77 56 78 57 79 61 80 64 81 58 82 59 83 62 84 60 85 39 86
REMARK SMILES IDX 40 87 48 88 41 89 42 90 46 91 49 92 43 93 44 94 47 95 45 96
REMARK H PARENT 6 5 10 30 69 49 37 60
REMARK Flexibility Score: inf
ROOT
ATOM      1  C   UNL A   1      33.696  28.636  26.129  1.00  0.00     0.117 C 
ENDROOT
BRANCH   1   2
ATOM      2  N   UNL A   1      32.587  27.887  26.704  1.00  0.00    -0.354 N 
ATOM      3  C   UNL A   1      31.606  27.132  26.128  1.00  0.00     0.243 C 
ATOM      4  O   UNL A   1      30.659  26.797  26.848  1.00  0.00    -0.273 OA
ATOM      5  H   UNL A   1      32.536  27.934  27.686  1.00  0.00     0.163 HD
BRANCH   3   6
ATOM      6  C   UNL A   1      31.634  26.796  24.618  1.00  0.00     0.181 C 
BRANCH   6   7
ATOM      7  C   UNL A   1      30.132  26.771  24.187  1.00  0.00     0.032 C 
ATOM      8  C   UNL A   1      29.735  27.863  23.210  1.00  0.00     0.006 C 
ENDBRANCH   6   7
BRANCH   6   9
ATOM      9  N   UNL A   1      32.245  25.471  24.305  1.00  0.00    -0.280 N 
ATOM     10  C   UNL A   1      32.901  24.693  25.246  1.00  0.00     0.266 C 
ATOM     11  C   UNL A   1      32.513  25.059  23.017  1.00  0.00     0.149 C 
ATOM     12  O   UNL A   1      33.329  25.071  26.335  1.00  0.00    -0.268 OA
ATOM     13  C   UNL A   1      33.180  23.325  24.691  1.00  0.00     0.080 C 
ATOM     14  S   UNL A   1      32.791  23.337  23.020  1.00  0.00    -0.054 SA
ATOM     15  S   UNL A   1      32.637  25.969  21.620  1.00  0.00    -0.052 S 
ATOM     16  C   UNL A   1      33.663  22.320  25.443  1.00  0.00     0.024 C 
BRANCH  16  17
ATOM     17  C   UNL A   1      33.947  20.906  25.125  1.00  0.00    -0.049 C 
ATOM     18  C   UNL A   1      35.423  20.592  25.000  1.00  0.00     0.044 C 
ATOM     19  C   UNL A   1      32.993  19.977  24.900  1.00  0.00     0.011 C 
BRANCH  19  20
ATOM     20  C   UNL A   1      33.074  18.518  24.691  1.00  0.00    -0.025 A 
ATOM     21  C   UNL A   1      32.715  17.687  25.764  1.00  0.00     0.008 A 
ATOM     22  C   UNL A   1      33.650  17.929  23.560  1.00  0.00     0.008 A 
ATOM     23  C   UNL A   1      32.904  16.305  25.702  1.00  0.00     0.001 A 
ATOM     24  C   UNL A   1      33.827  16.543  23.490  1.00  0.00     0.001 A 
ATOM     25  C   UNL A   1      33.457  15.732  24.561  1.00  0.00     0.000 A 
ENDBRANCH  19  20
ENDBRANCH  16  17
ENDBRANCH   6   9
ENDBRANCH   3   6
ENDBRANCH   1   2
BRANCH   1  26
ATOM     26  C   UNL A   1      33.312  30.090  25.846  1.00  0.00     0.042 C 
BRANCH  26  27
ATOM     27  C   UNL A   1      32.385  30.720  26.881  1.00  0.00     0.118 C 
BRANCH  27  28
ATOM     28  N   UNL A   1      32.475  32.170  26.895  1.00  0.00    -0.352 N 
ATOM     29  C   UNL A   1      33.320  32.998  27.596  1.00  0.00     0.251 C 
ATOM     30  H   UNL A   1      31.831  32.632  26.311  1.00  0.00     0.163 HD
ATOM     31  O   UNL A   1      33.098  34.205  27.610  1.00  0.00    -0.269 OA
BRANCH  29  32
ATOM     32  C   UNL A   1      34.482  32.466  28.353  1.00  0.00     0.039 A 
ATOM     33  C   UNL A   1      35.713  33.121  28.231  1.00  0.00     0.014 A 
ATOM     34  C   UNL A   1      34.401  31.300  29.119  1.00  0.00     0.014 A 
ATOM     35  C   UNL A   1      36.839  32.639  28.909  1.00  0.00     0.010 A 
ATOM     36  C   UNL A   1      35.506  30.859  29.851  1.00  0.00     0.010 A 
ATOM     37  C   UNL A   1      36.742  31.516  29.744  1.00  0.00    -0.014 A 
BRANCH  37  38
ATOM     38  C   UNL A   1      37.927  31.002  30.485  1.00  0.00     0.031 A 
ATOM     39  C   UNL A   1      38.884  30.048  29.821  1.00  0.00     0.074 A 
ATOM     40  C   UNL A   1      38.120  31.352  31.772  1.00  0.00     0.049 A 
ATOM     41  N   UNL A   1      39.935  29.445  30.319  1.00  0.00    -0.248 NA
ATOM     42  C   UNL A   1      38.610  29.708  28.417  1.00  0.00     0.031 C 
ATOM     43  C   UNL A   1      37.249  32.234  32.549  1.00  0.00     0.029 A 
ATOM     44  N   UNL A   1      39.111  31.000  32.656  1.00  0.00    -0.354 N 
ATOM     45  C   UNL A   1      40.430  28.640  29.301  1.00  0.00     0.074 A 
ATOM     46  C   UNL A   1      39.542  28.798  28.170  1.00  0.00     0.031 C 
ATOM     47  C   UNL A   1      37.751  32.368  33.787  1.00  0.00     0.029 A 
ATOM     48  C   UNL A   1      38.961  31.558  33.902  1.00  0.00     0.049 A 
ATOM     49  H   UNL A   1      39.857  30.404  32.419  1.00  0.00     0.167 HD
ATOM     50  C   UNL A   1      41.536  27.857  29.301  1.00  0.00     0.037 A 
ATOM     51  C   UNL A   1      39.712  31.430  35.014  1.00  0.00     0.037 A 
ATOM     52  C   UNL A   1      42.445  27.729  30.409  1.00  0.00     0.049 A 
ATOM     53  C   UNL A   1      40.945  30.568  34.982  1.00  0.00     0.074 A 
ATOM     54  C   UNL A   1      43.629  27.015  30.477  1.00  0.00     0.029 A 
ATOM     55  N   UNL A   1      42.273  28.334  31.645  1.00  0.00    -0.354 N 
ATOM     56  N   UNL A   1      41.435  29.863  33.991  1.00  0.00    -0.248 NA
ATOM     57  C   UNL A   1      41.733  30.492  36.220  1.00  0.00     0.031 C 
ATOM     58  C   UNL A   1      44.155  27.159  31.764  1.00  0.00     0.029 A 
ATOM     59  C   UNL A   1      43.320  27.995  32.486  1.00  0.00     0.049 A 
ATOM     60  H   UNL A   1      41.518  28.918  31.888  1.00  0.00     0.167 HD
ATOM     61  C   UNL A   1      42.598  29.282  34.478  1.00  0.00     0.074 A 
ATOM     62  C   UNL A   1      42.749  29.726  35.847  1.00  0.00     0.031 C 
ATOM     63  C   UNL A   1      43.462  28.452  33.845  1.00  0.00     0.037 A 
BRANCH  50  64
ATOM     64  C   UNL A   1      41.830  27.076  28.054  1.00  0.00     0.064 A 
ATOM     65  C   UNL A   1      42.724  27.553  27.082  1.00  0.00     0.173 A 
ATOM     66  C   UNL A   1      41.246  25.818  27.847  1.00  0.00     0.173 A 
ATOM     67  F   UNL A   1      43.301  28.755  27.228  1.00  0.00    -0.203 F 
ATOM     68  C   UNL A   1      42.999  26.810  25.937  1.00  0.00     0.198 A 
ATOM     69  C   UNL A   1      41.544  25.065  26.714  1.00  0.00     0.198 A 
ATOM     70  F   UNL A   1      40.392  25.312  28.749  1.00  0.00    -0.203 F 
ATOM     71  F   UNL A   1      43.820  27.306  25.000  1.00  0.00    -0.200 F 
ATOM     72  C   UNL A   1      42.414  25.566  25.756  1.00  0.00     0.200 A 
ATOM     73  F   UNL A   1      40.989  23.858  26.546  1.00  0.00    -0.200 F 
ATOM     74  F   UNL A   1      42.684  24.850  24.655  1.00  0.00    -0.200 F 
ENDBRANCH  50  64
BRANCH  51  75
ATOM     75  C   UNL A   1      39.330  32.158  36.251  1.00  0.00     0.064 A 
ATOM     76  C   UNL A   1      38.370  31.631  37.127  1.00  0.00     0.173 A 
ATOM     77  C   UNL A   1      39.911  33.389  36.583  1.00  0.00     0.173 A 
ATOM     78  F   UNL A   1      37.770  30.466  36.840  1.00  0.00    -0.203 F 
ATOM     79  C   UNL A   1      37.993  32.318  38.279  1.00  0.00     0.198 A 
ATOM     80  C   UNL A   1      39.552  34.063  37.748  1.00  0.00     0.198 A 
ATOM     81  F   UNL A   1      40.837  33.934  35.779  1.00  0.00    -0.203 F 
ATOM     82  F   UNL A   1      37.044  31.812  39.077  1.00  0.00    -0.200 F 
ATOM     83  C   UNL A   1      38.589  33.530  38.591  1.00  0.00     0.200 A 
ATOM     84  F   UNL A   1      40.138  35.230  38.053  1.00  0.00    -0.200 F 
ATOM     85  F   UNL A   1      38.230  34.189  39.701  1.00  0.00    -0.200 F 
ENDBRANCH  51  75
BRANCH  63  86
ATOM     86  C   UNL A   1      44.665  27.994  34.614  1.00  0.00     0.064 A 
ATOM     87  C   UNL A   1      44.655  26.799  35.349  1.00  0.00     0.173 A 
ATOM     88  C   UNL A   1      45.854  28.738  34.584  1.00  0.00     0.173 A 
ATOM     89  F   UNL A   1      43.537  26.061  35.421  1.00  0.00    -0.203 F 
ATOM     90  C   UNL A   1      45.786  26.377  36.043  1.00  0.00     0.198 A 
ATOM     91  C   UNL A   1      46.990  28.301  35.259  1.00  0.00     0.198 A 
ATOM     92  F   UNL A   1      45.916  29.885  33.891  1.00  0.00    -0.203 F 
ATOM     93  F   UNL A   1      45.742  25.254  36.773  1.00  0.00    -0.200 F 
ATOM     94  C   UNL A   1      46.953  27.125  35.993  1.00  0.00     0.200 A 
ATOM     95  F   UNL A   1      48.121  29.019  35.200  1.00  0.00    -0.200 F 
ATOM     96  F   UNL A   1      48.043  26.714  36.657  1.00  0.00    -0.200 F 
ENDBRANCH  63  86
ENDBRANCH  37  38
ENDBRANCH  29  32
ENDBRANCH  27  28
ENDBRANCH  26  27
ENDBRANCH   1  26
TORSDOF 14
ENDMDL
