MODEL 1
REMARK VINA RESULT:     -12.7      0.000      0.000
REMARK SMILES O=C(NCCCNC(=O)C1CCN(C(=O)COc2ccc(Cl)cc2Cl)CC1)c1ccc(-c2c3nc(c(-c4c(F)c(F)c(F)c(F)c4F)c4ccc([nH]4)c(-c4c(F)c(F)c(F)c(F)c4F)c4nc(c(-c5c(F)c(F)c(F)c(F)c5F)c5ccc2[nH]5)C=C4)C=C3)cc1
REMARK SMILES IDX 5 1 4 2 3 3 1 4 2 5 28 7 29 8 90 9 30 10 89 11 31 12 32 13
REMARK SMILES IDX 33 14 83 15 34 16 88 17 82 18 84 19 35 20 87 21 81 22 80 23
REMARK SMILES IDX 36 25 68 26 48 27 67 28 49 29 52 30 66 31 85 32 50 33 51 34
REMARK SMILES IDX 65 36 86 37 53 38 37 39 38 40 46 41 39 42 40 43 44 44 47 45
REMARK SMILES IDX 41 46 42 47 45 48 43 49 69 50 70 51 78 52 71 53 72 54 76 55
REMARK SMILES IDX 79 56 73 57 74 58 77 59 75 60 54 61 55 62 63 63 56 64 57 65
REMARK SMILES IDX 61 66 64 67 58 68 59 69 62 70 60 71 6 72 7 73 8 74 9 76
REMARK SMILES IDX 10 77 11 78 27 79 12 80 26 81 13 82 14 83 15 84 16 85 17 86
REMARK SMILES IDX 18 87 19 88 24 89 20 90 23 91 25 92 21 93 22 94
REMARK H PARENT 3 6 84 24 52 35 7 75
REMARK Flexibility Score: inf
ROOT
ATOM      1  C   UNL A   1      31.403  31.928  26.501  1.00  0.00     0.042 C 
ENDROOT
BRANCH   1   2
ATOM      2  C   UNL A   1      32.661  32.649  26.984  1.00  0.00     0.118 C 
BRANCH   2   3
ATOM      3  N   UNL A   1      32.400  33.973  27.533  1.00  0.00    -0.352 N 
ATOM      4  O   UNL A   1      32.536  35.736  28.920  1.00  0.00    -0.269 OA
ATOM      5  C   UNL A   1      33.011  34.664  28.551  1.00  0.00     0.251 C 
ATOM      6  H   UNL A   1      31.659  34.456  27.101  1.00  0.00     0.163 HD
BRANCH   5   7
ATOM      7  C   UNL A   1      34.207  34.124  29.236  1.00  0.00     0.039 A 
ATOM      8  C   UNL A   1      35.497  34.494  28.855  1.00  0.00     0.014 A 
ATOM      9  C   UNL A   1      34.028  33.245  30.310  1.00  0.00     0.014 A 
ATOM     10  C   UNL A   1      36.598  33.860  29.427  1.00  0.00     0.010 A 
ATOM     11  C   UNL A   1      35.137  32.674  30.943  1.00  0.00     0.010 A 
ATOM     12  C   UNL A   1      36.432  32.938  30.473  1.00  0.00    -0.014 A 
BRANCH  12  13
ATOM     13  C   UNL A   1      37.626  32.273  31.058  1.00  0.00     0.031 A 
ATOM     14  C   UNL A   1      38.072  32.578  32.463  1.00  0.00     0.074 A 
ATOM     15  C   UNL A   1      38.285  31.349  30.333  1.00  0.00     0.049 A 
ATOM     16  N   UNL A   1      39.043  32.038  33.159  1.00  0.00    -0.248 NA
ATOM     17  C   UNL A   1      37.341  33.634  33.182  1.00  0.00     0.031 C 
ATOM     18  C   UNL A   1      37.966  30.980  28.953  1.00  0.00     0.029 A 
ATOM     19  N   UNL A   1      39.339  30.534  30.660  1.00  0.00    -0.354 N 
ATOM     20  C   UNL A   1      39.052  32.699  34.381  1.00  0.00     0.074 A 
ATOM     21  C   UNL A   1      38.009  33.700  34.326  1.00  0.00     0.031 C 
ATOM     22  C   UNL A   1      38.767  29.975  28.571  1.00  0.00     0.029 A 
ATOM     23  C   UNL A   1      39.686  29.659  29.659  1.00  0.00     0.049 A 
ATOM     24  H   UNL A   1      39.802  30.573  31.527  1.00  0.00     0.167 HD
ATOM     25  C   UNL A   1      39.851  32.483  35.453  1.00  0.00     0.037 A 
ATOM     26  C   UNL A   1      40.637  28.708  29.623  1.00  0.00     0.037 A 
ATOM     27  C   UNL A   1      40.870  31.467  35.520  1.00  0.00     0.049 A 
ATOM     28  C   UNL A   1      41.502  28.485  30.831  1.00  0.00     0.074 A 
ATOM     29  C   UNL A   1      41.693  31.137  36.584  1.00  0.00     0.029 A 
ATOM     30  N   UNL A   1      41.206  30.615  34.479  1.00  0.00    -0.354 N 
ATOM     31  N   UNL A   1      41.465  29.082  31.997  1.00  0.00    -0.248 NA
ATOM     32  C   UNL A   1      42.541  27.453  30.716  1.00  0.00     0.031 C 
ATOM     33  C   UNL A   1      42.555  30.115  36.172  1.00  0.00     0.029 A 
ATOM     34  C   UNL A   1      42.238  29.775  34.868  1.00  0.00     0.049 A 
ATOM     35  H   UNL A   1      40.774  30.607  33.594  1.00  0.00     0.167 HD
ATOM     36  C   UNL A   1      42.459  28.486  32.761  1.00  0.00     0.074 A 
ATOM     37  C   UNL A   1      43.068  27.468  31.932  1.00  0.00     0.031 C 
ATOM     38  C   UNL A   1      42.832  28.761  34.034  1.00  0.00     0.037 A 
BRANCH  25  39
ATOM     39  C   UNL A   1      39.668  33.372  36.650  1.00  0.00     0.064 A 
ATOM     40  C   UNL A   1      40.343  34.595  36.771  1.00  0.00     0.173 A 
ATOM     41  C   UNL A   1      38.767  33.016  37.666  1.00  0.00     0.173 A 
ATOM     42  F   UNL A   1      41.222  34.977  35.833  1.00  0.00    -0.203 F 
ATOM     43  C   UNL A   1      40.141  35.418  37.878  1.00  0.00     0.198 A 
ATOM     44  C   UNL A   1      38.549  33.853  38.757  1.00  0.00     0.198 A 
ATOM     45  F   UNL A   1      38.091  31.859  37.595  1.00  0.00    -0.203 F 
ATOM     46  F   UNL A   1      40.829  36.563  37.992  1.00  0.00    -0.200 F 
ATOM     47  C   UNL A   1      39.240  35.050  38.865  1.00  0.00     0.200 A 
ATOM     48  F   UNL A   1      37.669  33.501  39.705  1.00  0.00    -0.200 F 
ATOM     49  F   UNL A   1      39.042  35.846  39.925  1.00  0.00    -0.200 F 
ENDBRANCH  25  39
BRANCH  26  50
ATOM     50  C   UNL A   1      40.799  27.875  28.404  1.00  0.00     0.064 A 
ATOM     51  C   UNL A   1      41.616  28.299  27.347  1.00  0.00     0.173 A 
ATOM     52  C   UNL A   1      40.150  26.639  28.276  1.00  0.00     0.173 A 
ATOM     53  F   UNL A   1      42.241  29.483  27.417  1.00  0.00    -0.203 F 
ATOM     54  C   UNL A   1      41.768  27.523  26.200  1.00  0.00     0.198 A 
ATOM     55  C   UNL A   1      40.325  25.850  27.141  1.00  0.00     0.198 A 
ATOM     56  F   UNL A   1      39.361  26.188  29.261  1.00  0.00    -0.203 F 
ATOM     57  F   UNL A   1      42.524  27.968  25.188  1.00  0.00    -0.200 F 
ATOM     58  C   UNL A   1      41.127  26.296  26.101  1.00  0.00     0.200 A 
ATOM     59  F   UNL A   1      39.717  24.660  27.054  1.00  0.00    -0.200 F 
ATOM     60  F   UNL A   1      41.280  25.546  25.001  1.00  0.00    -0.200 F 
ENDBRANCH  26  50
BRANCH  38  61
ATOM     61  C   UNL A   1      43.931  27.924  34.618  1.00  0.00     0.064 A 
ATOM     62  C   UNL A   1      45.273  28.328  34.560  1.00  0.00     0.173 A 
ATOM     63  C   UNL A   1      43.635  26.713  35.260  1.00  0.00     0.173 A 
ATOM     64  F   UNL A   1      45.607  29.470  33.943  1.00  0.00    -0.203 F 
ATOM     65  C   UNL A   1      46.282  27.533  35.098  1.00  0.00     0.198 A 
ATOM     66  C   UNL A   1      44.643  25.934  35.822  1.00  0.00     0.198 A 
ATOM     67  F   UNL A   1      42.366  26.285  35.346  1.00  0.00    -0.203 F 
ATOM     68  F   UNL A   1      47.562  27.914  34.988  1.00  0.00    -0.200 F 
ATOM     69  C   UNL A   1      45.966  26.341  35.733  1.00  0.00     0.200 A 
ATOM     70  F   UNL A   1      44.336  24.788  36.442  1.00  0.00    -0.200 F 
ATOM     71  F   UNL A   1      46.939  25.579  36.250  1.00  0.00    -0.200 F 
ENDBRANCH  38  61
ENDBRANCH  12  13
ENDBRANCH   5   7
ENDBRANCH   2   3
ENDBRANCH   1   2
BRANCH   1  72
ATOM     72  C   UNL A   1      31.586  30.438  26.222  1.00  0.00     0.117 C 
BRANCH  72  73
ATOM     73  N   UNL A   1      31.287  30.097  24.845  1.00  0.00    -0.356 N 
ATOM     74  C   UNL A   1      31.736  29.066  24.079  1.00  0.00     0.223 C 
ATOM     75  H   UNL A   1      30.660  30.707  24.393  1.00  0.00     0.163 HD
ATOM     76  O   UNL A   1      31.459  29.087  22.881  1.00  0.00    -0.275 OA
BRANCH  74  77
ATOM     77  C   UNL A   1      32.504  27.919  24.728  1.00  0.00     0.082 C 
ATOM     78  C   UNL A   1      33.641  27.424  23.818  1.00  0.00     0.035 C 
ATOM     79  C   UNL A   1      31.543  26.773  25.086  1.00  0.00     0.035 C 
ATOM     80  C   UNL A   1      33.154  26.592  22.629  1.00  0.00     0.120 C 
ATOM     81  C   UNL A   1      31.103  25.985  23.852  1.00  0.00     0.120 C 
ATOM     82  N   UNL A   1      32.262  25.533  23.085  1.00  0.00    -0.340 N 
ATOM     83  C   UNL A   1      32.529  24.220  22.721  1.00  0.00     0.260 C 
ATOM     84  O   UNL A   1      33.383  23.932  21.878  1.00  0.00    -0.271 OA
BRANCH  83  85
ATOM     85  C   UNL A   1      31.782  23.099  23.453  1.00  0.00     0.329 C 
BRANCH  85  86
ATOM     86  O   UNL A   1      32.189  22.845  24.795  1.00  0.00    -0.482 OA
BRANCH  86  87
ATOM     87  C   UNL A   1      33.315  22.076  24.931  1.00  0.00     0.138 A 
ATOM     88  C   UNL A   1      33.328  20.717  24.598  1.00  0.00     0.049 A 
ATOM     89  C   UNL A   1      34.518  22.704  25.280  1.00  0.00     0.084 A 
ATOM     90  C   UNL A   1      34.522  19.992  24.633  1.00  0.00     0.024 A 
ATOM     91  C   UNL A   1      35.713  21.981  25.317  1.00  0.00     0.045 A 
ATOM     92  Cl  UNL A   1      34.566  24.385  25.675  1.00  0.00    -0.080 Cl
ATOM     93  C   UNL A   1      35.708  20.628  24.990  1.00  0.00     0.042 A 
ATOM     94  Cl  UNL A   1      37.177  19.736  25.001  1.00  0.00    -0.084 Cl
ENDBRANCH  86  87
ENDBRANCH  85  86
ENDBRANCH  83  85
ENDBRANCH  74  77
ENDBRANCH  72  73
ENDBRANCH   1  72
TORSDOF 13
ENDMDL
MODEL 2
REMARK VINA RESULT:     -12.7      0.770      1.857
REMARK SMILES O=C(NCCCNC(=O)C1CCN(C(=O)COc2ccc(Cl)cc2Cl)CC1)c1ccc(-c2c3nc(c(-c4c(F)c(F)c(F)c(F)c4F)c4ccc([nH]4)c(-c4c(F)c(F)c(F)c(F)c4F)c4nc(c(-c5c(F)c(F)c(F)c(F)c5F)c5ccc2[nH]5)C=C4)C=C3)cc1
REMARK SMILES IDX 5 1 4 2 3 3 1 4 2 5 28 7 29 8 90 9 30 10 89 11 31 12 32 13
REMARK SMILES IDX 33 14 83 15 34 16 88 17 82 18 84 19 35 20 87 21 81 22 80 23
REMARK SMILES IDX 36 25 68 26 48 27 67 28 49 29 52 30 66 31 85 32 50 33 51 34
REMARK SMILES IDX 65 36 86 37 53 38 37 39 38 40 46 41 39 42 40 43 44 44 47 45
REMARK SMILES IDX 41 46 42 47 45 48 43 49 69 50 70 51 78 52 71 53 72 54 76 55
REMARK SMILES IDX 79 56 73 57 74 58 77 59 75 60 54 61 55 62 63 63 56 64 57 65
REMARK SMILES IDX 61 66 64 67 58 68 59 69 62 70 60 71 6 72 7 73 8 74 9 76
REMARK SMILES IDX 10 77 11 78 27 79 12 80 26 81 13 82 14 83 15 84 16 85 17 86
REMARK SMILES IDX 18 87 19 88 24 89 20 90 23 91 25 92 21 93 22 94
REMARK H PARENT 3 6 84 24 52 35 7 75
REMARK Flexibility Score: inf
ROOT
ATOM      1  C   UNL A   1      31.404  32.144  26.516  1.00  0.00     0.042 C 
ENDROOT
BRANCH   1   2
ATOM      2  C   UNL A   1      32.645  32.837  27.077  1.00  0.00     0.118 C 
BRANCH   2   3
ATOM      3  N   UNL A   1      32.379  34.165  27.614  1.00  0.00    -0.352 N 
ATOM      4  O   UNL A   1      32.514  35.944  28.980  1.00  0.00    -0.269 OA
ATOM      5  C   UNL A   1      32.994  34.871  28.619  1.00  0.00     0.251 C 
ATOM      6  H   UNL A   1      31.630  34.637  27.184  1.00  0.00     0.163 HD
BRANCH   5   7
ATOM      7  C   UNL A   1      34.201  34.349  29.298  1.00  0.00     0.039 A 
ATOM      8  C   UNL A   1      35.483  34.616  28.820  1.00  0.00     0.014 A 
ATOM      9  C   UNL A   1      34.041  33.594  30.466  1.00  0.00     0.014 A 
ATOM     10  C   UNL A   1      36.585  33.992  29.401  1.00  0.00     0.010 A 
ATOM     11  C   UNL A   1      35.157  33.038  31.101  1.00  0.00     0.010 A 
ATOM     12  C   UNL A   1      36.435  33.191  30.544  1.00  0.00    -0.014 A 
BRANCH  12  13
ATOM     13  C   UNL A   1      37.630  32.533  31.138  1.00  0.00     0.031 A 
ATOM     14  C   UNL A   1      38.090  32.875  32.530  1.00  0.00     0.074 A 
ATOM     15  C   UNL A   1      38.274  31.583  30.434  1.00  0.00     0.049 A 
ATOM     16  N   UNL A   1      39.063  32.347  33.232  1.00  0.00    -0.248 NA
ATOM     17  C   UNL A   1      37.374  33.957  33.224  1.00  0.00     0.031 C 
ATOM     18  C   UNL A   1      37.940  31.177  29.068  1.00  0.00     0.029 A 
ATOM     19  N   UNL A   1      39.325  30.770  30.775  1.00  0.00    -0.354 N 
ATOM     20  C   UNL A   1      39.089  33.043  34.434  1.00  0.00     0.074 A 
ATOM     21  C   UNL A   1      38.053  34.050  34.360  1.00  0.00     0.031 C 
ATOM     22  C   UNL A   1      38.729  30.155  28.708  1.00  0.00     0.029 A 
ATOM     23  C   UNL A   1      39.656  29.864  29.797  1.00  0.00     0.049 A 
ATOM     24  H   UNL A   1      39.796  30.830  31.637  1.00  0.00     0.167 HD
ATOM     25  C   UNL A   1      39.896  32.851  35.506  1.00  0.00     0.037 A 
ATOM     26  C   UNL A   1      40.599  28.904  29.780  1.00  0.00     0.037 A 
ATOM     27  C   UNL A   1      40.907  31.829  35.593  1.00  0.00     0.049 A 
ATOM     28  C   UNL A   1      41.473  28.709  30.986  1.00  0.00     0.074 A 
ATOM     29  C   UNL A   1      41.737  31.524  36.658  1.00  0.00     0.029 A 
ATOM     30  N   UNL A   1      41.227  30.945  34.574  1.00  0.00    -0.354 N 
ATOM     31  N   UNL A   1      41.452  29.340  32.134  1.00  0.00    -0.248 NA
ATOM     32  C   UNL A   1      42.503  27.666  30.892  1.00  0.00     0.031 C 
ATOM     33  C   UNL A   1      42.587  30.483  36.268  1.00  0.00     0.029 A 
ATOM     34  C   UNL A   1      42.256  30.108  34.977  1.00  0.00     0.049 A 
ATOM     35  H   UNL A   1      40.787  30.916  33.693  1.00  0.00     0.167 HD
ATOM     36  C   UNL A   1      42.447  28.757  32.907  1.00  0.00     0.074 A 
ATOM     37  C   UNL A   1      43.041  27.711  32.102  1.00  0.00     0.031 C 
ATOM     38  C   UNL A   1      42.834  29.066  34.168  1.00  0.00     0.037 A 
BRANCH  25  39
ATOM     39  C   UNL A   1      39.730  33.776  36.677  1.00  0.00     0.064 A 
ATOM     40  C   UNL A   1      38.905  33.452  37.763  1.00  0.00     0.173 A 
ATOM     41  C   UNL A   1      40.445  34.983  36.733  1.00  0.00     0.173 A 
ATOM     42  F   UNL A   1      38.192  32.316  37.754  1.00  0.00    -0.203 F 
ATOM     43  C   UNL A   1      38.782  34.313  38.852  1.00  0.00     0.198 A 
ATOM     44  C   UNL A   1      40.340  35.829  37.835  1.00  0.00     0.198 A 
ATOM     45  F   UNL A   1      41.253  35.339  35.723  1.00  0.00    -0.203 F 
ATOM     46  F   UNL A   1      37.956  34.001  39.860  1.00  0.00    -0.200 F 
ATOM     47  C   UNL A   1      39.505  35.497  38.890  1.00  0.00     0.200 A 
ATOM     48  F   UNL A   1      41.048  36.966  37.875  1.00  0.00    -0.200 F 
ATOM     49  F   UNL A   1      39.391  36.320  39.942  1.00  0.00    -0.200 F 
ENDBRANCH  25  39
BRANCH  26  50
ATOM     50  C   UNL A   1      40.743  28.035  28.584  1.00  0.00     0.064 A 
ATOM     51  C   UNL A   1      40.078  26.804  28.505  1.00  0.00     0.173 A 
ATOM     52  C   UNL A   1      41.540  28.420  27.496  1.00  0.00     0.173 A 
ATOM     53  F   UNL A   1      39.320  26.386  29.529  1.00  0.00    -0.203 F 
ATOM     54  C   UNL A   1      40.214  25.984  27.387  1.00  0.00     0.198 A 
ATOM     55  C   UNL A   1      41.653  27.613  26.367  1.00  0.00     0.198 A 
ATOM     56  F   UNL A   1      42.194  29.590  27.523  1.00  0.00    -0.203 F 
ATOM     57  F   UNL A   1      39.597  24.795  27.352  1.00  0.00    -0.200 F 
ATOM     58  C   UNL A   1      40.996  26.392  26.316  1.00  0.00     0.200 A 
ATOM     59  F   UNL A   1      42.398  28.017  25.329  1.00  0.00    -0.200 F 
ATOM     60  F   UNL A   1      41.120  25.607  25.237  1.00  0.00    -0.200 F 
ENDBRANCH  26  50
BRANCH  38  61
ATOM     61  C   UNL A   1      43.932  28.237  34.766  1.00  0.00     0.064 A 
ATOM     62  C   UNL A   1      45.277  28.619  34.670  1.00  0.00     0.173 A 
ATOM     63  C   UNL A   1      43.630  27.057  35.461  1.00  0.00     0.173 A 
ATOM     64  F   UNL A   1      45.617  29.731  34.001  1.00  0.00    -0.203 F 
ATOM     65  C   UNL A   1      46.285  27.832  35.222  1.00  0.00     0.198 A 
ATOM     66  C   UNL A   1      44.638  26.287  36.036  1.00  0.00     0.198 A 
ATOM     67  F   UNL A   1      42.358  26.651  35.586  1.00  0.00    -0.203 F 
ATOM     68  F   UNL A   1      47.568  28.190  35.074  1.00  0.00    -0.200 F 
ATOM     69  C   UNL A   1      45.965  26.671  35.908  1.00  0.00     0.200 A 
ATOM     70  F   UNL A   1      44.326  25.170  36.707  1.00  0.00    -0.200 F 
ATOM     71  F   UNL A   1      46.936  25.916  36.439  1.00  0.00    -0.200 F 
ENDBRANCH  38  61
ENDBRANCH  12  13
ENDBRANCH   5   7
ENDBRANCH   2   3
ENDBRANCH   1   2
BRANCH   1  72
ATOM     72  C   UNL A   1      31.543  30.635  26.329  1.00  0.00     0.117 C 
BRANCH  72  73
ATOM     73  N   UNL A   1      31.135  30.206  25.006  1.00  0.00    -0.356 N 
ATOM     74  C   UNL A   1      31.640  29.228  24.206  1.00  0.00     0.223 C 
ATOM     75  H   UNL A   1      30.373  30.701  24.625  1.00  0.00     0.163 HD
ATOM     76  O   UNL A   1      31.221  29.167  23.052  1.00  0.00    -0.275 OA
BRANCH  74  77
ATOM     77  C   UNL A   1      32.645  28.230  24.772  1.00  0.00     0.082 C 
ATOM     78  C   UNL A   1      33.704  27.848  23.723  1.00  0.00     0.035 C 
ATOM     79  C   UNL A   1      31.916  26.984  25.302  1.00  0.00     0.035 C 
ATOM     80  C   UNL A   1      33.178  26.898  22.644  1.00  0.00     0.120 C 
ATOM     81  C   UNL A   1      31.425  26.082  24.170  1.00  0.00     0.120 C 
ATOM     82  N   UNL A   1      32.517  25.752  23.257  1.00  0.00    -0.340 N 
ATOM     83  C   UNL A   1      32.914  24.471  22.900  1.00  0.00     0.260 C 
ATOM     84  O   UNL A   1      33.675  24.259  21.951  1.00  0.00    -0.271 OA
BRANCH  83  85
ATOM     85  C   UNL A   1      32.443  23.298  23.767  1.00  0.00     0.329 C 
BRANCH  85  86
ATOM     86  O   UNL A   1      33.463  22.571  24.449  1.00  0.00    -0.482 OA
BRANCH  86  87
ATOM     87  C   UNL A   1      33.386  21.207  24.333  1.00  0.00     0.138 A 
ATOM     88  C   UNL A   1      32.382  20.582  23.585  1.00  0.00     0.049 A 
ATOM     89  C   UNL A   1      34.424  20.429  24.864  1.00  0.00     0.084 A 
ATOM     90  C   UNL A   1      32.404  19.200  23.389  1.00  0.00     0.024 A 
ATOM     91  C   UNL A   1      34.448  19.046  24.670  1.00  0.00     0.045 A 
ATOM     92  Cl  UNL A   1      35.705  21.150  25.772  1.00  0.00    -0.080 Cl
ATOM     93  C   UNL A   1      33.437  18.439  23.929  1.00  0.00     0.042 A 
ATOM     94  Cl  UNL A   1      33.473  16.742  23.657  1.00  0.00    -0.084 Cl
ENDBRANCH  86  87
ENDBRANCH  85  86
ENDBRANCH  83  85
ENDBRANCH  74  77
ENDBRANCH  72  73
ENDBRANCH   1  72
TORSDOF 13
ENDMDL
MODEL 3
REMARK VINA RESULT:     -12.6      5.295     10.673
REMARK SMILES O=C(NCCCNC(=O)C1CCN(C(=O)COc2ccc(Cl)cc2Cl)CC1)c1ccc(-c2c3nc(c(-c4c(F)c(F)c(F)c(F)c4F)c4ccc([nH]4)c(-c4c(F)c(F)c(F)c(F)c4F)c4nc(c(-c5c(F)c(F)c(F)c(F)c5F)c5ccc2[nH]5)C=C4)C=C3)cc1
REMARK SMILES IDX 5 1 4 2 3 3 1 4 2 5 28 7 29 8 90 9 30 10 89 11 31 12 32 13
REMARK SMILES IDX 33 14 83 15 34 16 88 17 82 18 84 19 35 20 87 21 81 22 80 23
REMARK SMILES IDX 36 25 68 26 48 27 67 28 49 29 52 30 66 31 85 32 50 33 51 34
REMARK SMILES IDX 65 36 86 37 53 38 37 39 38 40 46 41 39 42 40 43 44 44 47 45
REMARK SMILES IDX 41 46 42 47 45 48 43 49 69 50 70 51 78 52 71 53 72 54 76 55
REMARK SMILES IDX 79 56 73 57 74 58 77 59 75 60 54 61 55 62 63 63 56 64 57 65
REMARK SMILES IDX 61 66 64 67 58 68 59 69 62 70 60 71 6 72 7 73 8 74 9 76
REMARK SMILES IDX 10 77 11 78 27 79 12 80 26 81 13 82 14 83 15 84 16 85 17 86
REMARK SMILES IDX 18 87 19 88 24 89 20 90 23 91 25 92 21 93 22 94
REMARK H PARENT 3 6 84 24 52 35 7 75
REMARK Flexibility Score: inf
ROOT
ATOM      1  C   UNL A   1      37.856  19.677  25.040  1.00  0.00     0.042 C 
ENDROOT
BRANCH   1   2
ATOM      2  C   UNL A   1      39.069  20.144  25.844  1.00  0.00     0.118 C 
BRANCH   2   3
ATOM      3  N   UNL A   1      40.166  19.185  25.855  1.00  0.00    -0.352 N 
ATOM      4  O   UNL A   1      42.270  18.401  25.941  1.00  0.00    -0.269 OA
ATOM      5  C   UNL A   1      41.506  19.350  26.105  1.00  0.00     0.251 C 
ATOM      6  H   UNL A   1      39.901  18.259  25.650  1.00  0.00     0.163 HD
BRANCH   5   7
ATOM      7  C   UNL A   1      42.053  20.658  26.532  1.00  0.00     0.039 A 
ATOM      8  C   UNL A   1      42.248  20.965  27.878  1.00  0.00     0.014 A 
ATOM      9  C   UNL A   1      42.407  21.591  25.551  1.00  0.00     0.014 A 
ATOM     10  C   UNL A   1      42.629  22.253  28.248  1.00  0.00     0.010 A 
ATOM     11  C   UNL A   1      42.874  22.857  25.921  1.00  0.00     0.010 A 
ATOM     12  C   UNL A   1      42.940  23.217  27.275  1.00  0.00    -0.014 A 
BRANCH  12  13
ATOM     13  C   UNL A   1      43.339  24.585  27.701  1.00  0.00     0.031 A 
ATOM     14  C   UNL A   1      44.779  25.018  27.665  1.00  0.00     0.074 A 
ATOM     15  C   UNL A   1      42.386  25.459  28.076  1.00  0.00     0.049 A 
ATOM     16  N   UNL A   1      45.296  26.194  27.929  1.00  0.00    -0.248 NA
ATOM     17  C   UNL A   1      45.775  24.000  27.296  1.00  0.00     0.031 C 
ATOM     18  C   UNL A   1      40.957  25.154  28.174  1.00  0.00     0.029 A 
ATOM     19  N   UNL A   1      42.467  26.785  28.419  1.00  0.00    -0.354 N 
ATOM     20  C   UNL A   1      46.669  26.052  27.778  1.00  0.00     0.074 A 
ATOM     21  C   UNL A   1      46.913  24.669  27.426  1.00  0.00     0.031 C 
ATOM     22  C   UNL A   1      40.290  26.273  28.496  1.00  0.00     0.029 A 
ATOM     23  C   UNL A   1      41.246  27.361  28.672  1.00  0.00     0.049 A 
ATOM     24  H   UNL A   1      43.318  27.276  28.478  1.00  0.00     0.167 HD
ATOM     25  C   UNL A   1      47.638  26.990  27.910  1.00  0.00     0.037 A 
ATOM     26  C   UNL A   1      40.930  28.626  29.007  1.00  0.00     0.037 A 
ATOM     27  C   UNL A   1      47.394  28.374  28.230  1.00  0.00     0.049 A 
ATOM     28  C   UNL A   1      42.024  29.647  29.138  1.00  0.00     0.074 A 
ATOM     29  C   UNL A   1      48.306  29.410  28.333  1.00  0.00     0.029 A 
ATOM     30  N   UNL A   1      46.146  28.914  28.500  1.00  0.00    -0.354 N 
ATOM     31  N   UNL A   1      43.313  29.510  28.942  1.00  0.00    -0.248 NA
ATOM     32  C   UNL A   1      41.617  31.002  29.536  1.00  0.00     0.031 C 
ATOM     33  C   UNL A   1      47.615  30.568  28.706  1.00  0.00     0.029 A 
ATOM     34  C   UNL A   1      46.267  30.264  28.790  1.00  0.00     0.049 A 
ATOM     35  H   UNL A   1      45.298  28.413  28.487  1.00  0.00     0.167 HD
ATOM     36  C   UNL A   1      43.868  30.761  29.171  1.00  0.00     0.074 A 
ATOM     37  C   UNL A   1      42.773  31.649  29.502  1.00  0.00     0.031 C 
ATOM     38  C   UNL A   1      45.168  31.138  29.113  1.00  0.00     0.037 A 
BRANCH  25  39
ATOM     39  C   UNL A   1      49.062  26.554  27.720  1.00  0.00     0.064 A 
ATOM     40  C   UNL A   1      49.627  26.411  26.445  1.00  0.00     0.173 A 
ATOM     41  C   UNL A   1      49.886  26.322  28.833  1.00  0.00     0.173 A 
ATOM     42  F   UNL A   1      48.880  26.611  25.350  1.00  0.00    -0.203 F 
ATOM     43  C   UNL A   1      50.958  26.028  26.290  1.00  0.00     0.198 A 
ATOM     44  C   UNL A   1      51.223  25.964  28.674  1.00  0.00     0.198 A 
ATOM     45  F   UNL A   1      49.396  26.450  30.076  1.00  0.00    -0.203 F 
ATOM     46  F   UNL A   1      51.465  25.858  25.061  1.00  0.00    -0.200 F 
ATOM     47  C   UNL A   1      51.756  25.812  27.404  1.00  0.00     0.200 A 
ATOM     48  F   UNL A   1      51.995  25.767  29.752  1.00  0.00    -0.200 F 
ATOM     49  F   UNL A   1      53.038  25.451  27.252  1.00  0.00    -0.200 F 
ENDBRANCH  25  39
BRANCH  26  50
ATOM     50  C   UNL A   1      39.508  29.000  29.214  1.00  0.00     0.064 A 
ATOM     51  C   UNL A   1      38.714  29.427  28.142  1.00  0.00     0.173 A 
ATOM     52  C   UNL A   1      38.915  28.928  30.483  1.00  0.00     0.173 A 
ATOM     53  F   UNL A   1      39.244  29.530  26.915  1.00  0.00    -0.203 F 
ATOM     54  C   UNL A   1      37.380  29.783  28.333  1.00  0.00     0.198 A 
ATOM     55  C   UNL A   1      37.574  29.257  30.668  1.00  0.00     0.198 A 
ATOM     56  F   UNL A   1      39.633  28.521  31.539  1.00  0.00    -0.203 F 
ATOM     57  F   UNL A   1      36.652  30.225  27.299  1.00  0.00    -0.200 F 
ATOM     58  C   UNL A   1      36.810  29.691  29.594  1.00  0.00     0.200 A 
ATOM     59  F   UNL A   1      37.022  29.153  31.884  1.00  0.00    -0.200 F 
ATOM     60  F   UNL A   1      35.525  30.025  29.776  1.00  0.00    -0.200 F 
ENDBRANCH  26  50
BRANCH  38  61
ATOM     61  C   UNL A   1      45.472  32.582  29.384  1.00  0.00     0.064 A 
ATOM     62  C   UNL A   1      45.430  33.545  28.366  1.00  0.00     0.173 A 
ATOM     63  C   UNL A   1      45.790  33.008  30.682  1.00  0.00     0.173 A 
ATOM     64  F   UNL A   1      45.147  33.184  27.106  1.00  0.00    -0.203 F 
ATOM     65  C   UNL A   1      45.726  34.880  28.633  1.00  0.00     0.198 A 
ATOM     66  C   UNL A   1      46.057  34.348  30.950  1.00  0.00     0.198 A 
ATOM     67  F   UNL A   1      45.838  32.126  31.691  1.00  0.00    -0.203 F 
ATOM     68  F   UNL A   1      45.729  35.775  27.636  1.00  0.00    -0.200 F 
ATOM     69  C   UNL A   1      46.033  35.281  29.924  1.00  0.00     0.200 A 
ATOM     70  F   UNL A   1      46.345  34.735  32.200  1.00  0.00    -0.200 F 
ATOM     71  F   UNL A   1      46.316  36.565  30.178  1.00  0.00    -0.200 F 
ENDBRANCH  38  61
ENDBRANCH  12  13
ENDBRANCH   5   7
ENDBRANCH   2   3
ENDBRANCH   1   2
BRANCH   1  72
ATOM     72  C   UNL A   1      36.823  20.763  24.751  1.00  0.00     0.117 C 
BRANCH  72  73
ATOM     73  N   UNL A   1      35.474  20.335  25.066  1.00  0.00    -0.356 N 
ATOM     74  C   UNL A   1      34.469  20.997  25.701  1.00  0.00     0.223 C 
ATOM     75  H   UNL A   1      35.250  19.421  24.776  1.00  0.00     0.163 HD
ATOM     76  O   UNL A   1      33.463  20.354  25.994  1.00  0.00    -0.275 OA
BRANCH  74  77
ATOM     77  C   UNL A   1      34.600  22.492  25.972  1.00  0.00     0.082 C 
ATOM     78  C   UNL A   1      33.780  22.910  27.204  1.00  0.00     0.035 C 
ATOM     79  C   UNL A   1      34.182  23.296  24.730  1.00  0.00     0.035 C 
ATOM     80  C   UNL A   1      32.272  22.962  26.945  1.00  0.00     0.120 C 
ATOM     81  C   UNL A   1      32.665  23.308  24.538  1.00  0.00     0.120 C 
ATOM     82  N   UNL A   1      31.991  23.755  25.754  1.00  0.00    -0.340 N 
ATOM     83  C   UNL A   1      31.087  24.805  25.839  1.00  0.00     0.260 C 
ATOM     84  O   UNL A   1      30.374  24.981  26.831  1.00  0.00    -0.271 OA
BRANCH  83  85
ATOM     85  C   UNL A   1      31.038  25.813  24.685  1.00  0.00     0.329 C 
BRANCH  85  86
ATOM     86  O   UNL A   1      32.248  26.517  24.413  1.00  0.00    -0.482 OA
BRANCH  86  87
ATOM     87  C   UNL A   1      32.503  27.583  25.237  1.00  0.00     0.138 A 
ATOM     88  C   UNL A   1      33.449  27.514  26.265  1.00  0.00     0.049 A 
ATOM     89  C   UNL A   1      31.900  28.814  24.947  1.00  0.00     0.084 A 
ATOM     90  C   UNL A   1      33.770  28.652  27.007  1.00  0.00     0.024 A 
ATOM     91  C   UNL A   1      32.219  29.954  25.688  1.00  0.00     0.045 A 
ATOM     92  Cl  UNL A   1      30.745  28.964  23.671  1.00  0.00    -0.080 Cl
ATOM     93  C   UNL A   1      33.157  29.867  26.713  1.00  0.00     0.042 A 
ATOM     94  Cl  UNL A   1      33.581  31.270  27.611  1.00  0.00    -0.084 Cl
ENDBRANCH  86  87
ENDBRANCH  85  86
ENDBRANCH  83  85
ENDBRANCH  74  77
ENDBRANCH  72  73
ENDBRANCH   1  72
TORSDOF 13
ENDMDL
