MODEL 1
REMARK VINA RESULT:     -13.0      0.000      0.000
REMARK SMILES O=C(NCCCNC(=O)c1ccc(F)c(S(=O)(=O)N2CCOc3ccccc32)c1)c1ccc(-c2c3nc(c(-c4c(F)c(F)c(F)c(F)c4F)c4ccc([nH]4)c(-c4c(F)c(F)c(F)c(F)c4F)c4nc(c(-c5c(F)c(F)c(F)c(F)c5F)c5ccc2[nH]5)C=C4)C=C3)cc1
REMARK SMILES IDX 5 1 4 2 3 3 1 4 2 5 30 7 31 8 92 9 32 10 91 11 33 12 34 13
REMARK SMILES IDX 35 14 85 15 36 16 90 17 84 18 86 19 37 20 89 21 83 22 82 23
REMARK SMILES IDX 38 25 70 26 50 27 69 28 51 29 54 30 68 31 87 32 52 33 53 34
REMARK SMILES IDX 67 36 88 37 55 38 39 39 40 40 48 41 41 42 42 43 46 44 49 45
REMARK SMILES IDX 43 46 44 47 47 48 45 49 71 50 72 51 80 52 73 53 74 54 78 55
REMARK SMILES IDX 81 56 75 57 76 58 79 59 77 60 56 61 57 62 65 63 58 64 59 65
REMARK SMILES IDX 63 66 66 67 60 68 61 69 64 70 62 71 6 72 7 73 8 74 9 76
REMARK SMILES IDX 10 77 11 78 29 79 12 80 15 81 13 82 14 83 16 84 17 85 18 86
REMARK SMILES IDX 19 87 20 88 28 89 21 90 23 91 27 92 22 93 24 94 26 95 25 96
REMARK H PARENT 3 6 86 24 54 35 7 75
REMARK Flexibility Score: inf
ROOT
ATOM      1  C   UNL A   1      38.304  19.699  24.929  1.00  0.00     0.042 C 
ENDROOT
BRANCH   1   2
ATOM      2  C   UNL A   1      39.252  19.860  26.106  1.00  0.00     0.118 C 
BRANCH   2   3
ATOM      3  N   UNL A   1      40.408  18.979  26.012  1.00  0.00    -0.352 N 
ATOM      4  O   UNL A   1      42.571  18.412  25.761  1.00  0.00    -0.269 OA
ATOM      5  C   UNL A   1      41.748  19.268  26.072  1.00  0.00     0.251 C 
ATOM      6  H   UNL A   1      40.194  18.026  25.886  1.00  0.00     0.163 HD
BRANCH   5   7
ATOM      7  C   UNL A   1      42.206  20.606  26.503  1.00  0.00     0.039 A 
ATOM      8  C   UNL A   1      42.571  21.574  25.565  1.00  0.00     0.014 A 
ATOM      9  C   UNL A   1      42.214  20.918  27.867  1.00  0.00     0.014 A 
ATOM     10  C   UNL A   1      43.073  22.798  25.987  1.00  0.00     0.010 A 
ATOM     11  C   UNL A   1      42.622  22.186  28.287  1.00  0.00     0.010 A 
ATOM     12  C   UNL A   1      43.065  23.131  27.349  1.00  0.00    -0.014 A 
BRANCH  12  13
ATOM     13  C   UNL A   1      43.393  24.519  27.753  1.00  0.00     0.031 A 
ATOM     14  C   UNL A   1      42.319  25.514  28.074  1.00  0.00     0.074 A 
ATOM     15  C   UNL A   1      44.693  24.867  27.821  1.00  0.00     0.049 A 
ATOM     16  N   UNL A   1      42.444  26.776  28.402  1.00  0.00    -0.248 NA
ATOM     17  C   UNL A   1      40.926  25.044  28.020  1.00  0.00     0.031 C 
ATOM     18  C   UNL A   1      45.818  23.976  27.517  1.00  0.00     0.029 A 
ATOM     19  N   UNL A   1      45.295  26.050  28.167  1.00  0.00    -0.354 N 
ATOM     20  C   UNL A   1      41.153  27.254  28.575  1.00  0.00     0.074 A 
ATOM     21  C   UNL A   1      40.253  26.153  28.304  1.00  0.00     0.031 C 
ATOM     22  C   UNL A   1      46.967  24.633  27.715  1.00  0.00     0.029 A 
ATOM     23  C   UNL A   1      46.666  26.010  28.086  1.00  0.00     0.049 A 
ATOM     24  H   UNL A   1      44.794  26.850  28.445  1.00  0.00     0.167 HD
ATOM     25  C   UNL A   1      40.768  28.500  28.933  1.00  0.00     0.037 A 
ATOM     26  C   UNL A   1      47.582  26.981  28.252  1.00  0.00     0.037 A 
ATOM     27  C   UNL A   1      41.678  29.575  29.230  1.00  0.00     0.049 A 
ATOM     28  C   UNL A   1      47.118  28.362  28.610  1.00  0.00     0.074 A 
ATOM     29  C   UNL A   1      41.381  30.851  29.678  1.00  0.00     0.029 A 
ATOM     30  N   UNL A   1      43.057  29.505  29.103  1.00  0.00    -0.354 N 
ATOM     31  N   UNL A   1      45.897  28.787  28.819  1.00  0.00    -0.248 NA
ATOM     32  C   UNL A   1      48.149  29.399  28.743  1.00  0.00     0.031 C 
ATOM     33  C   UNL A   1      42.575  31.571  29.767  1.00  0.00     0.029 A 
ATOM     34  C   UNL A   1      43.621  30.731  29.423  1.00  0.00     0.049 A 
ATOM     35  H   UNL A   1      43.560  28.705  28.827  1.00  0.00     0.167 HD
ATOM     36  C   UNL A   1      46.009  30.138  29.110  1.00  0.00     0.074 A 
ATOM     37  C   UNL A   1      47.421  30.458  29.074  1.00  0.00     0.031 C 
ATOM     38  C   UNL A   1      45.028  31.032  29.375  1.00  0.00     0.037 A 
BRANCH  25  39
ATOM     39  C   UNL A   1      39.302  28.801  29.030  1.00  0.00     0.064 A 
ATOM     40  C   UNL A   1      38.618  29.331  27.925  1.00  0.00     0.173 A 
ATOM     41  C   UNL A   1      38.613  28.705  30.246  1.00  0.00     0.173 A 
ATOM     42  F   UNL A   1      39.238  29.452  26.741  1.00  0.00    -0.203 F 
ATOM     43  C   UNL A   1      37.306  29.782  28.043  1.00  0.00     0.198 A 
ATOM     44  C   UNL A   1      37.293  29.138  30.356  1.00  0.00     0.198 A 
ATOM     45  F   UNL A   1      39.223  28.200  31.330  1.00  0.00    -0.203 F 
ATOM     46  F   UNL A   1      36.689  30.328  26.987  1.00  0.00    -0.200 F 
ATOM     47  C   UNL A   1      36.647  29.688  29.259  1.00  0.00     0.200 A 
ATOM     48  F   UNL A   1      36.652  29.037  31.528  1.00  0.00    -0.200 F 
ATOM     49  F   UNL A   1      35.389  30.136  29.375  1.00  0.00    -0.200 F 
ENDBRANCH  25  39
BRANCH  26  50
ATOM     50  C   UNL A   1      49.020  26.673  28.038  1.00  0.00     0.064 A 
ATOM     51  C   UNL A   1      49.567  26.638  26.746  1.00  0.00     0.173 A 
ATOM     52  C   UNL A   1      49.863  26.367  29.112  1.00  0.00     0.173 A 
ATOM     53  F   UNL A   1      48.798  26.916  25.682  1.00  0.00    -0.203 F 
ATOM     54  C   UNL A   1      50.897  26.282  26.535  1.00  0.00     0.198 A 
ATOM     55  C   UNL A   1      51.202  26.041  28.903  1.00  0.00     0.198 A 
ATOM     56  F   UNL A   1      49.391  26.404  30.367  1.00  0.00    -0.203 F 
ATOM     57  F   UNL A   1      51.380  26.212  25.288  1.00  0.00    -0.200 F 
ATOM     58  C   UNL A   1      51.715  25.988  27.615  1.00  0.00     0.200 A 
ATOM     59  F   UNL A   1      51.997  25.781  29.950  1.00  0.00    -0.200 F 
ATOM     60  F   UNL A   1      52.997  25.659  27.415  1.00  0.00    -0.200 F 
ENDBRANCH  26  50
BRANCH  38  61
ATOM     61  C   UNL A   1      45.433  32.449  29.642  1.00  0.00     0.064 A 
ATOM     62  C   UNL A   1      45.706  32.879  30.949  1.00  0.00     0.173 A 
ATOM     63  C   UNL A   1      45.447  33.403  28.615  1.00  0.00     0.173 A 
ATOM     64  F   UNL A   1      45.697  32.002  31.965  1.00  0.00    -0.203 F 
ATOM     65  C   UNL A   1      45.952  34.220  31.222  1.00  0.00     0.198 A 
ATOM     66  C   UNL A   1      45.718  34.740  28.889  1.00  0.00     0.198 A 
ATOM     67  F   UNL A   1      45.206  33.033  27.348  1.00  0.00    -0.203 F 
ATOM     68  F   UNL A   1      46.166  34.618  32.484  1.00  0.00    -0.200 F 
ATOM     69  C   UNL A   1      45.957  35.149  30.193  1.00  0.00     0.200 A 
ATOM     70  F   UNL A   1      45.743  35.634  27.891  1.00  0.00    -0.200 F 
ATOM     71  F   UNL A   1      46.190  36.443  30.457  1.00  0.00    -0.200 F 
ENDBRANCH  38  61
ENDBRANCH  12  13
ENDBRANCH   5   7
ENDBRANCH   2   3
ENDBRANCH   1   2
BRANCH   1  72
ATOM     72  C   UNL A   1      37.510  20.955  24.616  1.00  0.00     0.118 C 
BRANCH  72  73
ATOM     73  N   UNL A   1      38.055  22.140  25.270  1.00  0.00    -0.352 N 
ATOM     74  C   UNL A   1      37.410  23.255  25.747  1.00  0.00     0.251 C 
ATOM     75  H   UNL A   1      39.032  22.140  25.387  1.00  0.00     0.163 HD
ATOM     76  O   UNL A   1      38.050  24.237  26.104  1.00  0.00    -0.269 OA
BRANCH  74  77
ATOM     77  C   UNL A   1      35.935  23.274  25.803  1.00  0.00     0.041 A 
ATOM     78  C   UNL A   1      35.261  22.632  26.848  1.00  0.00     0.017 A 
ATOM     79  C   UNL A   1      35.218  23.927  24.796  1.00  0.00     0.039 A 
ATOM     80  C   UNL A   1      33.881  22.490  26.788  1.00  0.00     0.041 A 
ATOM     81  C   UNL A   1      33.819  23.833  24.779  1.00  0.00     0.124 A 
ATOM     82  C   UNL A   1      33.170  23.060  25.736  1.00  0.00     0.143 A 
ATOM     83  F   UNL A   1      31.861  22.805  25.700  1.00  0.00    -0.205 F 
BRANCH  81  84
ATOM     84  S   UNL A   1      32.959  24.719  23.506  1.00  0.00     0.267 S 
ATOM     85  O   UNL A   1      33.980  25.451  22.784  1.00  0.00    -0.201 OA
ATOM     86  O   UNL A   1      32.159  23.718  22.831  1.00  0.00    -0.201 OA
BRANCH  84  87
ATOM     87  N   UNL A   1      31.995  25.848  24.308  1.00  0.00    -0.259 N 
ATOM     88  C   UNL A   1      30.532  25.588  24.353  1.00  0.00     0.177 C 
ATOM     89  C   UNL A   1      32.494  26.706  25.358  1.00  0.00     0.094 A 
ATOM     90  C   UNL A   1      30.110  25.388  25.798  1.00  0.00     0.252 C 
ATOM     91  C   UNL A   1      31.629  27.065  26.411  1.00  0.00     0.143 A 
ATOM     92  C   UNL A   1      33.748  27.323  25.293  1.00  0.00     0.031 A 
ATOM     93  O   UNL A   1      30.353  26.571  26.570  1.00  0.00    -0.489 OA
ATOM     94  C   UNL A   1      32.017  28.006  27.368  1.00  0.00     0.049 A 
ATOM     95  C   UNL A   1      34.149  28.236  26.273  1.00  0.00     0.002 A 
ATOM     96  C   UNL A   1      33.283  28.582  27.306  1.00  0.00     0.004 A 
ENDBRANCH  84  87
ENDBRANCH  81  84
ENDBRANCH  74  77
ENDBRANCH  72  73
ENDBRANCH   1  72
TORSDOF 12
ENDMDL
MODEL 2
REMARK VINA RESULT:     -13.0      5.246     10.443
REMARK SMILES O=C(NCCCNC(=O)c1ccc(F)c(S(=O)(=O)N2CCOc3ccccc32)c1)c1ccc(-c2c3nc(c(-c4c(F)c(F)c(F)c(F)c4F)c4ccc([nH]4)c(-c4c(F)c(F)c(F)c(F)c4F)c4nc(c(-c5c(F)c(F)c(F)c(F)c5F)c5ccc2[nH]5)C=C4)C=C3)cc1
REMARK SMILES IDX 5 1 4 2 3 3 1 4 2 5 30 7 31 8 92 9 32 10 91 11 33 12 34 13
REMARK SMILES IDX 35 14 85 15 36 16 90 17 84 18 86 19 37 20 89 21 83 22 82 23
REMARK SMILES IDX 38 25 70 26 50 27 69 28 51 29 54 30 68 31 87 32 52 33 53 34
REMARK SMILES IDX 67 36 88 37 55 38 39 39 40 40 48 41 41 42 42 43 46 44 49 45
REMARK SMILES IDX 43 46 44 47 47 48 45 49 71 50 72 51 80 52 73 53 74 54 78 55
REMARK SMILES IDX 81 56 75 57 76 58 79 59 77 60 56 61 57 62 65 63 58 64 59 65
REMARK SMILES IDX 63 66 66 67 60 68 61 69 64 70 62 71 6 72 7 73 8 74 9 76
REMARK SMILES IDX 10 77 11 78 29 79 12 80 15 81 13 82 14 83 16 84 17 85 18 86
REMARK SMILES IDX 19 87 20 88 28 89 21 90 23 91 27 92 22 93 24 94 26 95 25 96
REMARK H PARENT 3 6 86 24 54 35 7 75
REMARK Flexibility Score: inf
ROOT
ATOM      1  C   UNL A   1      31.535  32.072  26.874  1.00  0.00     0.042 C 
ENDROOT
BRANCH   1   2
ATOM      2  C   UNL A   1      32.801  32.887  27.076  1.00  0.00     0.118 C 
BRANCH   2   3
ATOM      3  N   UNL A   1      32.529  34.207  27.626  1.00  0.00    -0.352 N 
ATOM      4  O   UNL A   1      32.528  35.861  29.152  1.00  0.00    -0.269 OA
ATOM      5  C   UNL A   1      33.042  34.826  28.739  1.00  0.00     0.251 C 
ATOM      6  H   UNL A   1      31.874  34.741  27.119  1.00  0.00     0.163 HD
BRANCH   5   7
ATOM      7  C   UNL A   1      34.205  34.249  29.445  1.00  0.00     0.039 A 
ATOM      8  C   UNL A   1      34.028  33.340  30.491  1.00  0.00     0.014 A 
ATOM      9  C   UNL A   1      35.495  34.577  29.018  1.00  0.00     0.014 A 
ATOM     10  C   UNL A   1      35.127  32.867  31.195  1.00  0.00     0.010 A 
ATOM     11  C   UNL A   1      36.604  34.022  29.661  1.00  0.00     0.010 A 
ATOM     12  C   UNL A   1      36.426  33.170  30.763  1.00  0.00    -0.014 A 
BRANCH  12  13
ATOM     13  C   UNL A   1      37.576  32.477  31.391  1.00  0.00     0.031 A 
ATOM     14  C   UNL A   1      38.270  31.338  30.706  1.00  0.00     0.074 A 
ATOM     15  C   UNL A   1      37.981  32.897  32.605  1.00  0.00     0.049 A 
ATOM     16  N   UNL A   1      39.262  30.603  31.143  1.00  0.00    -0.248 NA
ATOM     17  C   UNL A   1      37.796  30.968  29.363  1.00  0.00     0.031 C 
ATOM     18  C   UNL A   1      37.365  33.990  33.364  1.00  0.00     0.029 A 
ATOM     19  N   UNL A   1      39.000  32.467  33.417  1.00  0.00    -0.354 N 
ATOM     20  C   UNL A   1      39.519  29.677  30.143  1.00  0.00     0.074 A 
ATOM     21  C   UNL A   1      38.571  29.929  29.077  1.00  0.00     0.031 C 
ATOM     22  C   UNL A   1      38.032  34.163  34.511  1.00  0.00     0.029 A 
ATOM     23  C   UNL A   1      39.074  33.148  34.608  1.00  0.00     0.049 A 
ATOM     24  H   UNL A   1      39.617  31.742  33.169  1.00  0.00     0.167 HD
ATOM     25  C   UNL A   1      40.466  28.711  30.125  1.00  0.00     0.037 A 
ATOM     26  C   UNL A   1      39.864  32.954  35.679  1.00  0.00     0.037 A 
ATOM     27  C   UNL A   1      41.421  28.495  31.181  1.00  0.00     0.049 A 
ATOM     28  C   UNL A   1      40.878  31.849  35.642  1.00  0.00     0.074 A 
ATOM     29  C   UNL A   1      42.470  27.591  31.216  1.00  0.00     0.029 A 
ATOM     30  N   UNL A   1      41.442  29.181  32.385  1.00  0.00    -0.354 N 
ATOM     31  N   UNL A   1      41.143  31.012  34.670  1.00  0.00    -0.248 NA
ATOM     32  C   UNL A   1      41.692  31.649  36.848  1.00  0.00     0.031 C 
ATOM     33  C   UNL A   1      43.089  27.690  32.465  1.00  0.00     0.029 A 
ATOM     34  C   UNL A   1      42.459  28.690  33.189  1.00  0.00     0.049 A 
ATOM     35  H   UNL A   1      40.826  29.909  32.633  1.00  0.00     0.167 HD
ATOM     36  C   UNL A   1      42.153  30.189  35.141  1.00  0.00     0.074 A 
ATOM     37  C   UNL A   1      42.471  30.641  36.480  1.00  0.00     0.031 C 
ATOM     38  C   UNL A   1      42.756  29.147  34.521  1.00  0.00     0.037 A 
BRANCH  25  39
ATOM     39  C   UNL A   1      40.541  27.797  28.940  1.00  0.00     0.064 A 
ATOM     40  C   UNL A   1      41.332  28.144  27.833  1.00  0.00     0.173 A 
ATOM     41  C   UNL A   1      39.726  26.662  28.836  1.00  0.00     0.173 A 
ATOM     42  F   UNL A   1      42.123  29.226  27.881  1.00  0.00    -0.203 F 
ATOM     43  C   UNL A   1      41.281  27.404  26.655  1.00  0.00     0.198 A 
ATOM     44  C   UNL A   1      39.692  25.912  27.662  1.00  0.00     0.198 A 
ATOM     45  F   UNL A   1      38.955  26.288  29.868  1.00  0.00    -0.203 F 
ATOM     46  F   UNL A   1      42.009  27.780  25.595  1.00  0.00    -0.200 F 
ATOM     47  C   UNL A   1      40.458  26.291  26.570  1.00  0.00     0.200 A 
ATOM     48  F   UNL A   1      38.906  24.830  27.584  1.00  0.00    -0.200 F 
ATOM     49  F   UNL A   1      40.398  25.587  25.431  1.00  0.00    -0.200 F 
ENDBRANCH  25  39
BRANCH  26  50
ATOM     50  C   UNL A   1      39.686  33.809  36.881  1.00  0.00     0.064 A 
ATOM     51  C   UNL A   1      38.843  33.413  37.932  1.00  0.00     0.173 A 
ATOM     52  C   UNL A   1      40.319  35.053  36.986  1.00  0.00     0.173 A 
ATOM     53  F   UNL A   1      38.208  32.233  37.876  1.00  0.00    -0.203 F 
ATOM     54  C   UNL A   1      38.620  34.242  39.028  1.00  0.00     0.198 A 
ATOM     55  C   UNL A   1      40.120  35.868  38.098  1.00  0.00     0.198 A 
ATOM     56  F   UNL A   1      41.147  35.468  36.016  1.00  0.00    -0.203 F 
ATOM     57  F   UNL A   1      37.775  33.858  39.994  1.00  0.00    -0.200 F 
ATOM     58  C   UNL A   1      39.262  35.467  39.113  1.00  0.00     0.200 A 
ATOM     59  F   UNL A   1      40.760  37.042  38.190  1.00  0.00    -0.200 F 
ATOM     60  F   UNL A   1      39.058  36.259  40.173  1.00  0.00    -0.200 F 
ENDBRANCH  26  50
BRANCH  38  61
ATOM     61  C   UNL A   1      43.819  28.410  35.276  1.00  0.00     0.064 A 
ATOM     62  C   UNL A   1      45.166  28.785  35.162  1.00  0.00     0.173 A 
ATOM     63  C   UNL A   1      43.512  27.268  36.028  1.00  0.00     0.173 A 
ATOM     64  F   UNL A   1      45.508  29.868  34.446  1.00  0.00    -0.203 F 
ATOM     65  C   UNL A   1      46.170  28.025  35.752  1.00  0.00     0.198 A 
ATOM     66  C   UNL A   1      44.517  26.524  36.638  1.00  0.00     0.198 A 
ATOM     67  F   UNL A   1      42.235  26.881  36.176  1.00  0.00    -0.203 F 
ATOM     68  F   UNL A   1      47.454  28.375  35.594  1.00  0.00    -0.200 F 
ATOM     69  C   UNL A   1      45.845  26.896  36.488  1.00  0.00     0.200 A 
ATOM     70  F   UNL A   1      44.201  25.445  37.366  1.00  0.00    -0.200 F 
ATOM     71  F   UNL A   1      46.814  26.162  37.054  1.00  0.00    -0.200 F 
ENDBRANCH  38  61
ENDBRANCH  12  13
ENDBRANCH   5   7
ENDBRANCH   2   3
ENDBRANCH   1   2
BRANCH   1  72
ATOM     72  C   UNL A   1      31.778  30.573  26.848  1.00  0.00     0.118 C 
BRANCH  72  73
ATOM     73  N   UNL A   1      33.117  30.214  27.302  1.00  0.00    -0.352 N 
ATOM     74  C   UNL A   1      33.922  29.168  26.924  1.00  0.00     0.251 C 
ATOM     75  H   UNL A   1      33.502  30.813  27.982  1.00  0.00     0.163 HD
ATOM     76  O   UNL A   1      34.948  28.918  27.546  1.00  0.00    -0.269 OA
BRANCH  74  77
ATOM     77  C   UNL A   1      33.532  28.328  25.775  1.00  0.00     0.041 A 
ATOM     78  C   UNL A   1      33.729  28.784  24.468  1.00  0.00     0.017 A 
ATOM     79  C   UNL A   1      32.950  27.078  26.006  1.00  0.00     0.039 A 
ATOM     80  C   UNL A   1      33.185  28.076  23.405  1.00  0.00     0.041 A 
ATOM     81  C   UNL A   1      32.460  26.338  24.920  1.00  0.00     0.124 A 
ATOM     82  C   UNL A   1      32.522  26.875  23.639  1.00  0.00     0.143 A 
ATOM     83  F   UNL A   1      31.949  26.299  22.580  1.00  0.00    -0.205 F 
BRANCH  81  84
ATOM     84  S   UNL A   1      31.774  24.740  25.266  1.00  0.00     0.267 S 
ATOM     85  O   UNL A   1      31.908  24.561  26.698  1.00  0.00    -0.201 OA
ATOM     86  O   UNL A   1      30.464  24.754  24.648  1.00  0.00    -0.201 OA
BRANCH  84  87
ATOM     87  N   UNL A   1      32.802  23.630  24.518  1.00  0.00    -0.259 N 
ATOM     88  C   UNL A   1      32.338  23.019  23.245  1.00  0.00     0.177 C 
ATOM     89  C   UNL A   1      34.234  23.632  24.705  1.00  0.00     0.094 A 
ATOM     90  C   UNL A   1      33.275  23.436  22.126  1.00  0.00     0.252 C 
ATOM     91  C   UNL A   1      35.061  23.244  23.632  1.00  0.00     0.143 A 
ATOM     92  C   UNL A   1      34.829  23.851  25.952  1.00  0.00     0.031 A 
ATOM     93  O   UNL A   1      34.603  22.954  22.366  1.00  0.00    -0.489 OA
ATOM     94  C   UNL A   1      36.439  23.090  23.808  1.00  0.00     0.049 A 
ATOM     95  C   UNL A   1      36.213  23.733  26.116  1.00  0.00     0.002 A 
ATOM     96  C   UNL A   1      37.017  23.347  25.048  1.00  0.00     0.004 A 
ENDBRANCH  84  87
ENDBRANCH  81  84
ENDBRANCH  74  77
ENDBRANCH  72  73
ENDBRANCH   1  72
TORSDOF 12
ENDMDL
MODEL 3
REMARK VINA RESULT:     -13.0      0.897      1.488
REMARK SMILES O=C(NCCCNC(=O)c1ccc(F)c(S(=O)(=O)N2CCOc3ccccc32)c1)c1ccc(-c2c3nc(c(-c4c(F)c(F)c(F)c(F)c4F)c4ccc([nH]4)c(-c4c(F)c(F)c(F)c(F)c4F)c4nc(c(-c5c(F)c(F)c(F)c(F)c5F)c5ccc2[nH]5)C=C4)C=C3)cc1
REMARK SMILES IDX 5 1 4 2 3 3 1 4 2 5 30 7 31 8 92 9 32 10 91 11 33 12 34 13
REMARK SMILES IDX 35 14 85 15 36 16 90 17 84 18 86 19 37 20 89 21 83 22 82 23
REMARK SMILES IDX 38 25 70 26 50 27 69 28 51 29 54 30 68 31 87 32 52 33 53 34
REMARK SMILES IDX 67 36 88 37 55 38 39 39 40 40 48 41 41 42 42 43 46 44 49 45
REMARK SMILES IDX 43 46 44 47 47 48 45 49 71 50 72 51 80 52 73 53 74 54 78 55
REMARK SMILES IDX 81 56 75 57 76 58 79 59 77 60 56 61 57 62 65 63 58 64 59 65
REMARK SMILES IDX 63 66 66 67 60 68 61 69 64 70 62 71 6 72 7 73 8 74 9 76
REMARK SMILES IDX 10 77 11 78 29 79 12 80 15 81 13 82 14 83 16 84 17 85 18 86
REMARK SMILES IDX 19 87 20 88 28 89 21 90 23 91 27 92 22 93 24 94 26 95 25 96
REMARK H PARENT 3 6 86 24 54 35 7 75
REMARK Flexibility Score: inf
ROOT
ATOM      1  C   UNL A   1      38.269  19.890  24.976  1.00  0.00     0.042 C 
ENDROOT
BRANCH   1   2
ATOM      2  C   UNL A   1      39.271  20.094  26.099  1.00  0.00     0.118 C 
BRANCH   2   3
ATOM      3  N   UNL A   1      40.386  19.160  26.024  1.00  0.00    -0.352 N 
ATOM      4  O   UNL A   1      42.513  18.485  25.734  1.00  0.00    -0.269 OA
ATOM      5  C   UNL A   1      41.738  19.395  26.015  1.00  0.00     0.251 C 
ATOM      6  H   UNL A   1      40.129  18.211  25.973  1.00  0.00     0.163 HD
BRANCH   5   7
ATOM      7  C   UNL A   1      42.266  20.739  26.334  1.00  0.00     0.039 A 
ATOM      8  C   UNL A   1      42.503  21.673  25.324  1.00  0.00     0.014 A 
ATOM      9  C   UNL A   1      42.474  21.090  27.672  1.00  0.00     0.014 A 
ATOM     10  C   UNL A   1      43.071  22.902  25.632  1.00  0.00     0.010 A 
ATOM     11  C   UNL A   1      42.950  22.364  27.991  1.00  0.00     0.010 A 
ATOM     12  C   UNL A   1      43.262  23.275  26.970  1.00  0.00    -0.014 A 
BRANCH  12  13
ATOM     13  C   UNL A   1      43.659  24.670  27.279  1.00  0.00     0.031 A 
ATOM     14  C   UNL A   1      42.663  25.672  27.781  1.00  0.00     0.074 A 
ATOM     15  C   UNL A   1      44.947  25.017  27.093  1.00  0.00     0.049 A 
ATOM     16  N   UNL A   1      42.845  26.939  28.056  1.00  0.00    -0.248 NA
ATOM     17  C   UNL A   1      41.285  25.203  28.000  1.00  0.00     0.031 C 
ATOM     18  C   UNL A   1      45.995  24.119  26.597  1.00  0.00     0.029 A 
ATOM     19  N   UNL A   1      45.601  26.205  27.298  1.00  0.00    -0.354 N 
ATOM     20  C   UNL A   1      41.609  27.422  28.462  1.00  0.00     0.074 A 
ATOM     21  C   UNL A   1      40.676  26.318  28.386  1.00  0.00     0.031 C 
ATOM     22  C   UNL A   1      47.160  24.777  26.562  1.00  0.00     0.029 A 
ATOM     23  C   UNL A   1      46.932  26.161  26.958  1.00  0.00     0.049 A 
ATOM     24  H   UNL A   1      45.160  27.010  27.651  1.00  0.00     0.167 HD
ATOM     25  C   UNL A   1      41.296  28.675  28.864  1.00  0.00     0.037 A 
ATOM     26  C   UNL A   1      47.861  27.134  26.931  1.00  0.00     0.037 A 
ATOM     27  C   UNL A   1      42.244  29.754  28.964  1.00  0.00     0.049 A 
ATOM     28  C   UNL A   1      47.471  28.522  27.346  1.00  0.00     0.074 A 
ATOM     29  C   UNL A   1      42.035  31.038  29.438  1.00  0.00     0.029 A 
ATOM     30  N   UNL A   1      43.574  29.680  28.580  1.00  0.00    -0.354 N 
ATOM     31  N   UNL A   1      46.310  28.953  27.774  1.00  0.00    -0.248 NA
ATOM     32  C   UNL A   1      48.506  29.560  27.262  1.00  0.00     0.031 C 
ATOM     33  C   UNL A   1      43.223  31.758  29.285  1.00  0.00     0.029 A 
ATOM     34  C   UNL A   1      44.186  30.910  28.764  1.00  0.00     0.049 A 
ATOM     35  H   UNL A   1      44.018  28.874  28.227  1.00  0.00     0.167 HD
ATOM     36  C   UNL A   1      46.473  30.308  28.015  1.00  0.00     0.074 A 
ATOM     37  C   UNL A   1      47.852  30.625  27.706  1.00  0.00     0.031 C 
ATOM     38  C   UNL A   1      45.558  31.209  28.445  1.00  0.00     0.037 A 
BRANCH  25  39
ATOM     39  C   UNL A   1      39.875  28.980  29.232  1.00  0.00     0.064 A 
ATOM     40  C   UNL A   1      39.425  28.753  30.543  1.00  0.00     0.173 A 
ATOM     41  C   UNL A   1      38.931  29.352  28.267  1.00  0.00     0.173 A 
ATOM     42  F   UNL A   1      40.289  28.387  31.500  1.00  0.00    -0.203 F 
ATOM     43  C   UNL A   1      38.074  28.859  30.864  1.00  0.00     0.198 A 
ATOM     44  C   UNL A   1      37.583  29.477  28.597  1.00  0.00     0.198 A 
ATOM     45  F   UNL A   1      39.314  29.583  27.002  1.00  0.00    -0.203 F 
ATOM     46  F   UNL A   1      37.660  28.593  32.111  1.00  0.00    -0.200 F 
ATOM     47  C   UNL A   1      37.155  29.218  29.891  1.00  0.00     0.200 A 
ATOM     48  F   UNL A   1      36.696  29.835  27.659  1.00  0.00    -0.200 F 
ATOM     49  F   UNL A   1      35.853  29.306  30.198  1.00  0.00    -0.200 F 
ENDBRANCH  25  39
BRANCH  26  50
ATOM     50  C   UNL A   1      49.233  26.820  26.454  1.00  0.00     0.064 A 
ATOM     51  C   UNL A   1      49.581  26.972  25.102  1.00  0.00     0.173 A 
ATOM     52  C   UNL A   1      50.207  26.324  27.326  1.00  0.00     0.173 A 
ATOM     53  F   UNL A   1      48.679  27.438  24.224  1.00  0.00    -0.203 F 
ATOM     54  C   UNL A   1      50.843  26.614  24.638  1.00  0.00     0.198 A 
ATOM     55  C   UNL A   1      51.481  25.995  26.867  1.00  0.00     0.198 A 
ATOM     56  F   UNL A   1      49.929  26.177  28.630  1.00  0.00    -0.203 F 
ATOM     57  F   UNL A   1      51.133  26.726  23.335  1.00  0.00    -0.200 F 
ATOM     58  C   UNL A   1      51.795  26.130  25.522  1.00  0.00     0.200 A 
ATOM     59  F   UNL A   1      52.407  25.549  27.727  1.00  0.00    -0.200 F 
ATOM     60  F   UNL A   1      53.014  25.797  25.079  1.00  0.00    -0.200 F 
ENDBRANCH  26  50
BRANCH  38  61
ATOM     61  C   UNL A   1      46.003  32.629  28.605  1.00  0.00     0.064 A 
ATOM     62  C   UNL A   1      46.494  33.089  29.837  1.00  0.00     0.173 A 
ATOM     63  C   UNL A   1      45.845  33.558  27.568  1.00  0.00     0.173 A 
ATOM     64  F   UNL A   1      46.656  32.236  30.860  1.00  0.00    -0.203 F 
ATOM     65  C   UNL A   1      46.784  34.435  30.031  1.00  0.00     0.198 A 
ATOM     66  C   UNL A   1      46.159  34.900  27.759  1.00  0.00     0.198 A 
ATOM     67  F   UNL A   1      45.393  33.160  26.369  1.00  0.00    -0.203 F 
ATOM     68  F   UNL A   1      47.208  34.862  31.229  1.00  0.00    -0.200 F 
ATOM     69  C   UNL A   1      46.615  35.339  28.993  1.00  0.00     0.200 A 
ATOM     70  F   UNL A   1      46.016  35.770  26.750  1.00  0.00    -0.200 F 
ATOM     71  F   UNL A   1      46.891  36.637  29.183  1.00  0.00    -0.200 F 
ENDBRANCH  38  61
ENDBRANCH  12  13
ENDBRANCH   5   7
ENDBRANCH   2   3
ENDBRANCH   1   2
BRANCH   1  72
ATOM     72  C   UNL A   1      37.517  21.155  24.599  1.00  0.00     0.118 C 
BRANCH  72  73
ATOM     73  N   UNL A   1      38.015  22.333  25.300  1.00  0.00    -0.352 N 
ATOM     74  C   UNL A   1      37.330  23.410  25.805  1.00  0.00     0.251 C 
ATOM     75  H   UNL A   1      38.991  22.359  25.431  1.00  0.00     0.163 HD
ATOM     76  O   UNL A   1      37.933  24.398  26.204  1.00  0.00    -0.269 OA
BRANCH  74  77
ATOM     77  C   UNL A   1      35.854  23.381  25.841  1.00  0.00     0.041 A 
ATOM     78  C   UNL A   1      35.187  22.682  26.853  1.00  0.00     0.017 A 
ATOM     79  C   UNL A   1      35.131  24.046  24.847  1.00  0.00     0.039 A 
ATOM     80  C   UNL A   1      33.813  22.499  26.769  1.00  0.00     0.041 A 
ATOM     81  C   UNL A   1      33.736  23.909  24.807  1.00  0.00     0.124 A 
ATOM     82  C   UNL A   1      33.099  23.084  25.727  1.00  0.00     0.143 A 
ATOM     83  F   UNL A   1      31.798  22.790  25.663  1.00  0.00    -0.205 F 
BRANCH  81  84
ATOM     84  S   UNL A   1      32.864  24.812  23.553  1.00  0.00     0.267 S 
ATOM     85  O   UNL A   1      33.880  25.555  22.833  1.00  0.00    -0.201 OA
ATOM     86  O   UNL A   1      32.059  23.820  22.872  1.00  0.00    -0.201 OA
BRANCH  84  87
ATOM     87  N   UNL A   1      31.907  25.930  24.378  1.00  0.00    -0.259 N 
ATOM     88  C   UNL A   1      30.446  25.664  24.441  1.00  0.00     0.177 C 
ATOM     89  C   UNL A   1      32.416  26.781  25.429  1.00  0.00     0.094 A 
ATOM     90  C   UNL A   1      30.045  25.449  25.890  1.00  0.00     0.252 C 
ATOM     91  C   UNL A   1      31.564  27.127  26.497  1.00  0.00     0.143 A 
ATOM     92  C   UNL A   1      33.666  27.404  25.352  1.00  0.00     0.031 A 
ATOM     93  O   UNL A   1      30.293  26.626  26.669  1.00  0.00    -0.489 OA
ATOM     94  C   UNL A   1      31.962  28.061  27.457  1.00  0.00     0.049 A 
ATOM     95  C   UNL A   1      34.077  28.310  26.335  1.00  0.00     0.002 A 
ATOM     96  C   UNL A   1      33.224  28.643  27.383  1.00  0.00     0.004 A 
ENDBRANCH  84  87
ENDBRANCH  81  84
ENDBRANCH  74  77
ENDBRANCH  72  73
ENDBRANCH   1  72
TORSDOF 12
ENDMDL
