MODEL 1
REMARK VINA RESULT:     -12.0      0.000      0.000
REMARK SMILES C[NH2+][C@]1(C(=O)NCCCNC(=O)c2ccc(-c3c4nc(c(-c5c(F)c(F)c(F)c(F)c5F)c5ccc([nH]5)c(-c5c(F)c(F)c(F)c(F)c5F)c5nc(c(-c6c(F)c(F)c(F)c(F)c6F)c6ccc3[nH]6)C=C5)C=C4)cc2)CCC[C@@H]1CCSc1cccc(Cl)c1
REMARK SMILES IDX 7 1 6 2 4 3 5 4 3 6 76 7 79 8 77 9 78 10 2 11 1 12 80 15
REMARK SMILES IDX 81 16 82 17 83 18 84 19 89 20 85 21 87 22 86 23 88 24 8 25
REMARK SMILES IDX 9 26 10 27 11 28 12 30 13 31 14 32 75 33 15 34 74 35 16 36
REMARK SMILES IDX 17 37 18 38 68 39 19 40 73 41 67 42 69 43 20 44 72 45 66 46
REMARK SMILES IDX 65 47 21 49 53 50 33 51 52 52 34 53 37 54 51 55 70 56 35 57
REMARK SMILES IDX 36 58 50 60 71 61 38 62 22 63 23 64 31 65 24 66 25 67 29 68
REMARK SMILES IDX 32 69 26 70 27 71 30 72 28 73 54 74 55 75 63 76 56 77 57 78
REMARK SMILES IDX 61 79 64 80 58 81 59 82 62 83 60 84 39 85 40 86 48 87 41 88
REMARK SMILES IDX 42 89 46 90 49 91 43 92 44 93 47 94 45 95
REMARK H PARENT 6 5 2 13 2 14 10 29 69 48 37 59
REMARK Flexibility Score: inf
ROOT
ATOM      1  C   UNL A   1      31.544  30.611  26.121  1.00  0.00     0.118 C 
ENDROOT
BRANCH   1   2
ATOM      2  N   UNL A   1      31.053  30.296  24.792  1.00  0.00    -0.351 N 
ATOM      3  C   UNL A   1      31.219  29.230  23.965  1.00  0.00     0.281 C 
ATOM      4  O   UNL A   1      30.668  29.342  22.860  1.00  0.00    -0.268 OA
ATOM      5  H   UNL A   1      30.482  31.001  24.410  1.00  0.00     0.163 HD
BRANCH   3   6
ATOM      6  C   UNL A   1      32.103  27.966  24.299  1.00  0.00     0.178 C 
ATOM      7  C   UNL A   1      33.449  28.437  24.896  1.00  0.00     0.079 C 
ATOM      8  C   UNL A   1      31.500  27.075  25.417  1.00  0.00     0.061 C 
ATOM      9  C   UNL A   1      33.838  27.422  25.972  1.00  0.00     0.008 C 
ATOM     10  C   UNL A   1      32.718  26.388  26.043  1.00  0.00     0.011 C 
BRANCH   6  11
ATOM     11  N   UNL A   1      32.283  27.243  23.010  1.00  0.00    -0.336 N 
ATOM     12  C   UNL A   1      33.502  27.409  22.248  1.00  0.00     0.331 C 
ATOM     13  H   UNL A   1      32.200  26.248  23.217  1.00  0.00     0.346 HD
ATOM     14  H   UNL A   1      31.574  27.661  22.408  1.00  0.00     0.346 HD
ENDBRANCH   6  11
BRANCH   8  15
ATOM     15  C   UNL A   1      30.364  26.129  25.003  1.00  0.00     0.022 C 
BRANCH  15  16
ATOM     16  C   UNL A   1      30.716  24.635  25.100  1.00  0.00     0.075 C 
BRANCH  16  17
ATOM     17  S   UNL A   1      31.213  23.856  23.507  1.00  0.00    -0.126 SA
BRANCH  17  18
ATOM     18  C   UNL A   1      32.898  23.291  23.705  1.00  0.00     0.009 A 
ATOM     19  C   UNL A   1      34.038  24.054  23.448  1.00  0.00     0.015 A 
ATOM     20  C   UNL A   1      33.074  21.970  24.148  1.00  0.00     0.035 A 
ATOM     21  C   UNL A   1      35.319  23.561  23.723  1.00  0.00     0.003 A 
ATOM     22  C   UNL A   1      34.354  21.461  24.374  1.00  0.00     0.042 A 
ATOM     23  C   UNL A   1      35.477  22.262  24.195  1.00  0.00     0.020 A 
ATOM     24  Cl  UNL A   1      34.559  19.828  24.864  1.00  0.00    -0.084 Cl
ENDBRANCH  17  18
ENDBRANCH  16  17
ENDBRANCH  15  16
ENDBRANCH   8  15
ENDBRANCH   3   6
ENDBRANCH   1   2
BRANCH   1  25
ATOM     25  C   UNL A   1      31.340  32.067  26.506  1.00  0.00     0.042 C 
BRANCH  25  26
ATOM     26  C   UNL A   1      32.556  32.736  27.128  1.00  0.00     0.118 C 
BRANCH  26  27
ATOM     27  N   UNL A   1      32.291  34.071  27.644  1.00  0.00    -0.352 N 
ATOM     28  C   UNL A   1      32.971  34.809  28.581  1.00  0.00     0.251 C 
ATOM     29  H   UNL A   1      31.500  34.515  27.261  1.00  0.00     0.163 HD
ATOM     30  O   UNL A   1      32.579  35.934  28.892  1.00  0.00    -0.269 OA
BRANCH  28  31
ATOM     31  C   UNL A   1      34.175  34.264  29.236  1.00  0.00     0.039 A 
ATOM     32  C   UNL A   1      35.437  34.697  28.815  1.00  0.00     0.014 A 
ATOM     33  C   UNL A   1      34.060  33.298  30.236  1.00  0.00     0.014 A 
ATOM     34  C   UNL A   1      36.585  34.196  29.436  1.00  0.00     0.010 A 
ATOM     35  C   UNL A   1      35.195  32.864  30.909  1.00  0.00     0.010 A 
ATOM     36  C   UNL A   1      36.469  33.292  30.502  1.00  0.00    -0.014 A 
BRANCH  36  37
ATOM     37  C   UNL A   1      37.655  32.709  31.178  1.00  0.00     0.031 A 
ATOM     38  C   UNL A   1      38.394  31.581  30.511  1.00  0.00     0.074 A 
ATOM     39  C   UNL A   1      38.002  33.113  32.413  1.00  0.00     0.049 A 
ATOM     40  N   UNL A   1      39.324  30.795  30.991  1.00  0.00    -0.248 NA
ATOM     41  C   UNL A   1      37.999  31.269  29.127  1.00  0.00     0.031 C 
ATOM     42  C   UNL A   1      37.348  34.178  33.172  1.00  0.00     0.029 A 
ATOM     43  N   UNL A   1      38.981  32.653  33.257  1.00  0.00    -0.354 N 
ATOM     44  C   UNL A   1      39.591  29.874  29.987  1.00  0.00     0.074 A 
ATOM     45  C   UNL A   1      38.701  30.171  28.887  1.00  0.00     0.031 C 
ATOM     46  C   UNL A   1      37.948  34.294  34.369  1.00  0.00     0.029 A 
ATOM     47  C   UNL A   1      38.998  33.286  34.476  1.00  0.00     0.049 A 
ATOM     48  H   UNL A   1      39.613  31.937  33.013  1.00  0.00     0.167 HD
ATOM     49  C   UNL A   1      40.510  28.880  29.978  1.00  0.00     0.037 A 
ATOM     50  C   UNL A   1      39.765  33.062  35.561  1.00  0.00     0.037 A 
ATOM     51  C   UNL A   1      41.429  28.623  31.054  1.00  0.00     0.049 A 
ATOM     52  C   UNL A   1      40.796  31.966  35.517  1.00  0.00     0.074 A 
ATOM     53  C   UNL A   1      42.445  27.687  31.120  1.00  0.00     0.029 A 
ATOM     54  N   UNL A   1      41.446  29.320  32.254  1.00  0.00    -0.354 N 
ATOM     55  N   UNL A   1      41.069  31.125  34.550  1.00  0.00    -0.248 NA
ATOM     56  C   UNL A   1      41.627  31.792  36.717  1.00  0.00     0.031 C 
ATOM     57  C   UNL A   1      43.056  27.794  32.372  1.00  0.00     0.029 A 
ATOM     58  C   UNL A   1      42.449  28.826  33.072  1.00  0.00     0.049 A 
ATOM     59  H   UNL A   1      40.837  30.056  32.489  1.00  0.00     0.167 HD
ATOM     60  C   UNL A   1      42.120  30.343  35.009  1.00  0.00     0.074 A 
ATOM     61  C   UNL A   1      42.441  30.816  36.340  1.00  0.00     0.031 C 
ATOM     62  C   UNL A   1      42.760  29.323  34.386  1.00  0.00     0.037 A 
BRANCH  49  63
ATOM     63  C   UNL A   1      40.563  27.995  28.765  1.00  0.00     0.064 A 
ATOM     64  C   UNL A   1      41.347  28.321  27.649  1.00  0.00     0.173 A 
ATOM     65  C   UNL A   1      39.834  26.797  28.727  1.00  0.00     0.173 A 
ATOM     66  F   UNL A   1      42.053  29.462  27.628  1.00  0.00    -0.203 F 
ATOM     67  C   UNL A   1      41.372  27.497  26.525  1.00  0.00     0.198 A 
ATOM     68  C   UNL A   1      39.886  25.961  27.615  1.00  0.00     0.198 A 
ATOM     69  F   UNL A   1      39.071  26.435  29.770  1.00  0.00    -0.203 F 
ATOM     70  F   UNL A   1      42.086  27.858  25.449  1.00  0.00    -0.200 F 
ATOM     71  C   UNL A   1      40.647  26.316  26.512  1.00  0.00     0.200 A 
ATOM     72  F   UNL A   1      39.194  24.813  27.609  1.00  0.00    -0.200 F 
ATOM     73  F   UNL A   1      40.675  25.522  25.432  1.00  0.00    -0.200 F 
ENDBRANCH  49  63
BRANCH  50  74
ATOM     74  C   UNL A   1      39.604  33.910  36.770  1.00  0.00     0.064 A 
ATOM     75  C   UNL A   1      38.811  33.481  37.843  1.00  0.00     0.173 A 
ATOM     76  C   UNL A   1      40.238  35.156  36.883  1.00  0.00     0.173 A 
ATOM     77  F   UNL A   1      38.168  32.307  37.772  1.00  0.00    -0.203 F 
ATOM     78  C   UNL A   1      38.643  34.275  38.977  1.00  0.00     0.198 A 
ATOM     79  C   UNL A   1      40.090  35.937  38.028  1.00  0.00     0.198 A 
ATOM     80  F   UNL A   1      41.012  35.609  35.886  1.00  0.00    -0.203 F 
ATOM     81  F   UNL A   1      37.847  33.858  39.970  1.00  0.00    -0.200 F 
ATOM     82  C   UNL A   1      39.288  35.498  39.070  1.00  0.00     0.200 A 
ATOM     83  F   UNL A   1      40.726  37.113  38.121  1.00  0.00    -0.200 F 
ATOM     84  F   UNL A   1      39.131  36.258  40.163  1.00  0.00    -0.200 F 
ENDBRANCH  50  74
BRANCH  62  85
ATOM     85  C   UNL A   1      43.900  28.680  35.120  1.00  0.00     0.064 A 
ATOM     86  C   UNL A   1      45.222  29.115  34.951  1.00  0.00     0.173 A 
ATOM     87  C   UNL A   1      43.657  27.646  36.037  1.00  0.00     0.173 A 
ATOM     88  F   UNL A   1      45.504  30.090  34.074  1.00  0.00    -0.203 F 
ATOM     89  C   UNL A   1      46.264  28.522  35.658  1.00  0.00     0.198 A 
ATOM     90  C   UNL A   1      44.698  27.075  36.763  1.00  0.00     0.198 A 
ATOM     91  F   UNL A   1      42.408  27.200  36.238  1.00  0.00    -0.203 F 
ATOM     92  F   UNL A   1      47.525  28.924  35.451  1.00  0.00    -0.200 F 
ATOM     93  C   UNL A   1      46.000  27.508  36.568  1.00  0.00     0.200 A 
ATOM     94  F   UNL A   1      44.441  26.104  37.650  1.00  0.00    -0.200 F 
ATOM     95  F   UNL A   1      47.004  26.945  37.254  1.00  0.00    -0.200 F 
ENDBRANCH  62  85
ENDBRANCH  36  37
ENDBRANCH  28  31
ENDBRANCH  26  27
ENDBRANCH  25  26
ENDBRANCH   1  25
TORSDOF 15
ENDMDL
MODEL 2
REMARK VINA RESULT:     -11.9      0.539      2.087
REMARK SMILES C[NH2+][C@]1(C(=O)NCCCNC(=O)c2ccc(-c3c4nc(c(-c5c(F)c(F)c(F)c(F)c5F)c5ccc([nH]5)c(-c5c(F)c(F)c(F)c(F)c5F)c5nc(c(-c6c(F)c(F)c(F)c(F)c6F)c6ccc3[nH]6)C=C5)C=C4)cc2)CCC[C@@H]1CCSc1cccc(Cl)c1
REMARK SMILES IDX 7 1 6 2 4 3 5 4 3 6 76 7 79 8 77 9 78 10 2 11 1 12 80 15
REMARK SMILES IDX 81 16 82 17 83 18 84 19 89 20 85 21 87 22 86 23 88 24 8 25
REMARK SMILES IDX 9 26 10 27 11 28 12 30 13 31 14 32 75 33 15 34 74 35 16 36
REMARK SMILES IDX 17 37 18 38 68 39 19 40 73 41 67 42 69 43 20 44 72 45 66 46
REMARK SMILES IDX 65 47 21 49 53 50 33 51 52 52 34 53 37 54 51 55 70 56 35 57
REMARK SMILES IDX 36 58 50 60 71 61 38 62 22 63 23 64 31 65 24 66 25 67 29 68
REMARK SMILES IDX 32 69 26 70 27 71 30 72 28 73 54 74 55 75 63 76 56 77 57 78
REMARK SMILES IDX 61 79 64 80 58 81 59 82 62 83 60 84 39 85 40 86 48 87 41 88
REMARK SMILES IDX 42 89 46 90 49 91 43 92 44 93 47 94 45 95
REMARK H PARENT 6 5 2 13 2 14 10 29 69 48 37 59
REMARK Flexibility Score: inf
ROOT
ATOM      1  C   UNL A   1      31.521  30.458  25.997  1.00  0.00     0.118 C 
ENDROOT
BRANCH   1   2
ATOM      2  N   UNL A   1      31.062  30.141  24.656  1.00  0.00    -0.351 N 
ATOM      3  C   UNL A   1      31.241  29.070  23.839  1.00  0.00     0.281 C 
ATOM      4  O   UNL A   1      30.720  29.182  22.718  1.00  0.00    -0.268 OA
ATOM      5  H   UNL A   1      30.507  30.849  24.257  1.00  0.00     0.163 HD
BRANCH   3   6
ATOM      6  C   UNL A   1      32.105  27.801  24.201  1.00  0.00     0.178 C 
ATOM      7  C   UNL A   1      33.520  28.259  24.623  1.00  0.00     0.079 C 
ATOM      8  C   UNL A   1      31.581  27.038  25.446  1.00  0.00     0.061 C 
ATOM      9  C   UNL A   1      33.974  27.325  25.745  1.00  0.00     0.008 C 
ATOM     10  C   UNL A   1      32.828  26.352  26.015  1.00  0.00     0.011 C 
BRANCH   6  11
ATOM     11  N   UNL A   1      32.132  26.962  22.971  1.00  0.00    -0.336 N 
ATOM     12  C   UNL A   1      33.376  26.752  22.261  1.00  0.00     0.331 C 
ATOM     13  H   UNL A   1      31.786  26.040  23.236  1.00  0.00     0.346 HD
ATOM     14  H   UNL A   1      31.575  27.502  22.309  1.00  0.00     0.346 HD
ENDBRANCH   6  11
BRANCH   8  15
ATOM     15  C   UNL A   1      30.376  26.112  25.227  1.00  0.00     0.022 C 
BRANCH  15  16
ATOM     16  C   UNL A   1      30.668  24.622  25.469  1.00  0.00     0.075 C 
BRANCH  16  17
ATOM     17  S   UNL A   1      31.108  23.667  23.958  1.00  0.00    -0.126 SA
BRANCH  17  18
ATOM     18  C   UNL A   1      32.579  22.727  24.343  1.00  0.00     0.009 A 
ATOM     19  C   UNL A   1      32.626  21.615  25.187  1.00  0.00     0.015 A 
ATOM     20  C   UNL A   1      33.777  23.156  23.750  1.00  0.00     0.035 A 
ATOM     21  C   UNL A   1      33.806  20.882  25.357  1.00  0.00     0.003 A 
ATOM     22  C   UNL A   1      34.965  22.452  23.959  1.00  0.00     0.042 A 
ATOM     23  C   UNL A   1      34.978  21.298  24.734  1.00  0.00     0.020 A 
ATOM     24  Cl  UNL A   1      36.434  23.017  23.271  1.00  0.00    -0.084 Cl
ENDBRANCH  17  18
ENDBRANCH  16  17
ENDBRANCH  15  16
ENDBRANCH   8  15
ENDBRANCH   3   6
ENDBRANCH   1   2
BRANCH   1  25
ATOM     25  C   UNL A   1      31.362  31.927  26.353  1.00  0.00     0.042 C 
BRANCH  25  26
ATOM     26  C   UNL A   1      32.526  32.521  27.131  1.00  0.00     0.118 C 
BRANCH  26  27
ATOM     27  N   UNL A   1      32.288  33.879  27.596  1.00  0.00    -0.352 N 
ATOM     28  C   UNL A   1      32.996  34.645  28.489  1.00  0.00     0.251 C 
ATOM     29  H   UNL A   1      31.495  34.317  27.212  1.00  0.00     0.163 HD
ATOM     30  O   UNL A   1      32.624  35.787  28.761  1.00  0.00    -0.269 OA
BRANCH  28  31
ATOM     31  C   UNL A   1      34.206  34.112  29.142  1.00  0.00     0.039 A 
ATOM     32  C   UNL A   1      35.464  34.544  28.707  1.00  0.00     0.014 A 
ATOM     33  C   UNL A   1      34.102  33.158  30.153  1.00  0.00     0.014 A 
ATOM     34  C   UNL A   1      36.618  34.054  29.324  1.00  0.00     0.010 A 
ATOM     35  C   UNL A   1      35.243  32.735  30.823  1.00  0.00     0.010 A 
ATOM     36  C   UNL A   1      36.513  33.162  30.402  1.00  0.00    -0.014 A 
BRANCH  36  37
ATOM     37  C   UNL A   1      37.706  32.591  31.075  1.00  0.00     0.031 A 
ATOM     38  C   UNL A   1      38.456  31.472  30.407  1.00  0.00     0.074 A 
ATOM     39  C   UNL A   1      38.050  32.997  32.311  1.00  0.00     0.049 A 
ATOM     40  N   UNL A   1      39.395  30.695  30.884  1.00  0.00    -0.248 NA
ATOM     41  C   UNL A   1      38.063  31.157  29.022  1.00  0.00     0.031 C 
ATOM     42  C   UNL A   1      37.386  34.054  33.072  1.00  0.00     0.029 A 
ATOM     43  N   UNL A   1      39.035  32.546  33.154  1.00  0.00    -0.354 N 
ATOM     44  C   UNL A   1      39.670  29.778  29.879  1.00  0.00     0.074 A 
ATOM     45  C   UNL A   1      38.776  30.067  28.780  1.00  0.00     0.031 C 
ATOM     46  C   UNL A   1      37.985  34.175  34.269  1.00  0.00     0.029 A 
ATOM     47  C   UNL A   1      39.046  33.179  34.373  1.00  0.00     0.049 A 
ATOM     48  H   UNL A   1      39.674  31.838  32.908  1.00  0.00     0.167 HD
ATOM     49  C   UNL A   1      40.600  28.793  29.868  1.00  0.00     0.037 A 
ATOM     50  C   UNL A   1      39.816  32.962  35.457  1.00  0.00     0.037 A 
ATOM     51  C   UNL A   1      41.523  28.545  30.943  1.00  0.00     0.049 A 
ATOM     52  C   UNL A   1      40.859  31.876  35.411  1.00  0.00     0.074 A 
ATOM     53  C   UNL A   1      42.548  27.620  31.006  1.00  0.00     0.029 A 
ATOM     54  N   UNL A   1      41.534  29.241  32.143  1.00  0.00    -0.354 N 
ATOM     55  N   UNL A   1      41.140  31.040  34.442  1.00  0.00    -0.248 NA
ATOM     56  C   UNL A   1      41.694  31.710  36.609  1.00  0.00     0.031 C 
ATOM     57  C   UNL A   1      43.160  27.732  32.258  1.00  0.00     0.029 A 
ATOM     58  C   UNL A   1      42.543  28.757  32.960  1.00  0.00     0.049 A 
ATOM     59  H   UNL A   1      40.917  29.970  32.381  1.00  0.00     0.167 HD
ATOM     60  C   UNL A   1      42.200  30.268  34.899  1.00  0.00     0.074 A 
ATOM     61  C   UNL A   1      42.518  30.742  36.230  1.00  0.00     0.031 C 
ATOM     62  C   UNL A   1      42.850  29.255  34.274  1.00  0.00     0.037 A 
BRANCH  49  63
ATOM     63  C   UNL A   1      40.660  27.911  28.654  1.00  0.00     0.064 A 
ATOM     64  C   UNL A   1      39.940  26.710  28.579  1.00  0.00     0.173 A 
ATOM     65  C   UNL A   1      41.434  28.282  27.544  1.00  0.00     0.173 A 
ATOM     66  F   UNL A   1      39.195  26.302  29.618  1.00  0.00    -0.203 F 
ATOM     67  C   UNL A   1      40.021  25.895  27.452  1.00  0.00     0.198 A 
ATOM     68  C   UNL A   1      41.488  27.480  26.407  1.00  0.00     0.198 A 
ATOM     69  F   UNL A   1      42.139  29.423  27.561  1.00  0.00    -0.203 F 
ATOM     70  F   UNL A   1      39.368  24.724  27.426  1.00  0.00    -0.200 F 
ATOM     71  C   UNL A   1      40.788  26.283  26.366  1.00  0.00     0.200 A 
ATOM     72  F   UNL A   1      42.221  27.863  25.353  1.00  0.00    -0.200 F 
ATOM     73  F   UNL A   1      40.862  25.500  25.280  1.00  0.00    -0.200 F 
ENDBRANCH  49  63
BRANCH  50  74
ATOM     74  C   UNL A   1      39.648  33.806  36.667  1.00  0.00     0.064 A 
ATOM     75  C   UNL A   1      40.287  35.049  36.767  1.00  0.00     0.173 A 
ATOM     76  C   UNL A   1      38.847  33.395  37.743  1.00  0.00     0.173 A 
ATOM     77  F   UNL A   1      41.080  35.474  35.773  1.00  0.00    -0.203 F 
ATOM     78  C   UNL A   1      40.147  35.842  37.904  1.00  0.00     0.198 A 
ATOM     79  C   UNL A   1      38.687  34.201  38.869  1.00  0.00     0.198 A 
ATOM     80  F   UNL A   1      38.210  32.216  37.694  1.00  0.00    -0.203 F 
ATOM     81  F   UNL A   1      40.802  37.007  37.990  1.00  0.00    -0.200 F 
ATOM     82  C   UNL A   1      39.342  35.420  38.951  1.00  0.00     0.200 A 
ATOM     83  F   UNL A   1      37.897  33.796  39.873  1.00  0.00    -0.200 F 
ATOM     84  F   UNL A   1      39.203  36.186  40.041  1.00  0.00    -0.200 F 
ENDBRANCH  50  74
BRANCH  62  85
ATOM     85  C   UNL A   1      43.998  28.624  35.006  1.00  0.00     0.064 A 
ATOM     86  C   UNL A   1      43.817  27.509  35.835  1.00  0.00     0.173 A 
ATOM     87  C   UNL A   1      45.301  29.116  34.836  1.00  0.00     0.173 A 
ATOM     88  F   UNL A   1      42.587  27.013  36.040  1.00  0.00    -0.203 F 
ATOM     89  C   UNL A   1      44.898  26.921  36.486  1.00  0.00     0.198 A 
ATOM     90  C   UNL A   1      46.383  28.509  35.467  1.00  0.00     0.198 A 
ATOM     91  F   UNL A   1      45.526  30.177  34.046  1.00  0.00    -0.203 F 
ATOM     92  F   UNL A   1      44.697  25.882  37.308  1.00  0.00    -0.200 F 
ATOM     93  C   UNL A   1      46.180  27.417  36.296  1.00  0.00     0.200 A 
ATOM     94  F   UNL A   1      47.621  28.982  35.273  1.00  0.00    -0.200 F 
ATOM     95  F   UNL A   1      47.219  26.845  36.918  1.00  0.00    -0.200 F 
ENDBRANCH  62  85
ENDBRANCH  36  37
ENDBRANCH  28  31
ENDBRANCH  26  27
ENDBRANCH  25  26
ENDBRANCH   1  25
TORSDOF 15
ENDMDL
MODEL 3
REMARK VINA RESULT:     -11.8      5.849     11.106
REMARK SMILES C[NH2+][C@]1(C(=O)NCCCNC(=O)c2ccc(-c3c4nc(c(-c5c(F)c(F)c(F)c(F)c5F)c5ccc([nH]5)c(-c5c(F)c(F)c(F)c(F)c5F)c5nc(c(-c6c(F)c(F)c(F)c(F)c6F)c6ccc3[nH]6)C=C5)C=C4)cc2)CCC[C@@H]1CCSc1cccc(Cl)c1
REMARK SMILES IDX 7 1 6 2 4 3 5 4 3 6 76 7 79 8 77 9 78 10 2 11 1 12 80 15
REMARK SMILES IDX 81 16 82 17 83 18 84 19 89 20 85 21 87 22 86 23 88 24 8 25
REMARK SMILES IDX 9 26 10 27 11 28 12 30 13 31 14 32 75 33 15 34 74 35 16 36
REMARK SMILES IDX 17 37 18 38 68 39 19 40 73 41 67 42 69 43 20 44 72 45 66 46
REMARK SMILES IDX 65 47 21 49 53 50 33 51 52 52 34 53 37 54 51 55 70 56 35 57
REMARK SMILES IDX 36 58 50 60 71 61 38 62 22 63 23 64 31 65 24 66 25 67 29 68
REMARK SMILES IDX 32 69 26 70 27 71 30 72 28 73 54 74 55 75 63 76 56 77 57 78
REMARK SMILES IDX 61 79 64 80 58 81 59 82 62 83 60 84 39 85 40 86 48 87 41 88
REMARK SMILES IDX 42 89 46 90 49 91 43 92 44 93 47 94 45 95
REMARK H PARENT 6 5 2 13 2 14 10 29 69 48 37 59
REMARK Flexibility Score: inf
ROOT
ATOM      1  C   UNL A   1      36.735  20.792  24.753  1.00  0.00     0.118 C 
ENDROOT
BRANCH   1   2
ATOM      2  N   UNL A   1      35.422  20.249  25.050  1.00  0.00    -0.351 N 
ATOM      3  C   UNL A   1      34.209  20.816  25.282  1.00  0.00     0.281 C 
ATOM      4  O   UNL A   1      33.305  20.010  25.553  1.00  0.00    -0.268 OA
ATOM      5  H   UNL A   1      35.409  19.265  25.093  1.00  0.00     0.163 HD
BRANCH   3   6
ATOM      6  C   UNL A   1      33.936  22.370  25.304  1.00  0.00     0.178 C 
ATOM      7  C   UNL A   1      34.882  23.032  26.331  1.00  0.00     0.079 C 
ATOM      8  C   UNL A   1      34.295  23.074  23.969  1.00  0.00     0.061 C 
ATOM      9  C   UNL A   1      35.286  24.389  25.753  1.00  0.00     0.008 C 
ATOM     10  C   UNL A   1      34.624  24.512  24.384  1.00  0.00     0.011 C 
BRANCH   6  11
ATOM     11  N   UNL A   1      32.503  22.526  25.679  1.00  0.00    -0.336 N 
ATOM     12  C   UNL A   1      32.145  23.074  26.970  1.00  0.00     0.331 C 
ATOM     13  H   UNL A   1      32.079  23.130  24.976  1.00  0.00     0.346 HD
ATOM     14  H   UNL A   1      32.171  21.563  25.736  1.00  0.00     0.346 HD
ENDBRANCH   6  11
BRANCH   8  15
ATOM     15  C   UNL A   1      33.275  22.945  22.829  1.00  0.00     0.022 C 
BRANCH  15  16
ATOM     16  C   UNL A   1      32.681  24.282  22.355  1.00  0.00     0.075 C 
BRANCH  16  17
ATOM     17  S   UNL A   1      31.079  24.735  23.140  1.00  0.00    -0.126 SA
BRANCH  17  18
ATOM     18  C   UNL A   1      31.255  26.400  23.766  1.00  0.00     0.009 A 
ATOM     19  C   UNL A   1      31.317  27.553  22.980  1.00  0.00     0.015 A 
ATOM     20  C   UNL A   1      31.345  26.547  25.159  1.00  0.00     0.035 A 
ATOM     21  C   UNL A   1      31.361  28.826  23.560  1.00  0.00     0.003 A 
ATOM     22  C   UNL A   1      31.438  27.815  25.736  1.00  0.00     0.042 A 
ATOM     23  C   UNL A   1      31.413  28.957  24.944  1.00  0.00     0.020 A 
ATOM     24  Cl  UNL A   1      31.601  27.978  27.438  1.00  0.00    -0.084 Cl
ENDBRANCH  17  18
ENDBRANCH  16  17
ENDBRANCH  15  16
ENDBRANCH   8  15
ENDBRANCH   3   6
ENDBRANCH   1   2
BRANCH   1  25
ATOM     25  C   UNL A   1      37.845  19.756  24.827  1.00  0.00     0.042 C 
BRANCH  25  26
ATOM     26  C   UNL A   1      38.988  20.116  25.763  1.00  0.00     0.118 C 
BRANCH  26  27
ATOM     27  N   UNL A   1      40.081  19.154  25.750  1.00  0.00    -0.352 N 
ATOM     28  C   UNL A   1      41.418  19.330  26.007  1.00  0.00     0.251 C 
ATOM     29  H   UNL A   1      39.821  18.233  25.522  1.00  0.00     0.163 HD
ATOM     30  O   UNL A   1      42.196  18.378  25.937  1.00  0.00    -0.269 OA
BRANCH  28  31
ATOM     31  C   UNL A   1      41.945  20.661  26.361  1.00  0.00     0.039 A 
ATOM     32  C   UNL A   1      42.222  20.952  27.701  1.00  0.00     0.014 A 
ATOM     33  C   UNL A   1      42.128  21.634  25.378  1.00  0.00     0.014 A 
ATOM     34  C   UNL A   1      42.732  22.206  28.047  1.00  0.00     0.010 A 
ATOM     35  C   UNL A   1      42.713  22.848  25.711  1.00  0.00     0.010 A 
ATOM     36  C   UNL A   1      43.002  23.155  27.051  1.00  0.00    -0.014 A 
BRANCH  36  37
ATOM     37  C   UNL A   1      43.518  24.510  27.366  1.00  0.00     0.031 A 
ATOM     38  C   UNL A   1      42.573  25.540  27.924  1.00  0.00     0.074 A 
ATOM     39  C   UNL A   1      44.785  24.845  27.062  1.00  0.00     0.049 A 
ATOM     40  N   UNL A   1      42.746  26.826  28.090  1.00  0.00    -0.248 NA
ATOM     41  C   UNL A   1      41.235  25.059  28.307  1.00  0.00     0.031 C 
ATOM     42  C   UNL A   1      45.787  23.943  26.495  1.00  0.00     0.029 A 
ATOM     43  N   UNL A   1      45.438  26.047  27.168  1.00  0.00    -0.354 N 
ATOM     44  C   UNL A   1      41.530  27.311  28.553  1.00  0.00     0.074 A 
ATOM     45  C   UNL A   1      40.616  26.191  28.605  1.00  0.00     0.031 C 
ATOM     46  C   UNL A   1      46.931  24.622  26.306  1.00  0.00     0.029 A 
ATOM     47  C   UNL A   1      46.730  26.014  26.700  1.00  0.00     0.049 A 
ATOM     48  H   UNL A   1      45.021  26.857  27.543  1.00  0.00     0.167 HD
ATOM     49  C   UNL A   1      41.210  28.575  28.919  1.00  0.00     0.037 A 
ATOM     50  C   UNL A   1      47.638  27.001  26.588  1.00  0.00     0.037 A 
ATOM     51  C   UNL A   1      42.139  29.673  28.915  1.00  0.00     0.049 A 
ATOM     52  C   UNL A   1      47.266  28.394  27.024  1.00  0.00     0.074 A 
ATOM     53  C   UNL A   1      41.939  30.977  29.330  1.00  0.00     0.029 A 
ATOM     54  N   UNL A   1      43.454  29.587  28.480  1.00  0.00    -0.354 N 
ATOM     55  N   UNL A   1      46.127  28.836  27.497  1.00  0.00    -0.248 NA
ATOM     56  C   UNL A   1      48.310  29.423  26.912  1.00  0.00     0.031 C 
ATOM     57  C   UNL A   1      43.123  31.689  29.117  1.00  0.00     0.029 A 
ATOM     58  C   UNL A   1      44.075  30.819  28.607  1.00  0.00     0.049 A 
ATOM     59  H   UNL A   1      43.883  28.772  28.133  1.00  0.00     0.167 HD
ATOM     60  C   UNL A   1      46.323  30.184  27.767  1.00  0.00     0.074 A 
ATOM     61  C   UNL A   1      47.694  30.485  27.413  1.00  0.00     0.031 C 
ATOM     62  C   UNL A   1      45.446  31.091  28.262  1.00  0.00     0.037 A 
BRANCH  49  63
ATOM     63  C   UNL A   1      39.796  28.835  29.350  1.00  0.00     0.064 A 
ATOM     64  C   UNL A   1      38.813  29.257  28.443  1.00  0.00     0.173 A 
ATOM     65  C   UNL A   1      39.414  28.642  30.687  1.00  0.00     0.173 A 
ATOM     66  F   UNL A   1      39.129  29.469  27.156  1.00  0.00    -0.203 F 
ATOM     67  C   UNL A   1      37.510  29.509  28.863  1.00  0.00     0.198 A 
ATOM     68  C   UNL A   1      38.103  28.866  31.097  1.00  0.00     0.198 A 
ATOM     69  F   UNL A   1      40.313  28.236  31.596  1.00  0.00    -0.203 F 
ATOM     70  F   UNL A   1      36.602  29.965  27.987  1.00  0.00    -0.200 F 
ATOM     71  C   UNL A   1      37.154  29.308  30.187  1.00  0.00     0.200 A 
ATOM     72  F   UNL A   1      37.758  28.659  32.376  1.00  0.00    -0.200 F 
ATOM     73  F   UNL A   1      35.898  29.548  30.590  1.00  0.00    -0.200 F 
ENDBRANCH  49  63
BRANCH  50  74
ATOM     74  C   UNL A   1      48.996  26.704  26.065  1.00  0.00     0.064 A 
ATOM     75  C   UNL A   1      49.980  26.157  26.898  1.00  0.00     0.173 A 
ATOM     76  C   UNL A   1      49.338  26.954  24.727  1.00  0.00     0.173 A 
ATOM     77  F   UNL A   1      49.707  25.921  28.190  1.00  0.00    -0.203 F 
ATOM     78  C   UNL A   1      51.261  25.887  26.420  1.00  0.00     0.198 A 
ATOM     79  C   UNL A   1      50.612  26.660  24.244  1.00  0.00     0.198 A 
ATOM     80  F   UNL A   1      48.430  27.472  23.887  1.00  0.00    -0.203 F 
ATOM     81  F   UNL A   1      52.195  25.402  27.250  1.00  0.00    -0.200 F 
ATOM     82  C   UNL A   1      51.573  26.133  25.092  1.00  0.00     0.200 A 
ATOM     83  F   UNL A   1      50.906  26.885  22.956  1.00  0.00    -0.200 F 
ATOM     84  F   UNL A   1      52.803  25.867  24.631  1.00  0.00    -0.200 F 
ENDBRANCH  50  74
BRANCH  62  85
ATOM     85  C   UNL A   1      45.956  32.483  28.491  1.00  0.00     0.064 A 
ATOM     86  C   UNL A   1      45.854  33.475  27.506  1.00  0.00     0.173 A 
ATOM     87  C   UNL A   1      46.512  32.838  29.730  1.00  0.00     0.173 A 
ATOM     88  F   UNL A   1      45.344  33.178  26.301  1.00  0.00    -0.203 F 
ATOM     89  C   UNL A   1      46.311  34.767  27.744  1.00  0.00     0.198 A 
ATOM     90  C   UNL A   1      46.942  34.138  29.974  1.00  0.00     0.198 A 
ATOM     91  F   UNL A   1      46.624  31.925  30.707  1.00  0.00    -0.203 F 
ATOM     92  F   UNL A   1      46.243  35.689  26.774  1.00  0.00    -0.200 F 
ATOM     93  C   UNL A   1      46.848  35.100  28.980  1.00  0.00     0.200 A 
ATOM     94  F   UNL A   1      47.450  34.461  31.172  1.00  0.00    -0.200 F 
ATOM     95  F   UNL A   1      47.280  36.347  29.210  1.00  0.00    -0.200 F 
ENDBRANCH  62  85
ENDBRANCH  36  37
ENDBRANCH  28  31
ENDBRANCH  26  27
ENDBRANCH  25  26
ENDBRANCH   1  25
TORSDOF 15
ENDMDL
