MODEL 1
REMARK VINA RESULT:     -13.2      0.000      0.000
REMARK SMILES O=C(NCCCNC(=O)C1CC[NH+]([C@@H]2CC(=O)N(c3ccc(Oc4ccccc4)cc3)C2=O)CC1)c1ccc(-c2c3nc(c(-c4c(F)c(F)c(F)c(F)c4F)c4ccc([nH]4)c(-c4c(F)c(F)c(F)c(F)c4F)c4nc(c(-c5c(F)c(F)c(F)c(F)c5F)c5ccc2[nH]5)C=C4)C=C3)cc1
REMARK SMILES IDX 6 1 5 2 4 3 3 4 1 5 2 6 36 8 37 9 98 10 38 11 97 12 39 13
REMARK SMILES IDX 40 14 41 15 91 16 42 17 96 18 90 19 92 20 43 21 95 22 89 23
REMARK SMILES IDX 88 24 44 26 76 27 56 28 75 29 57 30 60 31 74 32 93 33 58 34
REMARK SMILES IDX 59 35 73 37 94 38 61 39 45 40 46 41 54 42 47 43 48 44 52 45
REMARK SMILES IDX 55 46 49 47 50 48 53 49 51 50 77 51 78 52 86 53 79 54 80 55
REMARK SMILES IDX 84 56 87 57 81 58 82 59 85 60 83 61 62 62 63 63 71 64 64 65
REMARK SMILES IDX 65 66 69 67 72 68 66 69 67 70 70 71 68 72 7 73 8 74 9 76
REMARK SMILES IDX 10 77 11 78 35 79 12 80 34 81 13 82 14 84 15 85 32 86 16 87
REMARK SMILES IDX 18 88 33 89 17 90 19 91 20 92 31 93 21 94 30 95 22 96 23 97
REMARK SMILES IDX 24 98 25 99 29 100 26 101 28 102 27 103
REMARK H PARENT 3 7 92 25 60 36 7 75 13 83
REMARK Flexibility Score: inf
ROOT
ATOM      1  C   UNL A   1      31.497  30.977  25.865  1.00  0.00     0.117 C 
ENDROOT
BRANCH   1   2
ATOM      2  C   UNL A   1      31.299  32.103  26.874  1.00  0.00     0.042 C 
BRANCH   2   3
ATOM      3  C   UNL A   1      32.594  32.812  27.261  1.00  0.00     0.118 C 
BRANCH   3   4
ATOM      4  N   UNL A   1      32.395  34.209  27.624  1.00  0.00    -0.352 N 
ATOM      5  O   UNL A   1      32.532  36.087  28.860  1.00  0.00    -0.269 OA
ATOM      6  C   UNL A   1      32.967  34.965  28.619  1.00  0.00     0.251 C 
ATOM      7  H   UNL A   1      31.744  34.692  27.064  1.00  0.00     0.163 HD
BRANCH   6   8
ATOM      8  C   UNL A   1      34.080  34.419  29.424  1.00  0.00     0.039 A 
ATOM      9  C   UNL A   1      35.400  34.534  28.989  1.00  0.00     0.014 A 
ATOM     10  C   UNL A   1      33.797  33.785  30.637  1.00  0.00     0.014 A 
ATOM     11  C   UNL A   1      36.406  33.848  29.657  1.00  0.00     0.010 A 
ATOM     12  C   UNL A   1      34.830  33.188  31.367  1.00  0.00     0.010 A 
ATOM     13  C   UNL A   1      36.136  33.168  30.855  1.00  0.00    -0.014 A 
BRANCH  13  14
ATOM     14  C   UNL A   1      37.242  32.461  31.554  1.00  0.00     0.031 A 
ATOM     15  C   UNL A   1      37.991  31.340  30.886  1.00  0.00     0.074 A 
ATOM     16  C   UNL A   1      37.601  32.871  32.786  1.00  0.00     0.049 A 
ATOM     17  N   UNL A   1      39.015  30.650  31.329  1.00  0.00    -0.248 NA
ATOM     18  C   UNL A   1      37.531  30.929  29.551  1.00  0.00     0.031 C 
ATOM     19  C   UNL A   1      36.947  33.940  33.541  1.00  0.00     0.029 A 
ATOM     20  N   UNL A   1      38.616  32.457  33.611  1.00  0.00    -0.354 N 
ATOM     21  C   UNL A   1      39.303  29.715  30.343  1.00  0.00     0.074 A 
ATOM     22  C   UNL A   1      38.327  29.902  29.290  1.00  0.00     0.031 C 
ATOM     23  C   UNL A   1      37.609  34.139  34.689  1.00  0.00     0.029 A 
ATOM     24  C   UNL A   1      38.692  33.167  34.785  1.00  0.00     0.049 A 
ATOM     25  H   UNL A   1      39.232  31.723  33.383  1.00  0.00     0.167 HD
ATOM     26  C   UNL A   1      40.296  28.792  30.314  1.00  0.00     0.037 A 
ATOM     27  C   UNL A   1      39.532  33.042  35.828  1.00  0.00     0.037 A 
ATOM     28  C   UNL A   1      41.274  28.622  31.358  1.00  0.00     0.049 A 
ATOM     29  C   UNL A   1      40.605  31.991  35.779  1.00  0.00     0.074 A 
ATOM     30  C   UNL A   1      42.345  27.745  31.404  1.00  0.00     0.029 A 
ATOM     31  N   UNL A   1      41.296  29.337  32.548  1.00  0.00    -0.354 N 
ATOM     32  N   UNL A   1      40.896  31.147  34.820  1.00  0.00    -0.248 NA
ATOM     33  C   UNL A   1      41.470  31.881  36.961  1.00  0.00     0.031 C 
ATOM     34  C   UNL A   1      42.974  27.883  32.646  1.00  0.00     0.029 A 
ATOM     35  C   UNL A   1      42.344  28.899  33.345  1.00  0.00     0.049 A 
ATOM     36  H   UNL A   1      40.661  30.049  32.791  1.00  0.00     0.167 HD
ATOM     37  C   UNL A   1      41.998  30.430  35.265  1.00  0.00     0.074 A 
ATOM     38  C   UNL A   1      42.332  30.951  36.575  1.00  0.00     0.031 C 
ATOM     39  C   UNL A   1      42.675  29.433  34.642  1.00  0.00     0.037 A 
BRANCH  26  40
ATOM     40  C   UNL A   1      40.361  27.870  29.127  1.00  0.00     0.064 A 
ATOM     41  C   UNL A   1      41.144  28.163  27.999  1.00  0.00     0.173 A 
ATOM     42  C   UNL A   1      39.659  26.654  29.135  1.00  0.00     0.173 A 
ATOM     43  F   UNL A   1      41.829  29.315  27.931  1.00  0.00    -0.203 F 
ATOM     44  C   UNL A   1      41.194  27.290  26.914  1.00  0.00     0.198 A 
ATOM     45  C   UNL A   1      39.740  25.768  28.065  1.00  0.00     0.198 A 
ATOM     46  F   UNL A   1      38.903  26.318  30.191  1.00  0.00    -0.203 F 
ATOM     47  F   UNL A   1      41.905  27.617  25.825  1.00  0.00    -0.200 F 
ATOM     48  C   UNL A   1      40.498  26.091  26.951  1.00  0.00     0.200 A 
ATOM     49  F   UNL A   1      39.080  24.603  28.110  1.00  0.00    -0.200 F 
ATOM     50  F   UNL A   1      40.554  25.249  25.909  1.00  0.00    -0.200 F 
ENDBRANCH  26  40
BRANCH  27  51
ATOM     51  C   UNL A   1      39.397  33.944  37.002  1.00  0.00     0.064 A 
ATOM     52  C   UNL A   1      40.015  35.202  37.020  1.00  0.00     0.173 A 
ATOM     53  C   UNL A   1      38.653  33.567  38.129  1.00  0.00     0.173 A 
ATOM     54  F   UNL A   1      40.752  35.601  35.972  1.00  0.00    -0.203 F 
ATOM     55  C   UNL A   1      39.916  36.037  38.131  1.00  0.00     0.198 A 
ATOM     56  C   UNL A   1      38.525  34.417  39.225  1.00  0.00     0.198 A 
ATOM     57  F   UNL A   1      38.035  32.377  38.160  1.00  0.00    -0.203 F 
ATOM     58  F   UNL A   1      40.561  37.211  38.143  1.00  0.00    -0.200 F 
ATOM     59  C   UNL A   1      39.166  35.646  39.230  1.00  0.00     0.200 A 
ATOM     60  F   UNL A   1      37.782  34.044  40.276  1.00  0.00    -0.200 F 
ATOM     61  F   UNL A   1      39.067  36.451  40.295  1.00  0.00    -0.200 F 
ENDBRANCH  27  51
BRANCH  39  62
ATOM     62  C   UNL A   1      43.885  28.883  35.344  1.00  0.00     0.064 A 
ATOM     63  C   UNL A   1      45.174  29.391  35.120  1.00  0.00     0.173 A 
ATOM     64  C   UNL A   1      43.747  27.837  36.270  1.00  0.00     0.173 A 
ATOM     65  F   UNL A   1      45.365  30.381  34.234  1.00  0.00    -0.203 F 
ATOM     66  C   UNL A   1      46.281  28.845  35.763  1.00  0.00     0.198 A 
ATOM     67  C   UNL A   1      44.851  27.319  36.941  1.00  0.00     0.198 A 
ATOM     68  F   UNL A   1      42.537  27.318  36.530  1.00  0.00    -0.203 F 
ATOM     69  F   UNL A   1      47.510  29.301  35.481  1.00  0.00    -0.200 F 
ATOM     70  C   UNL A   1      46.119  27.815  36.678  1.00  0.00     0.200 A 
ATOM     71  F   UNL A   1      44.689  26.336  37.836  1.00  0.00    -0.200 F 
ATOM     72  F   UNL A   1      47.185  27.293  37.298  1.00  0.00    -0.200 F 
ENDBRANCH  39  62
ENDBRANCH  13  14
ENDBRANCH   6   8
ENDBRANCH   3   4
ENDBRANCH   2   3
ENDBRANCH   1   2
BRANCH   1  73
ATOM     73  N   UNL A   1      32.504  30.041  26.327  1.00  0.00    -0.356 N 
ATOM     74  C   UNL A   1      32.954  28.903  25.729  1.00  0.00     0.223 C 
ATOM     75  H   UNL A   1      32.919  30.258  27.192  1.00  0.00     0.163 HD
ATOM     76  O   UNL A   1      33.620  28.127  26.414  1.00  0.00    -0.275 OA
BRANCH  74  77
ATOM     77  C   UNL A   1      32.697  28.696  24.240  1.00  0.00     0.089 C 
ATOM     78  C   UNL A   1      31.425  27.892  23.966  1.00  0.00     0.075 C 
ATOM     79  C   UNL A   1      33.897  27.975  23.623  1.00  0.00     0.075 C 
ATOM     80  C   UNL A   1      31.544  26.420  24.362  1.00  0.00     0.263 C 
ATOM     81  C   UNL A   1      33.984  26.528  24.110  1.00  0.00     0.263 C 
ATOM     82  N   UNL A   1      32.753  25.779  23.830  1.00  0.00    -0.324 N 
ATOM     83  H   UNL A   1      32.680  25.793  22.812  1.00  0.00     0.348 HD
BRANCH  82  84
ATOM     84  C   UNL A   1      32.818  24.357  24.252  1.00  0.00     0.284 C 
ATOM     85  C   UNL A   1      32.547  24.053  25.721  1.00  0.00     0.176 C 
ATOM     86  C   UNL A   1      34.191  23.763  23.990  1.00  0.00     0.292 C 
ATOM     87  C   UNL A   1      33.795  23.389  26.213  1.00  0.00     0.240 C 
ATOM     88  N   UNL A   1      34.698  23.291  25.181  1.00  0.00    -0.245 N 
ATOM     89  O   UNL A   1      34.709  23.705  22.879  1.00  0.00    -0.267 OA
ATOM     90  O   UNL A   1      33.931  23.052  27.381  1.00  0.00    -0.274 OA
BRANCH  88  91
ATOM     91  C   UNL A   1      35.998  22.746  25.314  1.00  0.00     0.052 A 
ATOM     92  C   UNL A   1      36.204  21.360  25.242  1.00  0.00     0.031 A 
ATOM     93  C   UNL A   1      37.108  23.575  25.512  1.00  0.00     0.031 A 
ATOM     94  C   UNL A   1      37.486  20.819  25.377  1.00  0.00     0.049 A 
ATOM     95  C   UNL A   1      38.387  23.033  25.668  1.00  0.00     0.049 A 
ATOM     96  C   UNL A   1      38.577  21.651  25.618  1.00  0.00     0.127 A 
BRANCH  96  97
ATOM     97  O   UNL A   1      39.791  21.013  25.758  1.00  0.00    -0.457 OA
BRANCH  97  98
ATOM     98  C   UNL A   1      40.791  21.679  26.424  1.00  0.00     0.127 A 
ATOM     99  C   UNL A   1      40.655  21.846  27.801  1.00  0.00     0.047 A 
ATOM    100  C   UNL A   1      41.892  22.207  25.746  1.00  0.00     0.047 A 
ATOM    101  C   UNL A   1      41.658  22.498  28.516  1.00  0.00     0.004 A 
ATOM    102  C   UNL A   1      42.898  22.850  26.466  1.00  0.00     0.004 A 
ATOM    103  C   UNL A   1      42.783  22.990  27.851  1.00  0.00     0.000 A 
ENDBRANCH  97  98
ENDBRANCH  96  97
ENDBRANCH  88  91
ENDBRANCH  82  84
ENDBRANCH  74  77
ENDBRANCH   1  73
TORSDOF 14
ENDMDL
MODEL 2
REMARK VINA RESULT:     -13.0      1.981      7.445
REMARK SMILES O=C(NCCCNC(=O)C1CC[NH+]([C@@H]2CC(=O)N(c3ccc(Oc4ccccc4)cc3)C2=O)CC1)c1ccc(-c2c3nc(c(-c4c(F)c(F)c(F)c(F)c4F)c4ccc([nH]4)c(-c4c(F)c(F)c(F)c(F)c4F)c4nc(c(-c5c(F)c(F)c(F)c(F)c5F)c5ccc2[nH]5)C=C4)C=C3)cc1
REMARK SMILES IDX 6 1 5 2 4 3 3 4 1 5 2 6 36 8 37 9 98 10 38 11 97 12 39 13
REMARK SMILES IDX 40 14 41 15 91 16 42 17 96 18 90 19 92 20 43 21 95 22 89 23
REMARK SMILES IDX 88 24 44 26 76 27 56 28 75 29 57 30 60 31 74 32 93 33 58 34
REMARK SMILES IDX 59 35 73 37 94 38 61 39 45 40 46 41 54 42 47 43 48 44 52 45
REMARK SMILES IDX 55 46 49 47 50 48 53 49 51 50 77 51 78 52 86 53 79 54 80 55
REMARK SMILES IDX 84 56 87 57 81 58 82 59 85 60 83 61 62 62 63 63 71 64 64 65
REMARK SMILES IDX 65 66 69 67 72 68 66 69 67 70 70 71 68 72 7 73 8 74 9 76
REMARK SMILES IDX 10 77 11 78 35 79 12 80 34 81 13 82 14 84 15 85 32 86 16 87
REMARK SMILES IDX 18 88 33 89 17 90 19 91 20 92 31 93 21 94 30 95 22 96 23 97
REMARK SMILES IDX 24 98 25 99 29 100 26 101 28 102 27 103
REMARK H PARENT 3 7 92 25 60 36 7 75 13 83
REMARK Flexibility Score: inf
ROOT
ATOM      1  C   UNL A   1      31.087  28.570  24.900  1.00  0.00     0.117 C 
ENDROOT
BRANCH   1   2
ATOM      2  C   UNL A   1      31.755  28.701  26.264  1.00  0.00     0.042 C 
BRANCH   2   3
ATOM      3  C   UNL A   1      33.017  29.559  26.246  1.00  0.00     0.118 C 
BRANCH   3   4
ATOM      4  N   UNL A   1      32.760  30.961  26.553  1.00  0.00    -0.352 N 
ATOM      5  O   UNL A   1      32.966  32.941  27.606  1.00  0.00    -0.269 OA
ATOM      6  C   UNL A   1      33.450  31.843  27.350  1.00  0.00     0.251 C 
ATOM      7  H   UNL A   1      31.962  31.339  26.117  1.00  0.00     0.163 HD
BRANCH   6   8
ATOM      8  C   UNL A   1      34.756  31.461  27.928  1.00  0.00     0.039 A 
ATOM      9  C   UNL A   1      34.995  30.155  28.353  1.00  0.00     0.014 A 
ATOM     10  C   UNL A   1      35.760  32.427  28.042  1.00  0.00     0.014 A 
ATOM     11  C   UNL A   1      36.150  29.864  29.068  1.00  0.00     0.010 A 
ATOM     12  C   UNL A   1      36.969  32.103  28.666  1.00  0.00     0.010 A 
ATOM     13  C   UNL A   1      37.153  30.833  29.233  1.00  0.00    -0.014 A 
BRANCH  13  14
ATOM     14  C   UNL A   1      38.385  30.481  29.986  1.00  0.00     0.031 A 
ATOM     15  C   UNL A   1      38.553  30.876  31.429  1.00  0.00     0.074 A 
ATOM     16  C   UNL A   1      39.340  29.755  29.372  1.00  0.00     0.049 A 
ATOM     17  N   UNL A   1      39.538  30.607  32.251  1.00  0.00    -0.248 NA
ATOM     18  C   UNL A   1      37.482  31.687  32.029  1.00  0.00     0.031 C 
ATOM     19  C   UNL A   1      39.297  29.319  27.976  1.00  0.00     0.029 A 
ATOM     20  N   UNL A   1      40.518  29.235  29.845  1.00  0.00    -0.354 N 
ATOM     21  C   UNL A   1      39.218  31.232  33.450  1.00  0.00     0.074 A 
ATOM     22  C   UNL A   1      37.963  31.922  33.242  1.00  0.00     0.031 C 
ATOM     23  C   UNL A   1      40.366  28.551  27.721  1.00  0.00     0.029 A 
ATOM     24  C   UNL A   1      41.204  28.497  28.912  1.00  0.00     0.049 A 
ATOM     25  H   UNL A   1      40.841  29.378  30.765  1.00  0.00     0.167 HD
ATOM     26  C   UNL A   1      39.904  31.221  34.620  1.00  0.00     0.037 A 
ATOM     27  C   UNL A   1      42.384  27.855  29.001  1.00  0.00     0.037 A 
ATOM     28  C   UNL A   1      41.145  30.519  34.825  1.00  0.00     0.049 A 
ATOM     29  C   UNL A   1      43.135  27.887  30.303  1.00  0.00     0.074 A 
ATOM     30  C   UNL A   1      41.895  30.413  35.985  1.00  0.00     0.029 A 
ATOM     31  N   UNL A   1      41.827  29.811  33.846  1.00  0.00    -0.354 N 
ATOM     32  N   UNL A   1      42.797  28.440  31.442  1.00  0.00    -0.248 NA
ATOM     33  C   UNL A   1      44.431  27.198  30.329  1.00  0.00     0.031 C 
ATOM     34  C   UNL A   1      43.061  29.696  35.690  1.00  0.00     0.029 A 
ATOM     35  C   UNL A   1      43.002  29.291  34.367  1.00  0.00     0.049 A 
ATOM     36  H   UNL A   1      41.522  29.695  32.917  1.00  0.00     0.167 HD
ATOM     37  C   UNL A   1      43.820  28.136  32.330  1.00  0.00     0.074 A 
ATOM     38  C   UNL A   1      44.782  27.336  31.600  1.00  0.00     0.031 C 
ATOM     39  C   UNL A   1      43.947  28.485  33.635  1.00  0.00     0.037 A 
BRANCH  26  40
ATOM     40  C   UNL A   1      39.344  32.019  35.767  1.00  0.00     0.064 A 
ATOM     41  C   UNL A   1      38.424  31.472  36.675  1.00  0.00     0.173 A 
ATOM     42  C   UNL A   1      39.767  33.340  35.983  1.00  0.00     0.173 A 
ATOM     43  F   UNL A   1      37.977  30.217  36.512  1.00  0.00    -0.203 F 
ATOM     44  C   UNL A   1      37.925  32.228  37.734  1.00  0.00     0.198 A 
ATOM     45  C   UNL A   1      39.293  34.081  37.063  1.00  0.00     0.198 A 
ATOM     46  F   UNL A   1      40.652  33.911  35.153  1.00  0.00    -0.203 F 
ATOM     47  F   UNL A   1      37.005  31.702  38.555  1.00  0.00    -0.200 F 
ATOM     48  C   UNL A   1      38.365  33.528  37.931  1.00  0.00     0.200 A 
ATOM     49  F   UNL A   1      39.732  35.331  37.260  1.00  0.00    -0.200 F 
ATOM     50  F   UNL A   1      37.888  34.251  38.954  1.00  0.00    -0.200 F 
ENDBRANCH  26  40
BRANCH  27  51
ATOM     51  C   UNL A   1      42.921  27.122  27.825  1.00  0.00     0.064 A 
ATOM     52  C   UNL A   1      43.820  27.735  26.943  1.00  0.00     0.173 A 
ATOM     53  C   UNL A   1      42.543  25.798  27.556  1.00  0.00     0.173 A 
ATOM     54  F   UNL A   1      44.199  29.006  27.147  1.00  0.00    -0.203 F 
ATOM     55  C   UNL A   1      44.301  27.061  25.822  1.00  0.00     0.198 A 
ATOM     56  C   UNL A   1      43.051  25.113  26.455  1.00  0.00     0.198 A 
ATOM     57  F   UNL A   1      41.690  25.164  28.374  1.00  0.00    -0.203 F 
ATOM     58  F   UNL A   1      45.119  27.689  24.965  1.00  0.00    -0.200 F 
ATOM     59  C   UNL A   1      43.921  25.749  25.583  1.00  0.00     0.200 A 
ATOM     60  F   UNL A   1      42.697  23.840  26.240  1.00  0.00    -0.200 F 
ATOM     61  F   UNL A   1      44.388  25.100  24.509  1.00  0.00    -0.200 F 
ENDBRANCH  27  51
BRANCH  39  62
ATOM     62  C   UNL A   1      45.141  27.949  34.374  1.00  0.00     0.064 A 
ATOM     63  C   UNL A   1      45.125  26.700  35.012  1.00  0.00     0.173 A 
ATOM     64  C   UNL A   1      46.327  28.698  34.432  1.00  0.00     0.173 A 
ATOM     65  F   UNL A   1      44.012  25.950  35.001  1.00  0.00    -0.203 F 
ATOM     66  C   UNL A   1      46.236  26.239  35.714  1.00  0.00     0.198 A 
ATOM     67  C   UNL A   1      47.449  28.217  35.101  1.00  0.00     0.198 A 
ATOM     68  F   UNL A   1      46.401  29.896  33.833  1.00  0.00    -0.203 F 
ATOM     69  F   UNL A   1      46.174  25.073  36.372  1.00  0.00    -0.200 F 
ATOM     70  C   UNL A   1      47.399  26.994  35.752  1.00  0.00     0.200 A 
ATOM     71  F   UNL A   1      48.576  28.941  35.121  1.00  0.00    -0.200 F 
ATOM     72  F   UNL A   1      48.468  26.548  36.425  1.00  0.00    -0.200 F 
ENDBRANCH  39  62
ENDBRANCH  13  14
ENDBRANCH   6   8
ENDBRANCH   3   4
ENDBRANCH   2   3
ENDBRANCH   1   2
BRANCH   1  73
ATOM     73  N   UNL A   1      30.744  27.188  24.623  1.00  0.00    -0.356 N 
ATOM     74  C   UNL A   1      31.183  26.381  23.618  1.00  0.00     0.223 C 
ATOM     75  H   UNL A   1      30.104  26.778  25.247  1.00  0.00     0.163 HD
ATOM     76  O   UNL A   1      30.569  25.334  23.421  1.00  0.00    -0.275 OA
BRANCH  74  77
ATOM     77  C   UNL A   1      32.453  26.763  22.862  1.00  0.00     0.089 C 
ATOM     78  C   UNL A   1      32.700  25.878  21.639  1.00  0.00     0.075 C 
ATOM     79  C   UNL A   1      33.647  26.663  23.813  1.00  0.00     0.075 C 
ATOM     80  C   UNL A   1      33.097  24.447  21.999  1.00  0.00     0.263 C 
ATOM     81  C   UNL A   1      33.947  25.207  24.174  1.00  0.00     0.263 C 
ATOM     82  N   UNL A   1      34.185  24.384  22.983  1.00  0.00    -0.324 N 
ATOM     83  H   UNL A   1      35.008  24.805  22.551  1.00  0.00     0.348 HD
BRANCH  82  84
ATOM     84  C   UNL A   1      34.522  22.972  23.298  1.00  0.00     0.284 C 
ATOM     85  C   UNL A   1      33.865  22.359  24.529  1.00  0.00     0.176 C 
ATOM     86  C   UNL A   1      36.011  22.797  23.538  1.00  0.00     0.292 C 
ATOM     87  C   UNL A   1      35.003  21.953  25.412  1.00  0.00     0.240 C 
ATOM     88  N   UNL A   1      36.193  22.267  24.797  1.00  0.00    -0.245 N 
ATOM     89  O   UNL A   1      36.872  23.066  22.706  1.00  0.00    -0.267 OA
ATOM     90  O   UNL A   1      34.823  21.463  26.517  1.00  0.00    -0.274 OA
BRANCH  88  91
ATOM     91  C   UNL A   1      37.466  22.051  25.376  1.00  0.00     0.052 A 
ATOM     92  C   UNL A   1      38.115  23.074  26.082  1.00  0.00     0.031 A 
ATOM     93  C   UNL A   1      38.104  20.809  25.266  1.00  0.00     0.031 A 
ATOM     94  C   UNL A   1      39.374  22.863  26.652  1.00  0.00     0.049 A 
ATOM     95  C   UNL A   1      39.371  20.605  25.817  1.00  0.00     0.049 A 
ATOM     96  C   UNL A   1      40.019  21.637  26.498  1.00  0.00     0.127 A 
BRANCH  96  97
ATOM     97  O   UNL A   1      41.265  21.544  27.079  1.00  0.00    -0.457 OA
BRANCH  97  98
ATOM     98  C   UNL A   1      42.118  20.575  26.610  1.00  0.00     0.127 A 
ATOM     99  C   UNL A   1      42.014  19.297  27.157  1.00  0.00     0.047 A 
ATOM    100  C   UNL A   1      43.085  20.862  25.644  1.00  0.00     0.047 A 
ATOM    101  C   UNL A   1      42.848  18.282  26.693  1.00  0.00     0.004 A 
ATOM    102  C   UNL A   1      43.911  19.841  25.175  1.00  0.00     0.004 A 
ATOM    103  C   UNL A   1      43.787  18.550  25.696  1.00  0.00     0.000 A 
ENDBRANCH  97  98
ENDBRANCH  96  97
ENDBRANCH  88  91
ENDBRANCH  82  84
ENDBRANCH  74  77
ENDBRANCH   1  73
TORSDOF 14
ENDMDL
MODEL 3
REMARK VINA RESULT:     -12.7      4.046     10.307
REMARK SMILES O=C(NCCCNC(=O)C1CC[NH+]([C@@H]2CC(=O)N(c3ccc(Oc4ccccc4)cc3)C2=O)CC1)c1ccc(-c2c3nc(c(-c4c(F)c(F)c(F)c(F)c4F)c4ccc([nH]4)c(-c4c(F)c(F)c(F)c(F)c4F)c4nc(c(-c5c(F)c(F)c(F)c(F)c5F)c5ccc2[nH]5)C=C4)C=C3)cc1
REMARK SMILES IDX 6 1 5 2 4 3 3 4 1 5 2 6 36 8 37 9 98 10 38 11 97 12 39 13
REMARK SMILES IDX 40 14 41 15 91 16 42 17 96 18 90 19 92 20 43 21 95 22 89 23
REMARK SMILES IDX 88 24 44 26 76 27 56 28 75 29 57 30 60 31 74 32 93 33 58 34
REMARK SMILES IDX 59 35 73 37 94 38 61 39 45 40 46 41 54 42 47 43 48 44 52 45
REMARK SMILES IDX 55 46 49 47 50 48 53 49 51 50 77 51 78 52 86 53 79 54 80 55
REMARK SMILES IDX 84 56 87 57 81 58 82 59 85 60 83 61 62 62 63 63 71 64 64 65
REMARK SMILES IDX 65 66 69 67 72 68 66 69 67 70 70 71 68 72 7 73 8 74 9 76
REMARK SMILES IDX 10 77 11 78 35 79 12 80 34 81 13 82 14 84 15 85 32 86 16 87
REMARK SMILES IDX 18 88 33 89 17 90 19 91 20 92 31 93 21 94 30 95 22 96 23 97
REMARK SMILES IDX 24 98 25 99 29 100 26 101 28 102 27 103
REMARK H PARENT 3 7 92 25 60 36 7 75 13 83
REMARK Flexibility Score: inf
ROOT
ATOM      1  C   UNL A   1      34.448  34.484  29.730  1.00  0.00     0.117 C 
ENDROOT
BRANCH   1   2
ATOM      2  C   UNL A   1      34.086  33.011  29.572  1.00  0.00     0.042 C 
BRANCH   2   3
ATOM      3  C   UNL A   1      34.509  32.419  28.230  1.00  0.00     0.118 C 
BRANCH   3   4
ATOM      4  N   UNL A   1      33.980  31.079  28.004  1.00  0.00    -0.352 N 
ATOM      5  O   UNL A   1      34.004  28.870  27.569  1.00  0.00    -0.269 OA
ATOM      6  C   UNL A   1      34.620  29.865  27.938  1.00  0.00     0.251 C 
ATOM      7  H   UNL A   1      33.004  31.037  27.878  1.00  0.00     0.163 HD
BRANCH   6   8
ATOM      8  C   UNL A   1      36.055  29.758  28.275  1.00  0.00     0.039 A 
ATOM      9  C   UNL A   1      37.035  30.098  27.343  1.00  0.00     0.014 A 
ATOM     10  C   UNL A   1      36.425  29.316  29.548  1.00  0.00     0.014 A 
ATOM     11  C   UNL A   1      38.367  29.807  27.609  1.00  0.00     0.010 A 
ATOM     12  C   UNL A   1      37.777  29.128  29.852  1.00  0.00     0.010 A 
ATOM     13  C   UNL A   1      38.757  29.321  28.867  1.00  0.00    -0.014 A 
BRANCH  13  14
ATOM     14  C   UNL A   1      40.194  29.040  29.123  1.00  0.00     0.031 A 
ATOM     15  C   UNL A   1      41.042  29.993  29.921  1.00  0.00     0.074 A 
ATOM     16  C   UNL A   1      40.724  27.887  28.669  1.00  0.00     0.049 A 
ATOM     17  N   UNL A   1      42.296  29.880  30.283  1.00  0.00    -0.248 NA
ATOM     18  C   UNL A   1      40.405  31.242  30.366  1.00  0.00     0.031 C 
ATOM     19  C   UNL A   1      40.008  26.887  27.876  1.00  0.00     0.029 A 
ATOM     20  N   UNL A   1      41.976  27.350  28.826  1.00  0.00    -0.354 N 
ATOM     21  C   UNL A   1      42.604  31.046  30.973  1.00  0.00     0.074 A 
ATOM     22  C   UNL A   1      41.413  31.871  30.953  1.00  0.00     0.031 C 
ATOM     23  C   UNL A   1      40.809  25.834  27.666  1.00  0.00     0.029 A 
ATOM     24  C   UNL A   1      42.117  26.111  28.248  1.00  0.00     0.049 A 
ATOM     25  H   UNL A   1      42.704  27.807  29.307  1.00  0.00     0.167 HD
ATOM     26  C   UNL A   1      43.767  31.393  31.577  1.00  0.00     0.037 A 
ATOM     27  C   UNL A   1      43.184  25.294  28.183  1.00  0.00     0.037 A 
ATOM     28  C   UNL A   1      44.943  30.561  31.607  1.00  0.00     0.049 A 
ATOM     29  C   UNL A   1      44.469  25.719  28.837  1.00  0.00     0.074 A 
ATOM     30  C   UNL A   1      46.157  30.803  32.227  1.00  0.00     0.029 A 
ATOM     31  N   UNL A   1      45.058  29.328  30.980  1.00  0.00    -0.354 N 
ATOM     32  N   UNL A   1      44.730  26.801  29.527  1.00  0.00    -0.248 NA
ATOM     33  C   UNL A   1      45.607  24.800  28.704  1.00  0.00     0.031 C 
ATOM     34  C   UNL A   1      47.026  29.750  31.922  1.00  0.00     0.029 A 
ATOM     35  C   UNL A   1      46.332  28.813  31.174  1.00  0.00     0.049 A 
ATOM     36  H   UNL A   1      44.342  28.884  30.470  1.00  0.00     0.167 HD
ATOM     37  C   UNL A   1      46.049  26.679  29.942  1.00  0.00     0.074 A 
ATOM     38  C   UNL A   1      46.528  25.409  29.437  1.00  0.00     0.031 C 
ATOM     39  C   UNL A   1      46.794  27.541  30.679  1.00  0.00     0.037 A 
BRANCH  26  40
ATOM     40  C   UNL A   1      43.841  32.745  32.232  1.00  0.00     0.064 A 
ATOM     41  C   UNL A   1      43.551  32.930  33.593  1.00  0.00     0.173 A 
ATOM     42  C   UNL A   1      44.247  33.869  31.494  1.00  0.00     0.173 A 
ATOM     43  F   UNL A   1      43.149  31.894  34.346  1.00  0.00    -0.203 F 
ATOM     44  C   UNL A   1      43.633  34.191  34.180  1.00  0.00     0.198 A 
ATOM     45  C   UNL A   1      44.363  35.121  32.091  1.00  0.00     0.198 A 
ATOM     46  F   UNL A   1      44.546  33.749  30.192  1.00  0.00    -0.203 F 
ATOM     47  F   UNL A   1      43.298  34.352  35.468  1.00  0.00    -0.200 F 
ATOM     48  C   UNL A   1      44.046  35.284  33.431  1.00  0.00     0.200 A 
ATOM     49  F   UNL A   1      44.777  36.171  31.370  1.00  0.00    -0.200 F 
ATOM     50  F   UNL A   1      44.131  36.495  33.999  1.00  0.00    -0.200 F 
ENDBRANCH  26  40
BRANCH  27  51
ATOM     51  C   UNL A   1      43.077  23.988  27.481  1.00  0.00     0.064 A 
ATOM     52  C   UNL A   1      43.408  23.870  26.125  1.00  0.00     0.173 A 
ATOM     53  C   UNL A   1      42.638  22.835  28.148  1.00  0.00     0.173 A 
ATOM     54  F   UNL A   1      43.817  24.948  25.438  1.00  0.00    -0.203 F 
ATOM     55  C   UNL A   1      43.280  22.655  25.456  1.00  0.00     0.198 A 
ATOM     56  C   UNL A   1      42.543  21.613  27.488  1.00  0.00     0.198 A 
ATOM     57  F   UNL A   1      42.316  22.893  29.449  1.00  0.00    -0.203 F 
ATOM     58  F   UNL A   1      43.552  22.582  24.145  1.00  0.00    -0.200 F 
ATOM     59  C   UNL A   1      42.853  21.526  26.139  1.00  0.00     0.200 A 
ATOM     60  F   UNL A   1      42.150  20.521  28.157  1.00  0.00    -0.200 F 
ATOM     61  F   UNL A   1      42.734  20.357  25.497  1.00  0.00    -0.200 F 
ENDBRANCH  27  51
BRANCH  39  62
ATOM     62  C   UNL A   1      48.188  27.108  31.037  1.00  0.00     0.064 A 
ATOM     63  C   UNL A   1      49.275  27.295  30.170  1.00  0.00     0.173 A 
ATOM     64  C   UNL A   1      48.440  26.507  32.280  1.00  0.00     0.173 A 
ATOM     65  F   UNL A   1      49.087  27.851  28.963  1.00  0.00    -0.203 F 
ATOM     66  C   UNL A   1      50.551  26.860  30.515  1.00  0.00     0.198 A 
ATOM     67  C   UNL A   1      49.725  26.109  32.639  1.00  0.00     0.198 A 
ATOM     68  F   UNL A   1      47.440  26.311  33.154  1.00  0.00    -0.203 F 
ATOM     69  F   UNL A   1      51.561  26.988  29.642  1.00  0.00    -0.200 F 
ATOM     70  C   UNL A   1      50.778  26.273  31.752  1.00  0.00     0.200 A 
ATOM     71  F   UNL A   1      49.943  25.558  33.841  1.00  0.00    -0.200 F 
ATOM     72  F   UNL A   1      52.006  25.858  32.084  1.00  0.00    -0.200 F 
ENDBRANCH  39  62
ENDBRANCH  13  14
ENDBRANCH   6   8
ENDBRANCH   3   4
ENDBRANCH   2   3
ENDBRANCH   1   2
BRANCH   1  73
ATOM     73  N   UNL A   1      34.690  34.810  31.122  1.00  0.00    -0.356 N 
ATOM     74  C   UNL A   1      35.765  34.504  31.899  1.00  0.00     0.223 C 
ATOM     75  H   UNL A   1      33.979  35.324  31.566  1.00  0.00     0.163 HD
ATOM     76  O   UNL A   1      35.649  34.652  33.114  1.00  0.00    -0.275 OA
BRANCH  74  77
ATOM     77  C   UNL A   1      37.071  34.089  31.228  1.00  0.00     0.089 C 
ATOM     78  C   UNL A   1      37.155  32.582  30.980  1.00  0.00     0.075 C 
ATOM     79  C   UNL A   1      38.244  34.526  32.108  1.00  0.00     0.075 C 
ATOM     80  C   UNL A   1      37.315  31.767  32.263  1.00  0.00     0.263 C 
ATOM     81  C   UNL A   1      38.304  33.707  33.398  1.00  0.00     0.263 C 
ATOM     82  N   UNL A   1      38.389  32.266  33.130  1.00  0.00    -0.324 N 
ATOM     83  H   UNL A   1      39.265  32.161  32.618  1.00  0.00     0.348 HD
BRANCH  82  84
ATOM     84  C   UNL A   1      38.492  31.442  34.361  1.00  0.00     0.284 C 
ATOM     85  C   UNL A   1      39.151  32.085  35.576  1.00  0.00     0.176 C 
ATOM     86  C   UNL A   1      39.299  30.179  34.117  1.00  0.00     0.292 C 
ATOM     87  C   UNL A   1      40.319  31.205  35.891  1.00  0.00     0.240 C 
ATOM     88  N   UNL A   1      40.359  30.161  34.997  1.00  0.00    -0.245 N 
ATOM     89  O   UNL A   1      38.999  29.327  33.287  1.00  0.00    -0.267 OA
ATOM     90  O   UNL A   1      41.099  31.464  36.796  1.00  0.00    -0.274 OA
BRANCH  88  91
ATOM     91  C   UNL A   1      41.362  29.162  34.989  1.00  0.00     0.052 A 
ATOM     92  C   UNL A   1      41.474  28.251  36.050  1.00  0.00     0.031 A 
ATOM     93  C   UNL A   1      42.260  29.053  33.921  1.00  0.00     0.031 A 
ATOM     94  C   UNL A   1      42.466  27.265  36.046  1.00  0.00     0.049 A 
ATOM     95  C   UNL A   1      43.265  28.083  33.926  1.00  0.00     0.049 A 
ATOM     96  C   UNL A   1      43.382  27.196  34.998  1.00  0.00     0.127 A 
BRANCH  96  97
ATOM     97  O   UNL A   1      44.332  26.203  35.105  1.00  0.00    -0.457 OA
BRANCH  97  98
ATOM     98  C   UNL A   1      44.163  25.072  34.343  1.00  0.00     0.127 A 
ATOM     99  C   UNL A   1      44.588  25.112  33.017  1.00  0.00     0.047 A 
ATOM    100  C   UNL A   1      43.554  23.928  34.864  1.00  0.00     0.047 A 
ATOM    101  C   UNL A   1      44.453  23.978  32.218  1.00  0.00     0.004 A 
ATOM    102  C   UNL A   1      43.429  22.792  34.065  1.00  0.00     0.004 A 
ATOM    103  C   UNL A   1      43.885  22.817  32.744  1.00  0.00     0.000 A 
ENDBRANCH  97  98
ENDBRANCH  96  97
ENDBRANCH  88  91
ENDBRANCH  82  84
ENDBRANCH  74  77
ENDBRANCH   1  73
TORSDOF 14
ENDMDL
