MODEL 1
REMARK VINA RESULT:     -12.4      0.000      0.000
REMARK SMILES O=C(NCCCNC(=O)[C@@]1([NH2+]C2CC2)CC[C@H](SC2CCCC2)C1)c1ccc(-c2c3nc(c(-c4c(F)c(F)c(F)c(F)c4F)c4ccc([nH]4)c(-c4c(F)c(F)c(F)c(F)c4F)c4nc(c(-c5c(F)c(F)c(F)c(F)c5F)c5ccc2[nH]5)C=C4)C=C3)cc1
REMARK SMILES IDX 5 1 4 2 3 3 1 4 2 5 25 7 26 8 87 9 27 10 86 11 28 12 29 13
REMARK SMILES IDX 30 14 80 15 31 16 85 17 79 18 81 19 32 20 84 21 78 22 77 23
REMARK SMILES IDX 33 25 65 26 45 27 64 28 46 29 49 30 63 31 82 32 47 33 48 34
REMARK SMILES IDX 62 36 83 37 50 38 34 39 35 40 43 41 36 42 37 43 41 44 44 45
REMARK SMILES IDX 38 46 39 47 42 48 40 49 66 50 67 51 75 52 68 53 69 54 73 55
REMARK SMILES IDX 76 56 70 57 71 58 74 59 72 60 51 61 52 62 60 63 53 64 54 65
REMARK SMILES IDX 58 66 61 67 55 68 56 69 59 70 57 71 6 72 7 73 8 74 9 76
REMARK SMILES IDX 10 77 15 78 24 79 16 80 17 81 11 82 12 85 13 86 14 87 18 88
REMARK SMILES IDX 19 89 20 90 23 91 21 92 22 93
REMARK H PARENT 3 6 81 24 49 35 7 75 11 83 11 84
REMARK Flexibility Score: inf
ROOT
ATOM      1  C   UNL A   1      31.525  32.104  26.641  1.00  0.00     0.042 C 
ENDROOT
BRANCH   1   2
ATOM      2  C   UNL A   1      32.658  32.721  27.445  1.00  0.00     0.118 C 
BRANCH   2   3
ATOM      3  N   UNL A   1      32.447  34.149  27.620  1.00  0.00    -0.352 N 
ATOM      4  O   UNL A   1      32.420  36.070  28.788  1.00  0.00    -0.269 OA
ATOM      5  C   UNL A   1      32.954  34.979  28.585  1.00  0.00     0.251 C 
ATOM      6  H   UNL A   1      31.861  34.577  26.955  1.00  0.00     0.163 HD
BRANCH   5   7
ATOM      7  C   UNL A   1      34.150  34.592  29.369  1.00  0.00     0.039 A 
ATOM      8  C   UNL A   1      34.024  34.065  30.660  1.00  0.00     0.014 A 
ATOM      9  C   UNL A   1      35.406  34.633  28.755  1.00  0.00     0.014 A 
ATOM     10  C   UNL A   1      35.151  33.631  31.351  1.00  0.00     0.010 A 
ATOM     11  C   UNL A   1      36.528  34.127  29.420  1.00  0.00     0.010 A 
ATOM     12  C   UNL A   1      36.403  33.605  30.716  1.00  0.00    -0.014 A 
BRANCH  12  13
ATOM     13  C   UNL A   1      37.515  32.849  31.339  1.00  0.00     0.031 A 
ATOM     14  C   UNL A   1      38.143  31.668  30.667  1.00  0.00     0.074 A 
ATOM     15  C   UNL A   1      37.930  33.240  32.561  1.00  0.00     0.049 A 
ATOM     16  N   UNL A   1      39.104  30.892  31.103  1.00  0.00    -0.248 NA
ATOM     17  C   UNL A   1      37.626  31.299  29.340  1.00  0.00     0.031 C 
ATOM     18  C   UNL A   1      37.359  34.355  33.324  1.00  0.00     0.029 A 
ATOM     19  N   UNL A   1      38.917  32.754  33.379  1.00  0.00    -0.354 N 
ATOM     20  C   UNL A   1      39.296  29.934  30.117  1.00  0.00     0.074 A 
ATOM     21  C   UNL A   1      38.346  30.218  29.062  1.00  0.00     0.031 C 
ATOM     22  C   UNL A   1      38.019  34.481  34.483  1.00  0.00     0.029 A 
ATOM     23  C   UNL A   1      39.019  33.425  34.573  1.00  0.00     0.049 A 
ATOM     24  H   UNL A   1      39.497  31.997  33.133  1.00  0.00     0.167 HD
ATOM     25  C   UNL A   1      40.192  28.919  30.103  1.00  0.00     0.037 A 
ATOM     26  C   UNL A   1      39.810  33.200  35.637  1.00  0.00     0.037 A 
ATOM     27  C   UNL A   1      41.151  28.664  31.147  1.00  0.00     0.049 A 
ATOM     28  C   UNL A   1      40.778  32.056  35.592  1.00  0.00     0.074 A 
ATOM     29  C   UNL A   1      42.163  27.718  31.177  1.00  0.00     0.029 A 
ATOM     30  N   UNL A   1      41.210  29.348  32.351  1.00  0.00    -0.354 N 
ATOM     31  N   UNL A   1      41.001  31.204  34.621  1.00  0.00    -0.248 NA
ATOM     32  C   UNL A   1      41.597  31.833  36.790  1.00  0.00     0.031 C 
ATOM     33  C   UNL A   1      42.801  27.798  32.418  1.00  0.00     0.029 A 
ATOM     34  C   UNL A   1      42.214  28.819  33.148  1.00  0.00     0.049 A 
ATOM     35  H   UNL A   1      40.625  30.099  32.604  1.00  0.00     0.167 HD
ATOM     36  C   UNL A   1      41.982  30.344  35.090  1.00  0.00     0.074 A 
ATOM     37  C   UNL A   1      42.334  30.795  36.421  1.00  0.00     0.031 C 
ATOM     38  C   UNL A   1      42.533  29.269  34.476  1.00  0.00     0.037 A 
BRANCH  25  39
ATOM     39  C   UNL A   1      40.185  27.987  28.927  1.00  0.00     0.064 A 
ATOM     40  C   UNL A   1      40.918  28.267  27.766  1.00  0.00     0.173 A 
ATOM     41  C   UNL A   1      39.517  26.756  29.006  1.00  0.00     0.173 A 
ATOM     42  F   UNL A   1      41.568  29.433  27.641  1.00  0.00    -0.203 F 
ATOM     43  C   UNL A   1      40.979  27.347  26.720  1.00  0.00     0.198 A 
ATOM     44  C   UNL A   1      39.595  25.832  27.968  1.00  0.00     0.198 A 
ATOM     45  F   UNL A   1      38.810  26.441  30.100  1.00  0.00    -0.203 F 
ATOM     46  F   UNL A   1      41.671  27.639  25.612  1.00  0.00    -0.200 F 
ATOM     47  C   UNL A   1      40.325  26.128  26.826  1.00  0.00     0.200 A 
ATOM     48  F   UNL A   1      38.972  24.650  28.076  1.00  0.00    -0.200 F 
ATOM     49  F   UNL A   1      40.400  25.237  25.828  1.00  0.00    -0.200 F 
ENDBRANCH  25  39
BRANCH  26  50
ATOM     50  C   UNL A   1      39.688  34.058  36.843  1.00  0.00     0.064 A 
ATOM     51  C   UNL A   1      40.376  35.274  36.938  1.00  0.00     0.173 A 
ATOM     52  C   UNL A   1      38.875  33.679  37.922  1.00  0.00     0.173 A 
ATOM     53  F   UNL A   1      41.180  35.668  35.939  1.00  0.00    -0.203 F 
ATOM     54  C   UNL A   1      40.268  36.073  38.074  1.00  0.00     0.198 A 
ATOM     55  C   UNL A   1      38.746  34.491  39.045  1.00  0.00     0.198 A 
ATOM     56  F   UNL A   1      38.194  32.524  37.877  1.00  0.00    -0.203 F 
ATOM     57  F   UNL A   1      40.968  37.212  38.157  1.00  0.00    -0.200 F 
ATOM     58  C   UNL A   1      39.448  35.684  39.124  1.00  0.00     0.200 A 
ATOM     59  F   UNL A   1      37.941  34.119  40.050  1.00  0.00    -0.200 F 
ATOM     60  F   UNL A   1      39.340  36.456  40.213  1.00  0.00    -0.200 F 
ENDBRANCH  26  50
BRANCH  38  61
ATOM     61  C   UNL A   1      43.565  28.507  35.249  1.00  0.00     0.064 A 
ATOM     62  C   UNL A   1      44.927  28.825  35.149  1.00  0.00     0.173 A 
ATOM     63  C   UNL A   1      43.191  27.466  36.112  1.00  0.00     0.173 A 
ATOM     64  F   UNL A   1      45.333  29.798  34.320  1.00  0.00    -0.203 F 
ATOM     65  C   UNL A   1      45.881  28.116  35.872  1.00  0.00     0.198 A 
ATOM     66  C   UNL A   1      44.145  26.775  36.852  1.00  0.00     0.198 A 
ATOM     67  F   UNL A   1      41.900  27.126  36.241  1.00  0.00    -0.203 F 
ATOM     68  F   UNL A   1      47.181  28.408  35.730  1.00  0.00    -0.200 F 
ATOM     69  C   UNL A   1      45.490  27.096  36.727  1.00  0.00     0.200 A 
ATOM     70  F   UNL A   1      43.766  25.795  37.683  1.00  0.00    -0.200 F 
ATOM     71  F   UNL A   1      46.409  26.416  37.425  1.00  0.00    -0.200 F 
ENDBRANCH  38  61
ENDBRANCH  12  13
ENDBRANCH   5   7
ENDBRANCH   2   3
ENDBRANCH   1   2
BRANCH   1  72
ATOM     72  C   UNL A   1      31.846  30.706  26.131  1.00  0.00     0.118 C 
BRANCH  72  73
ATOM     73  N   UNL A   1      31.624  29.662  27.125  1.00  0.00    -0.351 N 
ATOM     74  C   UNL A   1      31.693  28.300  27.151  1.00  0.00     0.281 C 
ATOM     75  H   UNL A   1      31.358  30.034  27.996  1.00  0.00     0.163 HD
ATOM     76  O   UNL A   1      31.444  27.800  28.259  1.00  0.00    -0.268 OA
BRANCH  74  77
ATOM     77  C   UNL A   1      32.043  27.398  25.936  1.00  0.00     0.176 C 
ATOM     78  C   UNL A   1      33.502  27.394  25.487  1.00  0.00     0.080 C 
ATOM     79  C   UNL A   1      31.975  25.910  26.429  1.00  0.00     0.093 C 
ATOM     80  C   UNL A   1      33.704  26.100  24.731  1.00  0.00     0.022 C 
ATOM     81  C   UNL A   1      32.805  25.077  25.419  1.00  0.00     0.054 C 
BRANCH  77  82
ATOM     82  N   UNL A   1      31.004  27.448  24.884  1.00  0.00    -0.331 N 
ATOM     83  H   UNL A   1      30.169  27.782  25.366  1.00  0.00     0.347 HD
ATOM     84  H   UNL A   1      31.129  26.509  24.508  1.00  0.00     0.347 HD
BRANCH  82  85
ATOM     85  C   UNL A   1      31.019  28.181  23.635  1.00  0.00     0.183 C 
ATOM     86  C   UNL A   1      30.683  27.580  22.311  1.00  0.00     0.071 C 
ATOM     87  C   UNL A   1      29.809  28.654  22.904  1.00  0.00     0.071 C 
ENDBRANCH  82  85
ENDBRANCH  77  82
BRANCH  81  88
ATOM     88  S   UNL A   1      31.743  24.208  24.196  1.00  0.00    -0.155 SA
BRANCH  88  89
ATOM     89  C   UNL A   1      32.368  22.483  24.199  1.00  0.00     0.047 C 
ATOM     90  C   UNL A   1      31.859  21.543  25.289  1.00  0.00     0.014 C 
ATOM     91  C   UNL A   1      32.157  21.680  22.921  1.00  0.00     0.014 C 
ATOM     92  C   UNL A   1      32.413  20.191  24.859  1.00  0.00     0.001 C 
ATOM     93  C   UNL A   1      32.410  20.224  23.331  1.00  0.00     0.001 C 
ENDBRANCH  88  89
ENDBRANCH  81  88
ENDBRANCH  74  77
ENDBRANCH  72  73
ENDBRANCH   1  72
TORSDOF 14
ENDMDL
MODEL 2
REMARK VINA RESULT:     -12.3      0.292      1.230
REMARK SMILES O=C(NCCCNC(=O)[C@@]1([NH2+]C2CC2)CC[C@H](SC2CCCC2)C1)c1ccc(-c2c3nc(c(-c4c(F)c(F)c(F)c(F)c4F)c4ccc([nH]4)c(-c4c(F)c(F)c(F)c(F)c4F)c4nc(c(-c5c(F)c(F)c(F)c(F)c5F)c5ccc2[nH]5)C=C4)C=C3)cc1
REMARK SMILES IDX 5 1 4 2 3 3 1 4 2 5 25 7 26 8 87 9 27 10 86 11 28 12 29 13
REMARK SMILES IDX 30 14 80 15 31 16 85 17 79 18 81 19 32 20 84 21 78 22 77 23
REMARK SMILES IDX 33 25 65 26 45 27 64 28 46 29 49 30 63 31 82 32 47 33 48 34
REMARK SMILES IDX 62 36 83 37 50 38 34 39 35 40 43 41 36 42 37 43 41 44 44 45
REMARK SMILES IDX 38 46 39 47 42 48 40 49 66 50 67 51 75 52 68 53 69 54 73 55
REMARK SMILES IDX 76 56 70 57 71 58 74 59 72 60 51 61 52 62 60 63 53 64 54 65
REMARK SMILES IDX 58 66 61 67 55 68 56 69 59 70 57 71 6 72 7 73 8 74 9 76
REMARK SMILES IDX 10 77 15 78 24 79 16 80 17 81 11 82 12 85 13 86 14 87 18 88
REMARK SMILES IDX 19 89 20 90 23 91 21 92 22 93
REMARK H PARENT 3 6 81 24 49 35 7 75 11 83 11 84
REMARK Flexibility Score: inf
ROOT
ATOM      1  C   UNL A   1      31.509  32.095  26.717  1.00  0.00     0.042 C 
ENDROOT
BRANCH   1   2
ATOM      2  C   UNL A   1      32.675  32.718  27.468  1.00  0.00     0.118 C 
BRANCH   2   3
ATOM      3  N   UNL A   1      32.478  34.150  27.628  1.00  0.00    -0.352 N 
ATOM      4  O   UNL A   1      32.467  36.082  28.777  1.00  0.00    -0.269 OA
ATOM      5  C   UNL A   1      32.990  34.984  28.587  1.00  0.00     0.251 C 
ATOM      6  H   UNL A   1      31.899  34.577  26.957  1.00  0.00     0.163 HD
BRANCH   5   7
ATOM      7  C   UNL A   1      34.179  34.593  29.379  1.00  0.00     0.039 A 
ATOM      8  C   UNL A   1      34.041  34.029  30.652  1.00  0.00     0.014 A 
ATOM      9  C   UNL A   1      35.444  34.669  28.786  1.00  0.00     0.014 A 
ATOM     10  C   UNL A   1      35.163  33.592  31.350  1.00  0.00     0.010 A 
ATOM     11  C   UNL A   1      36.562  34.161  29.455  1.00  0.00     0.010 A 
ATOM     12  C   UNL A   1      36.425  33.601  30.734  1.00  0.00    -0.014 A 
BRANCH  12  13
ATOM     13  C   UNL A   1      37.538  32.844  31.355  1.00  0.00     0.031 A 
ATOM     14  C   UNL A   1      38.161  31.661  30.681  1.00  0.00     0.074 A 
ATOM     15  C   UNL A   1      37.958  33.237  32.574  1.00  0.00     0.049 A 
ATOM     16  N   UNL A   1      39.123  30.884  31.115  1.00  0.00    -0.248 NA
ATOM     17  C   UNL A   1      37.639  31.292  29.358  1.00  0.00     0.031 C 
ATOM     18  C   UNL A   1      37.393  34.354  33.337  1.00  0.00     0.029 A 
ATOM     19  N   UNL A   1      38.948  32.750  33.389  1.00  0.00    -0.354 N 
ATOM     20  C   UNL A   1      39.310  29.925  30.130  1.00  0.00     0.074 A 
ATOM     21  C   UNL A   1      38.356  30.208  29.078  1.00  0.00     0.031 C 
ATOM     22  C   UNL A   1      38.057  34.481  34.493  1.00  0.00     0.029 A 
ATOM     23  C   UNL A   1      39.056  33.424  34.581  1.00  0.00     0.049 A 
ATOM     24  H   UNL A   1      39.526  31.992  33.142  1.00  0.00     0.167 HD
ATOM     25  C   UNL A   1      40.204  28.908  30.114  1.00  0.00     0.037 A 
ATOM     26  C   UNL A   1      39.851  33.198  35.643  1.00  0.00     0.037 A 
ATOM     27  C   UNL A   1      41.166  28.653  31.155  1.00  0.00     0.049 A 
ATOM     28  C   UNL A   1      40.817  32.053  35.595  1.00  0.00     0.074 A 
ATOM     29  C   UNL A   1      42.177  27.705  31.182  1.00  0.00     0.029 A 
ATOM     30  N   UNL A   1      41.231  29.339  32.358  1.00  0.00    -0.354 N 
ATOM     31  N   UNL A   1      41.034  31.199  34.626  1.00  0.00    -0.248 NA
ATOM     32  C   UNL A   1      41.640  31.831  36.791  1.00  0.00     0.031 C 
ATOM     33  C   UNL A   1      42.820  27.787  32.421  1.00  0.00     0.029 A 
ATOM     34  C   UNL A   1      42.237  28.809  33.152  1.00  0.00     0.049 A 
ATOM     35  H   UNL A   1      40.648  30.091  32.612  1.00  0.00     0.167 HD
ATOM     36  C   UNL A   1      42.015  30.338  35.091  1.00  0.00     0.074 A 
ATOM     37  C   UNL A   1      42.374  30.791  36.420  1.00  0.00     0.031 C 
ATOM     38  C   UNL A   1      42.563  29.262  34.478  1.00  0.00     0.037 A 
BRANCH  25  39
ATOM     39  C   UNL A   1      40.191  27.974  28.940  1.00  0.00     0.064 A 
ATOM     40  C   UNL A   1      40.917  28.252  27.774  1.00  0.00     0.173 A 
ATOM     41  C   UNL A   1      39.524  26.743  29.025  1.00  0.00     0.173 A 
ATOM     42  F   UNL A   1      41.567  29.418  27.644  1.00  0.00    -0.203 F 
ATOM     43  C   UNL A   1      40.972  27.331  26.730  1.00  0.00     0.198 A 
ATOM     44  C   UNL A   1      39.596  25.818  27.987  1.00  0.00     0.198 A 
ATOM     45  F   UNL A   1      38.822  26.430  30.123  1.00  0.00    -0.203 F 
ATOM     46  F   UNL A   1      41.659  27.621  25.618  1.00  0.00    -0.200 F 
ATOM     47  C   UNL A   1      40.320  26.111  26.841  1.00  0.00     0.200 A 
ATOM     48  F   UNL A   1      38.973  24.635  28.101  1.00  0.00    -0.200 F 
ATOM     49  F   UNL A   1      40.389  25.220  25.844  1.00  0.00    -0.200 F 
ENDBRANCH  25  39
BRANCH  26  50
ATOM     50  C   UNL A   1      39.735  34.058  36.847  1.00  0.00     0.064 A 
ATOM     51  C   UNL A   1      40.423  35.275  36.937  1.00  0.00     0.173 A 
ATOM     52  C   UNL A   1      38.928  33.682  37.932  1.00  0.00     0.173 A 
ATOM     53  F   UNL A   1      41.223  35.667  35.933  1.00  0.00    -0.203 F 
ATOM     54  C   UNL A   1      40.321  36.076  38.072  1.00  0.00     0.198 A 
ATOM     55  C   UNL A   1      38.804  34.496  39.054  1.00  0.00     0.198 A 
ATOM     56  F   UNL A   1      38.246  32.527  37.892  1.00  0.00    -0.203 F 
ATOM     57  F   UNL A   1      41.021  37.215  38.150  1.00  0.00    -0.200 F 
ATOM     58  C   UNL A   1      39.507  35.689  39.127  1.00  0.00     0.200 A 
ATOM     59  F   UNL A   1      38.004  34.126  40.063  1.00  0.00    -0.200 F 
ATOM     60  F   UNL A   1      39.405  36.463  40.215  1.00  0.00    -0.200 F 
ENDBRANCH  26  50
BRANCH  38  61
ATOM     61  C   UNL A   1      43.596  28.499  35.248  1.00  0.00     0.064 A 
ATOM     62  C   UNL A   1      43.237  27.430  36.082  1.00  0.00     0.173 A 
ATOM     63  C   UNL A   1      44.957  28.821  35.137  1.00  0.00     0.173 A 
ATOM     64  F   UNL A   1      41.945  27.101  36.235  1.00  0.00    -0.203 F 
ATOM     65  C   UNL A   1      44.201  26.723  36.793  1.00  0.00     0.198 A 
ATOM     66  C   UNL A   1      45.921  28.096  35.830  1.00  0.00     0.198 A 
ATOM     67  F   UNL A   1      45.350  29.835  34.351  1.00  0.00    -0.203 F 
ATOM     68  F   UNL A   1      43.831  25.733  37.616  1.00  0.00    -0.200 F 
ATOM     69  C   UNL A   1      45.542  27.051  36.662  1.00  0.00     0.200 A 
ATOM     70  F   UNL A   1      47.217  28.409  35.698  1.00  0.00    -0.200 F 
ATOM     71  F   UNL A   1      46.470  26.367  37.344  1.00  0.00    -0.200 F 
ENDBRANCH  38  61
ENDBRANCH  12  13
ENDBRANCH   5   7
ENDBRANCH   2   3
ENDBRANCH   1   2
BRANCH   1  72
ATOM     72  C   UNL A   1      31.834  30.723  26.141  1.00  0.00     0.118 C 
BRANCH  72  73
ATOM     73  N   UNL A   1      31.731  29.645  27.118  1.00  0.00    -0.351 N 
ATOM     74  C   UNL A   1      31.842  28.286  27.097  1.00  0.00     0.281 C 
ATOM     75  H   UNL A   1      31.532  29.985  28.020  1.00  0.00     0.163 HD
ATOM     76  O   UNL A   1      31.707  27.748  28.206  1.00  0.00    -0.268 OA
BRANCH  74  77
ATOM     77  C   UNL A   1      32.110  27.430  25.830  1.00  0.00     0.176 C 
ATOM     78  C   UNL A   1      33.484  27.582  25.181  1.00  0.00     0.080 C 
ATOM     79  C   UNL A   1      32.268  25.942  26.301  1.00  0.00     0.093 C 
ATOM     80  C   UNL A   1      33.713  26.319  24.382  1.00  0.00     0.022 C 
ATOM     81  C   UNL A   1      33.031  25.205  25.170  1.00  0.00     0.054 C 
BRANCH  77  82
ATOM     82  N   UNL A   1      30.935  27.373  24.934  1.00  0.00    -0.331 N 
ATOM     83  H   UNL A   1      30.135  27.503  25.553  1.00  0.00     0.347 HD
ATOM     84  H   UNL A   1      31.164  26.509  24.444  1.00  0.00     0.347 HD
BRANCH  82  85
ATOM     85  C   UNL A   1      30.638  28.197  23.781  1.00  0.00     0.183 C 
ATOM     86  C   UNL A   1      30.733  27.722  22.368  1.00  0.00     0.071 C 
ATOM     87  C   UNL A   1      29.399  28.104  22.957  1.00  0.00     0.071 C 
ENDBRANCH  82  85
ENDBRANCH  77  82
BRANCH  81  88
ATOM     88  S   UNL A   1      31.905  24.232  24.092  1.00  0.00    -0.155 SA
BRANCH  88  89
ATOM     89  C   UNL A   1      32.315  22.483  24.469  1.00  0.00     0.047 C 
ATOM     90  C   UNL A   1      32.227  21.469  23.331  1.00  0.00     0.014 C 
ATOM     91  C   UNL A   1      33.694  22.220  25.062  1.00  0.00     0.014 C 
ATOM     92  C   UNL A   1      32.822  20.211  23.948  1.00  0.00     0.001 C 
ATOM     93  C   UNL A   1      33.900  20.708  24.912  1.00  0.00     0.001 C 
ENDBRANCH  88  89
ENDBRANCH  81  88
ENDBRANCH  74  77
ENDBRANCH  72  73
ENDBRANCH   1  72
TORSDOF 14
ENDMDL
MODEL 3
REMARK VINA RESULT:     -12.3      1.252      2.556
REMARK SMILES O=C(NCCCNC(=O)[C@@]1([NH2+]C2CC2)CC[C@H](SC2CCCC2)C1)c1ccc(-c2c3nc(c(-c4c(F)c(F)c(F)c(F)c4F)c4ccc([nH]4)c(-c4c(F)c(F)c(F)c(F)c4F)c4nc(c(-c5c(F)c(F)c(F)c(F)c5F)c5ccc2[nH]5)C=C4)C=C3)cc1
REMARK SMILES IDX 5 1 4 2 3 3 1 4 2 5 25 7 26 8 87 9 27 10 86 11 28 12 29 13
REMARK SMILES IDX 30 14 80 15 31 16 85 17 79 18 81 19 32 20 84 21 78 22 77 23
REMARK SMILES IDX 33 25 65 26 45 27 64 28 46 29 49 30 63 31 82 32 47 33 48 34
REMARK SMILES IDX 62 36 83 37 50 38 34 39 35 40 43 41 36 42 37 43 41 44 44 45
REMARK SMILES IDX 38 46 39 47 42 48 40 49 66 50 67 51 75 52 68 53 69 54 73 55
REMARK SMILES IDX 76 56 70 57 71 58 74 59 72 60 51 61 52 62 60 63 53 64 54 65
REMARK SMILES IDX 58 66 61 67 55 68 56 69 59 70 57 71 6 72 7 73 8 74 9 76
REMARK SMILES IDX 10 77 15 78 24 79 16 80 17 81 11 82 12 85 13 86 14 87 18 88
REMARK SMILES IDX 19 89 20 90 23 91 21 92 22 93
REMARK H PARENT 3 6 81 24 49 35 7 75 11 83 11 84
REMARK Flexibility Score: inf
ROOT
ATOM      1  C   UNL A   1      31.405  32.154  26.787  1.00  0.00     0.042 C 
ENDROOT
BRANCH   1   2
ATOM      2  C   UNL A   1      32.636  32.798  27.403  1.00  0.00     0.118 C 
BRANCH   2   3
ATOM      3  N   UNL A   1      32.435  34.227  27.582  1.00  0.00    -0.352 N 
ATOM      4  O   UNL A   1      32.416  36.144  28.757  1.00  0.00    -0.269 OA
ATOM      5  C   UNL A   1      32.943  35.050  28.553  1.00  0.00     0.251 C 
ATOM      6  H   UNL A   1      31.857  34.662  26.915  1.00  0.00     0.163 HD
BRANCH   5   7
ATOM      7  C   UNL A   1      34.130  34.650  29.343  1.00  0.00     0.039 A 
ATOM      8  C   UNL A   1      33.992  34.097  30.621  1.00  0.00     0.014 A 
ATOM      9  C   UNL A   1      35.394  34.709  28.744  1.00  0.00     0.014 A 
ATOM     10  C   UNL A   1      35.112  33.653  31.316  1.00  0.00     0.010 A 
ATOM     11  C   UNL A   1      36.509  34.193  29.412  1.00  0.00     0.010 A 
ATOM     12  C   UNL A   1      36.371  33.644  30.695  1.00  0.00    -0.014 A 
BRANCH  12  13
ATOM     13  C   UNL A   1      37.479  32.879  31.316  1.00  0.00     0.031 A 
ATOM     14  C   UNL A   1      38.107  31.703  30.635  1.00  0.00     0.074 A 
ATOM     15  C   UNL A   1      37.889  33.258  32.544  1.00  0.00     0.049 A 
ATOM     16  N   UNL A   1      39.064  30.920  31.067  1.00  0.00    -0.248 NA
ATOM     17  C   UNL A   1      37.596  31.349  29.303  1.00  0.00     0.031 C 
ATOM     18  C   UNL A   1      37.318  34.366  33.315  1.00  0.00     0.029 A 
ATOM     19  N   UNL A   1      38.872  32.760  33.361  1.00  0.00    -0.354 N 
ATOM     20  C   UNL A   1      39.259  29.972  30.073  1.00  0.00     0.074 A 
ATOM     21  C   UNL A   1      38.314  30.268  29.017  1.00  0.00     0.031 C 
ATOM     22  C   UNL A   1      37.973  34.480  34.478  1.00  0.00     0.029 A 
ATOM     23  C   UNL A   1      38.970  33.420  34.562  1.00  0.00     0.049 A 
ATOM     24  H   UNL A   1      39.451  32.005  33.110  1.00  0.00     0.167 HD
ATOM     25  C   UNL A   1      40.152  28.955  30.052  1.00  0.00     0.037 A 
ATOM     26  C   UNL A   1      39.756  33.182  35.628  1.00  0.00     0.037 A 
ATOM     27  C   UNL A   1      41.106  28.687  31.098  1.00  0.00     0.049 A 
ATOM     28  C   UNL A   1      40.722  32.036  35.575  1.00  0.00     0.074 A 
ATOM     29  C   UNL A   1      42.116  27.739  31.123  1.00  0.00     0.029 A 
ATOM     30  N   UNL A   1      41.161  29.360  32.310  1.00  0.00    -0.354 N 
ATOM     31  N   UNL A   1      40.946  31.194  34.597  1.00  0.00    -0.248 NA
ATOM     32  C   UNL A   1      41.535  31.800  36.775  1.00  0.00     0.031 C 
ATOM     33  C   UNL A   1      42.749  27.806  32.369  1.00  0.00     0.029 A 
ATOM     34  C   UNL A   1      42.160  28.820  33.106  1.00  0.00     0.049 A 
ATOM     35  H   UNL A   1      40.577  30.109  32.567  1.00  0.00     0.167 HD
ATOM     36  C   UNL A   1      41.923  30.327  35.061  1.00  0.00     0.074 A 
ATOM     37  C   UNL A   1      42.271  30.764  36.398  1.00  0.00     0.031 C 
ATOM     38  C   UNL A   1      42.475  29.257  34.440  1.00  0.00     0.037 A 
BRANCH  25  39
ATOM     39  C   UNL A   1      40.148  28.035  28.868  1.00  0.00     0.064 A 
ATOM     40  C   UNL A   1      40.869  28.335  27.705  1.00  0.00     0.173 A 
ATOM     41  C   UNL A   1      39.496  26.795  28.940  1.00  0.00     0.173 A 
ATOM     42  F   UNL A   1      41.504  29.510  27.587  1.00  0.00    -0.203 F 
ATOM     43  C   UNL A   1      40.934  27.427  26.649  1.00  0.00     0.198 A 
ATOM     44  C   UNL A   1      39.578  25.882  27.891  1.00  0.00     0.198 A 
ATOM     45  F   UNL A   1      38.800  26.460  30.035  1.00  0.00    -0.203 F 
ATOM     46  F   UNL A   1      41.615  27.738  25.540  1.00  0.00    -0.200 F 
ATOM     47  C   UNL A   1      40.296  26.198  26.748  1.00  0.00     0.200 A 
ATOM     48  F   UNL A   1      38.970  24.691  27.992  1.00  0.00    -0.200 F 
ATOM     49  F   UNL A   1      40.374  25.319  25.740  1.00  0.00    -0.200 F 
ENDBRANCH  25  39
BRANCH  26  50
ATOM     50  C   UNL A   1      39.631  34.029  36.841  1.00  0.00     0.064 A 
ATOM     51  C   UNL A   1      38.827  33.636  37.918  1.00  0.00     0.173 A 
ATOM     52  C   UNL A   1      40.321  35.246  36.948  1.00  0.00     0.173 A 
ATOM     53  F   UNL A   1      38.133  32.490  37.852  1.00  0.00    -0.203 F 
ATOM     54  C   UNL A   1      38.704  34.437  39.051  1.00  0.00     0.198 A 
ATOM     55  C   UNL A   1      40.220  36.032  38.092  1.00  0.00     0.198 A 
ATOM     56  F   UNL A   1      41.107  35.664  35.944  1.00  0.00    -0.203 F 
ATOM     57  F   UNL A   1      37.896  34.059  40.050  1.00  0.00    -0.200 F 
ATOM     58  C   UNL A   1      39.405  35.631  39.140  1.00  0.00     0.200 A 
ATOM     59  F   UNL A   1      40.911  37.177  38.181  1.00  0.00    -0.200 F 
ATOM     60  F   UNL A   1      39.290  36.397  40.233  1.00  0.00    -0.200 F 
ENDBRANCH  26  50
BRANCH  38  61
ATOM     61  C   UNL A   1      43.502  28.485  35.210  1.00  0.00     0.064 A 
ATOM     62  C   UNL A   1      44.862  28.821  35.144  1.00  0.00     0.173 A 
ATOM     63  C   UNL A   1      43.125  27.415  36.035  1.00  0.00     0.173 A 
ATOM     64  F   UNL A   1      45.270  29.822  34.350  1.00  0.00    -0.203 F 
ATOM     65  C   UNL A   1      45.811  28.102  35.864  1.00  0.00     0.198 A 
ATOM     66  C   UNL A   1      44.073  26.714  36.773  1.00  0.00     0.198 A 
ATOM     67  F   UNL A   1      41.835  27.056  36.130  1.00  0.00    -0.203 F 
ATOM     68  F   UNL A   1      47.109  28.414  35.754  1.00  0.00    -0.200 F 
ATOM     69  C   UNL A   1      45.416  27.054  36.682  1.00  0.00     0.200 A 
ATOM     70  F   UNL A   1      43.691  25.706  37.568  1.00  0.00    -0.200 F 
ATOM     71  F   UNL A   1      46.331  26.365  37.377  1.00  0.00    -0.200 F 
ENDBRANCH  38  61
ENDBRANCH  12  13
ENDBRANCH   5   7
ENDBRANCH   2   3
ENDBRANCH   1   2
BRANCH   1  72
ATOM     72  C   UNL A   1      31.691  30.795  26.161  1.00  0.00     0.118 C 
BRANCH  72  73
ATOM     73  N   UNL A   1      32.738  30.049  26.851  1.00  0.00    -0.351 N 
ATOM     74  C   UNL A   1      33.282  28.802  26.755  1.00  0.00     0.281 C 
ATOM     75  H   UNL A   1      33.160  30.581  27.563  1.00  0.00     0.163 HD
ATOM     76  O   UNL A   1      34.211  28.591  27.548  1.00  0.00    -0.268 OA
BRANCH  74  77
ATOM     77  C   UNL A   1      32.821  27.699  25.763  1.00  0.00     0.176 C 
ATOM     78  C   UNL A   1      33.220  26.265  26.104  1.00  0.00     0.080 C 
ATOM     79  C   UNL A   1      31.272  27.532  25.944  1.00  0.00     0.093 C 
ATOM     80  C   UNL A   1      32.238  25.373  25.377  1.00  0.00     0.022 C 
ATOM     81  C   UNL A   1      30.915  26.134  25.376  1.00  0.00     0.054 C 
BRANCH  77  82
ATOM     82  N   UNL A   1      32.948  28.126  24.353  1.00  0.00    -0.331 N 
ATOM     83  H   UNL A   1      33.078  29.137  24.403  1.00  0.00     0.347 HD
ATOM     84  H   UNL A   1      32.122  27.658  23.981  1.00  0.00     0.347 HD
BRANCH  82  85
ATOM     85  C   UNL A   1      33.905  27.686  23.359  1.00  0.00     0.183 C 
ATOM     86  C   UNL A   1      33.550  26.870  22.161  1.00  0.00     0.071 C 
ATOM     87  C   UNL A   1      34.063  28.277  22.000  1.00  0.00     0.071 C 
ENDBRANCH  82  85
ENDBRANCH  77  82
BRANCH  81  88
ATOM     88  S   UNL A   1      30.215  26.230  23.679  1.00  0.00    -0.155 SA
BRANCH  88  89
ATOM     89  C   UNL A   1      29.509  27.921  23.576  1.00  0.00     0.047 C 
ATOM     90  C   UNL A   1      30.117  28.886  22.561  1.00  0.00     0.014 C 
ATOM     91  C   UNL A   1      28.014  28.019  23.297  1.00  0.00     0.014 C 
ATOM     92  C   UNL A   1      29.170  30.077  22.614  1.00  0.00     0.001 C 
ATOM     93  C   UNL A   1      27.790  29.481  22.891  1.00  0.00     0.001 C 
ENDBRANCH  88  89
ENDBRANCH  81  88
ENDBRANCH  74  77
ENDBRANCH  72  73
ENDBRANCH   1  72
TORSDOF 14
ENDMDL
