MODEL 1
REMARK VINA RESULT:     -12.0      0.000      0.000
REMARK SMILES C[C@H](NC(=O)N(CC(=O)NCCCNC(=O)c1ccc(-c2c3nc(c(-c4c(F)c(F)c(F)c(F)c4F)c4ccc([nH]4)c(-c4c(F)c(F)c(F)c(F)c4F)c4nc(c(-c5c(F)c(F)c(F)c(F)c5F)c5ccc2[nH]5)C=C4)C=C3)cc1)C(C)(C)C)c1nncn1C
REMARK SMILES IDX 11 1 10 2 8 3 9 4 7 6 6 7 4 8 3 9 5 11 2 12 1 13 84 14 85 15
REMARK SMILES IDX 88 16 86 17 87 18 89 19 80 20 81 21 82 22 83 23 12 24 13 25
REMARK SMILES IDX 14 26 15 27 16 29 17 30 18 31 79 32 19 33 78 34 20 35 21 36
REMARK SMILES IDX 22 37 72 38 23 39 77 40 71 41 73 42 24 43 76 44 70 45 69 46
REMARK SMILES IDX 25 48 57 49 37 50 56 51 38 52 41 53 55 54 74 55 39 56 40 57
REMARK SMILES IDX 54 59 75 60 42 61 26 62 27 63 35 64 28 65 29 66 33 67 36 68
REMARK SMILES IDX 30 69 31 70 34 71 32 72 58 73 59 74 67 75 60 76 61 77 65 78
REMARK SMILES IDX 68 79 62 80 63 81 66 82 64 83 43 84 44 85 52 86 45 87 46 88
REMARK SMILES IDX 50 89 53 90 47 91 48 92 51 93 49 94
REMARK H PARENT 10 5 3 10 14 28 73 47 41 58
REMARK Flexibility Score: inf
ROOT
ATOM      1  C   UNL A   1      36.875  20.449  24.998  1.00  0.00     0.117 C 
ENDROOT
BRANCH   1   2
ATOM      2  N   UNL A   1      35.593  19.797  25.182  1.00  0.00    -0.354 N 
ATOM      3  C   UNL A   1      34.327  20.200  24.895  1.00  0.00     0.239 C 
ATOM      4  O   UNL A   1      33.469  19.310  24.844  1.00  0.00    -0.273 OA
ATOM      5  H   UNL A   1      35.650  18.902  25.587  1.00  0.00     0.163 HD
BRANCH   3   6
ATOM      6  C   UNL A   1      33.950  21.632  24.485  1.00  0.00     0.221 C 
BRANCH   6   7
ATOM      7  N   UNL A   1      33.920  22.666  25.505  1.00  0.00    -0.311 N 
BRANCH   7   8
ATOM      8  C   UNL A   1      33.298  22.521  26.714  1.00  0.00     0.318 C 
ATOM      9  N   UNL A   1      31.990  22.653  26.964  1.00  0.00    -0.328 N 
ATOM     10  H   UNL A   1      31.903  22.479  27.930  1.00  0.00     0.166 HD
ATOM     11  O   UNL A   1      33.937  22.247  27.737  1.00  0.00    -0.249 OA
BRANCH   9  12
ATOM     12  C   UNL A   1      30.610  22.931  26.509  1.00  0.00     0.149 C 
ATOM     13  C   UNL A   1      29.341  22.676  27.320  1.00  0.00     0.040 C 
BRANCH  12  14
ATOM     14  C   UNL A   1      30.527  24.275  25.857  1.00  0.00     0.154 A 
ATOM     15  N   UNL A   1      30.406  25.414  26.514  1.00  0.00    -0.133 NA
ATOM     16  N   UNL A   1      30.681  24.559  24.525  1.00  0.00    -0.319 N 
ATOM     17  N   UNL A   1      30.518  26.444  25.617  1.00  0.00    -0.139 NA
ATOM     18  C   UNL A   1      30.694  25.918  24.431  1.00  0.00     0.225 A 
ATOM     19  C   UNL A   1      30.832  23.647  23.425  1.00  0.00     0.152 C 
ENDBRANCH  12  14
ENDBRANCH   9  12
ENDBRANCH   7   8
BRANCH   7  20
ATOM     20  C   UNL A   1      34.628  23.984  25.177  1.00  0.00     0.037 C 
ATOM     21  C   UNL A   1      36.111  23.956  25.597  1.00  0.00     0.034 C 
ATOM     22  C   UNL A   1      34.532  24.302  23.664  1.00  0.00     0.034 C 
ATOM     23  C   UNL A   1      34.022  25.227  25.891  1.00  0.00     0.034 C 
ENDBRANCH   7  20
ENDBRANCH   6   7
ENDBRANCH   3   6
ENDBRANCH   1   2
BRANCH   1  24
ATOM     24  C   UNL A   1      38.063  19.510  24.970  1.00  0.00     0.042 C 
BRANCH  24  25
ATOM     25  C   UNL A   1      39.256  20.036  25.741  1.00  0.00     0.118 C 
BRANCH  25  26
ATOM     26  N   UNL A   1      40.288  19.023  25.911  1.00  0.00    -0.352 N 
ATOM     27  C   UNL A   1      41.638  19.186  26.085  1.00  0.00     0.251 C 
ATOM     28  H   UNL A   1      39.971  18.090  25.899  1.00  0.00     0.163 HD
ATOM     29  O   UNL A   1      42.393  18.222  25.988  1.00  0.00    -0.269 OA
BRANCH  27  30
ATOM     30  C   UNL A   1      42.184  20.529  26.370  1.00  0.00     0.039 A 
ATOM     31  C   UNL A   1      42.615  21.327  25.309  1.00  0.00     0.014 A 
ATOM     32  C   UNL A   1      42.263  21.004  27.683  1.00  0.00     0.014 A 
ATOM     33  C   UNL A   1      43.078  22.618  25.562  1.00  0.00     0.010 A 
ATOM     34  C   UNL A   1      42.618  22.325  27.921  1.00  0.00     0.010 A 
ATOM     35  C   UNL A   1      43.051  23.141  26.867  1.00  0.00    -0.014 A 
BRANCH  35  36
ATOM     36  C   UNL A   1      43.497  24.529  27.147  1.00  0.00     0.031 A 
ATOM     37  C   UNL A   1      42.524  25.537  27.697  1.00  0.00     0.074 A 
ATOM     38  C   UNL A   1      44.760  24.894  26.858  1.00  0.00     0.049 A 
ATOM     39  N   UNL A   1      42.714  26.801  27.981  1.00  0.00    -0.248 NA
ATOM     40  C   UNL A   1      41.145  25.075  27.927  1.00  0.00     0.031 C 
ATOM     41  C   UNL A   1      45.775  24.026  26.260  1.00  0.00     0.029 A 
ATOM     42  N   UNL A   1      45.406  26.093  27.026  1.00  0.00    -0.354 N 
ATOM     43  C   UNL A   1      41.482  27.281  28.406  1.00  0.00     0.074 A 
ATOM     44  C   UNL A   1      40.536  26.196  28.278  1.00  0.00     0.031 C 
ATOM     45  C   UNL A   1      46.925  24.710  26.143  1.00  0.00     0.029 A 
ATOM     46  C   UNL A   1      46.718  26.073  26.620  1.00  0.00     0.049 A 
ATOM     47  H   UNL A   1      44.970  26.892  27.401  1.00  0.00     0.167 HD
ATOM     48  C   UNL A   1      41.174  28.508  28.888  1.00  0.00     0.037 A 
ATOM     49  C   UNL A   1      47.648  27.046  26.631  1.00  0.00     0.037 A 
ATOM     50  C   UNL A   1      42.127  29.575  29.041  1.00  0.00     0.049 A 
ATOM     51  C   UNL A   1      47.284  28.399  27.182  1.00  0.00     0.074 A 
ATOM     52  C   UNL A   1      41.935  30.833  29.585  1.00  0.00     0.029 A 
ATOM     53  N   UNL A   1      43.455  29.511  28.640  1.00  0.00    -0.354 N 
ATOM     54  N   UNL A   1      46.138  28.816  27.662  1.00  0.00    -0.248 NA
ATOM     55  C   UNL A   1      48.346  29.414  27.201  1.00  0.00     0.031 C 
ATOM     56  C   UNL A   1      43.129  31.549  29.459  1.00  0.00     0.029 A 
ATOM     57  C   UNL A   1      44.085  30.717  28.899  1.00  0.00     0.049 A 
ATOM     58  H   UNL A   1      43.883  28.724  28.232  1.00  0.00     0.167 HD
ATOM     59  C   UNL A   1      46.348  30.127  28.070  1.00  0.00     0.074 A 
ATOM     60  C   UNL A   1      47.737  30.431  27.793  1.00  0.00     0.031 C 
ATOM     61  C   UNL A   1      45.471  31.000  28.624  1.00  0.00     0.037 A 
BRANCH  48  62
ATOM     62  C   UNL A   1      39.748  28.762  29.289  1.00  0.00     0.064 A 
ATOM     63  C   UNL A   1      39.290  28.514  30.593  1.00  0.00     0.173 A 
ATOM     64  C   UNL A   1      38.833  29.290  28.366  1.00  0.00     0.173 A 
ATOM     65  F   UNL A   1      40.119  27.997  31.513  1.00  0.00    -0.203 F 
ATOM     66  C   UNL A   1      37.963  28.751  30.946  1.00  0.00     0.198 A 
ATOM     67  C   UNL A   1      37.517  29.560  28.732  1.00  0.00     0.198 A 
ATOM     68  F   UNL A   1      39.217  29.552  27.107  1.00  0.00    -0.203 F 
ATOM     69  F   UNL A   1      37.536  28.450  32.181  1.00  0.00    -0.200 F 
ATOM     70  C   UNL A   1      37.080  29.281  30.018  1.00  0.00     0.200 A 
ATOM     71  F   UNL A   1      36.669  30.088  27.838  1.00  0.00    -0.200 F 
ATOM     72  F   UNL A   1      35.807  29.517  30.362  1.00  0.00    -0.200 F 
ENDBRANCH  48  62
BRANCH  49  73
ATOM     73  C   UNL A   1      49.020  26.767  26.133  1.00  0.00     0.064 A 
ATOM     74  C   UNL A   1      49.391  27.079  24.817  1.00  0.00     0.173 A 
ATOM     75  C   UNL A   1      49.991  26.180  26.960  1.00  0.00     0.173 A 
ATOM     76  F   UNL A   1      48.495  27.624  23.981  1.00  0.00    -0.203 F 
ATOM     77  C   UNL A   1      50.669  26.796  24.340  1.00  0.00     0.198 A 
ATOM     78  C   UNL A   1      51.279  25.927  26.492  1.00  0.00     0.198 A 
ATOM     79  F   UNL A   1      49.692  25.868  28.229  1.00  0.00    -0.203 F 
ATOM     80  F   UNL A   1      50.980  27.059  23.065  1.00  0.00    -0.200 F 
ATOM     81  C   UNL A   1      51.614  26.226  25.180  1.00  0.00     0.200 A 
ATOM     82  F   UNL A   1      52.193  25.391  27.313  1.00  0.00    -0.200 F 
ATOM     83  F   UNL A   1      52.844  25.957  24.724  1.00  0.00    -0.200 F 
ENDBRANCH  49  73
BRANCH  61  84
ATOM     84  C   UNL A   1      45.995  32.354  29.010  1.00  0.00     0.064 A 
ATOM     85  C   UNL A   1      46.578  32.594  30.263  1.00  0.00     0.173 A 
ATOM     86  C   UNL A   1      45.952  33.416  28.092  1.00  0.00     0.173 A 
ATOM     87  F   UNL A   1      46.632  31.616  31.180  1.00  0.00    -0.203 F 
ATOM     88  C   UNL A   1      47.070  33.854  30.594  1.00  0.00     0.198 A 
ATOM     89  C   UNL A   1      46.477  34.664  28.414  1.00  0.00     0.198 A 
ATOM     90  F   UNL A   1      45.413  33.238  26.876  1.00  0.00    -0.203 F 
ATOM     91  F   UNL A   1      47.573  34.074  31.815  1.00  0.00    -0.200 F 
ATOM     92  C   UNL A   1      47.026  34.884  29.667  1.00  0.00     0.200 A 
ATOM     93  F   UNL A   1      46.450  35.653  27.509  1.00  0.00    -0.200 F 
ATOM     94  F   UNL A   1      47.509  36.093  29.984  1.00  0.00    -0.200 F 
ENDBRANCH  61  84
ENDBRANCH  35  36
ENDBRANCH  27  30
ENDBRANCH  25  26
ENDBRANCH  24  25
ENDBRANCH   1  24
TORSDOF 15
ENDMDL
MODEL 2
REMARK VINA RESULT:     -11.9      0.558      7.348
REMARK SMILES C[C@H](NC(=O)N(CC(=O)NCCCNC(=O)c1ccc(-c2c3nc(c(-c4c(F)c(F)c(F)c(F)c4F)c4ccc([nH]4)c(-c4c(F)c(F)c(F)c(F)c4F)c4nc(c(-c5c(F)c(F)c(F)c(F)c5F)c5ccc2[nH]5)C=C4)C=C3)cc1)C(C)(C)C)c1nncn1C
REMARK SMILES IDX 11 1 10 2 8 3 9 4 7 6 6 7 4 8 3 9 5 11 2 12 1 13 84 14 85 15
REMARK SMILES IDX 88 16 86 17 87 18 89 19 80 20 81 21 82 22 83 23 12 24 13 25
REMARK SMILES IDX 14 26 15 27 16 29 17 30 18 31 79 32 19 33 78 34 20 35 21 36
REMARK SMILES IDX 22 37 72 38 23 39 77 40 71 41 73 42 24 43 76 44 70 45 69 46
REMARK SMILES IDX 25 48 57 49 37 50 56 51 38 52 41 53 55 54 74 55 39 56 40 57
REMARK SMILES IDX 54 59 75 60 42 61 26 62 27 63 35 64 28 65 29 66 33 67 36 68
REMARK SMILES IDX 30 69 31 70 34 71 32 72 58 73 59 74 67 75 60 76 61 77 65 78
REMARK SMILES IDX 68 79 62 80 63 81 66 82 64 83 43 84 44 85 52 86 45 87 46 88
REMARK SMILES IDX 50 89 53 90 47 91 48 92 51 93 49 94
REMARK H PARENT 10 5 3 10 14 28 73 47 41 58
REMARK Flexibility Score: inf
ROOT
ATOM      1  C   UNL A   1      36.867  20.475  24.992  1.00  0.00     0.117 C 
ENDROOT
BRANCH   1   2
ATOM      2  N   UNL A   1      35.602  19.785  25.157  1.00  0.00    -0.354 N 
ATOM      3  C   UNL A   1      34.329  20.149  24.849  1.00  0.00     0.239 C 
ATOM      4  O   UNL A   1      33.500  19.233  24.788  1.00  0.00    -0.273 OA
ATOM      5  H   UNL A   1      35.680  18.893  25.565  1.00  0.00     0.163 HD
BRANCH   3   6
ATOM      6  C   UNL A   1      33.916  21.567  24.431  1.00  0.00     0.221 C 
BRANCH   6   7
ATOM      7  N   UNL A   1      33.933  22.624  25.428  1.00  0.00    -0.311 N 
BRANCH   7   8
ATOM      8  C   UNL A   1      33.324  22.526  26.647  1.00  0.00     0.318 C 
ATOM      9  N   UNL A   1      32.016  22.655  26.903  1.00  0.00    -0.328 N 
ATOM     10  H   UNL A   1      31.940  22.523  27.876  1.00  0.00     0.166 HD
ATOM     11  O   UNL A   1      33.974  22.306  27.675  1.00  0.00    -0.249 OA
BRANCH   9  12
ATOM     12  C   UNL A   1      30.629  22.896  26.448  1.00  0.00     0.149 C 
ATOM     13  C   UNL A   1      29.367  22.581  27.248  1.00  0.00     0.040 C 
BRANCH  12  14
ATOM     14  C   UNL A   1      30.504  24.250  25.826  1.00  0.00     0.154 A 
ATOM     15  N   UNL A   1      30.291  25.364  26.503  1.00  0.00    -0.133 NA
ATOM     16  N   UNL A   1      30.702  24.577  24.509  1.00  0.00    -0.319 N 
ATOM     17  N   UNL A   1      30.388  26.422  25.637  1.00  0.00    -0.139 NA
ATOM     18  C   UNL A   1      30.646  25.937  24.448  1.00  0.00     0.225 A 
ATOM     19  C   UNL A   1      30.952  23.704  23.396  1.00  0.00     0.152 C 
ENDBRANCH  12  14
ENDBRANCH   9  12
ENDBRANCH   7   8
BRANCH   7  20
ATOM     20  C   UNL A   1      34.680  23.911  25.061  1.00  0.00     0.037 C 
ATOM     21  C   UNL A   1      34.709  24.138  23.536  1.00  0.00     0.034 C 
ATOM     22  C   UNL A   1      34.035  25.140  25.748  1.00  0.00     0.034 C 
ATOM     23  C   UNL A   1      36.170  23.931  25.508  1.00  0.00     0.034 C 
ENDBRANCH   7  20
ENDBRANCH   6   7
ENDBRANCH   3   6
ENDBRANCH   1   2
BRANCH   1  24
ATOM     24  C   UNL A   1      38.084  19.574  24.998  1.00  0.00     0.042 C 
BRANCH  24  25
ATOM     25  C   UNL A   1      39.218  20.113  25.846  1.00  0.00     0.118 C 
BRANCH  25  26
ATOM     26  N   UNL A   1      40.305  19.153  25.978  1.00  0.00    -0.352 N 
ATOM     27  C   UNL A   1      41.648  19.385  26.131  1.00  0.00     0.251 C 
ATOM     28  H   UNL A   1      40.039  18.205  25.954  1.00  0.00     0.163 HD
ATOM     29  O   UNL A   1      42.451  18.464  26.002  1.00  0.00    -0.269 OA
BRANCH  27  30
ATOM     30  C   UNL A   1      42.127  20.750  26.431  1.00  0.00     0.039 A 
ATOM     31  C   UNL A   1      42.461  21.600  25.376  1.00  0.00     0.014 A 
ATOM     32  C   UNL A   1      42.241  21.192  27.752  1.00  0.00     0.014 A 
ATOM     33  C   UNL A   1      42.858  22.910  25.647  1.00  0.00     0.010 A 
ATOM     34  C   UNL A   1      42.528  22.526  28.014  1.00  0.00     0.010 A 
ATOM     35  C   UNL A   1      42.862  23.394  26.966  1.00  0.00    -0.014 A 
BRANCH  35  36
ATOM     36  C   UNL A   1      43.239  24.798  27.268  1.00  0.00     0.031 A 
ATOM     37  C   UNL A   1      44.637  25.281  26.988  1.00  0.00     0.074 A 
ATOM     38  C   UNL A   1      42.340  25.621  27.840  1.00  0.00     0.049 A 
ATOM     39  N   UNL A   1      45.165  26.459  27.205  1.00  0.00    -0.248 NA
ATOM     40  C   UNL A   1      45.577  24.302  26.419  1.00  0.00     0.031 C 
ATOM     41  C   UNL A   1      40.976  25.250  28.221  1.00  0.00     0.029 A 
ATOM     42  N   UNL A   1      42.439  26.940  28.206  1.00  0.00    -0.354 N 
ATOM     43  C   UNL A   1      46.493  26.355  26.815  1.00  0.00     0.074 A 
ATOM     44  C   UNL A   1      46.711  24.984  26.413  1.00  0.00     0.031 C 
ATOM     45  C   UNL A   1      40.355  26.324  28.734  1.00  0.00     0.029 A 
ATOM     46  C   UNL A   1      41.287  27.447  28.754  1.00  0.00     0.049 A 
ATOM     47  H   UNL A   1      43.258  27.472  28.085  1.00  0.00     0.167 HD
ATOM     48  C   UNL A   1      47.439  27.323  26.768  1.00  0.00     0.037 A 
ATOM     49  C   UNL A   1      41.013  28.679  29.223  1.00  0.00     0.037 A 
ATOM     50  C   UNL A   1      47.207  28.693  27.142  1.00  0.00     0.049 A 
ATOM     51  C   UNL A   1      42.078  29.741  29.150  1.00  0.00     0.074 A 
ATOM     52  C   UNL A   1      48.075  29.767  27.065  1.00  0.00     0.029 A 
ATOM     53  N   UNL A   1      46.018  29.176  27.673  1.00  0.00    -0.354 N 
ATOM     54  N   UNL A   1      43.305  29.653  28.697  1.00  0.00    -0.248 NA
ATOM     55  C   UNL A   1      41.716  31.077  29.643  1.00  0.00     0.031 C 
ATOM     56  C   UNL A   1      47.433  30.887  27.603  1.00  0.00     0.029 A 
ATOM     57  C   UNL A   1      46.141  30.527  27.954  1.00  0.00     0.049 A 
ATOM     58  H   UNL A   1      45.209  28.637  27.826  1.00  0.00     0.167 HD
ATOM     59  C   UNL A   1      43.850  30.925  28.820  1.00  0.00     0.074 A 
ATOM     60  C   UNL A   1      42.814  31.769  29.378  1.00  0.00     0.031 C 
ATOM     61  C   UNL A   1      45.096  31.355  28.501  1.00  0.00     0.037 A 
BRANCH  48  62
ATOM     62  C   UNL A   1      48.810  26.936  26.292  1.00  0.00     0.064 A 
ATOM     63  C   UNL A   1      49.769  26.388  27.160  1.00  0.00     0.173 A 
ATOM     64  C   UNL A   1      49.163  27.085  24.942  1.00  0.00     0.173 A 
ATOM     65  F   UNL A   1      49.489  26.235  28.464  1.00  0.00    -0.203 F 
ATOM     66  C   UNL A   1      51.037  26.039  26.703  1.00  0.00     0.198 A 
ATOM     67  C   UNL A   1      50.419  26.701  24.481  1.00  0.00     0.198 A 
ATOM     68  F   UNL A   1      48.285  27.597  24.066  1.00  0.00    -0.203 F 
ATOM     69  F   UNL A   1      51.953  25.574  27.563  1.00  0.00    -0.200 F 
ATOM     70  C   UNL A   1      51.359  26.188  25.362  1.00  0.00     0.200 A 
ATOM     71  F   UNL A   1      50.723  26.831  23.181  1.00  0.00    -0.200 F 
ATOM     72  F   UNL A   1      52.576  25.844  24.922  1.00  0.00    -0.200 F 
ENDBRANCH  48  62
BRANCH  49  73
ATOM     73  C   UNL A   1      39.666  28.983  29.772  1.00  0.00     0.064 A 
ATOM     74  C   UNL A   1      38.657  29.519  28.959  1.00  0.00     0.173 A 
ATOM     75  C   UNL A   1      39.358  28.744  31.120  1.00  0.00     0.173 A 
ATOM     76  F   UNL A   1      38.907  29.782  27.668  1.00  0.00    -0.203 F 
ATOM     77  C   UNL A   1      37.401  29.827  29.478  1.00  0.00     0.198 A 
ATOM     78  C   UNL A   1      38.091  29.022  31.630  1.00  0.00     0.198 A 
ATOM     79  F   UNL A   1      40.284  28.225  31.940  1.00  0.00    -0.203 F 
ATOM     80  F   UNL A   1      36.472  30.385  28.691  1.00  0.00    -0.200 F 
ATOM     81  C   UNL A   1      37.116  29.572  30.811  1.00  0.00     0.200 A 
ATOM     82  F   UNL A   1      37.816  28.759  32.915  1.00  0.00    -0.200 F 
ATOM     83  F   UNL A   1      35.908  29.864  31.308  1.00  0.00    -0.200 F 
ENDBRANCH  49  73
BRANCH  61  84
ATOM     84  C   UNL A   1      45.397  32.812  28.704  1.00  0.00     0.064 A 
ATOM     85  C   UNL A   1      45.119  33.770  27.718  1.00  0.00     0.173 A 
ATOM     86  C   UNL A   1      45.931  33.261  29.923  1.00  0.00     0.173 A 
ATOM     87  F   UNL A   1      44.621  33.393  26.531  1.00  0.00    -0.203 F 
ATOM     88  C   UNL A   1      45.394  35.119  27.933  1.00  0.00     0.198 A 
ATOM     89  C   UNL A   1      46.170  34.613  30.147  1.00  0.00     0.198 A 
ATOM     90  F   UNL A   1      46.206  32.387  30.903  1.00  0.00    -0.203 F 
ATOM     91  F   UNL A   1      45.170  36.009  26.957  1.00  0.00    -0.200 F 
ATOM     92  C   UNL A   1      45.910  35.539  29.149  1.00  0.00     0.200 A 
ATOM     93  F   UNL A   1      46.652  35.019  31.330  1.00  0.00    -0.200 F 
ATOM     94  F   UNL A   1      46.164  36.839  29.357  1.00  0.00    -0.200 F 
ENDBRANCH  61  84
ENDBRANCH  35  36
ENDBRANCH  27  30
ENDBRANCH  25  26
ENDBRANCH  24  25
ENDBRANCH   1  24
TORSDOF 15
ENDMDL
MODEL 3
REMARK VINA RESULT:     -11.8      5.541      9.511
REMARK SMILES C[C@H](NC(=O)N(CC(=O)NCCCNC(=O)c1ccc(-c2c3nc(c(-c4c(F)c(F)c(F)c(F)c4F)c4ccc([nH]4)c(-c4c(F)c(F)c(F)c(F)c4F)c4nc(c(-c5c(F)c(F)c(F)c(F)c5F)c5ccc2[nH]5)C=C4)C=C3)cc1)C(C)(C)C)c1nncn1C
REMARK SMILES IDX 11 1 10 2 8 3 9 4 7 6 6 7 4 8 3 9 5 11 2 12 1 13 84 14 85 15
REMARK SMILES IDX 88 16 86 17 87 18 89 19 80 20 81 21 82 22 83 23 12 24 13 25
REMARK SMILES IDX 14 26 15 27 16 29 17 30 18 31 79 32 19 33 78 34 20 35 21 36
REMARK SMILES IDX 22 37 72 38 23 39 77 40 71 41 73 42 24 43 76 44 70 45 69 46
REMARK SMILES IDX 25 48 57 49 37 50 56 51 38 52 41 53 55 54 74 55 39 56 40 57
REMARK SMILES IDX 54 59 75 60 42 61 26 62 27 63 35 64 28 65 29 66 33 67 36 68
REMARK SMILES IDX 30 69 31 70 34 71 32 72 58 73 59 74 67 75 60 76 61 77 65 78
REMARK SMILES IDX 68 79 62 80 63 81 66 82 64 83 43 84 44 85 52 86 45 87 46 88
REMARK SMILES IDX 50 89 53 90 47 91 48 92 51 93 49 94
REMARK H PARENT 10 5 3 10 14 28 73 47 41 58
REMARK Flexibility Score: inf
ROOT
ATOM      1  C   UNL A   1      31.304  30.720  25.958  1.00  0.00     0.117 C 
ENDROOT
BRANCH   1   2
ATOM      2  N   UNL A   1      30.809  30.586  24.602  1.00  0.00    -0.354 N 
ATOM      3  C   UNL A   1      30.537  29.491  23.844  1.00  0.00     0.239 C 
ATOM      4  O   UNL A   1      29.811  29.675  22.859  1.00  0.00    -0.273 OA
ATOM      5  H   UNL A   1      30.638  31.443  24.149  1.00  0.00     0.163 HD
BRANCH   3   6
ATOM      6  C   UNL A   1      30.940  28.059  24.225  1.00  0.00     0.221 C 
BRANCH   6   7
ATOM      7  N   UNL A   1      32.340  27.680  24.144  1.00  0.00    -0.311 N 
BRANCH   7   8
ATOM      8  C   UNL A   1      33.080  27.751  22.997  1.00  0.00     0.318 C 
ATOM      9  N   UNL A   1      32.997  26.936  21.938  1.00  0.00    -0.328 N 
ATOM     10  H   UNL A   1      33.670  27.282  21.306  1.00  0.00     0.166 HD
ATOM     11  O   UNL A   1      33.944  28.622  22.842  1.00  0.00    -0.249 OA
BRANCH   9  12
ATOM     12  C   UNL A   1      32.397  25.774  21.247  1.00  0.00     0.149 C 
ATOM     13  C   UNL A   1      32.525  25.467  19.756  1.00  0.00     0.040 C 
BRANCH  12  14
ATOM     14  C   UNL A   1      32.604  24.522  22.037  1.00  0.00     0.154 A 
ATOM     15  N   UNL A   1      33.698  23.785  21.991  1.00  0.00    -0.133 NA
ATOM     16  N   UNL A   1      31.778  24.007  23.003  1.00  0.00    -0.319 N 
ATOM     17  N   UNL A   1      33.606  22.811  22.950  1.00  0.00    -0.139 NA
ATOM     18  C   UNL A   1      32.454  22.963  23.557  1.00  0.00     0.225 A 
ATOM     19  C   UNL A   1      30.474  24.459  23.402  1.00  0.00     0.152 C 
ENDBRANCH  12  14
ENDBRANCH   9  12
ENDBRANCH   7   8
BRANCH   7  20
ATOM     20  C   UNL A   1      32.996  27.172  25.432  1.00  0.00     0.037 C 
ATOM     21  C   UNL A   1      31.945  26.768  26.486  1.00  0.00     0.034 C 
ATOM     22  C   UNL A   1      33.920  25.964  25.144  1.00  0.00     0.034 C 
ATOM     23  C   UNL A   1      33.905  28.219  26.140  1.00  0.00     0.034 C 
ENDBRANCH   7  20
ENDBRANCH   6   7
ENDBRANCH   3   6
ENDBRANCH   1   2
BRANCH   1  24
ATOM     24  C   UNL A   1      31.326  32.138  26.486  1.00  0.00     0.042 C 
BRANCH  24  25
ATOM     25  C   UNL A   1      32.644  32.511  27.135  1.00  0.00     0.118 C 
BRANCH  25  26
ATOM     26  N   UNL A   1      32.638  33.877  27.639  1.00  0.00    -0.352 N 
ATOM     27  C   UNL A   1      33.408  34.436  28.626  1.00  0.00     0.251 C 
ATOM     28  H   UNL A   1      31.990  34.484  27.212  1.00  0.00     0.163 HD
ATOM     29  O   UNL A   1      33.120  35.541  29.081  1.00  0.00    -0.269 OA
BRANCH  27  30
ATOM     30  C   UNL A   1      34.573  33.698  29.155  1.00  0.00     0.039 A 
ATOM     31  C   UNL A   1      35.857  34.179  28.896  1.00  0.00     0.014 A 
ATOM     32  C   UNL A   1      34.399  32.535  29.911  1.00  0.00     0.014 A 
ATOM     33  C   UNL A   1      36.962  33.523  29.440  1.00  0.00     0.010 A 
ATOM     34  C   UNL A   1      35.489  31.949  30.542  1.00  0.00     0.010 A 
ATOM     35  C   UNL A   1      36.785  32.422  30.296  1.00  0.00    -0.014 A 
BRANCH  35  36
ATOM     36  C   UNL A   1      37.946  31.739  30.919  1.00  0.00     0.031 A 
ATOM     37  C   UNL A   1      38.379  32.107  32.313  1.00  0.00     0.074 A 
ATOM     38  C   UNL A   1      38.642  30.828  30.213  1.00  0.00     0.049 A 
ATOM     39  N   UNL A   1      39.381  31.646  33.017  1.00  0.00    -0.248 NA
ATOM     40  C   UNL A   1      37.604  33.158  32.994  1.00  0.00     0.031 C 
ATOM     41  C   UNL A   1      38.361  30.436  28.831  1.00  0.00     0.029 A 
ATOM     42  N   UNL A   1      39.731  30.067  30.558  1.00  0.00    -0.354 N 
ATOM     43  C   UNL A   1      39.363  32.357  34.210  1.00  0.00     0.074 A 
ATOM     44  C   UNL A   1      38.297  33.328  34.109  1.00  0.00     0.031 C 
ATOM     45  C   UNL A   1      39.232  29.484  28.458  1.00  0.00     0.029 A 
ATOM     46  C   UNL A   1      40.155  29.227  29.559  1.00  0.00     0.049 A 
ATOM     47  H   UNL A   1      40.166  30.120  31.440  1.00  0.00     0.167 HD
ATOM     48  C   UNL A   1      40.145  32.196  35.303  1.00  0.00     0.037 A 
ATOM     49  C   UNL A   1      41.175  28.349  29.533  1.00  0.00     0.037 A 
ATOM     50  C   UNL A   1      41.186  31.208  35.408  1.00  0.00     0.049 A 
ATOM     51  C   UNL A   1      42.024  28.180  30.765  1.00  0.00     0.074 A 
ATOM     52  C   UNL A   1      41.990  30.913  36.495  1.00  0.00     0.029 A 
ATOM     53  N   UNL A   1      41.573  30.357  34.381  1.00  0.00    -0.354 N 
ATOM     54  N   UNL A   1      41.942  28.797  31.918  1.00  0.00    -0.248 NA
ATOM     55  C   UNL A   1      43.102  27.184  30.693  1.00  0.00     0.031 C 
ATOM     56  C   UNL A   1      42.901  29.926  36.109  1.00  0.00     0.029 A 
ATOM     57  C   UNL A   1      42.623  29.556  34.802  1.00  0.00     0.049 A 
ATOM     58  H   UNL A   1      41.161  30.327  33.488  1.00  0.00     0.167 HD
ATOM     59  C   UNL A   1      42.932  28.244  32.719  1.00  0.00     0.074 A 
ATOM     60  C   UNL A   1      43.594  27.230  31.923  1.00  0.00     0.031 C 
ATOM     61  C   UNL A   1      43.265  28.547  33.999  1.00  0.00     0.037 A 
BRANCH  48  62
ATOM     62  C   UNL A   1      39.904  33.105  36.475  1.00  0.00     0.064 A 
ATOM     63  C   UNL A   1      38.952  32.804  37.462  1.00  0.00     0.173 A 
ATOM     64  C   UNL A   1      40.655  34.280  36.629  1.00  0.00     0.173 A 
ATOM     65  F   UNL A   1      38.196  31.699  37.357  1.00  0.00    -0.203 F 
ATOM     66  C   UNL A   1      38.738  33.660  38.540  1.00  0.00     0.198 A 
ATOM     67  C   UNL A   1      40.464  35.115  37.727  1.00  0.00     0.198 A 
ATOM     68  F   UNL A   1      41.583  34.615  35.720  1.00  0.00    -0.203 F 
ATOM     69  F   UNL A   1      37.783  33.380  39.437  1.00  0.00    -0.200 F 
ATOM     70  C   UNL A   1      39.500  34.811  38.675  1.00  0.00     0.200 A 
ATOM     71  F   UNL A   1      41.213  36.219  37.865  1.00  0.00    -0.200 F 
ATOM     72  F   UNL A   1      39.299  35.630  39.717  1.00  0.00    -0.200 F 
ENDBRANCH  48  62
BRANCH  49  73
ATOM     73  C   UNL A   1      41.428  27.541  28.311  1.00  0.00     0.064 A 
ATOM     74  C   UNL A   1      42.351  27.963  27.343  1.00  0.00     0.173 A 
ATOM     75  C   UNL A   1      40.754  26.332  28.084  1.00  0.00     0.173 A 
ATOM     76  F   UNL A   1      43.008  29.120  27.505  1.00  0.00    -0.203 F 
ATOM     77  C   UNL A   1      42.572  27.220  26.185  1.00  0.00     0.198 A 
ATOM     78  C   UNL A   1      41.000  25.573  26.942  1.00  0.00     0.198 A 
ATOM     79  F   UNL A   1      39.866  25.879  28.981  1.00  0.00    -0.203 F 
ATOM     80  F   UNL A   1      43.422  27.671  25.254  1.00  0.00    -0.200 F 
ATOM     81  C   UNL A   1      41.901  26.022  25.988  1.00  0.00     0.200 A 
ATOM     82  F   UNL A   1      40.360  24.408  26.763  1.00  0.00    -0.200 F 
ATOM     83  F   UNL A   1      42.117  25.306  24.878  1.00  0.00    -0.200 F 
ENDBRANCH  49  73
BRANCH  61  84
ATOM     84  C   UNL A   1      44.364  27.745  34.635  1.00  0.00     0.064 A 
ATOM     85  C   UNL A   1      45.695  28.185  34.639  1.00  0.00     0.173 A 
ATOM     86  C   UNL A   1      44.070  26.537  35.288  1.00  0.00     0.173 A 
ATOM     87  F   UNL A   1      46.031  29.326  34.017  1.00  0.00    -0.203 F 
ATOM     88  C   UNL A   1      46.697  27.431  35.247  1.00  0.00     0.198 A 
ATOM     89  C   UNL A   1      45.067  25.805  35.925  1.00  0.00     0.198 A 
ATOM     90  F   UNL A   1      42.810  26.075  35.322  1.00  0.00    -0.203 F 
ATOM     91  F   UNL A   1      47.969  27.845  35.192  1.00  0.00    -0.200 F 
ATOM     92  C   UNL A   1      46.380  26.248  35.896  1.00  0.00     0.200 A 
ATOM     93  F   UNL A   1      44.756  24.670  36.568  1.00  0.00    -0.200 F 
ATOM     94  F   UNL A   1      47.344  25.529  36.488  1.00  0.00    -0.200 F 
ENDBRANCH  61  84
ENDBRANCH  35  36
ENDBRANCH  27  30
ENDBRANCH  25  26
ENDBRANCH  24  25
ENDBRANCH   1  24
TORSDOF 15
ENDMDL
