MODEL 1
REMARK VINA RESULT:     -13.3      0.000      0.000
REMARK SMILES NS(=O)(=O)c1ccc(-n2nc(NC(=O)NCCCC(=O)NCCCNC(=O)c3ccc(-c4c5nc(c(-c6c(F)c(F)c(F)c(F)c6F)c6ccc([nH]6)c(-c6c(F)c(F)c(F)c(F)c6F)c6nc(c(-c7c(F)c(F)c(F)c(F)c7F)c7ccc4[nH]7)C=C6)C=C5)cc3)cc2-c2ccccc2)cc1
REMARK SMILES IDX 19 1 20 2 21 3 18 5 17 6 16 7 15 8 12 9 13 10 14 12 11 14
REMARK SMILES IDX 9 15 10 16 92 17 91 18 8 19 5 20 6 21 100 22 7 23 99 24 2 25
REMARK SMILES IDX 3 26 4 27 1 28 93 31 94 32 98 33 95 34 97 35 96 36 22 37
REMARK SMILES IDX 23 38 24 39 25 40 26 41 27 43 28 44 29 45 90 46 30 47 89 48
REMARK SMILES IDX 31 49 32 50 33 51 83 52 34 53 88 54 82 55 84 56 35 57 87 58
REMARK SMILES IDX 81 59 80 60 36 62 68 63 48 64 67 65 49 66 52 67 66 68 85 69
REMARK SMILES IDX 50 70 51 71 65 73 86 74 53 75 37 76 38 77 46 78 39 79 40 80
REMARK SMILES IDX 44 81 47 82 41 83 42 84 45 85 43 86 69 87 70 88 78 89 71 90
REMARK SMILES IDX 72 91 76 92 79 93 73 94 74 95 77 96 75 97 54 98 55 99 63 100
REMARK SMILES IDX 56 101 57 102 61 103 64 104 58 105 59 106 62 107 60 108
REMARK H PARENT 21 4 12 11 15 13 1 29 1 30 25 42 84 61 52 72
REMARK Flexibility Score: inf
ROOT
ATOM      1  C   UNL A   1      32.248  28.727  25.256  1.00  0.00     0.220 C 
ATOM      2  O   UNL A   1      31.903  28.632  24.077  1.00  0.00    -0.275 OA
ATOM      3  N   UNL A   1      33.345  29.484  25.545  1.00  0.00    -0.356 N 
ATOM      4  H   UNL A   1      33.706  29.990  24.782  1.00  0.00     0.163 HD
ENDROOT
BRANCH   1   5
ATOM      5  C   UNL A   1      31.455  28.045  26.358  1.00  0.00     0.102 C 
BRANCH   5   6
ATOM      6  C   UNL A   1      31.837  26.586  26.607  1.00  0.00     0.031 C 
BRANCH   6   7
ATOM      7  C   UNL A   1      30.840  25.562  26.088  1.00  0.00     0.118 C 
BRANCH   7   8
ATOM      8  N   UNL A   1      29.741  26.095  25.300  1.00  0.00    -0.338 N 
ATOM      9  N   UNL A   1      30.522  25.896  23.052  1.00  0.00    -0.291 N 
ATOM     10  C   UNL A   1      29.588  26.243  23.964  1.00  0.00     0.320 C 
ATOM     11  H   UNL A   1      30.427  26.345  22.181  1.00  0.00     0.173 HD
ATOM     12  O   UNL A   1      28.569  26.825  23.575  1.00  0.00    -0.248 OA
ATOM     13  H   UNL A   1      28.973  26.403  25.833  1.00  0.00     0.165 HD
BRANCH   9  14
ATOM     14  C   UNL A   1      31.580  25.026  23.131  1.00  0.00     0.157 A 
ATOM     15  N   UNL A   1      32.609  23.193  23.346  1.00  0.00    -0.231 N 
ATOM     16  N   UNL A   1      31.538  23.751  22.758  1.00  0.00    -0.149 NA
ATOM     17  C   UNL A   1      33.555  24.156  23.668  1.00  0.00     0.076 A 
ATOM     18  C   UNL A   1      32.888  25.364  23.539  1.00  0.00     0.078 A 
BRANCH  15  19
ATOM     19  C   UNL A   1      32.612  21.799  23.623  1.00  0.00     0.065 A 
ATOM     20  C   UNL A   1      32.720  19.064  24.121  1.00  0.00     0.082 A 
ATOM     21  C   UNL A   1      33.087  19.964  25.126  1.00  0.00     0.024 A 
ATOM     22  C   UNL A   1      32.245  19.522  22.888  1.00  0.00     0.024 A 
ATOM     23  C   UNL A   1      33.044  21.334  24.873  1.00  0.00     0.030 A 
ATOM     24  C   UNL A   1      32.165  20.898  22.648  1.00  0.00     0.030 A 
BRANCH  20  25
ATOM     25  S   UNL A   1      32.870  17.336  24.465  1.00  0.00     0.238 S 
ATOM     26  O   UNL A   1      33.279  16.661  23.246  1.00  0.00    -0.207 OA
ATOM     27  O   UNL A   1      31.725  16.932  25.232  1.00  0.00    -0.207 OA
BRANCH  25  28
ATOM     28  N   UNL A   1      34.188  17.222  25.498  1.00  0.00    -0.225 NA
ATOM     29  H   UNL A   1      35.032  17.039  24.954  1.00  0.00     0.137 HD
ATOM     30  H   UNL A   1      34.037  16.459  26.159  1.00  0.00     0.137 HD
ENDBRANCH  25  28
ENDBRANCH  20  25
ENDBRANCH  15  19
BRANCH  17  31
ATOM     31  C   UNL A   1      34.928  23.838  24.041  1.00  0.00     0.000 A 
ATOM     32  C   UNL A   1      35.733  23.097  23.159  1.00  0.00     0.010 A 
ATOM     33  C   UNL A   1      35.430  24.185  25.297  1.00  0.00     0.010 A 
ATOM     34  C   UNL A   1      36.994  22.659  23.547  1.00  0.00     0.001 A 
ATOM     35  C   UNL A   1      36.702  23.755  25.680  1.00  0.00     0.001 A 
ATOM     36  C   UNL A   1      37.476  22.984  24.812  1.00  0.00     0.000 A 
ENDBRANCH  17  31
ENDBRANCH   9  14
ENDBRANCH   7   8
ENDBRANCH   6   7
ENDBRANCH   5   6
ENDBRANCH   1   5
BRANCH   3  37
ATOM     37  C   UNL A   1      34.074  29.668  26.797  1.00  0.00     0.117 C 
BRANCH  37  38
ATOM     38  C   UNL A   1      33.569  30.881  27.580  1.00  0.00     0.042 C 
BRANCH  38  39
ATOM     39  C   UNL A   1      34.616  31.924  27.881  1.00  0.00     0.118 C 
BRANCH  39  40
ATOM     40  N   UNL A   1      34.546  32.442  29.244  1.00  0.00    -0.352 N 
ATOM     41  C   UNL A   1      35.298  32.046  30.335  1.00  0.00     0.251 C 
ATOM     42  H   UNL A   1      33.888  33.156  29.405  1.00  0.00     0.163 HD
ATOM     43  O   UNL A   1      34.893  32.231  31.477  1.00  0.00    -0.269 OA
BRANCH  41  44
ATOM     44  C   UNL A   1      36.600  31.388  30.104  1.00  0.00     0.039 A 
ATOM     45  C   UNL A   1      37.783  32.118  29.974  1.00  0.00     0.014 A 
ATOM     46  C   UNL A   1      36.627  29.998  30.032  1.00  0.00     0.014 A 
ATOM     47  C   UNL A   1      38.981  31.423  29.820  1.00  0.00     0.010 A 
ATOM     48  C   UNL A   1      37.810  29.321  30.130  1.00  0.00     0.010 A 
ATOM     49  C   UNL A   1      38.982  30.018  29.917  1.00  0.00    -0.014 A 
BRANCH  49  50
ATOM     50  C   UNL A   1      40.224  29.256  29.954  1.00  0.00     0.031 A 
ATOM     51  C   UNL A   1      40.725  29.108  31.338  1.00  0.00     0.074 A 
ATOM     52  C   UNL A   1      40.739  28.587  28.895  1.00  0.00     0.049 A 
ATOM     53  N   UNL A   1      41.694  29.764  31.879  1.00  0.00    -0.248 NA
ATOM     54  C   UNL A   1      39.928  28.327  32.302  1.00  0.00     0.031 C 
ATOM     55  C   UNL A   1      40.124  28.386  27.574  1.00  0.00     0.029 A 
ATOM     56  N   UNL A   1      41.900  27.868  28.789  1.00  0.00    -0.354 N 
ATOM     57  C   UNL A   1      41.817  29.244  33.163  1.00  0.00     0.074 A 
ATOM     58  C   UNL A   1      40.568  28.594  33.444  1.00  0.00     0.031 C 
ATOM     59  C   UNL A   1      40.795  27.432  26.889  1.00  0.00     0.029 A 
ATOM     60  C   UNL A   1      41.990  27.082  27.634  1.00  0.00     0.049 A 
ATOM     61  H   UNL A   1      42.611  27.901  29.468  1.00  0.00     0.167 HD
ATOM     62  C   UNL A   1      43.064  29.066  33.683  1.00  0.00     0.037 A 
ATOM     63  C   UNL A   1      42.989  26.220  27.313  1.00  0.00     0.037 A 
ATOM     64  C   UNL A   1      44.025  29.796  32.886  1.00  0.00     0.049 A 
ATOM     65  C   UNL A   1      44.173  26.617  28.103  1.00  0.00     0.074 A 
ATOM     66  C   UNL A   1      44.400  31.111  32.716  1.00  0.00     0.029 A 
ATOM     67  N   UNL A   1      44.432  29.110  31.773  1.00  0.00    -0.354 N 
ATOM     68  N   UNL A   1      44.823  27.729  27.901  1.00  0.00    -0.248 NA
ATOM     69  C   UNL A   1      44.430  25.957  29.378  1.00  0.00     0.031 C 
ATOM     70  C   UNL A   1      44.962  31.203  31.406  1.00  0.00     0.029 A 
ATOM     71  C   UNL A   1      44.983  29.934  30.833  1.00  0.00     0.049 A 
ATOM     72  H   UNL A   1      44.338  28.137  31.663  1.00  0.00     0.167 HD
ATOM     73  C   UNL A   1      45.205  28.124  29.165  1.00  0.00     0.074 A 
ATOM     74  C   UNL A   1      45.100  26.932  29.998  1.00  0.00     0.031 C 
ATOM     75  C   UNL A   1      45.223  29.445  29.497  1.00  0.00     0.037 A 
BRANCH  62  76
ATOM     76  C   UNL A   1      43.512  27.858  34.495  1.00  0.00     0.064 A 
ATOM     77  C   UNL A   1      43.479  26.589  33.871  1.00  0.00     0.173 A 
ATOM     78  C   UNL A   1      43.666  27.825  35.897  1.00  0.00     0.173 A 
ATOM     79  F   UNL A   1      43.342  26.482  32.542  1.00  0.00    -0.203 F 
ATOM     80  C   UNL A   1      43.496  25.397  34.603  1.00  0.00     0.198 A 
ATOM     81  C   UNL A   1      43.722  26.634  36.620  1.00  0.00     0.198 A 
ATOM     82  F   UNL A   1      43.673  28.927  36.652  1.00  0.00    -0.203 F 
ATOM     83  F   UNL A   1      43.341  24.225  33.972  1.00  0.00    -0.200 F 
ATOM     84  C   UNL A   1      43.606  25.421  35.980  1.00  0.00     0.200 A 
ATOM     85  F   UNL A   1      43.813  26.681  37.958  1.00  0.00    -0.200 F 
ATOM     86  F   UNL A   1      43.562  24.287  36.689  1.00  0.00    -0.200 F 
ENDBRANCH  62  76
BRANCH  63  87
ATOM     87  C   UNL A   1      42.986  24.960  26.531  1.00  0.00     0.064 A 
ATOM     88  C   UNL A   1      43.805  24.798  25.397  1.00  0.00     0.173 A 
ATOM     89  C   UNL A   1      42.437  23.787  27.075  1.00  0.00     0.173 A 
ATOM     90  F   UNL A   1      44.400  25.862  24.836  1.00  0.00    -0.203 F 
ATOM     91  C   UNL A   1      44.098  23.533  24.873  1.00  0.00     0.198 A 
ATOM     92  C   UNL A   1      42.731  22.525  26.552  1.00  0.00     0.198 A 
ATOM     93  F   UNL A   1      41.698  23.837  28.194  1.00  0.00    -0.203 F 
ATOM     94  F   UNL A   1      44.944  23.415  23.839  1.00  0.00    -0.200 F 
ATOM     95  C   UNL A   1      43.574  22.396  25.462  1.00  0.00     0.200 A 
ATOM     96  F   UNL A   1      42.253  21.427  27.159  1.00  0.00    -0.200 F 
ATOM     97  F   UNL A   1      43.916  21.180  25.013  1.00  0.00    -0.200 F 
ENDBRANCH  63  87
BRANCH  75  98
ATOM     98  C   UNL A   1      45.373  30.435  28.388  1.00  0.00     0.064 A 
ATOM     99  C   UNL A   1      44.310  31.038  27.695  1.00  0.00     0.173 A 
ATOM    100  C   UNL A   1      46.674  30.839  28.063  1.00  0.00     0.173 A 
ATOM    101  F   UNL A   1      43.037  30.749  27.996  1.00  0.00    -0.203 F 
ATOM    102  C   UNL A   1      44.552  31.984  26.699  1.00  0.00     0.198 A 
ATOM    103  C   UNL A   1      46.910  31.807  27.095  1.00  0.00     0.198 A 
ATOM    104  F   UNL A   1      47.722  30.313  28.717  1.00  0.00    -0.203 F 
ATOM    105  F   UNL A   1      43.527  32.539  26.035  1.00  0.00    -0.200 F 
ATOM    106  C   UNL A   1      45.851  32.373  26.405  1.00  0.00     0.200 A 
ATOM    107  F   UNL A   1      48.165  32.205  26.846  1.00  0.00    -0.200 F 
ATOM    108  F   UNL A   1      46.082  33.306  25.473  1.00  0.00    -0.200 F 
ENDBRANCH  75  98
ENDBRANCH  49  50
ENDBRANCH  41  44
ENDBRANCH  39  40
ENDBRANCH  38  39
ENDBRANCH  37  38
ENDBRANCH   3  37
TORSDOF 18
ENDMDL
MODEL 2
REMARK VINA RESULT:     -13.2      3.225      8.846
REMARK SMILES NS(=O)(=O)c1ccc(-n2nc(NC(=O)NCCCC(=O)NCCCNC(=O)c3ccc(-c4c5nc(c(-c6c(F)c(F)c(F)c(F)c6F)c6ccc([nH]6)c(-c6c(F)c(F)c(F)c(F)c6F)c6nc(c(-c7c(F)c(F)c(F)c(F)c7F)c7ccc4[nH]7)C=C6)C=C5)cc3)cc2-c2ccccc2)cc1
REMARK SMILES IDX 19 1 20 2 21 3 18 5 17 6 16 7 15 8 12 9 13 10 14 12 11 14
REMARK SMILES IDX 9 15 10 16 92 17 91 18 8 19 5 20 6 21 100 22 7 23 99 24 2 25
REMARK SMILES IDX 3 26 4 27 1 28 93 31 94 32 98 33 95 34 97 35 96 36 22 37
REMARK SMILES IDX 23 38 24 39 25 40 26 41 27 43 28 44 29 45 90 46 30 47 89 48
REMARK SMILES IDX 31 49 32 50 33 51 83 52 34 53 88 54 82 55 84 56 35 57 87 58
REMARK SMILES IDX 81 59 80 60 36 62 68 63 48 64 67 65 49 66 52 67 66 68 85 69
REMARK SMILES IDX 50 70 51 71 65 73 86 74 53 75 37 76 38 77 46 78 39 79 40 80
REMARK SMILES IDX 44 81 47 82 41 83 42 84 45 85 43 86 69 87 70 88 78 89 71 90
REMARK SMILES IDX 72 91 76 92 79 93 73 94 74 95 77 96 75 97 54 98 55 99 63 100
REMARK SMILES IDX 56 101 57 102 61 103 64 104 58 105 59 106 62 107 60 108
REMARK H PARENT 21 4 12 11 15 13 1 29 1 30 25 42 84 61 52 72
REMARK Flexibility Score: inf
ROOT
ATOM      1  C   UNL A   1      33.728  23.553  22.685  1.00  0.00     0.220 C 
ATOM      2  O   UNL A   1      33.528  23.742  21.483  1.00  0.00    -0.275 OA
ATOM      3  N   UNL A   1      34.919  23.003  23.058  1.00  0.00    -0.356 N 
ATOM      4  H   UNL A   1      35.573  22.908  22.329  1.00  0.00     0.163 HD
ENDROOT
BRANCH   1   5
ATOM      5  C   UNL A   1      32.690  23.950  23.721  1.00  0.00     0.102 C 
BRANCH   5   6
ATOM      6  C   UNL A   1      31.883  22.784  24.292  1.00  0.00     0.031 C 
BRANCH   6   7
ATOM      7  C   UNL A   1      31.911  22.663  25.808  1.00  0.00     0.118 C 
BRANCH   7   8
ATOM      8  N   UNL A   1      30.699  22.148  26.422  1.00  0.00    -0.338 N 
ATOM      9  N   UNL A   1      29.473  24.121  26.973  1.00  0.00    -0.291 N 
ATOM     10  C   UNL A   1      29.617  22.779  26.935  1.00  0.00     0.320 C 
ATOM     11  H   UNL A   1      28.826  24.442  27.642  1.00  0.00     0.173 HD
ATOM     12  O   UNL A   1      28.766  22.076  27.488  1.00  0.00    -0.248 OA
ATOM     13  H   UNL A   1      30.659  21.165  26.475  1.00  0.00     0.165 HD
BRANCH   9  14
ATOM     14  C   UNL A   1      30.072  25.114  26.240  1.00  0.00     0.157 A 
ATOM     15  N   UNL A   1      31.334  26.753  25.808  1.00  0.00    -0.231 N 
ATOM     16  N   UNL A   1      31.298  25.579  26.459  1.00  0.00    -0.149 NA
ATOM     17  C   UNL A   1      30.360  26.802  24.821  1.00  0.00     0.076 A 
ATOM     18  C   UNL A   1      29.519  25.736  25.100  1.00  0.00     0.078 A 
BRANCH  15  19
ATOM     19  C   UNL A   1      32.242  27.762  26.228  1.00  0.00     0.065 A 
ATOM     20  C   UNL A   1      34.018  29.693  27.154  1.00  0.00     0.082 A 
ATOM     21  C   UNL A   1      34.510  28.552  26.515  1.00  0.00     0.024 A 
ATOM     22  C   UNL A   1      32.642  29.904  27.284  1.00  0.00     0.024 A 
ATOM     23  C   UNL A   1      33.621  27.579  26.062  1.00  0.00     0.030 A 
ATOM     24  C   UNL A   1      31.748  28.946  26.793  1.00  0.00     0.030 A 
BRANCH  20  25
ATOM     25  S   UNL A   1      35.190  30.858  27.784  1.00  0.00     0.238 S 
ATOM     26  O   UNL A   1      34.632  32.191  27.641  1.00  0.00    -0.207 OA
ATOM     27  O   UNL A   1      36.488  30.500  27.286  1.00  0.00    -0.207 OA
BRANCH  25  28
ATOM     28  N   UNL A   1      35.229  30.569  29.437  1.00  0.00    -0.225 NA
ATOM     29  H   UNL A   1      35.366  31.450  29.933  1.00  0.00     0.137 HD
ATOM     30  H   UNL A   1      35.997  29.934  29.653  1.00  0.00     0.137 HD
ENDBRANCH  25  28
ENDBRANCH  20  25
ENDBRANCH  15  19
BRANCH  17  31
ATOM     31  C   UNL A   1      30.337  27.808  23.766  1.00  0.00     0.000 A 
ATOM     32  C   UNL A   1      31.540  28.195  23.150  1.00  0.00     0.010 A 
ATOM     33  C   UNL A   1      29.150  28.455  23.415  1.00  0.00     0.010 A 
ATOM     34  C   UNL A   1      31.566  29.250  22.245  1.00  0.00     0.001 A 
ATOM     35  C   UNL A   1      29.177  29.506  22.496  1.00  0.00     0.001 A 
ATOM     36  C   UNL A   1      30.383  29.909  21.922  1.00  0.00     0.000 A 
ENDBRANCH  17  31
ENDBRANCH   9  14
ENDBRANCH   7   8
ENDBRANCH   6   7
ENDBRANCH   5   6
ENDBRANCH   1   5
BRANCH   3  37
ATOM     37  C   UNL A   1      35.385  22.532  24.359  1.00  0.00     0.117 C 
BRANCH  37  38
ATOM     38  C   UNL A   1      36.045  23.649  25.170  1.00  0.00     0.042 C 
BRANCH  38  39
ATOM     39  C   UNL A   1      37.553  23.661  25.126  1.00  0.00     0.118 C 
BRANCH  39  40
ATOM     40  N   UNL A   1      38.160  22.462  25.697  1.00  0.00    -0.352 N 
ATOM     41  C   UNL A   1      39.301  22.385  26.475  1.00  0.00     0.251 C 
ATOM     42  H   UNL A   1      37.705  21.610  25.508  1.00  0.00     0.163 HD
ATOM     43  O   UNL A   1      39.941  21.343  26.549  1.00  0.00    -0.269 OA
BRANCH  41  44
ATOM     44  C   UNL A   1      39.744  23.586  27.214  1.00  0.00     0.039 A 
ATOM     45  C   UNL A   1      41.029  23.690  27.749  1.00  0.00     0.014 A 
ATOM     46  C   UNL A   1      38.841  24.637  27.355  1.00  0.00     0.014 A 
ATOM     47  C   UNL A   1      41.393  24.880  28.378  1.00  0.00     0.010 A 
ATOM     48  C   UNL A   1      39.273  25.873  27.745  1.00  0.00     0.010 A 
ATOM     49  C   UNL A   1      40.507  25.974  28.355  1.00  0.00    -0.014 A 
BRANCH  49  50
ATOM     50  C   UNL A   1      40.908  27.293  28.828  1.00  0.00     0.031 A 
ATOM     51  C   UNL A   1      42.139  27.757  28.151  1.00  0.00     0.074 A 
ATOM     52  C   UNL A   1      40.145  28.083  29.620  1.00  0.00     0.049 A 
ATOM     53  N   UNL A   1      43.331  27.766  28.642  1.00  0.00    -0.248 NA
ATOM     54  C   UNL A   1      42.096  28.018  26.701  1.00  0.00     0.031 C 
ATOM     55  C   UNL A   1      38.758  27.850  30.052  1.00  0.00     0.029 A 
ATOM     56  N   UNL A   1      40.415  29.314  30.155  1.00  0.00    -0.354 N 
ATOM     57  C   UNL A   1      44.131  28.329  27.654  1.00  0.00     0.074 A 
ATOM     58  C   UNL A   1      43.392  28.201  26.430  1.00  0.00     0.031 C 
ATOM     59  C   UNL A   1      38.240  28.982  30.581  1.00  0.00     0.029 A 
ATOM     60  C   UNL A   1      39.302  29.965  30.699  1.00  0.00     0.049 A 
ATOM     61  H   UNL A   1      41.316  29.709  30.156  1.00  0.00     0.167 HD
ATOM     62  C   UNL A   1      45.125  29.185  28.023  1.00  0.00     0.037 A 
ATOM     63  C   UNL A   1      39.267  31.217  31.225  1.00  0.00     0.037 A 
ATOM     64  C   UNL A   1      45.361  29.064  29.445  1.00  0.00     0.049 A 
ATOM     65  C   UNL A   1      40.656  31.572  31.586  1.00  0.00     0.074 A 
ATOM     66  C   UNL A   1      45.969  28.163  30.291  1.00  0.00     0.029 A 
ATOM     67  N   UNL A   1      44.491  29.807  30.199  1.00  0.00    -0.354 N 
ATOM     68  N   UNL A   1      41.311  30.990  32.552  1.00  0.00    -0.248 NA
ATOM     69  C   UNL A   1      41.466  32.324  30.637  1.00  0.00     0.031 C 
ATOM     70  C   UNL A   1      45.353  28.332  31.569  1.00  0.00     0.029 A 
ATOM     71  C   UNL A   1      44.435  29.376  31.494  1.00  0.00     0.049 A 
ATOM     72  H   UNL A   1      43.968  30.563  29.848  1.00  0.00     0.167 HD
ATOM     73  C   UNL A   1      42.606  30.930  32.084  1.00  0.00     0.074 A 
ATOM     74  C   UNL A   1      42.680  31.908  31.006  1.00  0.00     0.031 C 
ATOM     75  C   UNL A   1      43.389  29.852  32.367  1.00  0.00     0.037 A 
BRANCH  62  76
ATOM     76  C   UNL A   1      45.480  30.479  27.302  1.00  0.00     0.064 A 
ATOM     77  C   UNL A   1      46.846  30.745  27.047  1.00  0.00     0.173 A 
ATOM     78  C   UNL A   1      44.620  31.585  27.133  1.00  0.00     0.173 A 
ATOM     79  F   UNL A   1      47.767  29.778  27.167  1.00  0.00    -0.203 F 
ATOM     80  C   UNL A   1      47.313  32.029  26.750  1.00  0.00     0.198 A 
ATOM     81  C   UNL A   1      45.085  32.856  26.798  1.00  0.00     0.198 A 
ATOM     82  F   UNL A   1      43.307  31.526  27.374  1.00  0.00    -0.203 F 
ATOM     83  F   UNL A   1      48.630  32.250  26.637  1.00  0.00    -0.200 F 
ATOM     84  C   UNL A   1      46.432  33.087  26.637  1.00  0.00     0.200 A 
ATOM     85  F   UNL A   1      44.214  33.872  26.709  1.00  0.00    -0.200 F 
ATOM     86  F   UNL A   1      46.880  34.329  26.413  1.00  0.00    -0.200 F 
ENDBRANCH  62  76
BRANCH  63  87
ATOM     87  C   UNL A   1      38.185  32.230  31.279  1.00  0.00     0.064 A 
ATOM     88  C   UNL A   1      37.871  33.027  30.162  1.00  0.00     0.173 A 
ATOM     89  C   UNL A   1      37.230  32.196  32.309  1.00  0.00     0.173 A 
ATOM     90  F   UNL A   1      38.711  33.087  29.117  1.00  0.00    -0.203 F 
ATOM     91  C   UNL A   1      36.652  33.707  30.061  1.00  0.00     0.198 A 
ATOM     92  C   UNL A   1      36.012  32.874  32.206  1.00  0.00     0.198 A 
ATOM     93  F   UNL A   1      37.414  31.412  33.382  1.00  0.00    -0.203 F 
ATOM     94  F   UNL A   1      36.357  34.394  28.947  1.00  0.00    -0.200 F 
ATOM     95  C   UNL A   1      35.716  33.615  31.076  1.00  0.00     0.200 A 
ATOM     96  F   UNL A   1      35.095  32.741  33.177  1.00  0.00    -0.200 F 
ATOM     97  F   UNL A   1      34.516  34.199  30.947  1.00  0.00    -0.200 F 
ENDBRANCH  63  87
BRANCH  75  98
ATOM     98  C   UNL A   1      43.056  29.054  33.586  1.00  0.00     0.064 A 
ATOM     99  C   UNL A   1      42.235  27.914  33.605  1.00  0.00     0.173 A 
ATOM    100  C   UNL A   1      43.663  29.439  34.788  1.00  0.00     0.173 A 
ATOM    101  F   UNL A   1      41.673  27.450  32.481  1.00  0.00    -0.203 F 
ATOM    102  C   UNL A   1      42.015  27.211  34.790  1.00  0.00     0.198 A 
ATOM    103  C   UNL A   1      43.470  28.716  35.959  1.00  0.00     0.198 A 
ATOM    104  F   UNL A   1      44.479  30.504  34.816  1.00  0.00    -0.203 F 
ATOM    105  F   UNL A   1      41.216  26.134  34.795  1.00  0.00    -0.200 F 
ATOM    106  C   UNL A   1      42.639  27.609  35.963  1.00  0.00     0.200 A 
ATOM    107  F   UNL A   1      44.108  29.084  37.078  1.00  0.00    -0.200 F 
ATOM    108  F   UNL A   1      42.455  26.914  37.094  1.00  0.00    -0.200 F 
ENDBRANCH  75  98
ENDBRANCH  49  50
ENDBRANCH  41  44
ENDBRANCH  39  40
ENDBRANCH  38  39
ENDBRANCH  37  38
ENDBRANCH   3  37
TORSDOF 18
ENDMDL
MODEL 3
REMARK VINA RESULT:     -13.0      3.625      9.225
REMARK SMILES NS(=O)(=O)c1ccc(-n2nc(NC(=O)NCCCC(=O)NCCCNC(=O)c3ccc(-c4c5nc(c(-c6c(F)c(F)c(F)c(F)c6F)c6ccc([nH]6)c(-c6c(F)c(F)c(F)c(F)c6F)c6nc(c(-c7c(F)c(F)c(F)c(F)c7F)c7ccc4[nH]7)C=C6)C=C5)cc3)cc2-c2ccccc2)cc1
REMARK SMILES IDX 19 1 20 2 21 3 18 5 17 6 16 7 15 8 12 9 13 10 14 12 11 14
REMARK SMILES IDX 9 15 10 16 92 17 91 18 8 19 5 20 6 21 100 22 7 23 99 24 2 25
REMARK SMILES IDX 3 26 4 27 1 28 93 31 94 32 98 33 95 34 97 35 96 36 22 37
REMARK SMILES IDX 23 38 24 39 25 40 26 41 27 43 28 44 29 45 90 46 30 47 89 48
REMARK SMILES IDX 31 49 32 50 33 51 83 52 34 53 88 54 82 55 84 56 35 57 87 58
REMARK SMILES IDX 81 59 80 60 36 62 68 63 48 64 67 65 49 66 52 67 66 68 85 69
REMARK SMILES IDX 50 70 51 71 65 73 86 74 53 75 37 76 38 77 46 78 39 79 40 80
REMARK SMILES IDX 44 81 47 82 41 83 42 84 45 85 43 86 69 87 70 88 78 89 71 90
REMARK SMILES IDX 72 91 76 92 79 93 73 94 74 95 77 96 75 97 54 98 55 99 63 100
REMARK SMILES IDX 56 101 57 102 61 103 64 104 58 105 59 106 62 107 60 108
REMARK H PARENT 21 4 12 11 15 13 1 29 1 30 25 42 84 61 52 72
REMARK Flexibility Score: inf
ROOT
ATOM      1  C   UNL A   1      36.182  22.788  24.099  1.00  0.00     0.220 C 
ATOM      2  O   UNL A   1      35.762  23.039  22.967  1.00  0.00    -0.275 OA
ATOM      3  N   UNL A   1      37.342  22.082  24.210  1.00  0.00    -0.356 N 
ATOM      4  H   UNL A   1      37.812  21.928  23.360  1.00  0.00     0.163 HD
ENDROOT
BRANCH   1   5
ATOM      5  C   UNL A   1      35.443  23.280  25.332  1.00  0.00     0.102 C 
BRANCH   5   6
ATOM      6  C   UNL A   1      34.393  22.311  25.874  1.00  0.00     0.031 C 
BRANCH   6   7
ATOM      7  C   UNL A   1      33.032  22.392  25.200  1.00  0.00     0.118 C 
BRANCH   7   8
ATOM      8  N   UNL A   1      32.907  21.672  23.944  1.00  0.00    -0.338 N 
ATOM      9  N   UNL A   1      31.210  22.883  22.778  1.00  0.00    -0.291 N 
ATOM     10  C   UNL A   1      32.112  21.881  22.868  1.00  0.00     0.320 C 
ATOM     11  H   UNL A   1      30.496  22.730  22.118  1.00  0.00     0.173 HD
ATOM     12  O   UNL A   1      32.152  21.038  21.966  1.00  0.00    -0.248 OA
ATOM     13  H   UNL A   1      33.505  20.895  23.860  1.00  0.00     0.165 HD
BRANCH   9  14
ATOM     14  C   UNL A   1      31.119  24.077  23.447  1.00  0.00     0.157 A 
ATOM     15  N   UNL A   1      30.566  26.080  23.832  1.00  0.00    -0.231 N 
ATOM     16  N   UNL A   1      30.093  24.919  23.353  1.00  0.00    -0.149 NA
ATOM     17  C   UNL A   1      31.671  25.868  24.644  1.00  0.00     0.076 A 
ATOM     18  C   UNL A   1      32.049  24.558  24.393  1.00  0.00     0.078 A 
BRANCH  15  19
ATOM     19  C   UNL A   1      29.976  27.304  23.416  1.00  0.00     0.065 A 
ATOM     20  C   UNL A   1      28.827  29.737  22.707  1.00  0.00     0.082 A 
ATOM     21  C   UNL A   1      30.205  29.556  22.562  1.00  0.00     0.024 A 
ATOM     22  C   UNL A   1      28.011  28.692  23.150  1.00  0.00     0.024 A 
ATOM     23  C   UNL A   1      30.783  28.342  22.928  1.00  0.00     0.030 A 
ATOM     24  C   UNL A   1      28.585  27.460  23.480  1.00  0.00     0.030 A 
BRANCH  20  25
ATOM     25  S   UNL A   1      28.154  31.323  22.306  1.00  0.00     0.238 S 
ATOM     26  O   UNL A   1      27.277  31.735  23.387  1.00  0.00    -0.207 OA
ATOM     27  O   UNL A   1      27.738  31.297  20.932  1.00  0.00    -0.207 OA
BRANCH  25  28
ATOM     28  N   UNL A   1      29.466  32.369  22.376  1.00  0.00    -0.225 NA
ATOM     29  H   UNL A   1      29.263  33.205  21.828  1.00  0.00     0.137 HD
ATOM     30  H   UNL A   1      30.291  31.905  21.997  1.00  0.00     0.137 HD
ENDBRANCH  25  28
ENDBRANCH  20  25
ENDBRANCH  15  19
BRANCH  17  31
ATOM     31  C   UNL A   1      32.220  26.885  25.533  1.00  0.00     0.000 A 
ATOM     32  C   UNL A   1      31.406  27.449  26.529  1.00  0.00     0.010 A 
ATOM     33  C   UNL A   1      33.518  27.369  25.356  1.00  0.00     0.010 A 
ATOM     34  C   UNL A   1      31.858  28.517  27.295  1.00  0.00     0.001 A 
ATOM     35  C   UNL A   1      33.975  28.434  26.135  1.00  0.00     0.001 A 
ATOM     36  C   UNL A   1      33.143  29.014  27.093  1.00  0.00     0.000 A 
ENDBRANCH  17  31
ENDBRANCH   9  14
ENDBRANCH   7   8
ENDBRANCH   6   7
ENDBRANCH   5   6
ENDBRANCH   1   5
BRANCH   3  37
ATOM     37  C   UNL A   1      38.005  21.515  25.382  1.00  0.00     0.117 C 
BRANCH  37  38
ATOM     38  C   UNL A   1      38.875  22.546  26.102  1.00  0.00     0.042 C 
BRANCH  38  39
ATOM     39  C   UNL A   1      40.039  21.969  26.871  1.00  0.00     0.118 C 
BRANCH  39  40
ATOM     40  N   UNL A   1      41.312  22.074  26.164  1.00  0.00    -0.352 N 
ATOM     41  C   UNL A   1      42.013  23.226  25.858  1.00  0.00     0.251 C 
ATOM     42  H   UNL A   1      41.718  21.226  25.871  1.00  0.00     0.163 HD
ATOM     43  O   UNL A   1      42.819  23.244  24.935  1.00  0.00    -0.269 OA
BRANCH  41  44
ATOM     44  C   UNL A   1      41.771  24.443  26.660  1.00  0.00     0.039 A 
ATOM     45  C   UNL A   1      42.365  24.634  27.909  1.00  0.00     0.014 A 
ATOM     46  C   UNL A   1      40.934  25.421  26.128  1.00  0.00     0.014 A 
ATOM     47  C   UNL A   1      42.138  25.836  28.576  1.00  0.00     0.010 A 
ATOM     48  C   UNL A   1      40.913  26.679  26.661  1.00  0.00     0.010 A 
ATOM     49  C   UNL A   1      41.420  26.862  27.931  1.00  0.00    -0.014 A 
BRANCH  49  50
ATOM     50  C   UNL A   1      41.316  28.198  28.502  1.00  0.00     0.031 A 
ATOM     51  C   UNL A   1      42.421  29.068  28.043  1.00  0.00     0.074 A 
ATOM     52  C   UNL A   1      40.240  28.652  29.187  1.00  0.00     0.049 A 
ATOM     53  N   UNL A   1      43.468  29.403  28.717  1.00  0.00    -0.248 NA
ATOM     54  C   UNL A   1      42.502  29.417  26.613  1.00  0.00     0.031 C 
ATOM     55  C   UNL A   1      38.950  27.973  29.387  1.00  0.00     0.029 A 
ATOM     56  N   UNL A   1      40.031  29.861  29.796  1.00  0.00    -0.354 N 
ATOM     57  C   UNL A   1      44.181  30.259  27.886  1.00  0.00     0.074 A 
ATOM     58  C   UNL A   1      43.700  30.008  26.557  1.00  0.00     0.031 C 
ATOM     59  C   UNL A   1      38.034  28.848  29.863  1.00  0.00     0.029 A 
ATOM     60  C   UNL A   1      38.705  30.095  30.178  1.00  0.00     0.049 A 
ATOM     61  H   UNL A   1      40.753  30.511  29.952  1.00  0.00     0.167 HD
ATOM     62  C   UNL A   1      44.793  31.347  28.434  1.00  0.00     0.037 A 
ATOM     63  C   UNL A   1      38.205  31.231  30.730  1.00  0.00     0.037 A 
ATOM     64  C   UNL A   1      44.853  31.192  29.870  1.00  0.00     0.049 A 
ATOM     65  C   UNL A   1      39.346  31.964  31.317  1.00  0.00     0.074 A 
ATOM     66  C   UNL A   1      45.588  30.456  30.774  1.00  0.00     0.029 A 
ATOM     67  N   UNL A   1      43.697  31.572  30.500  1.00  0.00    -0.354 N 
ATOM     68  N   UNL A   1      40.008  31.536  32.355  1.00  0.00    -0.248 NA
ATOM     69  C   UNL A   1      40.004  33.001  30.531  1.00  0.00     0.031 C 
ATOM     70  C   UNL A   1      44.777  30.327  31.943  1.00  0.00     0.029 A 
ATOM     71  C   UNL A   1      43.597  31.043  31.755  1.00  0.00     0.049 A 
ATOM     72  H   UNL A   1      43.017  32.157  30.095  1.00  0.00     0.167 HD
ATOM     73  C   UNL A   1      41.309  31.912  32.097  1.00  0.00     0.074 A 
ATOM     74  C   UNL A   1      41.223  32.947  31.075  1.00  0.00     0.031 C 
ATOM     75  C   UNL A   1      42.343  31.106  32.467  1.00  0.00     0.037 A 
BRANCH  62  76
ATOM     76  C   UNL A   1      44.822  32.740  27.818  1.00  0.00     0.064 A 
ATOM     77  C   UNL A   1      46.064  33.242  27.367  1.00  0.00     0.173 A 
ATOM     78  C   UNL A   1      43.797  33.704  27.928  1.00  0.00     0.173 A 
ATOM     79  F   UNL A   1      47.119  32.428  27.215  1.00  0.00    -0.203 F 
ATOM     80  C   UNL A   1      46.282  34.606  27.146  1.00  0.00     0.198 A 
ATOM     81  C   UNL A   1      44.008  35.059  27.669  1.00  0.00     0.198 A 
ATOM     82  F   UNL A   1      42.574  33.415  28.381  1.00  0.00    -0.203 F 
ATOM     83  F   UNL A   1      47.511  35.043  26.837  1.00  0.00    -0.200 F 
ATOM     84  C   UNL A   1      45.255  35.516  27.309  1.00  0.00     0.200 A 
ATOM     85  F   UNL A   1      43.001  35.926  27.849  1.00  0.00    -0.200 F 
ATOM     86  F   UNL A   1      45.474  36.828  27.158  1.00  0.00    -0.200 F 
ENDBRANCH  62  76
BRANCH  63  87
ATOM     87  C   UNL A   1      36.863  31.857  30.643  1.00  0.00     0.064 A 
ATOM     88  C   UNL A   1      35.972  31.834  31.733  1.00  0.00     0.173 A 
ATOM     89  C   UNL A   1      36.570  32.772  29.618  1.00  0.00     0.173 A 
ATOM     90  F   UNL A   1      36.197  31.016  32.773  1.00  0.00    -0.203 F 
ATOM     91  C   UNL A   1      34.882  32.709  31.814  1.00  0.00     0.198 A 
ATOM     92  C   UNL A   1      35.484  33.647  29.701  1.00  0.00     0.198 A 
ATOM     93  F   UNL A   1      37.399  32.911  28.573  1.00  0.00    -0.203 F 
ATOM     94  F   UNL A   1      34.101  32.709  32.904  1.00  0.00    -0.200 F 
ATOM     95  C   UNL A   1      34.650  33.628  30.805  1.00  0.00     0.200 A 
ATOM     96  F   UNL A   1      35.295  34.563  28.738  1.00  0.00    -0.200 F 
ATOM     97  F   UNL A   1      33.657  34.521  30.917  1.00  0.00    -0.200 F 
ENDBRANCH  63  87
BRANCH  75  98
ATOM     98  C   UNL A   1      42.110  30.151  33.592  1.00  0.00     0.064 A 
ATOM     99  C   UNL A   1      41.680  28.822  33.447  1.00  0.00     0.173 A 
ATOM    100  C   UNL A   1      42.406  30.602  34.885  1.00  0.00     0.173 A 
ATOM    101  F   UNL A   1      41.440  28.303  32.235  1.00  0.00    -0.203 F 
ATOM    102  C   UNL A   1      41.529  27.994  34.559  1.00  0.00     0.198 A 
ATOM    103  C   UNL A   1      42.288  29.764  35.987  1.00  0.00     0.198 A 
ATOM    104  F   UNL A   1      42.847  31.855  35.073  1.00  0.00    -0.203 F 
ATOM    105  F   UNL A   1      41.102  26.732  34.405  1.00  0.00    -0.200 F 
ATOM    106  C   UNL A   1      41.840  28.464  35.826  1.00  0.00     0.200 A 
ATOM    107  F   UNL A   1      42.628  30.214  37.202  1.00  0.00    -0.200 F 
ATOM    108  F   UNL A   1      41.728  27.658  36.891  1.00  0.00    -0.200 F 
ENDBRANCH  75  98
ENDBRANCH  49  50
ENDBRANCH  41  44
ENDBRANCH  39  40
ENDBRANCH  38  39
ENDBRANCH  37  38
ENDBRANCH   3  37
TORSDOF 18
ENDMDL
