MODEL 1
REMARK VINA RESULT:     -11.6      0.000      0.000
REMARK SMILES CC(C)[C@](C)(CC(=O)NC#N)C(=O)NCCCNC(=O)c1ccc(-c2c3nc(c(-c4c(F)c(F)c(F)c(F)c4F)c4ccc([nH]4)c(-c4c(F)c(F)c(F)c(F)c4F)c4nc(c(-c5c(F)c(F)c(F)c(F)c5F)c5ccc2[nH]5)C=C4)C=C3)cc1
REMARK SMILES IDX 15 1 14 2 12 3 13 4 4 6 5 7 2 8 1 9 3 10 6 11 7 12 8 13 9 14
REMARK SMILES IDX 10 16 11 17 16 18 17 19 18 20 19 21 20 23 21 24 22 25 83 26
REMARK SMILES IDX 23 27 82 28 24 29 25 30 26 31 76 32 27 33 81 34 75 35 77 36
REMARK SMILES IDX 28 37 80 38 74 39 73 40 29 42 61 43 41 44 60 45 42 46 45 47
REMARK SMILES IDX 59 48 78 49 43 50 44 51 58 53 79 54 46 55 30 56 31 57 39 58
REMARK SMILES IDX 32 59 33 60 37 61 40 62 34 63 35 64 38 65 36 66 62 67 63 68
REMARK SMILES IDX 71 69 64 70 65 71 69 72 72 73 66 74 67 75 70 76 68 77 47 78
REMARK SMILES IDX 48 79 56 80 49 81 50 82 54 83 57 84 51 85 52 86 55 87 53 88
REMARK H PARENT 14 5 9 15 18 22 77 41 45 52
REMARK Flexibility Score: inf
ROOT
ATOM      1  C   UNL A   1      32.214  30.457  26.083  1.00  0.00     0.117 C 
ENDROOT
BRANCH   1   2
ATOM      2  N   UNL A   1      31.697  29.309  26.797  1.00  0.00    -0.356 N 
ATOM      3  C   UNL A   1      31.372  28.062  26.374  1.00  0.00     0.226 C 
ATOM      4  O   UNL A   1      31.037  27.261  27.252  1.00  0.00    -0.274 OA
ATOM      5  H   UNL A   1      31.557  29.461  27.760  1.00  0.00     0.163 HD
BRANCH   3   6
ATOM      6  C   UNL A   1      31.367  27.671  24.877  1.00  0.00     0.057 C 
ATOM      7  C   UNL A   1      30.445  26.418  24.751  1.00  0.00     0.022 C 
BRANCH   6   8
ATOM      8  C   UNL A   1      32.775  27.181  24.304  1.00  0.00    -0.002 C 
ATOM      9  C   UNL A   1      33.591  28.262  23.583  1.00  0.00     0.008 C 
ATOM     10  C   UNL A   1      33.696  26.383  25.240  1.00  0.00     0.008 C 
ENDBRANCH   6   8
BRANCH   6  11
ATOM     11  C   UNL A   1      30.691  28.812  24.055  1.00  0.00     0.118 C 
BRANCH  11  12
ATOM     12  C   UNL A   1      30.045  28.381  22.739  1.00  0.00     0.234 C 
ATOM     13  O   UNL A   1      30.575  27.550  22.001  1.00  0.00    -0.274 OA
ATOM     14  N   UNL A   1      28.836  28.905  22.398  1.00  0.00    -0.263 N 
ATOM     15  H   UNL A   1      28.504  28.586  21.528  1.00  0.00     0.182 HD
BRANCH  14  16
ATOM     16  C   UNL A   1      28.003  29.766  22.998  1.00  0.00     0.183 C 
ATOM     17  N   UNL A   1      27.281  30.511  23.509  1.00  0.00    -0.172 NA
ENDBRANCH  14  16
ENDBRANCH  11  12
ENDBRANCH   6  11
ENDBRANCH   3   6
ENDBRANCH   1   2
BRANCH   1  18
ATOM     18  C   UNL A   1      31.756  31.781  26.663  1.00  0.00     0.042 C 
BRANCH  18  19
ATOM     19  C   UNL A   1      32.863  32.540  27.380  1.00  0.00     0.118 C 
BRANCH  19  20
ATOM     20  N   UNL A   1      32.521  33.938  27.630  1.00  0.00    -0.352 N 
ATOM     21  C   UNL A   1      33.018  34.825  28.554  1.00  0.00     0.251 C 
ATOM     22  H   UNL A   1      31.822  34.303  27.042  1.00  0.00     0.163 HD
ATOM     23  O   UNL A   1      32.453  35.897  28.742  1.00  0.00    -0.269 OA
BRANCH  21  24
ATOM     24  C   UNL A   1      34.213  34.471  29.347  1.00  0.00     0.039 A 
ATOM     25  C   UNL A   1      34.042  33.940  30.627  1.00  0.00     0.014 A 
ATOM     26  C   UNL A   1      35.494  34.629  28.816  1.00  0.00     0.014 A 
ATOM     27  C   UNL A   1      35.151  33.460  31.323  1.00  0.00     0.010 A 
ATOM     28  C   UNL A   1      36.582  34.058  29.465  1.00  0.00     0.010 A 
ATOM     29  C   UNL A   1      36.419  33.449  30.717  1.00  0.00    -0.014 A 
BRANCH  29  30
ATOM     30  C   UNL A   1      37.564  32.743  31.344  1.00  0.00     0.031 A 
ATOM     31  C   UNL A   1      38.202  31.566  30.661  1.00  0.00     0.074 A 
ATOM     32  C   UNL A   1      37.970  33.118  32.575  1.00  0.00     0.049 A 
ATOM     33  N   UNL A   1      39.153  30.779  31.095  1.00  0.00    -0.248 NA
ATOM     34  C   UNL A   1      37.695  31.213  29.324  1.00  0.00     0.031 C 
ATOM     35  C   UNL A   1      37.394  34.214  33.358  1.00  0.00     0.029 A 
ATOM     36  N   UNL A   1      38.951  32.612  33.393  1.00  0.00    -0.354 N 
ATOM     37  C   UNL A   1      39.349  29.835  30.095  1.00  0.00     0.074 A 
ATOM     38  C   UNL A   1      38.393  30.120  29.048  1.00  0.00     0.031 C 
ATOM     39  C   UNL A   1      38.043  34.312  34.528  1.00  0.00     0.029 A 
ATOM     40  C   UNL A   1      39.039  33.250  34.609  1.00  0.00     0.049 A 
ATOM     41  H   UNL A   1      39.536  31.865  33.133  1.00  0.00     0.167 HD
ATOM     42  C   UNL A   1      40.257  28.833  30.055  1.00  0.00     0.037 A 
ATOM     43  C   UNL A   1      39.812  32.989  35.679  1.00  0.00     0.037 A 
ATOM     44  C   UNL A   1      41.218  28.568  31.093  1.00  0.00     0.049 A 
ATOM     45  C   UNL A   1      40.782  31.837  35.612  1.00  0.00     0.074 A 
ATOM     46  C   UNL A   1      42.231  27.625  31.105  1.00  0.00     0.029 A 
ATOM     47  N   UNL A   1      41.276  29.234  32.308  1.00  0.00    -0.354 N 
ATOM     48  N   UNL A   1      41.030  31.019  34.617  1.00  0.00    -0.248 NA
ATOM     49  C   UNL A   1      41.579  31.568  36.818  1.00  0.00     0.031 C 
ATOM     50  C   UNL A   1      42.846  27.662  32.357  1.00  0.00     0.029 A 
ATOM     51  C   UNL A   1      42.272  28.681  33.097  1.00  0.00     0.049 A 
ATOM     52  H   UNL A   1      40.697  29.986  32.569  1.00  0.00     0.167 HD
ATOM     53  C   UNL A   1      42.023  30.161  35.068  1.00  0.00     0.074 A 
ATOM     54  C   UNL A   1      42.359  30.578  36.412  1.00  0.00     0.031 C 
ATOM     55  C   UNL A   1      42.599  29.112  34.432  1.00  0.00     0.037 A 
BRANCH  42  56
ATOM     56  C   UNL A   1      40.265  27.925  28.860  1.00  0.00     0.064 A 
ATOM     57  C   UNL A   1      40.997  28.231  27.704  1.00  0.00     0.173 A 
ATOM     58  C   UNL A   1      39.621  26.678  28.918  1.00  0.00     0.173 A 
ATOM     59  F   UNL A   1      41.624  29.412  27.593  1.00  0.00    -0.203 F 
ATOM     60  C   UNL A   1      41.081  27.325  26.649  1.00  0.00     0.198 A 
ATOM     61  C   UNL A   1      39.735  25.762  27.877  1.00  0.00     0.198 A 
ATOM     62  F   UNL A   1      38.913  26.333  30.004  1.00  0.00    -0.203 F 
ATOM     63  F   UNL A   1      41.767  27.647  25.544  1.00  0.00    -0.200 F 
ATOM     64  C   UNL A   1      40.463  26.087  26.742  1.00  0.00     0.200 A 
ATOM     65  F   UNL A   1      39.152  24.559  27.979  1.00  0.00    -0.200 F 
ATOM     66  F   UNL A   1      40.571  25.204  25.740  1.00  0.00    -0.200 F 
ENDBRANCH  42  56
BRANCH  43  67
ATOM     67  C   UNL A   1      39.686  33.797  36.925  1.00  0.00     0.064 A 
ATOM     68  C   UNL A   1      38.840  33.394  37.969  1.00  0.00     0.173 A 
ATOM     69  C   UNL A   1      40.357  35.021  37.070  1.00  0.00     0.173 A 
ATOM     70  F   UNL A   1      38.162  32.241  37.874  1.00  0.00    -0.203 F 
ATOM     71  C   UNL A   1      38.627  34.209  39.080  1.00  0.00     0.198 A 
ATOM     72  C   UNL A   1      40.178  35.812  38.204  1.00  0.00     0.198 A 
ATOM     73  F   UNL A   1      41.185  35.455  36.109  1.00  0.00    -0.203 F 
ATOM     74  F   UNL A   1      37.744  33.840  40.018  1.00  0.00    -0.200 F 
ATOM     75  C   UNL A   1      39.299  35.416  39.197  1.00  0.00     0.200 A 
ATOM     76  F   UNL A   1      40.847  36.968  38.322  1.00  0.00    -0.200 F 
ATOM     77  F   UNL A   1      39.085  36.203  40.260  1.00  0.00    -0.200 F 
ENDBRANCH  43  67
BRANCH  55  78
ATOM     78  C   UNL A   1      43.664  28.354  35.171  1.00  0.00     0.064 A 
ATOM     79  C   UNL A   1      43.361  27.220  35.939  1.00  0.00     0.173 A 
ATOM     80  C   UNL A   1      45.011  28.737  35.070  1.00  0.00     0.173 A 
ATOM     81  F   UNL A   1      42.088  26.819  36.080  1.00  0.00    -0.203 F 
ATOM     82  C   UNL A   1      44.362  26.514  36.600  1.00  0.00     0.198 A 
ATOM     83  C   UNL A   1      46.014  28.005  35.699  1.00  0.00     0.198 A 
ATOM     84  F   UNL A   1      45.358  29.809  34.342  1.00  0.00    -0.203 F 
ATOM     85  F   UNL A   1      44.042  25.466  37.372  1.00  0.00    -0.200 F 
ATOM     86  C   UNL A   1      45.689  26.900  36.471  1.00  0.00     0.200 A 
ATOM     87  F   UNL A   1      47.296  28.369  35.557  1.00  0.00    -0.200 F 
ATOM     88  F   UNL A   1      46.651  26.211  37.097  1.00  0.00    -0.200 F 
ENDBRANCH  55  78
ENDBRANCH  29  30
ENDBRANCH  21  24
ENDBRANCH  19  20
ENDBRANCH  18  19
ENDBRANCH   1  18
TORSDOF 14
ENDMDL
MODEL 2
REMARK VINA RESULT:     -11.6      1.094      2.018
REMARK SMILES CC(C)[C@](C)(CC(=O)NC#N)C(=O)NCCCNC(=O)c1ccc(-c2c3nc(c(-c4c(F)c(F)c(F)c(F)c4F)c4ccc([nH]4)c(-c4c(F)c(F)c(F)c(F)c4F)c4nc(c(-c5c(F)c(F)c(F)c(F)c5F)c5ccc2[nH]5)C=C4)C=C3)cc1
REMARK SMILES IDX 15 1 14 2 12 3 13 4 4 6 5 7 2 8 1 9 3 10 6 11 7 12 8 13 9 14
REMARK SMILES IDX 10 16 11 17 16 18 17 19 18 20 19 21 20 23 21 24 22 25 83 26
REMARK SMILES IDX 23 27 82 28 24 29 25 30 26 31 76 32 27 33 81 34 75 35 77 36
REMARK SMILES IDX 28 37 80 38 74 39 73 40 29 42 61 43 41 44 60 45 42 46 45 47
REMARK SMILES IDX 59 48 78 49 43 50 44 51 58 53 79 54 46 55 30 56 31 57 39 58
REMARK SMILES IDX 32 59 33 60 37 61 40 62 34 63 35 64 38 65 36 66 62 67 63 68
REMARK SMILES IDX 71 69 64 70 65 71 69 72 72 73 66 74 67 75 70 76 68 77 47 78
REMARK SMILES IDX 48 79 56 80 49 81 50 82 54 83 57 84 51 85 52 86 55 87 53 88
REMARK H PARENT 14 5 9 15 18 22 77 41 45 52
REMARK Flexibility Score: inf
ROOT
ATOM      1  C   UNL A   1      32.168  30.437  26.092  1.00  0.00     0.117 C 
ENDROOT
BRANCH   1   2
ATOM      2  N   UNL A   1      31.403  30.043  24.929  1.00  0.00    -0.356 N 
ATOM      3  C   UNL A   1      30.943  28.831  24.527  1.00  0.00     0.226 C 
ATOM      4  O   UNL A   1      30.229  28.829  23.519  1.00  0.00    -0.274 OA
ATOM      5  H   UNL A   1      31.176  30.784  24.323  1.00  0.00     0.163 HD
BRANCH   3   6
ATOM      6  C   UNL A   1      31.325  27.518  25.251  1.00  0.00     0.057 C 
ATOM      7  C   UNL A   1      31.377  27.854  26.774  1.00  0.00     0.022 C 
BRANCH   6   8
ATOM      8  C   UNL A   1      32.786  26.966  24.921  1.00  0.00    -0.002 C 
ATOM      9  C   UNL A   1      33.412  27.522  23.635  1.00  0.00     0.008 C 
ATOM     10  C   UNL A   1      33.833  26.978  26.046  1.00  0.00     0.008 C 
ENDBRANCH   6   8
BRANCH   6  11
ATOM     11  C   UNL A   1      30.177  26.479  25.058  1.00  0.00     0.118 C 
BRANCH  11  12
ATOM     12  C   UNL A   1      30.539  25.244  24.234  1.00  0.00     0.234 C 
ATOM     13  O   UNL A   1      30.712  25.308  23.017  1.00  0.00    -0.274 OA
ATOM     14  N   UNL A   1      30.710  24.055  24.874  1.00  0.00    -0.263 N 
ATOM     15  H   UNL A   1      30.924  23.312  24.264  1.00  0.00     0.182 HD
BRANCH  14  16
ATOM     16  C   UNL A   1      30.648  23.683  26.160  1.00  0.00     0.183 C 
ATOM     17  N   UNL A   1      30.590  23.356  27.267  1.00  0.00    -0.172 NA
ENDBRANCH  14  16
ENDBRANCH  11  12
ENDBRANCH   6  11
ENDBRANCH   3   6
ENDBRANCH   1   2
BRANCH   1  18
ATOM     18  C   UNL A   1      31.705  31.747  26.700  1.00  0.00     0.042 C 
BRANCH  18  19
ATOM     19  C   UNL A   1      32.825  32.529  27.369  1.00  0.00     0.118 C 
BRANCH  19  20
ATOM     20  N   UNL A   1      32.472  33.924  27.618  1.00  0.00    -0.352 N 
ATOM     21  C   UNL A   1      32.970  34.821  28.531  1.00  0.00     0.251 C 
ATOM     22  H   UNL A   1      31.761  34.279  27.036  1.00  0.00     0.163 HD
ATOM     23  O   UNL A   1      32.395  35.888  28.722  1.00  0.00    -0.269 OA
BRANCH  21  24
ATOM     24  C   UNL A   1      34.178  34.483  29.311  1.00  0.00     0.039 A 
ATOM     25  C   UNL A   1      34.028  33.962  30.598  1.00  0.00     0.014 A 
ATOM     26  C   UNL A   1      35.450  34.647  28.762  1.00  0.00     0.014 A 
ATOM     27  C   UNL A   1      35.150  33.497  31.284  1.00  0.00     0.010 A 
ATOM     28  C   UNL A   1      36.552  34.091  29.402  1.00  0.00     0.010 A 
ATOM     29  C   UNL A   1      36.409  33.491  30.661  1.00  0.00    -0.014 A 
BRANCH  29  30
ATOM     30  C   UNL A   1      37.568  32.800  31.279  1.00  0.00     0.031 A 
ATOM     31  C   UNL A   1      38.201  31.615  30.603  1.00  0.00     0.074 A 
ATOM     32  C   UNL A   1      37.994  33.196  32.497  1.00  0.00     0.049 A 
ATOM     33  N   UNL A   1      39.162  30.839  31.032  1.00  0.00    -0.248 NA
ATOM     34  C   UNL A   1      37.672  31.240  29.281  1.00  0.00     0.031 C 
ATOM     35  C   UNL A   1      37.426  34.301  33.273  1.00  0.00     0.029 A 
ATOM     36  N   UNL A   1      38.991  32.707  33.305  1.00  0.00    -0.354 N 
ATOM     37  C   UNL A   1      39.345  29.881  30.043  1.00  0.00     0.074 A 
ATOM     38  C   UNL A   1      38.370  30.146  29.009  1.00  0.00     0.031 C 
ATOM     39  C   UNL A   1      38.096  34.420  34.429  1.00  0.00     0.029 A 
ATOM     40  C   UNL A   1      39.097  33.364  34.509  1.00  0.00     0.049 A 
ATOM     41  H   UNL A   1      39.576  31.958  33.047  1.00  0.00     0.167 HD
ATOM     42  C   UNL A   1      40.257  28.882  30.003  1.00  0.00     0.037 A 
ATOM     43  C   UNL A   1      39.890  33.122  35.570  1.00  0.00     0.037 A 
ATOM     44  C   UNL A   1      41.237  28.638  31.028  1.00  0.00     0.049 A 
ATOM     45  C   UNL A   1      40.864  31.973  35.504  1.00  0.00     0.074 A 
ATOM     46  C   UNL A   1      42.254  27.699  31.037  1.00  0.00     0.029 A 
ATOM     47  N   UNL A   1      41.313  29.323  32.232  1.00  0.00    -0.354 N 
ATOM     48  N   UNL A   1      41.098  31.142  34.517  1.00  0.00    -0.248 NA
ATOM     49  C   UNL A   1      41.683  31.727  36.699  1.00  0.00     0.031 C 
ATOM     50  C   UNL A   1      42.891  27.758  32.278  1.00  0.00     0.029 A 
ATOM     51  C   UNL A   1      42.324  28.786  33.012  1.00  0.00     0.049 A 
ATOM     52  H   UNL A   1      40.735  30.076  32.492  1.00  0.00     0.167 HD
ATOM     53  C   UNL A   1      42.103  30.295  34.964  1.00  0.00     0.074 A 
ATOM     54  C   UNL A   1      42.461  30.734  36.296  1.00  0.00     0.031 C 
ATOM     55  C   UNL A   1      42.673  29.239  34.335  1.00  0.00     0.037 A 
BRANCH  42  56
ATOM     56  C   UNL A   1      40.248  27.956  28.822  1.00  0.00     0.064 A 
ATOM     57  C   UNL A   1      40.984  28.233  27.661  1.00  0.00     0.173 A 
ATOM     58  C   UNL A   1      39.584  26.721  28.900  1.00  0.00     0.173 A 
ATOM     59  F   UNL A   1      41.630  29.401  27.531  1.00  0.00    -0.203 F 
ATOM     60  C   UNL A   1      41.052  27.309  26.620  1.00  0.00     0.198 A 
ATOM     61  C   UNL A   1      39.681  25.788  27.873  1.00  0.00     0.198 A 
ATOM     62  F   UNL A   1      38.872  26.405  29.992  1.00  0.00    -0.203 F 
ATOM     63  F   UNL A   1      41.742  27.603  25.509  1.00  0.00    -0.200 F 
ATOM     64  C   UNL A   1      40.413  26.083  26.733  1.00  0.00     0.200 A 
ATOM     65  F   UNL A   1      39.080  24.596  27.994  1.00  0.00    -0.200 F 
ATOM     66  F   UNL A   1      40.505  25.183  25.744  1.00  0.00    -0.200 F 
ENDBRANCH  42  56
BRANCH  43  67
ATOM     67  C   UNL A   1      39.782  33.949  36.805  1.00  0.00     0.064 A 
ATOM     68  C   UNL A   1      38.950  33.562  37.867  1.00  0.00     0.173 A 
ATOM     69  C   UNL A   1      40.454  35.175  36.923  1.00  0.00     0.173 A 
ATOM     70  F   UNL A   1      38.271  32.408  37.799  1.00  0.00    -0.203 F 
ATOM     71  C   UNL A   1      38.753  34.393  38.969  1.00  0.00     0.198 A 
ATOM     72  C   UNL A   1      40.293  35.983  38.047  1.00  0.00     0.198 A 
ATOM     73  F   UNL A   1      41.270  35.594  35.944  1.00  0.00    -0.203 F 
ATOM     74  F   UNL A   1      37.884  34.038  39.925  1.00  0.00    -0.200 F 
ATOM     75  C   UNL A   1      39.427  35.602  39.058  1.00  0.00     0.200 A 
ATOM     76  F   UNL A   1      40.963  37.140  38.138  1.00  0.00    -0.200 F 
ATOM     77  F   UNL A   1      39.228  36.405  40.112  1.00  0.00    -0.200 F 
ENDBRANCH  43  67
BRANCH  55  78
ATOM     78  C   UNL A   1      43.754  28.497  35.067  1.00  0.00     0.064 A 
ATOM     79  C   UNL A   1      45.101  28.878  34.970  1.00  0.00     0.173 A 
ATOM     80  C   UNL A   1      43.435  27.426  35.914  1.00  0.00     0.173 A 
ATOM     81  F   UNL A   1      45.462  29.887  34.163  1.00  0.00    -0.203 F 
ATOM     82  C   UNL A   1      46.090  28.195  35.672  1.00  0.00     0.198 A 
ATOM     83  C   UNL A   1      44.421  26.771  36.646  1.00  0.00     0.198 A 
ATOM     84  F   UNL A   1      42.162  27.025  36.051  1.00  0.00    -0.203 F 
ATOM     85  F   UNL A   1      47.376  28.542  35.522  1.00  0.00    -0.200 F 
ATOM     86  C   UNL A   1      45.749  27.150  36.518  1.00  0.00     0.200 A 
ATOM     87  F   UNL A   1      44.087  25.775  37.478  1.00  0.00    -0.200 F 
ATOM     88  F   UNL A   1      46.701  26.504  37.204  1.00  0.00    -0.200 F 
ENDBRANCH  55  78
ENDBRANCH  29  30
ENDBRANCH  21  24
ENDBRANCH  19  20
ENDBRANCH  18  19
ENDBRANCH   1  18
TORSDOF 14
ENDMDL
MODEL 3
REMARK VINA RESULT:     -11.4      6.188     11.515
REMARK SMILES CC(C)[C@](C)(CC(=O)NC#N)C(=O)NCCCNC(=O)c1ccc(-c2c3nc(c(-c4c(F)c(F)c(F)c(F)c4F)c4ccc([nH]4)c(-c4c(F)c(F)c(F)c(F)c4F)c4nc(c(-c5c(F)c(F)c(F)c(F)c5F)c5ccc2[nH]5)C=C4)C=C3)cc1
REMARK SMILES IDX 15 1 14 2 12 3 13 4 4 6 5 7 2 8 1 9 3 10 6 11 7 12 8 13 9 14
REMARK SMILES IDX 10 16 11 17 16 18 17 19 18 20 19 21 20 23 21 24 22 25 83 26
REMARK SMILES IDX 23 27 82 28 24 29 25 30 26 31 76 32 27 33 81 34 75 35 77 36
REMARK SMILES IDX 28 37 80 38 74 39 73 40 29 42 61 43 41 44 60 45 42 46 45 47
REMARK SMILES IDX 59 48 78 49 43 50 44 51 58 53 79 54 46 55 30 56 31 57 39 58
REMARK SMILES IDX 32 59 33 60 37 61 40 62 34 63 35 64 38 65 36 66 62 67 63 68
REMARK SMILES IDX 71 69 64 70 65 71 69 72 72 73 66 74 67 75 70 76 68 77 47 78
REMARK SMILES IDX 48 79 56 80 49 81 50 82 54 83 57 84 51 85 52 86 55 87 53 88
REMARK H PARENT 14 5 9 15 18 22 77 41 45 52
REMARK Flexibility Score: inf
ROOT
ATOM      1  C   UNL A   1      36.845  21.363  24.956  1.00  0.00     0.117 C 
ENDROOT
BRANCH   1   2
ATOM      2  N   UNL A   1      36.026  21.470  26.145  1.00  0.00    -0.356 N 
ATOM      3  C   UNL A   1      34.771  21.954  26.328  1.00  0.00     0.226 C 
ATOM      4  O   UNL A   1      34.300  21.824  27.463  1.00  0.00    -0.274 OA
ATOM      5  H   UNL A   1      36.455  21.134  26.964  1.00  0.00     0.163 HD
BRANCH   3   6
ATOM      6  C   UNL A   1      33.988  22.673  25.204  1.00  0.00     0.057 C 
ATOM      7  C   UNL A   1      32.603  23.058  25.809  1.00  0.00     0.022 C 
BRANCH   6   8
ATOM      8  C   UNL A   1      33.626  21.760  23.945  1.00  0.00    -0.002 C 
ATOM      9  C   UNL A   1      33.230  20.318  24.284  1.00  0.00     0.008 C 
ATOM     10  C   UNL A   1      32.652  22.327  22.901  1.00  0.00     0.008 C 
ENDBRANCH   6   8
BRANCH   6  11
ATOM     11  C   UNL A   1      34.714  24.009  24.853  1.00  0.00     0.118 C 
BRANCH  11  12
ATOM     12  C   UNL A   1      33.902  25.281  25.093  1.00  0.00     0.234 C 
ATOM     13  O   UNL A   1      33.684  25.703  26.229  1.00  0.00    -0.274 OA
ATOM     14  N   UNL A   1      33.445  25.981  24.019  1.00  0.00    -0.263 N 
ATOM     15  H   UNL A   1      32.918  26.775  24.267  1.00  0.00     0.182 HD
BRANCH  14  16
ATOM     16  C   UNL A   1      33.560  25.815  22.694  1.00  0.00     0.183 C 
ATOM     17  N   UNL A   1      33.652  25.673  21.551  1.00  0.00    -0.172 NA
ENDBRANCH  14  16
ENDBRANCH  11  12
ENDBRANCH   6  11
ENDBRANCH   3   6
ENDBRANCH   1   2
BRANCH   1  18
ATOM     18  C   UNL A   1      37.821  20.204  25.003  1.00  0.00     0.042 C 
BRANCH  18  19
ATOM     19  C   UNL A   1      39.096  20.521  25.770  1.00  0.00     0.118 C 
BRANCH  19  20
ATOM     20  N   UNL A   1      39.988  19.370  25.887  1.00  0.00    -0.352 N 
ATOM     21  C   UNL A   1      41.348  19.312  26.072  1.00  0.00     0.251 C 
ATOM     22  H   UNL A   1      39.542  18.495  25.822  1.00  0.00     0.163 HD
ATOM     23  O   UNL A   1      41.942  18.247  25.936  1.00  0.00    -0.269 OA
BRANCH  21  24
ATOM     24  C   UNL A   1      42.100  20.540  26.398  1.00  0.00     0.039 A 
ATOM     25  C   UNL A   1      42.598  21.325  25.356  1.00  0.00     0.014 A 
ATOM     26  C   UNL A   1      42.282  20.934  27.724  1.00  0.00     0.014 A 
ATOM     27  C   UNL A   1      43.174  22.562  25.644  1.00  0.00     0.010 A 
ATOM     28  C   UNL A   1      42.762  22.209  28.003  1.00  0.00     0.010 A 
ATOM     29  C   UNL A   1      43.193  23.044  26.964  1.00  0.00    -0.014 A 
BRANCH  29  30
ATOM     30  C   UNL A   1      43.593  24.442  27.265  1.00  0.00     0.031 A 
ATOM     31  C   UNL A   1      42.578  25.438  27.752  1.00  0.00     0.074 A 
ATOM     32  C   UNL A   1      44.861  24.829  27.014  1.00  0.00     0.049 A 
ATOM     33  N   UNL A   1      42.727  26.717  27.986  1.00  0.00    -0.248 NA
ATOM     34  C   UNL A   1      41.213  24.940  27.991  1.00  0.00     0.031 C 
ATOM     35  C   UNL A   1      45.922  23.964  26.493  1.00  0.00     0.029 A 
ATOM     36  N   UNL A   1      45.473  26.052  27.148  1.00  0.00    -0.354 N 
ATOM     37  C   UNL A   1      41.478  27.176  28.385  1.00  0.00     0.074 A 
ATOM     38  C   UNL A   1      40.572  26.051  28.325  1.00  0.00     0.031 C 
ATOM     39  C   UNL A   1      47.054  24.673  26.374  1.00  0.00     0.029 A 
ATOM     40  C   UNL A   1      46.789  26.057  26.748  1.00  0.00     0.049 A 
ATOM     41  H   UNL A   1      45.013  26.848  27.500  1.00  0.00     0.167 HD
ATOM     42  C   UNL A   1      41.131  28.423  28.778  1.00  0.00     0.037 A 
ATOM     43  C   UNL A   1      47.672  27.069  26.662  1.00  0.00     0.037 A 
ATOM     44  C   UNL A   1      42.044  29.533  28.853  1.00  0.00     0.049 A 
ATOM     45  C   UNL A   1      47.235  28.453  27.069  1.00  0.00     0.074 A 
ATOM     46  C   UNL A   1      41.801  30.814  29.317  1.00  0.00     0.029 A 
ATOM     47  N   UNL A   1      43.367  29.501  28.439  1.00  0.00    -0.354 N 
ATOM     48  N   UNL A   1      46.080  28.850  27.547  1.00  0.00    -0.248 NA
ATOM     49  C   UNL A   1      48.223  29.532  26.925  1.00  0.00     0.031 C 
ATOM     50  C   UNL A   1      42.949  31.579  29.106  1.00  0.00     0.029 A 
ATOM     51  C   UNL A   1      43.934  30.756  28.585  1.00  0.00     0.049 A 
ATOM     52  H   UNL A   1      43.832  28.705  28.094  1.00  0.00     0.167 HD
ATOM     53  C   UNL A   1      46.212  30.212  27.780  1.00  0.00     0.074 A 
ATOM     54  C   UNL A   1      47.569  30.568  27.427  1.00  0.00     0.031 C 
ATOM     55  C   UNL A   1      45.289  31.094  28.235  1.00  0.00     0.037 A 
BRANCH  42  56
ATOM     56  C   UNL A   1      39.700  28.679  29.154  1.00  0.00     0.064 A 
ATOM     57  C   UNL A   1      39.235  28.493  30.463  1.00  0.00     0.173 A 
ATOM     58  C   UNL A   1      38.813  29.228  28.213  1.00  0.00     0.173 A 
ATOM     59  F   UNL A   1      40.039  27.966  31.398  1.00  0.00    -0.203 F 
ATOM     60  C   UNL A   1      37.933  28.842  30.817  1.00  0.00     0.198 A 
ATOM     61  C   UNL A   1      37.524  29.606  28.578  1.00  0.00     0.198 A 
ATOM     62  F   UNL A   1      39.210  29.432  26.948  1.00  0.00    -0.203 F 
ATOM     63  F   UNL A   1      37.502  28.634  32.068  1.00  0.00    -0.200 F 
ATOM     64  C   UNL A   1      37.085  29.411  29.878  1.00  0.00     0.200 A 
ATOM     65  F   UNL A   1      36.714  30.173  27.673  1.00  0.00    -0.200 F 
ATOM     66  F   UNL A   1      35.843  29.774  30.228  1.00  0.00    -0.200 F 
ENDBRANCH  42  56
BRANCH  43  67
ATOM     67  C   UNL A   1      49.047  26.838  26.136  1.00  0.00     0.064 A 
ATOM     68  C   UNL A   1      49.344  27.017  24.777  1.00  0.00     0.173 A 
ATOM     69  C   UNL A   1      50.076  26.367  26.967  1.00  0.00     0.173 A 
ATOM     70  F   UNL A   1      48.393  27.449  23.935  1.00  0.00    -0.203 F 
ATOM     71  C   UNL A   1      50.596  26.684  24.261  1.00  0.00     0.198 A 
ATOM     72  C   UNL A   1      51.340  26.079  26.458  1.00  0.00     0.198 A 
ATOM     73  F   UNL A   1      49.854  26.183  28.277  1.00  0.00    -0.203 F 
ATOM     74  F   UNL A   1      50.821  26.780  22.944  1.00  0.00    -0.200 F 
ATOM     75  C   UNL A   1      51.593  26.217  25.103  1.00  0.00     0.200 A 
ATOM     76  F   UNL A   1      52.308  25.648  27.280  1.00  0.00    -0.200 F 
ATOM     77  F   UNL A   1      52.792  25.886  24.605  1.00  0.00    -0.200 F 
ENDBRANCH  43  67
BRANCH  55  78
ATOM     78  C   UNL A   1      45.719  32.524  28.396  1.00  0.00     0.064 A 
ATOM     79  C   UNL A   1      45.545  33.464  27.369  1.00  0.00     0.173 A 
ATOM     80  C   UNL A   1      46.264  32.972  29.609  1.00  0.00     0.173 A 
ATOM     81  F   UNL A   1      45.041  33.086  26.184  1.00  0.00    -0.203 F 
ATOM     82  C   UNL A   1      45.927  34.792  27.540  1.00  0.00     0.198 A 
ATOM     83  C   UNL A   1      46.608  34.308  29.791  1.00  0.00     0.198 A 
ATOM     84  F   UNL A   1      46.445  32.117  30.628  1.00  0.00    -0.203 F 
ATOM     85  F   UNL A   1      45.802  35.659  26.527  1.00  0.00    -0.200 F 
ATOM     86  C   UNL A   1      46.448  35.215  28.755  1.00  0.00     0.200 A 
ATOM     87  F   UNL A   1      47.092  34.719  30.972  1.00  0.00    -0.200 F 
ATOM     88  F   UNL A   1      46.801  36.496  28.922  1.00  0.00    -0.200 F 
ENDBRANCH  55  78
ENDBRANCH  29  30
ENDBRANCH  21  24
ENDBRANCH  19  20
ENDBRANCH  18  19
ENDBRANCH   1  18
TORSDOF 14
ENDMDL
