MODEL 1
REMARK VINA RESULT:     -11.7      0.000      0.000
REMARK SMILES O=C(C[C@H](C(=O)OC[C@H]1CCCO1)[NH+]1CCOCC1)NCCCNC(=O)c1ccc(-c2c3nc(c(-c4c(F)c(F)c(F)c(F)c4F)c4ccc([nH]4)c(-c4c(F)c(F)c(F)c(F)c4F)c4nc(c(-c5c(F)c(F)c(F)c(F)c5F)c5ccc2[nH]5)C=C4)C=C3)cc1
REMARK SMILES IDX 1 1 2 2 20 3 3 5 4 6 14 7 15 8 19 9 16 11 18 12 17 13 5 14
REMARK SMILES IDX 6 15 7 16 8 17 9 18 10 19 13 20 11 21 12 22 21 23 22 24
REMARK SMILES IDX 23 25 24 26 25 27 26 29 27 30 28 31 89 32 29 33 88 34 30 35
REMARK SMILES IDX 31 36 32 37 82 38 33 39 87 40 81 41 83 42 34 43 86 44 80 45
REMARK SMILES IDX 79 46 35 48 67 49 47 50 66 51 48 52 51 53 65 54 84 55 49 56
REMARK SMILES IDX 50 57 64 59 85 60 52 61 36 62 37 63 45 64 38 65 39 66 43 67
REMARK SMILES IDX 46 68 40 69 41 70 44 71 42 72 68 73 69 74 77 75 70 76 71 77
REMARK SMILES IDX 75 78 78 79 72 80 73 81 76 82 74 83 53 84 54 85 62 86 55 87
REMARK SMILES IDX 56 88 60 89 63 90 57 91 58 92 61 93 59 94
REMARK H PARENT 20 4 14 10 24 28 83 47 51 58
REMARK Flexibility Score: inf
ROOT
ATOM      1  O   UNL A   1      31.353  27.440  28.001  1.00  0.00    -0.275 OA
ATOM      2  C   UNL A   1      31.439  27.684  26.801  1.00  0.00     0.226 C 
ATOM      3  N   UNL A   1      31.948  28.871  26.303  1.00  0.00    -0.356 N 
ATOM      4  H   UNL A   1      32.122  28.963  25.338  1.00  0.00     0.163 HD
ENDROOT
BRANCH   2   5
ATOM      5  C   UNL A   1      30.975  26.702  25.748  1.00  0.00     0.177 C 
BRANCH   5   6
ATOM      6  C   UNL A   1      31.001  27.140  24.265  1.00  0.00     0.304 C 
BRANCH   6   7
ATOM      7  N   UNL A   1      31.367  26.001  23.370  1.00  0.00    -0.319 N 
ATOM      8  C   UNL A   1      32.305  25.012  23.945  1.00  0.00     0.291 C 
ATOM      9  C   UNL A   1      31.779  26.368  22.002  1.00  0.00     0.291 C 
ATOM     10  H   UNL A   1      30.461  25.538  23.287  1.00  0.00     0.348 HD
ATOM     11  C   UNL A   1      33.806  25.162  23.613  1.00  0.00     0.221 C 
ATOM     12  C   UNL A   1      33.291  26.582  21.806  1.00  0.00     0.221 C 
ATOM     13  O   UNL A   1      34.030  25.432  22.227  1.00  0.00    -0.370 OA
ENDBRANCH   6   7
BRANCH   6  14
ATOM     14  C   UNL A   1      29.871  27.988  23.671  1.00  0.00     0.365 C 
ATOM     15  O   UNL A   1      28.786  27.510  23.381  1.00  0.00    -0.245 OA
BRANCH  14  16
ATOM     16  O   UNL A   1      30.154  29.294  23.505  1.00  0.00    -0.459 OA
BRANCH  16  17
ATOM     17  C   UNL A   1      29.728  29.878  22.267  1.00  0.00     0.265 C 
BRANCH  17  18
ATOM     18  C   UNL A   1      28.261  30.335  22.252  1.00  0.00     0.156 C 
ATOM     19  C   UNL A   1      27.882  31.576  23.041  1.00  0.00     0.038 C 
ATOM     20  O   UNL A   1      27.964  30.694  20.889  1.00  0.00    -0.375 OA
ATOM     21  C   UNL A   1      28.400  32.671  22.146  1.00  0.00     0.031 C 
ATOM     22  C   UNL A   1      28.034  32.129  20.777  1.00  0.00     0.161 C 
ENDBRANCH  17  18
ENDBRANCH  16  17
ENDBRANCH  14  16
ENDBRANCH   6  14
ENDBRANCH   5   6
ENDBRANCH   2   5
BRANCH   3  23
ATOM     23  C   UNL A   1      32.225  29.980  27.198  1.00  0.00     0.117 C 
BRANCH  23  24
ATOM     24  C   UNL A   1      31.956  31.351  26.593  1.00  0.00     0.042 C 
BRANCH  24  25
ATOM     25  C   UNL A   1      32.999  32.422  26.887  1.00  0.00     0.118 C 
BRANCH  25  26
ATOM     26  N   UNL A   1      32.463  33.661  27.424  1.00  0.00    -0.352 N 
ATOM     27  C   UNL A   1      32.980  34.513  28.374  1.00  0.00     0.251 C 
ATOM     28  H   UNL A   1      31.593  33.933  27.052  1.00  0.00     0.163 HD
ATOM     29  O   UNL A   1      32.382  35.549  28.654  1.00  0.00    -0.269 OA
BRANCH  27  30
ATOM     30  C   UNL A   1      34.192  34.155  29.143  1.00  0.00     0.039 A 
ATOM     31  C   UNL A   1      34.024  33.305  30.240  1.00  0.00     0.014 A 
ATOM     32  C   UNL A   1      35.472  34.580  28.783  1.00  0.00     0.014 A 
ATOM     33  C   UNL A   1      35.139  32.798  30.903  1.00  0.00     0.010 A 
ATOM     34  C   UNL A   1      36.588  33.997  29.383  1.00  0.00     0.010 A 
ATOM     35  C   UNL A   1      36.432  33.087  30.438  1.00  0.00    -0.014 A 
BRANCH  35  36
ATOM     36  C   UNL A   1      37.603  32.395  31.034  1.00  0.00     0.031 A 
ATOM     37  C   UNL A   1      38.077  32.731  32.418  1.00  0.00     0.074 A 
ATOM     38  C   UNL A   1      38.251  31.461  30.306  1.00  0.00     0.049 A 
ATOM     39  N   UNL A   1      39.038  32.181  33.118  1.00  0.00    -0.248 NA
ATOM     40  C   UNL A   1      37.403  33.844  33.101  1.00  0.00     0.031 C 
ATOM     41  C   UNL A   1      37.932  31.100  28.923  1.00  0.00     0.029 A 
ATOM     42  N   UNL A   1      39.299  30.636  30.629  1.00  0.00    -0.354 N 
ATOM     43  C   UNL A   1      39.080  32.879  34.318  1.00  0.00     0.074 A 
ATOM     44  C   UNL A   1      38.099  33.937  34.224  1.00  0.00     0.031 C 
ATOM     45  C   UNL A   1      38.727  30.091  28.536  1.00  0.00     0.029 A 
ATOM     46  C   UNL A   1      39.637  29.758  29.626  1.00  0.00     0.049 A 
ATOM     47  H   UNL A   1      39.764  30.669  31.496  1.00  0.00     0.167 HD
ATOM     48  C   UNL A   1      39.846  32.639  35.409  1.00  0.00     0.037 A 
ATOM     49  C   UNL A   1      40.569  28.787  29.595  1.00  0.00     0.037 A 
ATOM     50  C   UNL A   1      40.817  31.578  35.497  1.00  0.00     0.049 A 
ATOM     51  C   UNL A   1      41.401  28.538  30.823  1.00  0.00     0.074 A 
ATOM     52  C   UNL A   1      41.612  31.221  36.573  1.00  0.00     0.029 A 
ATOM     53  N   UNL A   1      41.132  30.706  34.463  1.00  0.00    -0.354 N 
ATOM     54  N   UNL A   1      41.372  29.149  31.983  1.00  0.00    -0.248 NA
ATOM     55  C   UNL A   1      42.382  27.450  30.744  1.00  0.00     0.031 C 
ATOM     56  C   UNL A   1      42.448  30.173  36.172  1.00  0.00     0.029 A 
ATOM     57  C   UNL A   1      42.125  29.828  34.869  1.00  0.00     0.049 A 
ATOM     58  H   UNL A   1      40.712  30.711  33.573  1.00  0.00     0.167 HD
ATOM     59  C   UNL A   1      42.308  28.504  32.779  1.00  0.00     0.074 A 
ATOM     60  C   UNL A   1      42.866  27.435  31.976  1.00  0.00     0.031 C 
ATOM     61  C   UNL A   1      42.675  28.771  34.058  1.00  0.00     0.037 A 
BRANCH  48  62
ATOM     62  C   UNL A   1      39.663  33.542  36.596  1.00  0.00     0.064 A 
ATOM     63  C   UNL A   1      40.369  34.750  36.719  1.00  0.00     0.173 A 
ATOM     64  C   UNL A   1      38.751  33.214  37.610  1.00  0.00     0.173 A 
ATOM     65  F   UNL A   1      41.265  35.108  35.786  1.00  0.00    -0.203 F 
ATOM     66  C   UNL A   1      40.193  35.575  37.827  1.00  0.00     0.198 A 
ATOM     67  C   UNL A   1      38.551  34.060  38.698  1.00  0.00     0.198 A 
ATOM     68  F   UNL A   1      38.046  32.075  37.543  1.00  0.00    -0.203 F 
ATOM     69  F   UNL A   1      40.923  36.693  37.950  1.00  0.00    -0.200 F 
ATOM     70  C   UNL A   1      39.279  35.234  38.811  1.00  0.00     0.200 A 
ATOM     71  F   UNL A   1      37.656  33.735  39.642  1.00  0.00    -0.200 F 
ATOM     72  F   UNL A   1      39.106  36.033  39.873  1.00  0.00    -0.200 F 
ENDBRANCH  48  62
BRANCH  49  73
ATOM     73  C   UNL A   1      40.738  27.953  28.374  1.00  0.00     0.064 A 
ATOM     74  C   UNL A   1      40.080  26.721  28.241  1.00  0.00     0.173 A 
ATOM     75  C   UNL A   1      41.572  28.360  27.324  1.00  0.00     0.173 A 
ATOM     76  F   UNL A   1      39.286  26.277  29.226  1.00  0.00    -0.203 F 
ATOM     77  C   UNL A   1      40.273  25.917  27.119  1.00  0.00     0.198 A 
ATOM     78  C   UNL A   1      41.736  27.573  26.186  1.00  0.00     0.198 A 
ATOM     79  F   UNL A   1      42.219  29.534  27.395  1.00  0.00    -0.203 F 
ATOM     80  F   UNL A   1      39.677  24.720  27.045  1.00  0.00    -0.200 F 
ATOM     81  C   UNL A   1      41.097  26.347  26.090  1.00  0.00     0.200 A 
ATOM     82  F   UNL A   1      42.520  28.000  25.186  1.00  0.00    -0.200 F 
ATOM     83  F   UNL A   1      41.281  25.575  25.010  1.00  0.00    -0.200 F 
ENDBRANCH  49  73
BRANCH  61  84
ATOM     84  C   UNL A   1      43.705  27.863  34.674  1.00  0.00     0.064 A 
ATOM     85  C   UNL A   1      45.077  28.156  34.625  1.00  0.00     0.173 A 
ATOM     86  C   UNL A   1      43.311  26.680  35.316  1.00  0.00     0.173 A 
ATOM     87  F   UNL A   1      45.508  29.269  34.014  1.00  0.00    -0.203 F 
ATOM     88  C   UNL A   1      46.016  27.271  35.148  1.00  0.00     0.198 A 
ATOM     89  C   UNL A   1      44.250  25.818  35.874  1.00  0.00     0.198 A 
ATOM     90  F   UNL A   1      42.012  26.355  35.403  1.00  0.00    -0.203 F 
ATOM     91  F   UNL A   1      47.324  27.535  35.020  1.00  0.00    -0.200 F 
ATOM     92  C   UNL A   1      45.603  26.106  35.776  1.00  0.00     0.200 A 
ATOM     93  F   UNL A   1      43.848  24.702  36.496  1.00  0.00    -0.200 F 
ATOM     94  F   UNL A   1      46.509  25.255  36.274  1.00  0.00    -0.200 F 
ENDBRANCH  61  84
ENDBRANCH  35  36
ENDBRANCH  27  30
ENDBRANCH  25  26
ENDBRANCH  24  25
ENDBRANCH  23  24
ENDBRANCH   3  23
TORSDOF 16
ENDMDL
MODEL 2
REMARK VINA RESULT:     -11.7      0.938      7.458
REMARK SMILES O=C(C[C@H](C(=O)OC[C@H]1CCCO1)[NH+]1CCOCC1)NCCCNC(=O)c1ccc(-c2c3nc(c(-c4c(F)c(F)c(F)c(F)c4F)c4ccc([nH]4)c(-c4c(F)c(F)c(F)c(F)c4F)c4nc(c(-c5c(F)c(F)c(F)c(F)c5F)c5ccc2[nH]5)C=C4)C=C3)cc1
REMARK SMILES IDX 1 1 2 2 20 3 3 5 4 6 14 7 15 8 19 9 16 11 18 12 17 13 5 14
REMARK SMILES IDX 6 15 7 16 8 17 9 18 10 19 13 20 11 21 12 22 21 23 22 24
REMARK SMILES IDX 23 25 24 26 25 27 26 29 27 30 28 31 89 32 29 33 88 34 30 35
REMARK SMILES IDX 31 36 32 37 82 38 33 39 87 40 81 41 83 42 34 43 86 44 80 45
REMARK SMILES IDX 79 46 35 48 67 49 47 50 66 51 48 52 51 53 65 54 84 55 49 56
REMARK SMILES IDX 50 57 64 59 85 60 52 61 36 62 37 63 45 64 38 65 39 66 43 67
REMARK SMILES IDX 46 68 40 69 41 70 44 71 42 72 68 73 69 74 77 75 70 76 71 77
REMARK SMILES IDX 75 78 78 79 72 80 73 81 76 82 74 83 53 84 54 85 62 86 55 87
REMARK SMILES IDX 56 88 60 89 63 90 57 91 58 92 61 93 59 94
REMARK H PARENT 20 4 14 10 24 28 83 47 51 58
REMARK Flexibility Score: inf
ROOT
ATOM      1  O   UNL A   1      33.464  27.777  26.485  1.00  0.00    -0.275 OA
ATOM      2  C   UNL A   1      32.297  28.036  26.205  1.00  0.00     0.226 C 
ATOM      3  N   UNL A   1      31.721  29.275  26.423  1.00  0.00    -0.356 N 
ATOM      4  H   UNL A   1      30.828  29.472  26.057  1.00  0.00     0.163 HD
ENDROOT
BRANCH   2   5
ATOM      5  C   UNL A   1      31.370  27.004  25.600  1.00  0.00     0.177 C 
BRANCH   5   6
ATOM      6  C   UNL A   1      30.990  27.134  24.106  1.00  0.00     0.304 C 
BRANCH   6   7
ATOM      7  N   UNL A   1      31.317  25.886  23.354  1.00  0.00    -0.319 N 
ATOM      8  C   UNL A   1      32.299  24.987  24.001  1.00  0.00     0.291 C 
ATOM      9  C   UNL A   1      31.645  26.065  21.927  1.00  0.00     0.291 C 
ATOM     10  H   UNL A   1      30.413  25.412  23.389  1.00  0.00     0.348 HD
ATOM     11  C   UNL A   1      33.775  25.096  23.563  1.00  0.00     0.221 C 
ATOM     12  C   UNL A   1      33.140  26.256  21.615  1.00  0.00     0.221 C 
ATOM     13  O   UNL A   1      33.916  25.176  22.143  1.00  0.00    -0.370 OA
ENDBRANCH   6   7
BRANCH   6  14
ATOM     14  C   UNL A   1      29.638  27.716  23.682  1.00  0.00     0.365 C 
ATOM     15  O   UNL A   1      28.651  27.014  23.528  1.00  0.00    -0.245 OA
BRANCH  14  16
ATOM     16  O   UNL A   1      29.611  29.050  23.504  1.00  0.00    -0.459 OA
BRANCH  16  17
ATOM     17  C   UNL A   1      29.124  29.506  22.236  1.00  0.00     0.265 C 
BRANCH  17  18
ATOM     18  C   UNL A   1      27.831  30.333  22.313  1.00  0.00     0.156 C 
ATOM     19  C   UNL A   1      27.660  31.303  23.469  1.00  0.00     0.038 C 
ATOM     20  O   UNL A   1      27.826  31.184  21.151  1.00  0.00    -0.375 OA
ATOM     21  C   UNL A   1      28.551  32.439  23.042  1.00  0.00     0.031 C 
ATOM     22  C   UNL A   1      28.260  32.497  21.553  1.00  0.00     0.161 C 
ENDBRANCH  17  18
ENDBRANCH  16  17
ENDBRANCH  14  16
ENDBRANCH   6  14
ENDBRANCH   5   6
ENDBRANCH   2   5
BRANCH   3  23
ATOM     23  C   UNL A   1      32.428  30.284  27.191  1.00  0.00     0.117 C 
BRANCH  23  24
ATOM     24  C   UNL A   1      31.924  31.703  26.967  1.00  0.00     0.042 C 
BRANCH  24  25
ATOM     25  C   UNL A   1      32.967  32.806  27.100  1.00  0.00     0.118 C 
BRANCH  25  26
ATOM     26  N   UNL A   1      32.458  34.065  27.619  1.00  0.00    -0.352 N 
ATOM     27  C   UNL A   1      32.975  34.903  28.581  1.00  0.00     0.251 C 
ATOM     28  H   UNL A   1      31.609  34.364  27.221  1.00  0.00     0.163 HD
ATOM     29  O   UNL A   1      32.405  35.959  28.840  1.00  0.00    -0.269 OA
BRANCH  27  30
ATOM     30  C   UNL A   1      34.153  34.507  29.384  1.00  0.00     0.039 A 
ATOM     31  C   UNL A   1      33.908  33.924  30.631  1.00  0.00     0.014 A 
ATOM     32  C   UNL A   1      35.464  34.641  28.926  1.00  0.00     0.014 A 
ATOM     33  C   UNL A   1      34.961  33.380  31.363  1.00  0.00     0.010 A 
ATOM     34  C   UNL A   1      36.503  34.011  29.611  1.00  0.00     0.010 A 
ATOM     35  C   UNL A   1      36.259  33.359  30.828  1.00  0.00    -0.014 A 
BRANCH  35  36
ATOM     36  C   UNL A   1      37.335  32.614  31.530  1.00  0.00     0.031 A 
ATOM     37  C   UNL A   1      38.032  31.460  30.872  1.00  0.00     0.074 A 
ATOM     38  C   UNL A   1      37.674  32.982  32.783  1.00  0.00     0.049 A 
ATOM     39  N   UNL A   1      39.035  30.741  31.310  1.00  0.00    -0.248 NA
ATOM     40  C   UNL A   1      37.524  31.037  29.559  1.00  0.00     0.031 C 
ATOM     41  C   UNL A   1      37.020  34.040  33.558  1.00  0.00     0.029 A 
ATOM     42  N   UNL A   1      38.658  32.521  33.622  1.00  0.00    -0.354 N 
ATOM     43  C   UNL A   1      39.277  29.788  30.330  1.00  0.00     0.074 A 
ATOM     44  C   UNL A   1      38.272  29.972  29.307  1.00  0.00     0.031 C 
ATOM     45  C   UNL A   1      37.654  34.184  34.731  1.00  0.00     0.029 A 
ATOM     46  C   UNL A   1      38.734  33.207  34.810  1.00  0.00     0.049 A 
ATOM     47  H   UNL A   1      39.253  31.772  33.392  1.00  0.00     0.167 HD
ATOM     48  C   UNL A   1      40.266  28.865  30.275  1.00  0.00     0.037 A 
ATOM     49  C   UNL A   1      39.587  33.070  35.843  1.00  0.00     0.037 A 
ATOM     50  C   UNL A   1      41.268  28.691  31.295  1.00  0.00     0.049 A 
ATOM     51  C   UNL A   1      40.680  32.041  35.752  1.00  0.00     0.074 A 
ATOM     52  C   UNL A   1      42.340  27.816  31.315  1.00  0.00     0.029 A 
ATOM     53  N   UNL A   1      41.317  29.405  32.486  1.00  0.00    -0.354 N 
ATOM     54  N   UNL A   1      40.952  31.202  34.780  1.00  0.00    -0.248 NA
ATOM     55  C   UNL A   1      41.598  31.952  36.894  1.00  0.00     0.031 C 
ATOM     56  C   UNL A   1      43.002  27.959  32.539  1.00  0.00     0.029 A 
ATOM     57  C   UNL A   1      42.385  28.973  33.255  1.00  0.00     0.049 A 
ATOM     58  H   UNL A   1      40.685  30.114  32.745  1.00  0.00     0.167 HD
ATOM     59  C   UNL A   1      42.085  30.508  35.181  1.00  0.00     0.074 A 
ATOM     60  C   UNL A   1      42.465  31.045  36.471  1.00  0.00     0.031 C 
ATOM     61  C   UNL A   1      42.751  29.514  34.541  1.00  0.00     0.037 A 
BRANCH  48  62
ATOM     62  C   UNL A   1      40.311  27.969  29.068  1.00  0.00     0.064 A 
ATOM     63  C   UNL A   1      41.064  28.301  27.931  1.00  0.00     0.173 A 
ATOM     64  C   UNL A   1      39.618  26.749  29.059  1.00  0.00     0.173 A 
ATOM     65  F   UNL A   1      41.736  29.461  27.880  1.00  0.00    -0.203 F 
ATOM     66  C   UNL A   1      41.093  27.463  26.818  1.00  0.00     0.198 A 
ATOM     67  C   UNL A   1      39.679  25.897  27.959  1.00  0.00     0.198 A 
ATOM     68  F   UNL A   1      38.885  26.379  30.119  1.00  0.00    -0.203 F 
ATOM     69  F   UNL A   1      41.772  27.831  25.723  1.00  0.00    -0.200 F 
ATOM     70  C   UNL A   1      40.408  26.259  26.837  1.00  0.00     0.200 A 
ATOM     71  F   UNL A   1      39.026  24.726  27.983  1.00  0.00    -0.200 F 
ATOM     72  F   UNL A   1      40.443  25.450  25.768  1.00  0.00    -0.200 F 
ENDBRANCH  48  62
BRANCH  49  73
ATOM     73  C   UNL A   1      39.466  33.954  37.035  1.00  0.00     0.064 A 
ATOM     74  C   UNL A   1      40.065  35.222  37.059  1.00  0.00     0.173 A 
ATOM     75  C   UNL A   1      38.765  33.545  38.177  1.00  0.00     0.173 A 
ATOM     76  F   UNL A   1      40.763  35.654  35.999  1.00  0.00    -0.203 F 
ATOM     77  C   UNL A   1      39.992  36.033  38.191  1.00  0.00     0.198 A 
ATOM     78  C   UNL A   1      38.661  34.370  39.295  1.00  0.00     0.198 A 
ATOM     79  F   UNL A   1      38.166  32.344  38.204  1.00  0.00    -0.203 F 
ATOM     80  F   UNL A   1      40.622  37.215  38.207  1.00  0.00    -0.200 F 
ATOM     81  C   UNL A   1      39.285  35.609  39.305  1.00  0.00     0.200 A 
ATOM     82  F   UNL A   1      37.963  33.963  40.364  1.00  0.00    -0.200 F 
ATOM     83  F   UNL A   1      39.213  36.389  40.392  1.00  0.00    -0.200 F 
ENDBRANCH  49  73
BRANCH  61  84
ATOM     84  C   UNL A   1      43.981  28.974  35.216  1.00  0.00     0.064 A 
ATOM     85  C   UNL A   1      43.919  27.918  36.139  1.00  0.00     0.173 A 
ATOM     86  C   UNL A   1      45.241  29.528  34.940  1.00  0.00     0.173 A 
ATOM     87  F   UNL A   1      42.740  27.359  36.447  1.00  0.00    -0.203 F 
ATOM     88  C   UNL A   1      45.063  27.475  36.798  1.00  0.00     0.198 A 
ATOM     89  C   UNL A   1      46.388  29.055  35.571  1.00  0.00     0.198 A 
ATOM     90  F   UNL A   1      45.361  30.532  34.058  1.00  0.00    -0.203 F 
ATOM     91  F   UNL A   1      44.965  26.519  37.732  1.00  0.00    -0.200 F 
ATOM     92  C   UNL A   1      46.296  28.040  36.511  1.00  0.00     0.200 A 
ATOM     93  F   UNL A   1      47.580  29.590  35.278  1.00  0.00    -0.200 F 
ATOM     94  F   UNL A   1      47.394  27.616  37.150  1.00  0.00    -0.200 F 
ENDBRANCH  61  84
ENDBRANCH  35  36
ENDBRANCH  27  30
ENDBRANCH  25  26
ENDBRANCH  24  25
ENDBRANCH  23  24
ENDBRANCH   3  23
TORSDOF 16
ENDMDL
MODEL 3
REMARK VINA RESULT:     -11.6      1.170      7.516
REMARK SMILES O=C(C[C@H](C(=O)OC[C@H]1CCCO1)[NH+]1CCOCC1)NCCCNC(=O)c1ccc(-c2c3nc(c(-c4c(F)c(F)c(F)c(F)c4F)c4ccc([nH]4)c(-c4c(F)c(F)c(F)c(F)c4F)c4nc(c(-c5c(F)c(F)c(F)c(F)c5F)c5ccc2[nH]5)C=C4)C=C3)cc1
REMARK SMILES IDX 1 1 2 2 20 3 3 5 4 6 14 7 15 8 19 9 16 11 18 12 17 13 5 14
REMARK SMILES IDX 6 15 7 16 8 17 9 18 10 19 13 20 11 21 12 22 21 23 22 24
REMARK SMILES IDX 23 25 24 26 25 27 26 29 27 30 28 31 89 32 29 33 88 34 30 35
REMARK SMILES IDX 31 36 32 37 82 38 33 39 87 40 81 41 83 42 34 43 86 44 80 45
REMARK SMILES IDX 79 46 35 48 67 49 47 50 66 51 48 52 51 53 65 54 84 55 49 56
REMARK SMILES IDX 50 57 64 59 85 60 52 61 36 62 37 63 45 64 38 65 39 66 43 67
REMARK SMILES IDX 46 68 40 69 41 70 44 71 42 72 68 73 69 74 77 75 70 76 71 77
REMARK SMILES IDX 75 78 78 79 72 80 73 81 76 82 74 83 53 84 54 85 62 86 55 87
REMARK SMILES IDX 56 88 60 89 63 90 57 91 58 92 61 93 59 94
REMARK H PARENT 20 4 14 10 24 28 83 47 51 58
REMARK Flexibility Score: inf
ROOT
ATOM      1  O   UNL A   1      32.866  27.894  26.928  1.00  0.00    -0.275 OA
ATOM      2  C   UNL A   1      32.824  28.472  25.846  1.00  0.00     0.226 C 
ATOM      3  N   UNL A   1      32.381  29.775  25.698  1.00  0.00    -0.356 N 
ATOM      4  H   UNL A   1      32.494  30.236  24.835  1.00  0.00     0.163 HD
ENDROOT
BRANCH   2   5
ATOM      5  C   UNL A   1      33.244  27.796  24.559  1.00  0.00     0.177 C 
BRANCH   5   6
ATOM      6  C   UNL A   1      32.220  26.899  23.824  1.00  0.00     0.304 C 
BRANCH   6   7
ATOM      7  N   UNL A   1      31.660  25.857  24.736  1.00  0.00    -0.319 N 
ATOM      8  C   UNL A   1      32.634  24.866  25.248  1.00  0.00     0.291 C 
ATOM      9  C   UNL A   1      30.438  25.180  24.262  1.00  0.00     0.291 C 
ATOM     10  H   UNL A   1      31.384  26.438  25.528  1.00  0.00     0.348 HD
ATOM     11  C   UNL A   1      32.745  23.515  24.510  1.00  0.00     0.221 C 
ATOM     12  C   UNL A   1      30.671  23.888  23.458  1.00  0.00     0.221 C 
ATOM     13  O   UNL A   1      31.464  22.958  24.202  1.00  0.00    -0.370 OA
ENDBRANCH   6   7
BRANCH   6  14
ATOM     14  C   UNL A   1      31.137  27.508  22.926  1.00  0.00     0.365 C 
ATOM     15  O   UNL A   1      30.984  27.155  21.767  1.00  0.00    -0.245 OA
BRANCH  14  16
ATOM     16  O   UNL A   1      30.363  28.444  23.505  1.00  0.00    -0.459 OA
BRANCH  16  17
ATOM     17  C   UNL A   1      30.169  29.652  22.757  1.00  0.00     0.265 C 
BRANCH  17  18
ATOM     18  C   UNL A   1      28.769  29.799  22.142  1.00  0.00     0.156 C 
ATOM     19  C   UNL A   1      27.576  29.910  23.075  1.00  0.00     0.038 C 
ATOM     20  O   UNL A   1      28.768  31.055  21.437  1.00  0.00    -0.375 OA
ATOM     21  C   UNL A   1      27.695  31.336  23.545  1.00  0.00     0.031 C 
ATOM     22  C   UNL A   1      28.111  32.034  22.264  1.00  0.00     0.161 C 
ENDBRANCH  17  18
ENDBRANCH  16  17
ENDBRANCH  14  16
ENDBRANCH   6  14
ENDBRANCH   5   6
ENDBRANCH   2   5
BRANCH   3  23
ATOM     23  C   UNL A   1      31.749  30.462  26.809  1.00  0.00     0.117 C 
BRANCH  23  24
ATOM     24  C   UNL A   1      31.634  31.969  26.625  1.00  0.00     0.042 C 
BRANCH  24  25
ATOM     25  C   UNL A   1      32.747  32.801  27.251  1.00  0.00     0.118 C 
BRANCH  25  26
ATOM     26  N   UNL A   1      32.340  34.125  27.692  1.00  0.00    -0.352 N 
ATOM     27  C   UNL A   1      32.955  34.998  28.562  1.00  0.00     0.251 C 
ATOM     28  H   UNL A   1      31.493  34.448  27.310  1.00  0.00     0.163 HD
ATOM     29  O   UNL A   1      32.463  36.105  28.763  1.00  0.00    -0.269 OA
BRANCH  27  30
ATOM     30  C   UNL A   1      34.144  34.589  29.341  1.00  0.00     0.039 A 
ATOM     31  C   UNL A   1      33.927  34.129  30.643  1.00  0.00     0.014 A 
ATOM     32  C   UNL A   1      35.435  34.592  28.812  1.00  0.00     0.014 A 
ATOM     33  C   UNL A   1      34.978  33.574  31.369  1.00  0.00     0.010 A 
ATOM     34  C   UNL A   1      36.465  33.950  29.499  1.00  0.00     0.010 A 
ATOM     35  C   UNL A   1      36.243  33.419  30.778  1.00  0.00    -0.014 A 
BRANCH  35  36
ATOM     36  C   UNL A   1      37.303  32.661  31.491  1.00  0.00     0.031 A 
ATOM     37  C   UNL A   1      37.998  31.504  30.836  1.00  0.00     0.074 A 
ATOM     38  C   UNL A   1      37.628  33.020  32.750  1.00  0.00     0.049 A 
ATOM     39  N   UNL A   1      38.989  30.774  31.284  1.00  0.00    -0.248 NA
ATOM     40  C   UNL A   1      37.504  31.092  29.514  1.00  0.00     0.031 C 
ATOM     41  C   UNL A   1      36.973  34.080  33.521  1.00  0.00     0.029 A 
ATOM     42  N   UNL A   1      38.597  32.546  33.599  1.00  0.00    -0.354 N 
ATOM     43  C   UNL A   1      39.236  29.824  30.303  1.00  0.00     0.074 A 
ATOM     44  C   UNL A   1      38.246  30.022  29.267  1.00  0.00     0.031 C 
ATOM     45  C   UNL A   1      37.593  34.213  34.703  1.00  0.00     0.029 A 
ATOM     46  C   UNL A   1      38.663  33.226  34.792  1.00  0.00     0.049 A 
ATOM     47  H   UNL A   1      39.189  31.793  33.374  1.00  0.00     0.167 HD
ATOM     48  C   UNL A   1      40.217  28.892  30.255  1.00  0.00     0.037 A 
ATOM     49  C   UNL A   1      39.501  33.077  35.836  1.00  0.00     0.037 A 
ATOM     50  C   UNL A   1      41.204  28.705  31.288  1.00  0.00     0.049 A 
ATOM     51  C   UNL A   1      40.586  32.037  35.753  1.00  0.00     0.074 A 
ATOM     52  C   UNL A   1      42.268  27.820  31.318  1.00  0.00     0.029 A 
ATOM     53  N   UNL A   1      41.243  29.412  32.483  1.00  0.00    -0.354 N 
ATOM     54  N   UNL A   1      40.863  31.202  34.782  1.00  0.00    -0.248 NA
ATOM     55  C   UNL A   1      41.488  31.935  36.907  1.00  0.00     0.031 C 
ATOM     56  C   UNL A   1      42.914  27.951  32.551  1.00  0.00     0.029 A 
ATOM     57  C   UNL A   1      42.298  28.967  33.264  1.00  0.00     0.049 A 
ATOM     58  H   UNL A   1      40.614  30.125  32.737  1.00  0.00     0.167 HD
ATOM     59  C   UNL A   1      41.985  30.495  35.194  1.00  0.00     0.074 A 
ATOM     60  C   UNL A   1      42.352  31.023  36.491  1.00  0.00     0.031 C 
ATOM     61  C   UNL A   1      42.651  29.499  34.557  1.00  0.00     0.037 A 
BRANCH  48  62
ATOM     62  C   UNL A   1      40.270  28.002  29.045  1.00  0.00     0.064 A 
ATOM     63  C   UNL A   1      39.576  26.782  28.996  1.00  0.00     0.173 A 
ATOM     64  C   UNL A   1      40.999  28.384  27.909  1.00  0.00     0.173 A 
ATOM     65  F   UNL A   1      38.874  26.361  30.059  1.00  0.00    -0.203 F 
ATOM     66  C   UNL A   1      39.638  25.965  27.870  1.00  0.00     0.198 A 
ATOM     67  C   UNL A   1      41.029  27.581  26.771  1.00  0.00     0.198 A 
ATOM     68  F   UNL A   1      41.679  29.540  27.898  1.00  0.00    -0.203 F 
ATOM     69  F   UNL A   1      39.014  24.779  27.870  1.00  0.00    -0.200 F 
ATOM     70  C   UNL A   1      40.357  26.369  26.756  1.00  0.00     0.200 A 
ATOM     71  F   UNL A   1      41.714  27.980  25.690  1.00  0.00    -0.200 F 
ATOM     72  F   UNL A   1      40.409  25.585  25.670  1.00  0.00    -0.200 F 
ENDBRANCH  48  62
BRANCH  49  73
ATOM     73  C   UNL A   1      39.372  33.955  37.030  1.00  0.00     0.064 A 
ATOM     74  C   UNL A   1      39.957  35.230  37.057  1.00  0.00     0.173 A 
ATOM     75  C   UNL A   1      38.676  33.535  38.172  1.00  0.00     0.173 A 
ATOM     76  F   UNL A   1      40.650  35.672  35.997  1.00  0.00    -0.203 F 
ATOM     77  C   UNL A   1      39.877  36.036  38.191  1.00  0.00     0.198 A 
ATOM     78  C   UNL A   1      38.565  34.356  39.292  1.00  0.00     0.198 A 
ATOM     79  F   UNL A   1      38.091  32.328  38.196  1.00  0.00    -0.203 F 
ATOM     80  F   UNL A   1      40.494  37.225  38.210  1.00  0.00    -0.200 F 
ATOM     81  C   UNL A   1      39.176  35.601  39.305  1.00  0.00     0.200 A 
ATOM     82  F   UNL A   1      37.873  33.938  40.360  1.00  0.00    -0.200 F 
ATOM     83  F   UNL A   1      39.096  36.378  40.395  1.00  0.00    -0.200 F 
ENDBRANCH  49  73
BRANCH  61  84
ATOM     84  C   UNL A   1      43.867  28.945  35.246  1.00  0.00     0.064 A 
ATOM     85  C   UNL A   1      45.154  29.451  35.004  1.00  0.00     0.173 A 
ATOM     86  C   UNL A   1      43.743  27.886  36.158  1.00  0.00     0.173 A 
ATOM     87  F   UNL A   1      45.330  30.456  34.133  1.00  0.00    -0.203 F 
ATOM     88  C   UNL A   1      46.272  28.882  35.606  1.00  0.00     0.198 A 
ATOM     89  C   UNL A   1      44.859  27.347  36.791  1.00  0.00     0.198 A 
ATOM     90  F   UNL A   1      42.536  27.370  36.438  1.00  0.00    -0.203 F 
ATOM     91  F   UNL A   1      47.497  29.332  35.297  1.00  0.00    -0.200 F 
ATOM     92  C   UNL A   1      46.125  27.835  36.502  1.00  0.00     0.200 A 
ATOM     93  F   UNL A   1      44.713  26.347  37.669  1.00  0.00    -0.200 F 
ATOM     94  F   UNL A   1      47.203  27.286  37.076  1.00  0.00    -0.200 F 
ENDBRANCH  61  84
ENDBRANCH  35  36
ENDBRANCH  27  30
ENDBRANCH  25  26
ENDBRANCH  24  25
ENDBRANCH  23  24
ENDBRANCH   3  23
TORSDOF 16
ENDMDL
