MODEL 1
REMARK VINA RESULT:     -12.3      0.000      0.000
REMARK SMILES CC[C@H]([NH2+]C1c2ccccc2-c2ccccc21)C(=O)NCCCNC(=O)c1ccc(-c2c3nc(c(-c4c(F)c(F)c(F)c(F)c4F)c4ccc([nH]4)c(-c4c(F)c(F)c(F)c(F)c4F)c4nc(c(-c5c(F)c(F)c(F)c(F)c5F)c5ccc2[nH]5)C=C4)C=C3)cc1
REMARK SMILES IDX 22 1 21 2 20 3 18 4 19 5 3 7 2 8 1 9 4 10 5 13 6 14 17 15
REMARK SMILES IDX 7 16 11 17 12 18 16 19 8 20 10 21 13 22 15 23 9 24 14 25
REMARK SMILES IDX 23 26 24 27 25 28 26 30 27 31 28 32 89 33 29 34 88 35 30 36
REMARK SMILES IDX 31 37 32 38 82 39 33 40 87 41 81 42 83 43 34 44 86 45 80 46
REMARK SMILES IDX 79 47 35 49 67 50 47 51 66 52 48 53 51 54 65 55 84 56 49 57
REMARK SMILES IDX 50 58 64 60 85 61 52 62 36 63 37 64 45 65 38 66 39 67 43 68
REMARK SMILES IDX 46 69 40 70 41 71 44 72 42 73 68 74 69 75 77 76 70 77 71 78
REMARK SMILES IDX 75 79 78 80 72 81 73 82 76 83 74 84 53 85 54 86 62 87 55 88
REMARK SMILES IDX 56 89 60 90 63 91 57 92 58 93 61 94 59 95
REMARK H PARENT 20 6 4 11 4 12 24 29 83 48 51 59
REMARK Flexibility Score: inf
ROOT
ATOM      1  C   UNL A   1      32.972  27.750  26.907  1.00  0.00     0.042 C 
ENDROOT
BRANCH   1   2
ATOM      2  C   UNL A   1      31.947  27.038  26.037  1.00  0.00     0.118 C 
BRANCH   2   3
ATOM      3  N   UNL A   1      31.322  25.918  26.721  1.00  0.00    -0.351 N 
ATOM      4  C   UNL A   1      31.425  24.573  26.491  1.00  0.00     0.278 C 
ATOM      5  O   UNL A   1      30.789  23.824  27.239  1.00  0.00    -0.268 OA
ATOM      6  H   UNL A   1      30.731  26.167  27.468  1.00  0.00     0.163 HD
BRANCH   4   7
ATOM      7  C   UNL A   1      32.377  24.010  25.411  1.00  0.00     0.273 C 
BRANCH   7   8
ATOM      8  C   UNL A   1      31.505  23.552  24.213  1.00  0.00     0.072 C 
ATOM      9  C   UNL A   1      31.132  24.649  23.229  1.00  0.00     0.011 C 
ENDBRANCH   7   8
BRANCH   7  10
ATOM     10  N   UNL A   1      33.222  22.940  25.983  1.00  0.00    -0.326 N 
ATOM     11  H   UNL A   1      32.604  22.207  26.330  1.00  0.00     0.347 HD
ATOM     12  H   UNL A   1      33.784  23.394  26.704  1.00  0.00     0.347 HD
BRANCH  10  13
ATOM     13  C   UNL A   1      34.186  22.317  25.071  1.00  0.00     0.246 C 
ATOM     14  C   UNL A   1      35.658  22.561  25.391  1.00  0.00     0.022 A 
ATOM     15  C   UNL A   1      34.139  20.807  24.895  1.00  0.00     0.022 A 
ATOM     16  C   UNL A   1      36.309  23.753  25.668  1.00  0.00     0.011 A 
ATOM     17  C   UNL A   1      36.373  21.344  25.305  1.00  0.00    -0.008 A 
ATOM     18  C   UNL A   1      35.450  20.277  24.973  1.00  0.00    -0.008 A 
ATOM     19  C   UNL A   1      33.064  19.995  24.566  1.00  0.00     0.011 A 
ATOM     20  C   UNL A   1      37.685  23.717  25.904  1.00  0.00     0.001 A 
ATOM     21  C   UNL A   1      37.741  21.313  25.521  1.00  0.00     0.009 A 
ATOM     22  C   UNL A   1      35.694  18.938  24.708  1.00  0.00     0.009 A 
ATOM     23  C   UNL A   1      33.310  18.644  24.307  1.00  0.00     0.001 A 
ATOM     24  C   UNL A   1      38.395  22.508  25.829  1.00  0.00     0.001 A 
ATOM     25  C   UNL A   1      34.613  18.121  24.369  1.00  0.00     0.001 A 
ENDBRANCH  10  13
ENDBRANCH   7  10
ENDBRANCH   4   7
ENDBRANCH   2   3
ENDBRANCH   1   2
BRANCH   1  26
ATOM     26  C   UNL A   1      33.850  28.735  26.149  1.00  0.00     0.118 C 
BRANCH  26  27
ATOM     27  N   UNL A   1      33.720  30.102  26.634  1.00  0.00    -0.352 N 
ATOM     28  C   UNL A   1      34.506  30.816  27.500  1.00  0.00     0.251 C 
ATOM     29  H   UNL A   1      32.941  30.593  26.284  1.00  0.00     0.163 HD
ATOM     30  O   UNL A   1      34.119  31.917  27.901  1.00  0.00    -0.269 OA
BRANCH  28  31
ATOM     31  C   UNL A   1      35.803  30.285  27.973  1.00  0.00     0.039 A 
ATOM     32  C   UNL A   1      35.872  29.718  29.251  1.00  0.00     0.014 A 
ATOM     33  C   UNL A   1      36.960  30.382  27.197  1.00  0.00     0.014 A 
ATOM     34  C   UNL A   1      37.085  29.216  29.728  1.00  0.00     0.010 A 
ATOM     35  C   UNL A   1      38.146  29.798  27.633  1.00  0.00     0.010 A 
ATOM     36  C   UNL A   1      38.228  29.232  28.914  1.00  0.00    -0.014 A 
BRANCH  36  37
ATOM     37  C   UNL A   1      39.532  28.721  29.406  1.00  0.00     0.031 A 
ATOM     38  C   UNL A   1      40.326  29.527  30.398  1.00  0.00     0.074 A 
ATOM     39  C   UNL A   1      40.027  27.565  28.927  1.00  0.00     0.049 A 
ATOM     40  N   UNL A   1      41.512  29.292  30.901  1.00  0.00    -0.248 NA
ATOM     41  C   UNL A   1      39.721  30.785  30.861  1.00  0.00     0.031 C 
ATOM     42  C   UNL A   1      39.382  26.719  27.922  1.00  0.00     0.029 A 
ATOM     43  N   UNL A   1      41.196  26.906  29.216  1.00  0.00    -0.354 N 
ATOM     44  C   UNL A   1      41.798  30.378  31.718  1.00  0.00     0.074 A 
ATOM     45  C   UNL A   1      40.693  31.302  31.596  1.00  0.00     0.031 C 
ATOM     46  C   UNL A   1      40.152  25.643  27.693  1.00  0.00     0.029 A 
ATOM     47  C   UNL A   1      41.357  25.737  28.514  1.00  0.00     0.049 A 
ATOM     48  H   UNL A   1      41.857  27.239  29.866  1.00  0.00     0.167 HD
ATOM     49  C   UNL A   1      42.870  30.575  32.522  1.00  0.00     0.037 A 
ATOM     50  C   UNL A   1      42.362  24.841  28.534  1.00  0.00     0.037 A 
ATOM     51  C   UNL A   1      43.953  29.639  32.669  1.00  0.00     0.049 A 
ATOM     52  C   UNL A   1      43.523  25.061  29.465  1.00  0.00     0.074 A 
ATOM     53  C   UNL A   1      45.068  29.725  33.485  1.00  0.00     0.029 A 
ATOM     54  N   UNL A   1      44.050  28.436  31.984  1.00  0.00    -0.354 N 
ATOM     55  N   UNL A   1      43.757  26.065  30.274  1.00  0.00    -0.248 NA
ATOM     56  C   UNL A   1      44.552  24.011  29.500  1.00  0.00     0.031 C 
ATOM     57  C   UNL A   1      45.853  28.587  33.273  1.00  0.00     0.029 A 
ATOM     58  C   UNL A   1      45.206  27.770  32.360  1.00  0.00     0.049 A 
ATOM     59  H   UNL A   1      43.394  28.105  31.330  1.00  0.00     0.167 HD
ATOM     60  C   UNL A   1      44.937  25.755  30.937  1.00  0.00     0.074 A 
ATOM     61  C   UNL A   1      45.365  24.464  30.444  1.00  0.00     0.031 C 
ATOM     62  C   UNL A   1      45.605  26.476  31.871  1.00  0.00     0.037 A 
BRANCH  49  63
ATOM     63  C   UNL A   1      42.912  31.852  33.312  1.00  0.00     0.064 A 
ATOM     64  C   UNL A   1      42.344  31.941  34.593  1.00  0.00     0.173 A 
ATOM     65  C   UNL A   1      43.533  32.996  32.791  1.00  0.00     0.173 A 
ATOM     66  F   UNL A   1      41.724  30.879  35.132  1.00  0.00    -0.203 F 
ATOM     67  C   UNL A   1      42.363  33.138  35.305  1.00  0.00     0.198 A 
ATOM     68  C   UNL A   1      43.580  34.182  33.521  1.00  0.00     0.198 A 
ATOM     69  F   UNL A   1      44.097  32.965  31.574  1.00  0.00    -0.203 F 
ATOM     70  F   UNL A   1      41.760  33.213  36.500  1.00  0.00    -0.200 F 
ATOM     71  C   UNL A   1      42.986  34.255  34.771  1.00  0.00     0.200 A 
ATOM     72  F   UNL A   1      44.192  35.259  33.008  1.00  0.00    -0.200 F 
ATOM     73  F   UNL A   1      43.005  35.405  35.458  1.00  0.00    -0.200 F 
ENDBRANCH  49  63
BRANCH  50  74
ATOM     74  C   UNL A   1      42.290  23.631  27.676  1.00  0.00     0.064 A 
ATOM     75  C   UNL A   1      41.682  22.456  28.140  1.00  0.00     0.173 A 
ATOM     76  C   UNL A   1      42.817  23.624  26.377  1.00  0.00     0.173 A 
ATOM     77  F   UNL A   1      41.179  22.410  29.382  1.00  0.00    -0.203 F 
ATOM     78  C   UNL A   1      41.623  21.313  27.346  1.00  0.00     0.198 A 
ATOM     79  C   UNL A   1      42.734  22.488  25.573  1.00  0.00     0.198 A 
ATOM     80  F   UNL A   1      43.401  24.726  25.883  1.00  0.00    -0.203 F 
ATOM     81  F   UNL A   1      41.075  20.191  27.830  1.00  0.00    -0.200 F 
ATOM     82  C   UNL A   1      42.145  21.332  26.061  1.00  0.00     0.200 A 
ATOM     83  F   UNL A   1      43.227  22.515  24.327  1.00  0.00    -0.200 F 
ATOM     84  F   UNL A   1      42.084  20.234  25.295  1.00  0.00    -0.200 F 
ENDBRANCH  50  74
BRANCH  62  85
ATOM     85  C   UNL A   1      46.840  25.860  32.460  1.00  0.00     0.064 A 
ATOM     86  C   UNL A   1      46.793  25.068  33.616  1.00  0.00     0.173 A 
ATOM     87  C   UNL A   1      48.085  26.041  31.836  1.00  0.00     0.173 A 
ATOM     88  F   UNL A   1      45.630  24.877  34.256  1.00  0.00    -0.203 F 
ATOM     89  C   UNL A   1      47.952  24.505  34.144  1.00  0.00     0.198 A 
ATOM     90  C   UNL A   1      49.237  25.452  32.350  1.00  0.00     0.198 A 
ATOM     91  F   UNL A   1      48.182  26.784  30.723  1.00  0.00    -0.203 F 
ATOM     92  F   UNL A   1      47.891  23.792  35.277  1.00  0.00    -0.200 F 
ATOM     93  C   UNL A   1      49.170  24.691  33.508  1.00  0.00     0.200 A 
ATOM     94  F   UNL A   1      50.411  25.624  31.728  1.00  0.00    -0.200 F 
ATOM     95  F   UNL A   1      50.283  24.145  34.015  1.00  0.00    -0.200 F 
ENDBRANCH  62  85
ENDBRANCH  36  37
ENDBRANCH  28  31
ENDBRANCH  26  27
ENDBRANCH   1  26
TORSDOF 13
ENDMDL
MODEL 2
REMARK VINA RESULT:     -12.1      2.188      3.300
REMARK SMILES CC[C@H]([NH2+]C1c2ccccc2-c2ccccc21)C(=O)NCCCNC(=O)c1ccc(-c2c3nc(c(-c4c(F)c(F)c(F)c(F)c4F)c4ccc([nH]4)c(-c4c(F)c(F)c(F)c(F)c4F)c4nc(c(-c5c(F)c(F)c(F)c(F)c5F)c5ccc2[nH]5)C=C4)C=C3)cc1
REMARK SMILES IDX 22 1 21 2 20 3 18 4 19 5 3 7 2 8 1 9 4 10 5 13 6 14 17 15
REMARK SMILES IDX 7 16 11 17 12 18 16 19 8 20 10 21 13 22 15 23 9 24 14 25
REMARK SMILES IDX 23 26 24 27 25 28 26 30 27 31 28 32 89 33 29 34 88 35 30 36
REMARK SMILES IDX 31 37 32 38 82 39 33 40 87 41 81 42 83 43 34 44 86 45 80 46
REMARK SMILES IDX 79 47 35 49 67 50 47 51 66 52 48 53 51 54 65 55 84 56 49 57
REMARK SMILES IDX 50 58 64 60 85 61 52 62 36 63 37 64 45 65 38 66 39 67 43 68
REMARK SMILES IDX 46 69 40 70 41 71 44 72 42 73 68 74 69 75 77 76 70 77 71 78
REMARK SMILES IDX 75 79 78 80 72 81 73 82 76 83 74 84 53 85 54 86 62 87 55 88
REMARK SMILES IDX 56 89 60 90 63 91 57 92 58 93 61 94 59 95
REMARK H PARENT 20 6 4 11 4 12 24 29 83 48 51 59
REMARK Flexibility Score: inf
ROOT
ATOM      1  C   UNL A   1      31.871  28.498  25.798  1.00  0.00     0.042 C 
ENDROOT
BRANCH   1   2
ATOM      2  C   UNL A   1      31.974  27.675  27.072  1.00  0.00     0.118 C 
BRANCH   2   3
ATOM      3  N   UNL A   1      31.172  26.464  27.016  1.00  0.00    -0.351 N 
ATOM      4  C   UNL A   1      31.457  25.239  26.475  1.00  0.00     0.278 C 
ATOM      5  O   UNL A   1      30.591  24.364  26.576  1.00  0.00    -0.268 OA
ATOM      6  H   UNL A   1      30.283  26.536  27.432  1.00  0.00     0.163 HD
BRANCH   4   7
ATOM      7  C   UNL A   1      32.841  24.932  25.858  1.00  0.00     0.273 C 
BRANCH   7   8
ATOM      8  C   UNL A   1      32.726  25.144  24.326  1.00  0.00     0.072 C 
ATOM      9  C   UNL A   1      33.673  26.181  23.744  1.00  0.00     0.011 C 
ENDBRANCH   7   8
BRANCH   7  10
ATOM     10  N   UNL A   1      33.282  23.575  26.246  1.00  0.00    -0.326 N 
ATOM     11  H   UNL A   1      32.449  23.026  26.459  1.00  0.00     0.347 HD
ATOM     12  H   UNL A   1      33.912  23.709  27.037  1.00  0.00     0.347 HD
BRANCH  10  13
ATOM     13  C   UNL A   1      34.061  22.836  25.247  1.00  0.00     0.246 C 
ATOM     14  C   UNL A   1      35.570  22.811  25.467  1.00  0.00     0.022 A 
ATOM     15  C   UNL A   1      33.741  21.364  25.028  1.00  0.00     0.022 A 
ATOM     16  C   UNL A   1      36.435  23.861  25.732  1.00  0.00     0.011 A 
ATOM     17  C   UNL A   1      36.056  21.495  25.292  1.00  0.00    -0.008 A 
ATOM     18  C   UNL A   1      34.943  20.616  24.995  1.00  0.00    -0.008 A 
ATOM     19  C   UNL A   1      32.522  20.764  24.754  1.00  0.00     0.011 A 
ATOM     20  C   UNL A   1      37.796  23.581  25.867  1.00  0.00     0.001 A 
ATOM     21  C   UNL A   1      37.409  21.220  25.407  1.00  0.00     0.009 A 
ATOM     22  C   UNL A   1      34.932  19.268  24.672  1.00  0.00     0.009 A 
ATOM     23  C   UNL A   1      32.512  19.402  24.436  1.00  0.00     0.001 A 
ATOM     24  C   UNL A   1      38.280  22.272  25.703  1.00  0.00     0.001 A 
ATOM     25  C   UNL A   1      33.706  18.663  24.387  1.00  0.00     0.001 A 
ENDBRANCH  10  13
ENDBRANCH   7  10
ENDBRANCH   4   7
ENDBRANCH   2   3
ENDBRANCH   1   2
BRANCH   1  26
ATOM     26  C   UNL A   1      33.016  29.481  25.602  1.00  0.00     0.118 C 
BRANCH  26  27
ATOM     27  N   UNL A   1      32.687  30.831  26.039  1.00  0.00    -0.352 N 
ATOM     28  C   UNL A   1      33.228  31.599  27.038  1.00  0.00     0.251 C 
ATOM     29  H   UNL A   1      31.958  31.262  25.536  1.00  0.00     0.163 HD
ATOM     30  O   UNL A   1      32.685  32.663  27.343  1.00  0.00    -0.269 OA
BRANCH  28  31
ATOM     31  C   UNL A   1      34.441  31.166  27.764  1.00  0.00     0.039 A 
ATOM     32  C   UNL A   1      35.486  32.082  27.934  1.00  0.00     0.014 A 
ATOM     33  C   UNL A   1      34.584  29.859  28.236  1.00  0.00     0.014 A 
ATOM     34  C   UNL A   1      36.647  31.699  28.610  1.00  0.00     0.010 A 
ATOM     35  C   UNL A   1      35.700  29.505  28.989  1.00  0.00     0.010 A 
ATOM     36  C   UNL A   1      36.755  30.413  29.161  1.00  0.00    -0.014 A 
BRANCH  36  37
ATOM     37  C   UNL A   1      37.987  29.979  29.866  1.00  0.00     0.031 A 
ATOM     38  C   UNL A   1      38.281  30.497  31.248  1.00  0.00     0.074 A 
ATOM     39  C   UNL A   1      38.866  29.167  29.250  1.00  0.00     0.049 A 
ATOM     40  N   UNL A   1      39.329  30.293  32.007  1.00  0.00    -0.248 NA
ATOM     41  C   UNL A   1      37.277  31.391  31.845  1.00  0.00     0.031 C 
ATOM     42  C   UNL A   1      38.725  28.642  27.892  1.00  0.00     0.029 A 
ATOM     43  N   UNL A   1      40.060  28.647  29.686  1.00  0.00    -0.354 N 
ATOM     44  C   UNL A   1      39.117  31.048  33.154  1.00  0.00     0.074 A 
ATOM     45  C   UNL A   1      37.874  31.762  32.967  1.00  0.00     0.031 C 
ATOM     46  C   UNL A   1      39.780  27.859  27.611  1.00  0.00     0.029 A 
ATOM     47  C   UNL A   1      40.684  27.848  28.760  1.00  0.00     0.049 A 
ATOM     48  H   UNL A   1      40.434  28.830  30.579  1.00  0.00     0.167 HD
ATOM     49  C   UNL A   1      39.874  31.118  34.275  1.00  0.00     0.037 A 
ATOM     50  C   UNL A   1      41.850  27.181  28.831  1.00  0.00     0.037 A 
ATOM     51  C   UNL A   1      41.093  30.380  34.474  1.00  0.00     0.049 A 
ATOM     52  C   UNL A   1      42.654  27.241  30.102  1.00  0.00     0.074 A 
ATOM     53  C   UNL A   1      41.915  30.350  35.587  1.00  0.00     0.029 A 
ATOM     54  N   UNL A   1      41.661  29.533  33.533  1.00  0.00    -0.354 N 
ATOM     55  N   UNL A   1      42.416  27.913  31.201  1.00  0.00    -0.248 NA
ATOM     56  C   UNL A   1      43.879  26.429  30.149  1.00  0.00     0.031 C 
ATOM     57  C   UNL A   1      42.996  29.505  35.309  1.00  0.00     0.029 A 
ATOM     58  C   UNL A   1      42.823  28.975  34.041  1.00  0.00     0.049 A 
ATOM     59  H   UNL A   1      41.292  29.355  32.638  1.00  0.00     0.167 HD
ATOM     60  C   UNL A   1      43.439  27.585  32.080  1.00  0.00     0.074 A 
ATOM     61  C   UNL A   1      44.293  26.641  31.390  1.00  0.00     0.031 C 
ATOM     62  C   UNL A   1      43.650  28.023  33.345  1.00  0.00     0.037 A 
BRANCH  49  63
ATOM     63  C   UNL A   1      39.390  32.017  35.376  1.00  0.00     0.064 A 
ATOM     64  C   UNL A   1      39.771  33.367  35.443  1.00  0.00     0.173 A 
ATOM     65  C   UNL A   1      38.531  31.530  36.372  1.00  0.00     0.173 A 
ATOM     66  F   UNL A   1      40.604  33.879  34.524  1.00  0.00    -0.203 F 
ATOM     67  C   UNL A   1      39.340  34.184  36.485  1.00  0.00     0.198 A 
ATOM     68  C   UNL A   1      38.075  32.360  37.394  1.00  0.00     0.198 A 
ATOM     69  F   UNL A   1      38.131  30.250  36.354  1.00  0.00    -0.203 F 
ATOM     70  F   UNL A   1      39.767  35.452  36.559  1.00  0.00    -0.200 F 
ATOM     71  C   UNL A   1      38.487  33.682  37.456  1.00  0.00     0.200 A 
ATOM     72  F   UNL A   1      37.241  31.876  38.326  1.00  0.00    -0.200 F 
ATOM     73  F   UNL A   1      38.072  34.469  38.457  1.00  0.00    -0.200 F 
ENDBRANCH  49  63
BRANCH  50  74
ATOM     74  C   UNL A   1      42.304  26.361  27.678  1.00  0.00     0.064 A 
ATOM     75  C   UNL A   1      41.763  25.090  27.443  1.00  0.00     0.173 A 
ATOM     76  C   UNL A   1      43.278  26.832  26.787  1.00  0.00     0.173 A 
ATOM     77  F   UNL A   1      40.841  24.591  28.279  1.00  0.00    -0.203 F 
ATOM     78  C   UNL A   1      42.194  24.310  26.372  1.00  0.00     0.198 A 
ATOM     79  C   UNL A   1      43.690  26.062  25.700  1.00  0.00     0.198 A 
ATOM     80  F   UNL A   1      43.821  28.046  26.964  1.00  0.00    -0.203 F 
ATOM     81  F   UNL A   1      41.691  23.081  26.195  1.00  0.00    -0.200 F 
ATOM     82  C   UNL A   1      43.154  24.800  25.499  1.00  0.00     0.200 A 
ATOM     83  F   UNL A   1      44.607  26.544  24.850  1.00  0.00    -0.200 F 
ATOM     84  F   UNL A   1      43.565  24.052  24.466  1.00  0.00    -0.200 F 
ENDBRANCH  50  74
BRANCH  62  85
ATOM     85  C   UNL A   1      44.823  27.447  34.085  1.00  0.00     0.064 A 
ATOM     86  C   UNL A   1      46.087  28.054  34.054  1.00  0.00     0.173 A 
ATOM     87  C   UNL A   1      44.668  26.287  34.859  1.00  0.00     0.173 A 
ATOM     88  F   UNL A   1      46.289  29.157  33.318  1.00  0.00    -0.203 F 
ATOM     89  C   UNL A   1      47.160  27.504  34.750  1.00  0.00     0.198 A 
ATOM     90  C   UNL A   1      45.736  25.756  35.577  1.00  0.00     0.198 A 
ATOM     91  F   UNL A   1      43.477  25.673  34.927  1.00  0.00    -0.203 F 
ATOM     92  F   UNL A   1      48.371  28.073  34.668  1.00  0.00    -0.200 F 
ATOM     93  C   UNL A   1      46.983  26.361  35.514  1.00  0.00     0.200 A 
ATOM     94  F   UNL A   1      45.560  24.658  36.324  1.00  0.00    -0.200 F 
ATOM     95  F   UNL A   1      48.016  25.835  36.185  1.00  0.00    -0.200 F 
ENDBRANCH  62  85
ENDBRANCH  36  37
ENDBRANCH  28  31
ENDBRANCH  26  27
ENDBRANCH   1  26
TORSDOF 13
ENDMDL
MODEL 3
REMARK VINA RESULT:     -12.0      1.175      1.836
REMARK SMILES CC[C@H]([NH2+]C1c2ccccc2-c2ccccc21)C(=O)NCCCNC(=O)c1ccc(-c2c3nc(c(-c4c(F)c(F)c(F)c(F)c4F)c4ccc([nH]4)c(-c4c(F)c(F)c(F)c(F)c4F)c4nc(c(-c5c(F)c(F)c(F)c(F)c5F)c5ccc2[nH]5)C=C4)C=C3)cc1
REMARK SMILES IDX 22 1 21 2 20 3 18 4 19 5 3 7 2 8 1 9 4 10 5 13 6 14 17 15
REMARK SMILES IDX 7 16 11 17 12 18 16 19 8 20 10 21 13 22 15 23 9 24 14 25
REMARK SMILES IDX 23 26 24 27 25 28 26 30 27 31 28 32 89 33 29 34 88 35 30 36
REMARK SMILES IDX 31 37 32 38 82 39 33 40 87 41 81 42 83 43 34 44 86 45 80 46
REMARK SMILES IDX 79 47 35 49 67 50 47 51 66 52 48 53 51 54 65 55 84 56 49 57
REMARK SMILES IDX 50 58 64 60 85 61 52 62 36 63 37 64 45 65 38 66 39 67 43 68
REMARK SMILES IDX 46 69 40 70 41 71 44 72 42 73 68 74 69 75 77 76 70 77 71 78
REMARK SMILES IDX 75 79 78 80 72 81 73 82 76 83 74 84 53 85 54 86 62 87 55 88
REMARK SMILES IDX 56 89 60 90 63 91 57 92 58 93 61 94 59 95
REMARK H PARENT 20 6 4 11 4 12 24 29 83 48 51 59
REMARK Flexibility Score: inf
ROOT
ATOM      1  C   UNL A   1      33.271  27.497  26.527  1.00  0.00     0.042 C 
ENDROOT
BRANCH   1   2
ATOM      2  C   UNL A   1      31.934  27.128  25.902  1.00  0.00     0.118 C 
BRANCH   2   3
ATOM      3  N   UNL A   1      31.242  26.089  26.648  1.00  0.00    -0.351 N 
ATOM      4  C   UNL A   1      31.207  24.735  26.452  1.00  0.00     0.278 C 
ATOM      5  O   UNL A   1      30.542  24.068  27.251  1.00  0.00    -0.268 OA
ATOM      6  H   UNL A   1      30.716  26.411  27.414  1.00  0.00     0.163 HD
BRANCH   4   7
ATOM      7  C   UNL A   1      32.045  24.058  25.343  1.00  0.00     0.273 C 
BRANCH   7   8
ATOM      8  C   UNL A   1      31.061  23.542  24.262  1.00  0.00     0.072 C 
ATOM      9  C   UNL A   1      30.775  24.514  23.130  1.00  0.00     0.011 C 
ENDBRANCH   7   8
BRANCH   7  10
ATOM     10  N   UNL A   1      32.905  23.006  25.926  1.00  0.00    -0.326 N 
ATOM     11  H   UNL A   1      32.297  22.303  26.345  1.00  0.00     0.347 HD
ATOM     12  H   UNL A   1      33.512  23.488  26.589  1.00  0.00     0.347 HD
BRANCH  10  13
ATOM     13  C   UNL A   1      33.809  22.319  24.998  1.00  0.00     0.246 C 
ATOM     14  C   UNL A   1      35.300  22.474  25.283  1.00  0.00     0.022 A 
ATOM     15  C   UNL A   1      33.665  20.814  24.833  1.00  0.00     0.022 A 
ATOM     16  C   UNL A   1      36.029  23.625  25.538  1.00  0.00     0.011 A 
ATOM     17  C   UNL A   1      35.936  21.215  25.190  1.00  0.00    -0.008 A 
ATOM     18  C   UNL A   1      34.943  20.205  24.886  1.00  0.00    -0.008 A 
ATOM     19  C   UNL A   1      32.535  20.069  24.533  1.00  0.00     0.011 A 
ATOM     20  C   UNL A   1      37.405  23.506  25.744  1.00  0.00     0.001 A 
ATOM     21  C   UNL A   1      37.304  21.100  25.377  1.00  0.00     0.009 A 
ATOM     22  C   UNL A   1      35.097  18.852  24.626  1.00  0.00     0.009 A 
ATOM     23  C   UNL A   1      32.691  18.703  24.279  1.00  0.00     0.001 A 
ATOM     24  C   UNL A   1      38.038  22.255  25.662  1.00  0.00     0.001 A 
ATOM     25  C   UNL A   1      33.961  18.101  24.316  1.00  0.00     0.001 A 
ENDBRANCH  10  13
ENDBRANCH   7  10
ENDBRANCH   4   7
ENDBRANCH   2   3
ENDBRANCH   1   2
BRANCH   1  26
ATOM     26  C   UNL A   1      34.023  28.589  25.780  1.00  0.00     0.118 C 
BRANCH  26  27
ATOM     27  N   UNL A   1      33.708  29.927  26.263  1.00  0.00    -0.352 N 
ATOM     28  C   UNL A   1      34.292  30.676  27.251  1.00  0.00     0.251 C 
ATOM     29  H   UNL A   1      32.952  30.364  25.806  1.00  0.00     0.163 HD
ATOM     30  O   UNL A   1      33.759  31.730  27.606  1.00  0.00    -0.269 OA
BRANCH  28  31
ATOM     31  C   UNL A   1      35.542  30.235  27.908  1.00  0.00     0.039 A 
ATOM     32  C   UNL A   1      36.759  30.451  27.252  1.00  0.00     0.014 A 
ATOM     33  C   UNL A   1      35.527  29.569  29.136  1.00  0.00     0.014 A 
ATOM     34  C   UNL A   1      37.955  30.038  27.845  1.00  0.00     0.010 A 
ATOM     35  C   UNL A   1      36.723  29.242  29.769  1.00  0.00     0.010 A 
ATOM     36  C   UNL A   1      37.948  29.449  29.118  1.00  0.00    -0.014 A 
BRANCH  36  37
ATOM     37  C   UNL A   1      39.205  28.986  29.759  1.00  0.00     0.031 A 
ATOM     38  C   UNL A   1      39.708  29.669  31.002  1.00  0.00     0.074 A 
ATOM     39  C   UNL A   1      39.922  27.994  29.198  1.00  0.00     0.049 A 
ATOM     40  N   UNL A   1      40.811  29.462  31.676  1.00  0.00    -0.248 NA
ATOM     41  C   UNL A   1      38.873  30.753  31.542  1.00  0.00     0.031 C 
ATOM     42  C   UNL A   1      39.573  27.290  27.964  1.00  0.00     0.029 A 
ATOM     43  N   UNL A   1      41.101  27.412  29.592  1.00  0.00    -0.354 N 
ATOM     44  C   UNL A   1      40.810  30.401  32.700  1.00  0.00     0.074 A 
ATOM     45  C   UNL A   1      39.630  31.218  32.524  1.00  0.00     0.031 C 
ATOM     46  C   UNL A   1      40.505  26.357  27.712  1.00  0.00     0.029 A 
ATOM     47  C   UNL A   1      41.530  26.415  28.751  1.00  0.00     0.049 A 
ATOM     48  H   UNL A   1      41.592  27.682  30.402  1.00  0.00     0.167 HD
ATOM     49  C   UNL A   1      41.695  30.551  33.714  1.00  0.00     0.037 A 
ATOM     50  C   UNL A   1      42.626  25.636  28.814  1.00  0.00     0.037 A 
ATOM     51  C   UNL A   1      42.850  29.715  33.908  1.00  0.00     0.049 A 
ATOM     52  C   UNL A   1      43.573  25.792  29.972  1.00  0.00     0.074 A 
ATOM     53  C   UNL A   1      43.789  29.757  34.924  1.00  0.00     0.029 A 
ATOM     54  N   UNL A   1      43.218  28.676  33.066  1.00  0.00    -0.354 N 
ATOM     55  N   UNL A   1      43.533  26.646  30.965  1.00  0.00    -0.248 NA
ATOM     56  C   UNL A   1      44.709  24.861  30.029  1.00  0.00     0.031 C 
ATOM     57  C   UNL A   1      44.741  28.761  34.682  1.00  0.00     0.029 A 
ATOM     58  C   UNL A   1      44.371  28.069  33.540  1.00  0.00     0.049 A 
ATOM     59  H   UNL A   1      42.732  28.408  32.253  1.00  0.00     0.167 HD
ATOM     60  C   UNL A   1      44.613  26.337  31.780  1.00  0.00     0.074 A 
ATOM     61  C   UNL A   1      45.284  25.208  31.171  1.00  0.00     0.031 C 
ATOM     62  C   UNL A   1      45.013  26.934  32.930  1.00  0.00     0.037 A 
BRANCH  49  63
ATOM     63  C   UNL A   1      41.434  31.655  34.698  1.00  0.00     0.064 A 
ATOM     64  C   UNL A   1      40.557  31.483  35.780  1.00  0.00     0.173 A 
ATOM     65  C   UNL A   1      42.073  32.897  34.565  1.00  0.00     0.173 A 
ATOM     66  F   UNL A   1      39.908  30.320  35.945  1.00  0.00    -0.203 F 
ATOM     67  C   UNL A   1      40.300  32.524  36.669  1.00  0.00     0.198 A 
ATOM     68  C   UNL A   1      41.840  33.925  35.476  1.00  0.00     0.198 A 
ATOM     69  F   UNL A   1      42.926  33.114  33.552  1.00  0.00    -0.203 F 
ATOM     70  F   UNL A   1      39.412  32.353  37.658  1.00  0.00    -0.200 F 
ATOM     71  C   UNL A   1      40.947  33.741  36.520  1.00  0.00     0.200 A 
ATOM     72  F   UNL A   1      42.473  35.098  35.337  1.00  0.00    -0.200 F 
ATOM     73  F   UNL A   1      40.700  34.741  37.377  1.00  0.00    -0.200 F 
ENDBRANCH  49  63
BRANCH  50  74
ATOM     74  C   UNL A   1      42.859  24.604  27.770  1.00  0.00     0.064 A 
ATOM     75  C   UNL A   1      42.460  23.276  27.970  1.00  0.00     0.173 A 
ATOM     76  C   UNL A   1      43.477  24.924  26.553  1.00  0.00     0.173 A 
ATOM     77  F   UNL A   1      41.880  22.919  29.126  1.00  0.00    -0.203 F 
ATOM     78  C   UNL A   1      42.688  22.301  27.002  1.00  0.00     0.198 A 
ATOM     79  C   UNL A   1      43.682  23.954  25.574  1.00  0.00     0.198 A 
ATOM     80  F   UNL A   1      43.870  26.183  26.310  1.00  0.00    -0.203 F 
ATOM     81  F   UNL A   1      42.335  21.030  27.236  1.00  0.00    -0.200 F 
ATOM     82  C   UNL A   1      43.294  22.643  25.802  1.00  0.00     0.200 A 
ATOM     83  F   UNL A   1      44.254  24.290  24.410  1.00  0.00    -0.200 F 
ATOM     84  F   UNL A   1      43.509  21.706  24.868  1.00  0.00    -0.200 F 
ENDBRANCH  50  74
BRANCH  62  85
ATOM     85  C   UNL A   1      46.200  26.344  33.633  1.00  0.00     0.064 A 
ATOM     86  C   UNL A   1      47.506  26.789  33.379  1.00  0.00     0.173 A 
ATOM     87  C   UNL A   1      46.023  25.340  34.597  1.00  0.00     0.173 A 
ATOM     88  F   UNL A   1      47.729  27.737  32.457  1.00  0.00    -0.203 F 
ATOM     89  C   UNL A   1      48.593  26.229  34.045  1.00  0.00     0.198 A 
ATOM     90  C   UNL A   1      47.109  24.803  35.282  1.00  0.00     0.198 A 
ATOM     91  F   UNL A   1      44.792  24.885  34.881  1.00  0.00    -0.203 F 
ATOM     92  F   UNL A   1      49.837  26.635  33.752  1.00  0.00    -0.200 F 
ATOM     93  C   UNL A   1      48.394  25.242  34.999  1.00  0.00     0.200 A 
ATOM     94  F   UNL A   1      46.914  23.858  36.211  1.00  0.00    -0.200 F 
ATOM     95  F   UNL A   1      49.441  24.707  35.640  1.00  0.00    -0.200 F 
ENDBRANCH  62  85
ENDBRANCH  36  37
ENDBRANCH  28  31
ENDBRANCH  26  27
ENDBRANCH   1  26
TORSDOF 13
ENDMDL
