MODEL 1
REMARK VINA RESULT:     -11.5      0.000      0.000
REMARK SMILES O=C(CSc1ccc2ccccc2c1)NCCCNC(=O)c1ccc(-c2c3nc(c(-c4c(F)c(F)c(F)c(F)c4F)c4ccc([nH]4)c(-c4c(F)c(F)c(F)c(F)c4F)c4nc(c(-c5c(F)c(F)c(F)c(F)c5F)c5ccc2[nH]5)C=C4)C=C3)cc1
REMARK SMILES IDX 17 1 16 2 15 3 1 4 2 5 3 7 4 8 5 9 6 10 14 11 7 12 13 13
REMARK SMILES IDX 8 14 12 15 9 16 11 17 10 18 18 19 19 20 20 21 21 23 22 24
REMARK SMILES IDX 23 25 84 26 24 27 83 28 25 29 26 30 27 31 77 32 28 33 82 34
REMARK SMILES IDX 76 35 78 36 29 37 81 38 75 39 74 40 30 42 62 43 42 44 61 45
REMARK SMILES IDX 43 46 46 47 60 48 79 49 44 50 45 51 59 53 80 54 47 55 31 56
REMARK SMILES IDX 32 57 40 58 33 59 34 60 38 61 41 62 35 63 36 64 39 65 37 66
REMARK SMILES IDX 63 67 64 68 72 69 65 70 66 71 70 72 73 73 67 74 68 75 71 76
REMARK SMILES IDX 69 77 48 78 49 79 57 80 50 81 51 82 55 83 58 84 52 85 53 86
REMARK SMILES IDX 56 87 54 88
REMARK H PARENT 15 6 19 22 78 41 46 52
REMARK Flexibility Score: inf
ROOT
ATOM      1  C   UNL A   1      35.163  33.317  28.063  1.00  0.00     0.042 C 
ENDROOT
BRANCH   1   2
ATOM      2  C   UNL A   1      34.445  34.659  27.975  1.00  0.00     0.117 C 
BRANCH   2   3
ATOM      3  N   UNL A   1      34.334  35.316  29.261  1.00  0.00    -0.355 N 
ATOM      4  O   UNL A   1      32.324  36.342  28.850  1.00  0.00    -0.274 OA
ATOM      5  C   UNL A   1      33.243  36.079  29.622  1.00  0.00     0.230 C 
ATOM      6  H   UNL A   1      35.070  35.214  29.906  1.00  0.00     0.163 HD
BRANCH   5   7
ATOM      7  C   UNL A   1      33.306  36.674  31.020  1.00  0.00     0.174 C 
BRANCH   7   8
ATOM      8  S   UNL A   1      32.500  35.620  32.276  1.00  0.00    -0.116 SA
BRANCH   8   9
ATOM      9  C   UNL A   1      33.901  34.751  32.966  1.00  0.00     0.008 A 
ATOM     10  C   UNL A   1      34.651  35.265  34.024  1.00  0.00     0.016 A 
ATOM     11  C   UNL A   1      34.283  33.537  32.385  1.00  0.00     0.023 A 
ATOM     12  C   UNL A   1      35.758  34.564  34.513  1.00  0.00     0.010 A 
ATOM     13  C   UNL A   1      35.394  32.819  32.864  1.00  0.00    -0.017 A 
ATOM     14  C   UNL A   1      36.141  33.340  33.943  1.00  0.00    -0.018 A 
ATOM     15  C   UNL A   1      35.782  31.596  32.289  1.00  0.00     0.009 A 
ATOM     16  C   UNL A   1      37.253  32.627  34.419  1.00  0.00     0.009 A 
ATOM     17  C   UNL A   1      36.890  30.899  32.773  1.00  0.00     0.001 A 
ATOM     18  C   UNL A   1      37.625  31.414  33.836  1.00  0.00     0.001 A 
ENDBRANCH   8   9
ENDBRANCH   7   8
ENDBRANCH   5   7
ENDBRANCH   2   3
ENDBRANCH   1   2
BRANCH   1  19
ATOM     19  C   UNL A   1      34.438  32.264  28.895  1.00  0.00     0.118 C 
BRANCH  19  20
ATOM     20  N   UNL A   1      34.019  31.101  28.121  1.00  0.00    -0.352 N 
ATOM     21  C   UNL A   1      34.727  29.986  27.740  1.00  0.00     0.251 C 
ATOM     22  H   UNL A   1      33.080  31.118  27.824  1.00  0.00     0.163 HD
ATOM     23  O   UNL A   1      34.216  29.169  26.979  1.00  0.00    -0.269 OA
BRANCH  21  24
ATOM     24  C   UNL A   1      36.113  29.777  28.214  1.00  0.00     0.039 A 
ATOM     25  C   UNL A   1      36.315  29.276  29.504  1.00  0.00     0.014 A 
ATOM     26  C   UNL A   1      37.209  30.076  27.402  1.00  0.00     0.014 A 
ATOM     27  C   UNL A   1      37.610  28.986  29.944  1.00  0.00     0.010 A 
ATOM     28  C   UNL A   1      38.492  29.725  27.814  1.00  0.00     0.010 A 
ATOM     29  C   UNL A   1      38.705  29.162  29.084  1.00  0.00    -0.014 A 
BRANCH  29  30
ATOM     30  C   UNL A   1      40.078  28.742  29.468  1.00  0.00     0.031 A 
ATOM     31  C   UNL A   1      40.946  29.656  30.286  1.00  0.00     0.074 A 
ATOM     32  C   UNL A   1      40.578  27.585  28.994  1.00  0.00     0.049 A 
ATOM     33  N   UNL A   1      42.215  29.544  30.588  1.00  0.00    -0.248 NA
ATOM     34  C   UNL A   1      40.307  30.872  30.812  1.00  0.00     0.031 C 
ATOM     35  C   UNL A   1      39.850  26.623  28.166  1.00  0.00     0.029 A 
ATOM     36  N   UNL A   1      41.830  27.032  29.120  1.00  0.00    -0.354 N 
ATOM     37  C   UNL A   1      42.532  30.682  31.317  1.00  0.00     0.074 A 
ATOM     38  C   UNL A   1      41.333  31.491  31.380  1.00  0.00     0.031 C 
ATOM     39  C   UNL A   1      40.661  25.598  27.863  1.00  0.00     0.029 A 
ATOM     40  C   UNL A   1      41.981  25.851  28.433  1.00  0.00     0.049 A 
ATOM     41  H   UNL A   1      42.550  27.442  29.652  1.00  0.00     0.167 HD
ATOM     42  C   UNL A   1      43.711  31.014  31.895  1.00  0.00     0.037 A 
ATOM     43  C   UNL A   1      43.067  25.072  28.261  1.00  0.00     0.037 A 
ATOM     44  C   UNL A   1      44.894  30.195  31.853  1.00  0.00     0.049 A 
ATOM     45  C   UNL A   1      44.371  25.473  28.897  1.00  0.00     0.074 A 
ATOM     46  C   UNL A   1      46.120  30.420  32.454  1.00  0.00     0.029 A 
ATOM     47  N   UNL A   1      44.999  28.991  31.170  1.00  0.00    -0.354 N 
ATOM     48  N   UNL A   1      44.645  26.526  29.627  1.00  0.00    -0.248 NA
ATOM     49  C   UNL A   1      45.516  24.577  28.685  1.00  0.00     0.031 C 
ATOM     50  C   UNL A   1      46.981  29.376  32.097  1.00  0.00     0.029 A 
ATOM     51  C   UNL A   1      46.275  28.474  31.318  1.00  0.00     0.049 A 
ATOM     52  H   UNL A   1      44.273  28.569  30.656  1.00  0.00     0.167 HD
ATOM     53  C   UNL A   1      45.979  26.401  29.992  1.00  0.00     0.074 A 
ATOM     54  C   UNL A   1      46.460  25.168  29.404  1.00  0.00     0.031 C 
ATOM     55  C   UNL A   1      46.735  27.233  30.748  1.00  0.00     0.037 A 
BRANCH  42  56
ATOM     56  C   UNL A   1      43.784  32.324  32.624  1.00  0.00     0.064 A 
ATOM     57  C   UNL A   1      44.155  33.510  31.972  1.00  0.00     0.173 A 
ATOM     58  C   UNL A   1      43.435  32.404  33.981  1.00  0.00     0.173 A 
ATOM     59  F   UNL A   1      44.506  33.486  30.676  1.00  0.00    -0.203 F 
ATOM     60  C   UNL A   1      44.203  34.720  32.657  1.00  0.00     0.198 A 
ATOM     61  C   UNL A   1      43.455  33.622  34.656  1.00  0.00     0.198 A 
ATOM     62  F   UNL A   1      43.065  31.302  34.650  1.00  0.00    -0.203 F 
ATOM     63  F   UNL A   1      44.606  35.831  32.025  1.00  0.00    -0.200 F 
ATOM     64  C   UNL A   1      43.845  34.777  33.996  1.00  0.00     0.200 A 
ATOM     65  F   UNL A   1      43.095  33.677  35.945  1.00  0.00    -0.200 F 
ATOM     66  F   UNL A   1      43.883  35.944  34.652  1.00  0.00    -0.200 F 
ENDBRANCH  42  56
BRANCH  43  67
ATOM     67  C   UNL A   1      42.965  23.824  27.461  1.00  0.00     0.064 A 
ATOM     68  C   UNL A   1      42.522  22.630  28.045  1.00  0.00     0.173 A 
ATOM     69  C   UNL A   1      43.310  23.796  26.100  1.00  0.00     0.173 A 
ATOM     70  F   UNL A   1      42.202  22.601  29.347  1.00  0.00    -0.203 F 
ATOM     71  C   UNL A   1      42.446  21.451  27.306  1.00  0.00     0.198 A 
ATOM     72  C   UNL A   1      43.206  22.624  25.356  1.00  0.00     0.198 A 
ATOM     73  F   UNL A   1      43.735  24.913  25.493  1.00  0.00    -0.203 F 
ATOM     74  F   UNL A   1      42.063  20.313  27.902  1.00  0.00    -0.200 F 
ATOM     75  C   UNL A   1      42.782  21.451  25.961  1.00  0.00     0.200 A 
ATOM     76  F   UNL A   1      43.519  22.630  24.053  1.00  0.00    -0.200 F 
ATOM     77  F   UNL A   1      42.705  20.317  25.250  1.00  0.00    -0.200 F 
ENDBRANCH  43  67
BRANCH  55  78
ATOM     78  C   UNL A   1      48.147  26.819  31.038  1.00  0.00     0.064 A 
ATOM     79  C   UNL A   1      48.462  25.966  32.106  1.00  0.00     0.173 A 
ATOM     80  C   UNL A   1      49.189  27.229  30.193  1.00  0.00     0.173 A 
ATOM     81  F   UNL A   1      47.503  25.559  32.951  1.00  0.00    -0.203 F 
ATOM     82  C   UNL A   1      49.773  25.550  32.324  1.00  0.00     0.198 A 
ATOM     83  C   UNL A   1      50.494  26.789  30.398  1.00  0.00     0.198 A 
ATOM     84  F   UNL A   1      48.938  28.039  29.154  1.00  0.00    -0.203 F 
ATOM     85  F   UNL A   1      50.059  24.763  33.371  1.00  0.00    -0.200 F 
ATOM     86  C   UNL A   1      50.785  25.953  31.466  1.00  0.00     0.200 A 
ATOM     87  F   UNL A   1      51.467  27.168  29.559  1.00  0.00    -0.200 F 
ATOM     88  F   UNL A   1      52.044  25.539  31.670  1.00  0.00    -0.200 F 
ENDBRANCH  55  78
ENDBRANCH  29  30
ENDBRANCH  21  24
ENDBRANCH  19  20
ENDBRANCH   1  19
TORSDOF 12
ENDMDL
MODEL 2
REMARK VINA RESULT:     -11.5      1.421      2.364
REMARK SMILES O=C(CSc1ccc2ccccc2c1)NCCCNC(=O)c1ccc(-c2c3nc(c(-c4c(F)c(F)c(F)c(F)c4F)c4ccc([nH]4)c(-c4c(F)c(F)c(F)c(F)c4F)c4nc(c(-c5c(F)c(F)c(F)c(F)c5F)c5ccc2[nH]5)C=C4)C=C3)cc1
REMARK SMILES IDX 17 1 16 2 15 3 1 4 2 5 3 7 4 8 5 9 6 10 14 11 7 12 13 13
REMARK SMILES IDX 8 14 12 15 9 16 11 17 10 18 18 19 19 20 20 21 21 23 22 24
REMARK SMILES IDX 23 25 84 26 24 27 83 28 25 29 26 30 27 31 77 32 28 33 82 34
REMARK SMILES IDX 76 35 78 36 29 37 81 38 75 39 74 40 30 42 62 43 42 44 61 45
REMARK SMILES IDX 43 46 46 47 60 48 79 49 44 50 45 51 59 53 80 54 47 55 31 56
REMARK SMILES IDX 32 57 40 58 33 59 34 60 38 61 41 62 35 63 36 64 39 65 37 66
REMARK SMILES IDX 63 67 64 68 72 69 65 70 66 71 70 72 73 73 67 74 68 75 71 76
REMARK SMILES IDX 69 77 48 78 49 79 57 80 50 81 51 82 55 83 58 84 52 85 53 86
REMARK SMILES IDX 56 87 54 88
REMARK H PARENT 15 6 19 22 78 41 46 52
REMARK Flexibility Score: inf
ROOT
ATOM      1  C   UNL A   1      34.014  34.380  28.129  1.00  0.00     0.042 C 
ENDROOT
BRANCH   1   2
ATOM      2  C   UNL A   1      33.665  34.924  29.509  1.00  0.00     0.117 C 
BRANCH   2   3
ATOM      3  N   UNL A   1      34.792  34.903  30.418  1.00  0.00    -0.355 N 
ATOM      4  O   UNL A   1      33.745  33.744  32.097  1.00  0.00    -0.274 OA
ATOM      5  C   UNL A   1      34.760  34.264  31.639  1.00  0.00     0.230 C 
ATOM      6  H   UNL A   1      35.619  35.367  30.152  1.00  0.00     0.163 HD
BRANCH   5   7
ATOM      7  C   UNL A   1      36.048  34.343  32.443  1.00  0.00     0.174 C 
BRANCH   7   8
ATOM      8  S   UNL A   1      35.945  33.454  34.037  1.00  0.00    -0.116 SA
BRANCH   8   9
ATOM      9  C   UNL A   1      37.297  32.295  33.888  1.00  0.00     0.008 A 
ATOM     10  C   UNL A   1      38.602  32.619  34.260  1.00  0.00     0.016 A 
ATOM     11  C   UNL A   1      37.037  31.038  33.330  1.00  0.00     0.023 A 
ATOM     12  C   UNL A   1      39.634  31.689  34.098  1.00  0.00     0.010 A 
ATOM     13  C   UNL A   1      38.064  30.092  33.160  1.00  0.00    -0.017 A 
ATOM     14  C   UNL A   1      39.380  30.422  33.551  1.00  0.00    -0.018 A 
ATOM     15  C   UNL A   1      37.811  28.825  32.606  1.00  0.00     0.009 A 
ATOM     16  C   UNL A   1      40.407  29.480  33.376  1.00  0.00     0.009 A 
ATOM     17  C   UNL A   1      38.843  27.900  32.439  1.00  0.00     0.001 A 
ATOM     18  C   UNL A   1      40.139  28.227  32.823  1.00  0.00     0.001 A 
ENDBRANCH   8   9
ENDBRANCH   7   8
ENDBRANCH   5   7
ENDBRANCH   2   3
ENDBRANCH   1   2
BRANCH   1  19
ATOM     19  C   UNL A   1      34.752  33.045  28.143  1.00  0.00     0.118 C 
BRANCH  19  20
ATOM     20  N   UNL A   1      33.897  31.907  27.824  1.00  0.00    -0.352 N 
ATOM     21  C   UNL A   1      34.205  30.572  27.702  1.00  0.00     0.251 C 
ATOM     22  H   UNL A   1      32.951  32.130  27.672  1.00  0.00     0.163 HD
ATOM     23  O   UNL A   1      33.352  29.783  27.304  1.00  0.00    -0.269 OA
BRANCH  21  24
ATOM     24  C   UNL A   1      35.565  30.082  28.017  1.00  0.00     0.039 A 
ATOM     25  C   UNL A   1      36.525  30.062  27.000  1.00  0.00     0.014 A 
ATOM     26  C   UNL A   1      35.897  29.640  29.298  1.00  0.00     0.014 A 
ATOM     27  C   UNL A   1      37.840  29.688  27.290  1.00  0.00     0.010 A 
ATOM     28  C   UNL A   1      37.221  29.332  29.603  1.00  0.00     0.010 A 
ATOM     29  C   UNL A   1      38.210  29.367  28.606  1.00  0.00    -0.014 A 
BRANCH  29  30
ATOM     30  C   UNL A   1      39.623  29.093  28.977  1.00  0.00     0.031 A 
ATOM     31  C   UNL A   1      40.437  30.144  29.677  1.00  0.00     0.074 A 
ATOM     32  C   UNL A   1      40.202  27.939  28.593  1.00  0.00     0.049 A 
ATOM     33  N   UNL A   1      41.719  30.161  29.942  1.00  0.00    -0.248 NA
ATOM     34  C   UNL A   1      39.717  31.351  30.112  1.00  0.00     0.031 C 
ATOM     35  C   UNL A   1      39.530  26.850  27.882  1.00  0.00     0.029 A 
ATOM     36  N   UNL A   1      41.497  27.499  28.724  1.00  0.00    -0.354 N 
ATOM     37  C   UNL A   1      41.963  31.383  30.552  1.00  0.00     0.074 A 
ATOM     38  C   UNL A   1      40.705  32.099  30.584  1.00  0.00     0.031 C 
ATOM     39  C   UNL A   1      40.412  25.867  27.645  1.00  0.00     0.029 A 
ATOM     40  C   UNL A   1      41.724  26.275  28.143  1.00  0.00     0.049 A 
ATOM     41  H   UNL A   1      42.196  28.013  29.190  1.00  0.00     0.167 HD
ATOM     42  C   UNL A   1      43.128  31.858  31.055  1.00  0.00     0.037 A 
ATOM     43  C   UNL A   1      42.863  25.570  28.004  1.00  0.00     0.037 A 
ATOM     44  C   UNL A   1      44.372  31.134  31.045  1.00  0.00     0.049 A 
ATOM     45  C   UNL A   1      44.148  26.129  28.552  1.00  0.00     0.074 A 
ATOM     46  C   UNL A   1      45.592  31.509  31.578  1.00  0.00     0.029 A 
ATOM     47  N   UNL A   1      44.554  29.884  30.471  1.00  0.00    -0.354 N 
ATOM     48  N   UNL A   1      44.357  27.264  29.173  1.00  0.00    -0.248 NA
ATOM     49  C   UNL A   1      45.355  25.309  28.382  1.00  0.00     0.031 C 
ATOM     50  C   UNL A   1      46.524  30.507  31.287  1.00  0.00     0.029 A 
ATOM     51  C   UNL A   1      45.872  29.483  30.620  1.00  0.00     0.049 A 
ATOM     52  H   UNL A   1      43.851  29.359  30.025  1.00  0.00     0.167 HD
ATOM     53  C   UNL A   1      45.706  27.278  29.500  1.00  0.00     0.074 A 
ATOM     54  C   UNL A   1      46.268  26.038  29.010  1.00  0.00     0.031 C 
ATOM     55  C   UNL A   1      46.414  28.234  30.149  1.00  0.00     0.037 A 
BRANCH  42  56
ATOM     56  C   UNL A   1      43.116  33.233  31.657  1.00  0.00     0.064 A 
ATOM     57  C   UNL A   1      42.961  33.431  33.037  1.00  0.00     0.173 A 
ATOM     58  C   UNL A   1      43.308  34.365  30.850  1.00  0.00     0.173 A 
ATOM     59  F   UNL A   1      42.765  32.383  33.852  1.00  0.00    -0.203 F 
ATOM     60  C   UNL A   1      42.968  34.712  33.583  1.00  0.00     0.198 A 
ATOM     61  C   UNL A   1      43.346  35.643  31.404  1.00  0.00     0.198 A 
ATOM     62  F   UNL A   1      43.470  34.232  29.525  1.00  0.00    -0.203 F 
ATOM     63  F   UNL A   1      42.770  34.880  34.898  1.00  0.00    -0.200 F 
ATOM     64  C   UNL A   1      43.169  35.816  32.768  1.00  0.00     0.200 A 
ATOM     65  F   UNL A   1      43.554  36.706  30.616  1.00  0.00    -0.200 F 
ATOM     66  F   UNL A   1      43.185  37.046  33.296  1.00  0.00    -0.200 F 
ENDBRANCH  42  56
BRANCH  43  67
ATOM     67  C   UNL A   1      42.840  24.249  27.324  1.00  0.00     0.064 A 
ATOM     68  C   UNL A   1      42.520  23.083  28.033  1.00  0.00     0.173 A 
ATOM     69  C   UNL A   1      43.139  24.121  25.959  1.00  0.00     0.173 A 
ATOM     70  F   UNL A   1      42.249  23.150  29.344  1.00  0.00    -0.203 F 
ATOM     71  C   UNL A   1      42.519  21.837  27.407  1.00  0.00     0.198 A 
ATOM     72  C   UNL A   1      43.110  22.880  25.329  1.00  0.00     0.198 A 
ATOM     73  F   UNL A   1      43.447  25.207  25.235  1.00  0.00    -0.203 F 
ATOM     74  F   UNL A   1      42.255  20.733  28.120  1.00  0.00    -0.200 F 
ATOM     75  C   UNL A   1      42.807  21.738  26.055  1.00  0.00     0.200 A 
ATOM     76  F   UNL A   1      43.375  22.789  24.018  1.00  0.00    -0.200 F 
ATOM     77  F   UNL A   1      42.802  20.540  25.453  1.00  0.00    -0.200 F 
ENDBRANCH  43  67
BRANCH  55  78
ATOM     78  C   UNL A   1      47.862  27.960  30.425  1.00  0.00     0.064 A 
ATOM     79  C   UNL A   1      48.280  27.286  31.582  1.00  0.00     0.173 A 
ATOM     80  C   UNL A   1      48.839  28.319  29.484  1.00  0.00     0.173 A 
ATOM     81  F   UNL A   1      47.387  26.937  32.519  1.00  0.00    -0.203 F 
ATOM     82  C   UNL A   1      49.625  26.994  31.791  1.00  0.00     0.198 A 
ATOM     83  C   UNL A   1      50.180  28.001  29.683  1.00  0.00     0.198 A 
ATOM     84  F   UNL A   1      48.490  28.959  28.358  1.00  0.00    -0.203 F 
ATOM     85  F   UNL A   1      50.008  26.381  32.921  1.00  0.00    -0.200 F 
ATOM     86  C   UNL A   1      50.572  27.342  30.839  1.00  0.00     0.200 A 
ATOM     87  F   UNL A   1      51.090  28.325  28.756  1.00  0.00    -0.200 F 
ATOM     88  F   UNL A   1      51.864  27.047  31.037  1.00  0.00    -0.200 F 
ENDBRANCH  55  78
ENDBRANCH  29  30
ENDBRANCH  21  24
ENDBRANCH  19  20
ENDBRANCH   1  19
TORSDOF 12
ENDMDL
MODEL 3
REMARK VINA RESULT:     -11.4      4.018      6.716
REMARK SMILES O=C(CSc1ccc2ccccc2c1)NCCCNC(=O)c1ccc(-c2c3nc(c(-c4c(F)c(F)c(F)c(F)c4F)c4ccc([nH]4)c(-c4c(F)c(F)c(F)c(F)c4F)c4nc(c(-c5c(F)c(F)c(F)c(F)c5F)c5ccc2[nH]5)C=C4)C=C3)cc1
REMARK SMILES IDX 17 1 16 2 15 3 1 4 2 5 3 7 4 8 5 9 6 10 14 11 7 12 13 13
REMARK SMILES IDX 8 14 12 15 9 16 11 17 10 18 18 19 19 20 20 21 21 23 22 24
REMARK SMILES IDX 23 25 84 26 24 27 83 28 25 29 26 30 27 31 77 32 28 33 82 34
REMARK SMILES IDX 76 35 78 36 29 37 81 38 75 39 74 40 30 42 62 43 42 44 61 45
REMARK SMILES IDX 43 46 46 47 60 48 79 49 44 50 45 51 59 53 80 54 47 55 31 56
REMARK SMILES IDX 32 57 40 58 33 59 34 60 38 61 41 62 35 63 36 64 39 65 37 66
REMARK SMILES IDX 63 67 64 68 72 69 65 70 66 71 70 72 73 73 67 74 68 75 71 76
REMARK SMILES IDX 69 77 48 78 49 79 57 80 50 81 51 82 55 83 58 84 52 85 53 86
REMARK SMILES IDX 56 87 54 88
REMARK H PARENT 15 6 19 22 78 41 46 52
REMARK Flexibility Score: inf
ROOT
ATOM      1  C   UNL A   1      33.419  34.577  29.092  1.00  0.00     0.042 C 
ENDROOT
BRANCH   1   2
ATOM      2  C   UNL A   1      34.408  34.250  27.981  1.00  0.00     0.117 C 
BRANCH   2   3
ATOM      3  N   UNL A   1      35.782  34.249  28.440  1.00  0.00    -0.355 N 
ATOM      4  O   UNL A   1      36.190  32.032  28.016  1.00  0.00    -0.274 OA
ATOM      5  C   UNL A   1      36.593  33.135  28.377  1.00  0.00     0.230 C 
ATOM      6  H   UNL A   1      36.153  35.080  28.815  1.00  0.00     0.163 HD
BRANCH   5   7
ATOM      7  C   UNL A   1      38.008  33.338  28.895  1.00  0.00     0.174 C 
BRANCH   7   8
ATOM      8  S   UNL A   1      38.089  34.508  30.296  1.00  0.00    -0.116 SA
BRANCH   8   9
ATOM      9  C   UNL A   1      39.609  34.009  31.092  1.00  0.00     0.008 A 
ATOM     10  C   UNL A   1      40.453  33.040  30.548  1.00  0.00     0.016 A 
ATOM     11  C   UNL A   1      39.931  34.578  32.329  1.00  0.00     0.023 A 
ATOM     12  C   UNL A   1      41.618  32.659  31.221  1.00  0.00     0.010 A 
ATOM     13  C   UNL A   1      41.099  34.206  33.019  1.00  0.00    -0.017 A 
ATOM     14  C   UNL A   1      41.954  33.233  32.456  1.00  0.00    -0.018 A 
ATOM     15  C   UNL A   1      41.433  34.777  34.259  1.00  0.00     0.009 A 
ATOM     16  C   UNL A   1      43.118  32.857  33.147  1.00  0.00     0.009 A 
ATOM     17  C   UNL A   1      42.593  34.393  34.933  1.00  0.00     0.001 A 
ATOM     18  C   UNL A   1      43.434  33.433  34.378  1.00  0.00     0.001 A 
ENDBRANCH   8   9
ENDBRANCH   7   8
ENDBRANCH   5   7
ENDBRANCH   2   3
ENDBRANCH   1   2
BRANCH   1  19
ATOM     19  C   UNL A   1      33.477  36.020  29.587  1.00  0.00     0.118 C 
BRANCH  19  20
ATOM     20  N   UNL A   1      32.497  36.316  30.626  1.00  0.00    -0.352 N 
ATOM     21  C   UNL A   1      32.459  35.933  31.946  1.00  0.00     0.251 C 
ATOM     22  H   UNL A   1      31.744  36.880  30.336  1.00  0.00     0.163 HD
ATOM     23  O   UNL A   1      31.473  36.193  32.629  1.00  0.00    -0.269 OA
BRANCH  21  24
ATOM     24  C   UNL A   1      33.585  35.180  32.543  1.00  0.00     0.039 A 
ATOM     25  C   UNL A   1      33.394  33.835  32.876  1.00  0.00     0.014 A 
ATOM     26  C   UNL A   1      34.818  35.789  32.781  1.00  0.00     0.014 A 
ATOM     27  C   UNL A   1      34.465  33.078  33.359  1.00  0.00     0.010 A 
ATOM     28  C   UNL A   1      35.901  35.020  33.198  1.00  0.00     0.010 A 
ATOM     29  C   UNL A   1      35.740  33.652  33.477  1.00  0.00    -0.014 A 
BRANCH  29  30
ATOM     30  C   UNL A   1      36.929  32.847  33.860  1.00  0.00     0.031 A 
ATOM     31  C   UNL A   1      37.686  33.168  35.118  1.00  0.00     0.074 A 
ATOM     32  C   UNL A   1      37.388  31.895  33.024  1.00  0.00     0.049 A 
ATOM     33  N   UNL A   1      38.830  32.693  35.542  1.00  0.00    -0.248 NA
ATOM     34  C   UNL A   1      37.089  34.180  36.003  1.00  0.00     0.031 C 
ATOM     35  C   UNL A   1      36.762  31.507  31.758  1.00  0.00     0.029 A 
ATOM     36  N   UNL A   1      38.503  31.097  33.100  1.00  0.00    -0.354 N 
ATOM     37  C   UNL A   1      39.100  33.361  36.728  1.00  0.00     0.074 A 
ATOM     38  C   UNL A   1      38.022  34.304  36.937  1.00  0.00     0.031 C 
ATOM     39  C   UNL A   1      37.497  30.544  31.181  1.00  0.00     0.029 A 
ATOM     40  C   UNL A   1      38.670  30.279  32.009  1.00  0.00     0.049 A 
ATOM     41  H   UNL A   1      39.124  31.109  33.865  1.00  0.00     0.167 HD
ATOM     42  C   UNL A   1      40.145  33.192  37.573  1.00  0.00     0.037 A 
ATOM     43  C   UNL A   1      39.668  29.428  31.697  1.00  0.00     0.037 A 
ATOM     44  C   UNL A   1      41.203  32.236  37.376  1.00  0.00     0.049 A 
ATOM     45  C   UNL A   1      40.828  29.274  32.643  1.00  0.00     0.074 A 
ATOM     46  C   UNL A   1      42.275  31.953  38.203  1.00  0.00     0.029 A 
ATOM     47  N   UNL A   1      41.321  31.405  36.270  1.00  0.00    -0.354 N 
ATOM     48  N   UNL A   1      41.047  29.875  33.787  1.00  0.00    -0.248 NA
ATOM     49  C   UNL A   1      41.879  28.323  32.255  1.00  0.00     0.031 C 
ATOM     50  C   UNL A   1      43.067  30.985  37.578  1.00  0.00     0.029 A 
ATOM     51  C   UNL A   1      42.460  30.625  36.386  1.00  0.00     0.049 A 
ATOM     52  H   UNL A   1      40.689  31.376  35.516  1.00  0.00     0.167 HD
ATOM     53  C   UNL A   1      42.238  29.350  34.272  1.00  0.00     0.074 A 
ATOM     54  C   UNL A   1      42.694  28.379  33.300  1.00  0.00     0.031 C 
ATOM     55  C   UNL A   1      42.891  29.645  35.422  1.00  0.00     0.037 A 
BRANCH  42  56
ATOM     56  C   UNL A   1      40.201  34.065  38.793  1.00  0.00     0.064 A 
ATOM     57  C   UNL A   1      40.832  35.318  38.775  1.00  0.00     0.173 A 
ATOM     58  C   UNL A   1      39.576  33.664  39.984  1.00  0.00     0.173 A 
ATOM     59  F   UNL A   1      41.452  35.745  37.663  1.00  0.00    -0.203 F 
ATOM     60  C   UNL A   1      40.861  36.123  39.910  1.00  0.00     0.198 A 
ATOM     61  C   UNL A   1      39.581  34.485  41.109  1.00  0.00     0.198 A 
ATOM     62  F   UNL A   1      38.951  32.479  40.054  1.00  0.00    -0.203 F 
ATOM     63  F   UNL A   1      41.511  37.295  39.882  1.00  0.00    -0.200 F 
ATOM     64  C   UNL A   1      40.229  35.710  41.073  1.00  0.00     0.200 A 
ATOM     65  F   UNL A   1      38.957  34.090  42.227  1.00  0.00    -0.200 F 
ATOM     66  F   UNL A   1      40.251  36.490  42.162  1.00  0.00    -0.200 F 
ENDBRANCH  42  56
BRANCH  43  67
ATOM     67  C   UNL A   1      39.609  28.646  30.435  1.00  0.00     0.064 A 
ATOM     68  C   UNL A   1      39.057  27.358  30.414  1.00  0.00     0.173 A 
ATOM     69  C   UNL A   1      40.103  29.164  29.228  1.00  0.00     0.173 A 
ATOM     70  F   UNL A   1      38.591  26.812  31.546  1.00  0.00    -0.203 F 
ATOM     71  C   UNL A   1      39.019  26.610  29.238  1.00  0.00     0.198 A 
ATOM     72  C   UNL A   1      40.039  28.426  28.049  1.00  0.00     0.198 A 
ATOM     73  F   UNL A   1      40.638  30.394  29.194  1.00  0.00    -0.203 F 
ATOM     74  F   UNL A   1      38.528  25.363  29.257  1.00  0.00    -0.200 F 
ATOM     75  C   UNL A   1      39.504  27.147  28.057  1.00  0.00     0.200 A 
ATOM     76  F   UNL A   1      40.496  28.954  26.905  1.00  0.00    -0.200 F 
ATOM     77  F   UNL A   1      39.464  26.428  26.926  1.00  0.00    -0.200 F 
ENDBRANCH  43  67
BRANCH  55  78
ATOM     78  C   UNL A   1      44.140  28.874  35.729  1.00  0.00     0.064 A 
ATOM     79  C   UNL A   1      44.106  27.662  36.435  1.00  0.00     0.173 A 
ATOM     80  C   UNL A   1      45.381  29.323  35.252  1.00  0.00     0.173 A 
ATOM     81  F   UNL A   1      42.947  27.199  36.925  1.00  0.00    -0.203 F 
ATOM     82  C   UNL A   1      45.271  26.935  36.662  1.00  0.00     0.198 A 
ATOM     83  C   UNL A   1      46.540  28.580  35.457  1.00  0.00     0.198 A 
ATOM     84  F   UNL A   1      45.465  30.472  34.566  1.00  0.00    -0.203 F 
ATOM     85  F   UNL A   1      45.222  25.797  37.369  1.00  0.00    -0.200 F 
ATOM     86  C   UNL A   1      46.484  27.388  36.165  1.00  0.00     0.200 A 
ATOM     87  F   UNL A   1      47.708  29.012  34.964  1.00  0.00    -0.200 F 
ATOM     88  F   UNL A   1      47.603  26.679  36.373  1.00  0.00    -0.200 F 
ENDBRANCH  55  78
ENDBRANCH  29  30
ENDBRANCH  21  24
ENDBRANCH  19  20
ENDBRANCH   1  19
TORSDOF 12
ENDMDL
