MODEL 1
REMARK VINA RESULT:     -11.1      0.000      0.000
REMARK SMILES CCCC[C@@H](Sc1nc(OCCC2CCCCC2)cc(OCCC2CCCCC2)n1)C(=O)NCCCNC(=O)c1ccc(-c2c3nc(c(-c4c(F)c(F)c(F)c(F)c4F)c4ccc([nH]4)c(-c4c(F)c(F)c(F)c(F)c4F)c4nc(c(-c5c(F)c(F)c(F)c(F)c5F)c5ccc2[nH]5)C=C4)C=C3)cc1
REMARK SMILES IDX 31 1 32 2 33 3 5 5 4 6 3 7 2 8 1 9 6 10 7 11 8 12 30 13 9 14
REMARK SMILES IDX 20 15 19 16 10 17 11 18 12 19 13 20 14 21 18 22 15 23 17 24
REMARK SMILES IDX 16 25 21 26 22 27 23 28 24 29 25 30 29 31 26 32 28 33 27 34
REMARK SMILES IDX 34 35 35 36 36 37 37 38 38 39 39 41 40 42 41 43 102 44 42 45
REMARK SMILES IDX 101 46 43 47 44 48 45 49 95 50 46 51 100 52 94 53 96 54
REMARK SMILES IDX 47 55 99 56 93 57 92 58 48 60 80 61 60 62 79 63 61 64 64 65
REMARK SMILES IDX 78 66 97 67 62 68 63 69 77 71 98 72 65 73 49 74 50 75 58 76
REMARK SMILES IDX 51 77 52 78 56 79 59 80 53 81 54 82 57 83 55 84 81 85 82 86
REMARK SMILES IDX 90 87 83 88 84 89 88 90 91 91 85 92 86 93 89 94 87 95 66 96
REMARK SMILES IDX 67 97 75 98 68 99 69 100 73 101 76 102 70 103 71 104 74 105
REMARK SMILES IDX 72 106
REMARK H PARENT 33 4 37 40 96 59 64 70
REMARK Flexibility Score: inf
ROOT
ATOM      1  C   UNL A   1      35.260  21.614  25.593  1.00  0.00     0.233 C 
ATOM      2  O   UNL A   1      34.167  21.311  26.080  1.00  0.00    -0.274 OA
ATOM      3  N   UNL A   1      36.120  20.593  25.277  1.00  0.00    -0.355 N 
ATOM      4  H   UNL A   1      35.784  19.692  25.489  1.00  0.00     0.163 HD
ENDROOT
BRANCH   1   5
ATOM      5  C   UNL A   1      35.655  23.094  25.370  1.00  0.00     0.144 C 
BRANCH   5   6
ATOM      6  C   UNL A   1      36.899  23.329  26.270  1.00  0.00     0.025 C 
BRANCH   6   7
ATOM      7  C   UNL A   1      38.147  24.076  25.803  1.00  0.00     0.001 C 
BRANCH   7   8
ATOM      8  C   UNL A   1      39.390  24.019  26.685  1.00  0.00    -0.003 C 
ATOM      9  C   UNL A   1      39.652  22.634  27.246  1.00  0.00     0.004 C 
ENDBRANCH   7   8
ENDBRANCH   6   7
ENDBRANCH   5   6
BRANCH   5  10
ATOM     10  S   UNL A   1      35.583  23.242  23.498  1.00  0.00    -0.073 SA
BRANCH  10  11
ATOM     11  C   UNL A   1      33.884  23.462  23.111  1.00  0.00     0.195 A 
ATOM     12  N   UNL A   1      33.272  24.555  23.607  1.00  0.00    -0.187 NA
ATOM     13  N   UNL A   1      33.260  22.420  22.579  1.00  0.00    -0.187 NA
ATOM     14  C   UNL A   1      31.939  24.492  23.729  1.00  0.00     0.221 A 
ATOM     15  C   UNL A   1      31.946  22.380  22.749  1.00  0.00     0.221 A 
ATOM     16  C   UNL A   1      31.264  23.343  23.431  1.00  0.00     0.136 A 
BRANCH  14  17
ATOM     17  O   UNL A   1      31.331  25.656  24.132  1.00  0.00    -0.477 OA
BRANCH  17  18
ATOM     18  C   UNL A   1      31.150  26.712  23.180  1.00  0.00     0.231 C 
BRANCH  18  19
ATOM     19  C   UNL A   1      30.939  28.132  23.768  1.00  0.00     0.045 C 
BRANCH  19  20
ATOM     20  C   UNL A   1      31.790  28.496  24.995  1.00  0.00    -0.008 C 
ATOM     21  C   UNL A   1      33.302  28.300  24.800  1.00  0.00     0.004 C 
ATOM     22  C   UNL A   1      31.543  29.920  25.493  1.00  0.00     0.004 C 
ATOM     23  C   UNL A   1      34.028  28.457  26.143  1.00  0.00     0.000 C 
ATOM     24  C   UNL A   1      32.176  30.087  26.873  1.00  0.00     0.000 C 
ATOM     25  C   UNL A   1      33.667  29.746  26.883  1.00  0.00     0.000 C 
ENDBRANCH  19  20
ENDBRANCH  18  19
ENDBRANCH  17  18
ENDBRANCH  14  17
BRANCH  15  26
ATOM     26  O   UNL A   1      31.363  21.185  22.433  1.00  0.00    -0.477 OA
BRANCH  26  27
ATOM     27  C   UNL A   1      32.204  20.042  22.592  1.00  0.00     0.231 C 
BRANCH  27  28
ATOM     28  C   UNL A   1      32.154  19.616  24.075  1.00  0.00     0.045 C 
BRANCH  28  29
ATOM     29  C   UNL A   1      32.634  18.169  24.281  1.00  0.00    -0.008 C 
ATOM     30  C   UNL A   1      34.088  17.988  23.852  1.00  0.00     0.004 C 
ATOM     31  C   UNL A   1      32.528  17.640  25.714  1.00  0.00     0.004 C 
ATOM     32  C   UNL A   1      34.384  16.502  23.711  1.00  0.00     0.000 C 
ATOM     33  C   UNL A   1      32.912  16.150  25.751  1.00  0.00     0.000 C 
ATOM     34  C   UNL A   1      34.247  15.828  25.066  1.00  0.00     0.000 C 
ENDBRANCH  28  29
ENDBRANCH  27  28
ENDBRANCH  26  27
ENDBRANCH  15  26
ENDBRANCH  10  11
ENDBRANCH   5  10
ENDBRANCH   1   5
BRANCH   3  35
ATOM     35  C   UNL A   1      37.451  20.619  24.678  1.00  0.00     0.117 C 
BRANCH  35  36
ATOM     36  C   UNL A   1      38.385  19.595  25.315  1.00  0.00     0.042 C 
BRANCH  36  37
ATOM     37  C   UNL A   1      39.671  20.206  25.850  1.00  0.00     0.118 C 
BRANCH  37  38
ATOM     38  N   UNL A   1      40.700  19.203  26.088  1.00  0.00    -0.352 N 
ATOM     39  C   UNL A   1      42.043  19.361  26.302  1.00  0.00     0.251 C 
ATOM     40  H   UNL A   1      40.382  18.271  26.096  1.00  0.00     0.163 HD
ATOM     41  O   UNL A   1      42.788  18.377  26.278  1.00  0.00    -0.269 OA
BRANCH  39  42
ATOM     42  C   UNL A   1      42.608  20.701  26.544  1.00  0.00     0.039 A 
ATOM     43  C   UNL A   1      43.008  21.474  25.451  1.00  0.00     0.014 A 
ATOM     44  C   UNL A   1      42.760  21.192  27.844  1.00  0.00     0.014 A 
ATOM     45  C   UNL A   1      43.505  22.762  25.659  1.00  0.00     0.010 A 
ATOM     46  C   UNL A   1      43.174  22.505  28.044  1.00  0.00     0.010 A 
ATOM     47  C   UNL A   1      43.558  23.299  26.955  1.00  0.00    -0.014 A 
BRANCH  47  48
ATOM     48  C   UNL A   1      44.021  24.688  27.194  1.00  0.00     0.031 A 
ATOM     49  C   UNL A   1      43.051  25.733  27.672  1.00  0.00     0.074 A 
ATOM     50  C   UNL A   1      45.296  25.020  26.916  1.00  0.00     0.049 A 
ATOM     51  N   UNL A   1      43.242  27.014  27.861  1.00  0.00    -0.248 NA
ATOM     52  C   UNL A   1      41.676  25.285  27.946  1.00  0.00     0.031 C 
ATOM     53  C   UNL A   1      46.316  24.103  26.401  1.00  0.00     0.029 A 
ATOM     54  N   UNL A   1      45.951  26.222  27.015  1.00  0.00    -0.354 N 
ATOM     55  C   UNL A   1      42.012  27.524  28.257  1.00  0.00     0.074 A 
ATOM     56  C   UNL A   1      41.069  26.428  28.230  1.00  0.00     0.031 C 
ATOM     57  C   UNL A   1      47.471  24.771  26.248  1.00  0.00     0.029 A 
ATOM     58  C   UNL A   1      47.264  26.169  26.614  1.00  0.00     0.049 A 
ATOM     59  H   UNL A   1      45.521  27.045  27.343  1.00  0.00     0.167 HD
ATOM     60  C   UNL A   1      41.705  28.787  28.633  1.00  0.00     0.037 A 
ATOM     61  C   UNL A   1      48.192  27.142  26.538  1.00  0.00     0.037 A 
ATOM     62  C   UNL A   1      42.655  29.867  28.687  1.00  0.00     0.049 A 
ATOM     63  C   UNL A   1      47.820  28.539  26.958  1.00  0.00     0.074 A 
ATOM     64  C   UNL A   1      42.460  31.167  29.116  1.00  0.00     0.029 A 
ATOM     65  N   UNL A   1      43.983  29.770  28.295  1.00  0.00    -0.354 N 
ATOM     66  N   UNL A   1      46.673  28.993  27.403  1.00  0.00    -0.248 NA
ATOM     67  C   UNL A   1      48.876  29.558  26.874  1.00  0.00     0.031 C 
ATOM     68  C   UNL A   1      43.655  31.871  28.936  1.00  0.00     0.029 A 
ATOM     69  C   UNL A   1      44.611  30.994  28.449  1.00  0.00     0.049 A 
ATOM     70  H   UNL A   1      44.414  28.951  27.957  1.00  0.00     0.167 HD
ATOM     71  C   UNL A   1      46.876  30.338  27.679  1.00  0.00     0.074 A 
ATOM     72  C   UNL A   1      48.261  30.623  27.368  1.00  0.00     0.031 C 
ATOM     73  C   UNL A   1      45.995  31.256  28.146  1.00  0.00     0.037 A 
BRANCH  60  74
ATOM     74  C   UNL A   1      40.284  29.075  29.024  1.00  0.00     0.064 A 
ATOM     75  C   UNL A   1      39.885  29.124  30.368  1.00  0.00     0.173 A 
ATOM     76  C   UNL A   1      39.320  29.358  28.043  1.00  0.00     0.173 A 
ATOM     77  F   UNL A   1      40.764  28.852  31.344  1.00  0.00    -0.203 F 
ATOM     78  C   UNL A   1      38.569  29.422  30.715  1.00  0.00     0.198 A 
ATOM     79  C   UNL A   1      38.013  29.685  28.396  1.00  0.00     0.198 A 
ATOM     80  F   UNL A   1      39.649  29.330  26.743  1.00  0.00    -0.203 F 
ATOM     81  F   UNL A   1      38.202  29.418  32.004  1.00  0.00    -0.200 F 
ATOM     82  C   UNL A   1      37.638  29.710  29.731  1.00  0.00     0.200 A 
ATOM     83  F   UNL A   1      37.118  29.979  27.443  1.00  0.00    -0.200 F 
ATOM     84  F   UNL A   1      36.376  30.010  30.067  1.00  0.00    -0.200 F 
ENDBRANCH  60  74
BRANCH  61  85
ATOM     85  C   UNL A   1      49.564  26.830  26.058  1.00  0.00     0.064 A 
ATOM     86  C   UNL A   1      49.914  27.002  24.712  1.00  0.00     0.173 A 
ATOM     87  C   UNL A   1      50.547  26.335  26.929  1.00  0.00     0.173 A 
ATOM     88  F   UNL A   1      49.003  27.454  23.836  1.00  0.00    -0.203 F 
ATOM     89  C   UNL A   1      51.184  26.665  24.248  1.00  0.00     0.198 A 
ATOM     90  C   UNL A   1      51.826  26.030  26.470  1.00  0.00     0.198 A 
ATOM     91  F   UNL A   1      50.267  26.158  28.228  1.00  0.00    -0.203 F 
ATOM     92  F   UNL A   1      51.473  26.787  22.946  1.00  0.00    -0.200 F 
ATOM     93  C   UNL A   1      52.141  26.183  25.128  1.00  0.00     0.200 A 
ATOM     94  F   UNL A   1      52.753  25.580  27.327  1.00  0.00    -0.200 F 
ATOM     95  F   UNL A   1      53.362  25.860  24.683  1.00  0.00    -0.200 F 
ENDBRANCH  61  85
BRANCH  73  96
ATOM     96  C   UNL A   1      46.511  32.644  28.388  1.00  0.00     0.064 A 
ATOM     97  C   UNL A   1      47.085  33.016  29.613  1.00  0.00     0.173 A 
ATOM     98  C   UNL A   1      46.469  33.604  27.364  1.00  0.00     0.173 A 
ATOM     99  F   UNL A   1      47.136  32.140  30.628  1.00  0.00    -0.203 F 
ATOM    100  C   UNL A   1      47.573  34.304  29.813  1.00  0.00     0.198 A 
ATOM    101  C   UNL A   1      46.988  34.880  27.558  1.00  0.00     0.198 A 
ATOM    102  F   UNL A   1      45.937  33.298  26.171  1.00  0.00    -0.203 F 
ATOM    103  F   UNL A   1      48.071  34.652  31.008  1.00  0.00    -0.200 F 
ATOM    104  C   UNL A   1      47.531  35.232  28.783  1.00  0.00     0.200 A 
ATOM    105  F   UNL A   1      46.961  35.771  26.556  1.00  0.00    -0.200 F 
ATOM    106  F   UNL A   1      48.009  36.469  28.975  1.00  0.00    -0.200 F 
ENDBRANCH  73  96
ENDBRANCH  47  48
ENDBRANCH  39  42
ENDBRANCH  37  38
ENDBRANCH  36  37
ENDBRANCH  35  36
ENDBRANCH   3  35
TORSDOF 23
ENDMDL
MODEL 2
REMARK VINA RESULT:     -11.0      1.009      2.065
REMARK SMILES CCCC[C@@H](Sc1nc(OCCC2CCCCC2)cc(OCCC2CCCCC2)n1)C(=O)NCCCNC(=O)c1ccc(-c2c3nc(c(-c4c(F)c(F)c(F)c(F)c4F)c4ccc([nH]4)c(-c4c(F)c(F)c(F)c(F)c4F)c4nc(c(-c5c(F)c(F)c(F)c(F)c5F)c5ccc2[nH]5)C=C4)C=C3)cc1
REMARK SMILES IDX 31 1 32 2 33 3 5 5 4 6 3 7 2 8 1 9 6 10 7 11 8 12 30 13 9 14
REMARK SMILES IDX 20 15 19 16 10 17 11 18 12 19 13 20 14 21 18 22 15 23 17 24
REMARK SMILES IDX 16 25 21 26 22 27 23 28 24 29 25 30 29 31 26 32 28 33 27 34
REMARK SMILES IDX 34 35 35 36 36 37 37 38 38 39 39 41 40 42 41 43 102 44 42 45
REMARK SMILES IDX 101 46 43 47 44 48 45 49 95 50 46 51 100 52 94 53 96 54
REMARK SMILES IDX 47 55 99 56 93 57 92 58 48 60 80 61 60 62 79 63 61 64 64 65
REMARK SMILES IDX 78 66 97 67 62 68 63 69 77 71 98 72 65 73 49 74 50 75 58 76
REMARK SMILES IDX 51 77 52 78 56 79 59 80 53 81 54 82 57 83 55 84 81 85 82 86
REMARK SMILES IDX 90 87 83 88 84 89 88 90 91 91 85 92 86 93 89 94 87 95 66 96
REMARK SMILES IDX 67 97 75 98 68 99 69 100 73 101 76 102 70 103 71 104 74 105
REMARK SMILES IDX 72 106
REMARK H PARENT 33 4 37 40 96 59 64 70
REMARK Flexibility Score: inf
ROOT
ATOM      1  C   UNL A   1      35.490  21.772  25.846  1.00  0.00     0.233 C 
ATOM      2  O   UNL A   1      34.420  21.619  26.443  1.00  0.00    -0.274 OA
ATOM      3  N   UNL A   1      36.126  20.647  25.386  1.00  0.00    -0.355 N 
ATOM      4  H   UNL A   1      35.668  19.801  25.596  1.00  0.00     0.163 HD
ENDROOT
BRANCH   1   5
ATOM      5  C   UNL A   1      36.102  23.179  25.645  1.00  0.00     0.144 C 
BRANCH   5   6
ATOM      6  C   UNL A   1      37.327  23.237  26.599  1.00  0.00     0.025 C 
BRANCH   6   7
ATOM      7  C   UNL A   1      38.748  23.542  26.128  1.00  0.00     0.001 C 
BRANCH   7   8
ATOM      8  C   UNL A   1      39.207  24.996  26.126  1.00  0.00    -0.003 C 
ATOM      9  C   UNL A   1      40.515  25.201  25.386  1.00  0.00     0.004 C 
ENDBRANCH   7   8
ENDBRANCH   6   7
ENDBRANCH   5   6
BRANCH   5  10
ATOM     10  S   UNL A   1      36.133  23.330  23.772  1.00  0.00    -0.073 SA
BRANCH  10  11
ATOM     11  C   UNL A   1      34.485  23.720  23.306  1.00  0.00     0.195 A 
ATOM     12  N   UNL A   1      34.021  24.941  23.635  1.00  0.00    -0.187 NA
ATOM     13  N   UNL A   1      33.732  22.709  22.896  1.00  0.00    -0.187 NA
ATOM     14  C   UNL A   1      32.691  25.073  23.722  1.00  0.00     0.221 A 
ATOM     15  C   UNL A   1      32.424  22.866  23.028  1.00  0.00     0.221 A 
ATOM     16  C   UNL A   1      31.869  23.994  23.556  1.00  0.00     0.136 A 
BRANCH  14  17
ATOM     17  O   UNL A   1      32.242  26.351  23.949  1.00  0.00    -0.477 OA
BRANCH  17  18
ATOM     18  C   UNL A   1      31.661  27.087  22.866  1.00  0.00     0.231 C 
BRANCH  18  19
ATOM     19  C   UNL A   1      31.539  28.620  23.071  1.00  0.00     0.045 C 
BRANCH  19  20
ATOM     20  C   UNL A   1      30.129  29.216  22.941  1.00  0.00    -0.008 C 
ATOM     21  C   UNL A   1      28.990  28.203  23.139  1.00  0.00     0.004 C 
ATOM     22  C   UNL A   1      29.892  30.404  23.873  1.00  0.00     0.004 C 
ATOM     23  C   UNL A   1      27.648  28.841  22.752  1.00  0.00     0.000 C 
ATOM     24  C   UNL A   1      28.608  31.120  23.460  1.00  0.00     0.000 C 
ATOM     25  C   UNL A   1      27.396  30.188  23.431  1.00  0.00     0.000 C 
ENDBRANCH  19  20
ENDBRANCH  18  19
ENDBRANCH  17  18
ENDBRANCH  14  17
BRANCH  15  26
ATOM     26  O   UNL A   1      31.688  21.729  22.853  1.00  0.00    -0.477 OA
BRANCH  26  27
ATOM     27  C   UNL A   1      32.429  20.511  22.940  1.00  0.00     0.231 C 
BRANCH  27  28
ATOM     28  C   UNL A   1      32.183  19.903  24.338  1.00  0.00     0.045 C 
BRANCH  28  29
ATOM     29  C   UNL A   1      32.529  18.405  24.391  1.00  0.00    -0.008 C 
ATOM     30  C   UNL A   1      33.895  18.118  23.773  1.00  0.00     0.004 C 
ATOM     31  C   UNL A   1      32.537  17.781  25.789  1.00  0.00     0.004 C 
ATOM     32  C   UNL A   1      34.016  16.626  23.502  1.00  0.00     0.000 C 
ATOM     33  C   UNL A   1      32.764  16.262  25.682  1.00  0.00     0.000 C 
ATOM     34  C   UNL A   1      33.968  15.866  24.818  1.00  0.00     0.000 C 
ENDBRANCH  28  29
ENDBRANCH  27  28
ENDBRANCH  26  27
ENDBRANCH  15  26
ENDBRANCH  10  11
ENDBRANCH   5  10
ENDBRANCH   1   5
BRANCH   3  35
ATOM     35  C   UNL A   1      37.371  20.495  24.638  1.00  0.00     0.117 C 
BRANCH  35  36
ATOM     36  C   UNL A   1      38.317  19.496  25.298  1.00  0.00     0.042 C 
BRANCH  36  37
ATOM     37  C   UNL A   1      39.603  20.131  25.804  1.00  0.00     0.118 C 
BRANCH  37  38
ATOM     38  N   UNL A   1      40.617  19.138  26.129  1.00  0.00    -0.352 N 
ATOM     39  C   UNL A   1      41.939  19.307  26.440  1.00  0.00     0.251 C 
ATOM     40  H   UNL A   1      40.305  18.204  26.124  1.00  0.00     0.163 HD
ATOM     41  O   UNL A   1      42.689  18.327  26.482  1.00  0.00    -0.269 OA
BRANCH  39  42
ATOM     42  C   UNL A   1      42.477  20.653  26.708  1.00  0.00     0.039 A 
ATOM     43  C   UNL A   1      43.004  21.394  25.648  1.00  0.00     0.014 A 
ATOM     44  C   UNL A   1      42.479  21.179  28.003  1.00  0.00     0.014 A 
ATOM     45  C   UNL A   1      43.478  22.687  25.876  1.00  0.00     0.010 A 
ATOM     46  C   UNL A   1      42.872  22.497  28.213  1.00  0.00     0.010 A 
ATOM     47  C   UNL A   1      43.382  23.261  27.154  1.00  0.00    -0.014 A 
BRANCH  47  48
ATOM     48  C   UNL A   1      43.820  24.656  27.407  1.00  0.00     0.031 A 
ATOM     49  C   UNL A   1      42.860  25.649  28.002  1.00  0.00     0.074 A 
ATOM     50  C   UNL A   1      45.056  25.041  27.037  1.00  0.00     0.049 A 
ATOM     51  N   UNL A   1      43.025  26.929  28.223  1.00  0.00    -0.248 NA
ATOM     52  C   UNL A   1      41.528  25.144  28.371  1.00  0.00     0.031 C 
ATOM     53  C   UNL A   1      46.057  24.180  26.405  1.00  0.00     0.029 A 
ATOM     54  N   UNL A   1      45.678  26.261  27.127  1.00  0.00    -0.354 N 
ATOM     55  C   UNL A   1      41.818  27.381  28.739  1.00  0.00     0.074 A 
ATOM     56  C   UNL A   1      40.911  26.255  28.748  1.00  0.00     0.031 C 
ATOM     57  C   UNL A   1      47.173  24.892  26.183  1.00  0.00     0.029 A 
ATOM     58  C   UNL A   1      46.954  26.268  26.616  1.00  0.00     0.049 A 
ATOM     59  H   UNL A   1      45.251  27.057  27.520  1.00  0.00     0.167 HD
ATOM     60  C   UNL A   1      41.503  28.619  29.186  1.00  0.00     0.037 A 
ATOM     61  C   UNL A   1      47.840  27.275  26.501  1.00  0.00     0.037 A 
ATOM     62  C   UNL A   1      42.420  29.728  29.202  1.00  0.00     0.049 A 
ATOM     63  C   UNL A   1      47.461  28.643  27.003  1.00  0.00     0.074 A 
ATOM     64  C   UNL A   1      42.220  31.005  29.695  1.00  0.00     0.029 A 
ATOM     65  N   UNL A   1      43.712  29.691  28.698  1.00  0.00    -0.354 N 
ATOM     66  N   UNL A   1      46.342  29.040  27.558  1.00  0.00    -0.248 NA
ATOM     67  C   UNL A   1      48.473  29.700  26.870  1.00  0.00     0.031 C 
ATOM     68  C   UNL A   1      43.373  31.756  29.443  1.00  0.00     0.029 A 
ATOM     69  C   UNL A   1      44.312  30.931  28.846  1.00  0.00     0.049 A 
ATOM     70  H   UNL A   1      44.140  28.901  28.295  1.00  0.00     0.167 HD
ATOM     71  C   UNL A   1      46.524  30.381  27.867  1.00  0.00     0.074 A 
ATOM     72  C   UNL A   1      47.869  30.725  27.453  1.00  0.00     0.031 C 
ATOM     73  C   UNL A   1      45.657  31.251  28.440  1.00  0.00     0.037 A 
BRANCH  60  74
ATOM     74  C   UNL A   1      40.111  28.844  29.703  1.00  0.00     0.064 A 
ATOM     75  C   UNL A   1      39.068  29.250  28.858  1.00  0.00     0.173 A 
ATOM     76  C   UNL A   1      39.805  28.598  31.051  1.00  0.00     0.173 A 
ATOM     77  F   UNL A   1      39.310  29.509  27.564  1.00  0.00    -0.203 F 
ATOM     78  C   UNL A   1      37.776  29.426  29.346  1.00  0.00     0.198 A 
ATOM     79  C   UNL A   1      38.505  28.745  31.528  1.00  0.00     0.198 A 
ATOM     80  F   UNL A   1      40.763  28.202  31.902  1.00  0.00    -0.203 F 
ATOM     81  F   UNL A   1      36.806  29.858  28.528  1.00  0.00    -0.200 F 
ATOM     82  C   UNL A   1      37.494  29.165  30.677  1.00  0.00     0.200 A 
ATOM     83  F   UNL A   1      38.231  28.476  32.813  1.00  0.00    -0.200 F 
ATOM     84  F   UNL A   1      36.247  29.321  31.142  1.00  0.00    -0.200 F 
ENDBRANCH  60  74
BRANCH  61  85
ATOM     85  C   UNL A   1      49.177  27.028  25.898  1.00  0.00     0.064 A 
ATOM     86  C   UNL A   1      49.390  27.195  24.523  1.00  0.00     0.173 A 
ATOM     87  C   UNL A   1      50.262  26.601  26.678  1.00  0.00     0.173 A 
ATOM     88  F   UNL A   1      48.378  27.582  23.731  1.00  0.00    -0.203 F 
ATOM     89  C   UNL A   1      50.627  26.917  23.946  1.00  0.00     0.198 A 
ATOM     90  C   UNL A   1      51.508  26.356  26.105  1.00  0.00     0.198 A 
ATOM     91  F   UNL A   1      50.114  26.432  28.000  1.00  0.00    -0.203 F 
ATOM     92  F   UNL A   1      50.786  27.032  22.620  1.00  0.00    -0.200 F 
ATOM     93  C   UNL A   1      51.687  26.503  24.738  1.00  0.00     0.200 A 
ATOM     94  F   UNL A   1      52.534  25.971  26.877  1.00  0.00    -0.200 F 
ATOM     95  F   UNL A   1      52.877  26.237  24.183  1.00  0.00    -0.200 F 
ENDBRANCH  61  85
BRANCH  73  96
ATOM     96  C   UNL A   1      46.147  32.647  28.691  1.00  0.00     0.064 A 
ATOM     97  C   UNL A   1      45.966  33.673  27.751  1.00  0.00     0.173 A 
ATOM     98  C   UNL A   1      46.767  32.972  29.908  1.00  0.00     0.173 A 
ATOM     99  F   UNL A   1      45.392  33.412  26.567  1.00  0.00    -0.203 F 
ATOM    100  C   UNL A   1      46.414  34.966  28.010  1.00  0.00     0.198 A 
ATOM    101  C   UNL A   1      47.183  34.272  30.174  1.00  0.00     0.198 A 
ATOM    102  F   UNL A   1      46.957  32.029  30.843  1.00  0.00    -0.203 F 
ATOM    103  F   UNL A   1      46.277  35.919  27.077  1.00  0.00    -0.200 F 
ATOM    104  C   UNL A   1      47.014  35.266  29.223  1.00  0.00     0.200 A 
ATOM    105  F   UNL A   1      47.748  34.564  31.355  1.00  0.00    -0.200 F 
ATOM    106  F   UNL A   1      47.436  36.513  29.473  1.00  0.00    -0.200 F 
ENDBRANCH  73  96
ENDBRANCH  47  48
ENDBRANCH  39  42
ENDBRANCH  37  38
ENDBRANCH  36  37
ENDBRANCH  35  36
ENDBRANCH   3  35
TORSDOF 23
ENDMDL
MODEL 3
REMARK VINA RESULT:     -10.5      0.832      6.956
REMARK SMILES CCCC[C@@H](Sc1nc(OCCC2CCCCC2)cc(OCCC2CCCCC2)n1)C(=O)NCCCNC(=O)c1ccc(-c2c3nc(c(-c4c(F)c(F)c(F)c(F)c4F)c4ccc([nH]4)c(-c4c(F)c(F)c(F)c(F)c4F)c4nc(c(-c5c(F)c(F)c(F)c(F)c5F)c5ccc2[nH]5)C=C4)C=C3)cc1
REMARK SMILES IDX 31 1 32 2 33 3 5 5 4 6 3 7 2 8 1 9 6 10 7 11 8 12 30 13 9 14
REMARK SMILES IDX 20 15 19 16 10 17 11 18 12 19 13 20 14 21 18 22 15 23 17 24
REMARK SMILES IDX 16 25 21 26 22 27 23 28 24 29 25 30 29 31 26 32 28 33 27 34
REMARK SMILES IDX 34 35 35 36 36 37 37 38 38 39 39 41 40 42 41 43 102 44 42 45
REMARK SMILES IDX 101 46 43 47 44 48 45 49 95 50 46 51 100 52 94 53 96 54
REMARK SMILES IDX 47 55 99 56 93 57 92 58 48 60 80 61 60 62 79 63 61 64 64 65
REMARK SMILES IDX 78 66 97 67 62 68 63 69 77 71 98 72 65 73 49 74 50 75 58 76
REMARK SMILES IDX 51 77 52 78 56 79 59 80 53 81 54 82 57 83 55 84 81 85 82 86
REMARK SMILES IDX 90 87 83 88 84 89 88 90 91 91 85 92 86 93 89 94 87 95 66 96
REMARK SMILES IDX 67 97 75 98 68 99 69 100 73 101 76 102 70 103 71 104 74 105
REMARK SMILES IDX 72 106
REMARK H PARENT 33 4 37 40 96 59 64 70
REMARK Flexibility Score: inf
ROOT
ATOM      1  C   UNL A   1      35.540  21.926  25.754  1.00  0.00     0.233 C 
ATOM      2  O   UNL A   1      34.505  21.744  26.400  1.00  0.00    -0.274 OA
ATOM      3  N   UNL A   1      36.303  20.826  25.452  1.00  0.00    -0.355 N 
ATOM      4  H   UNL A   1      35.953  19.975  25.802  1.00  0.00     0.163 HD
ENDROOT
BRANCH   1   5
ATOM      5  C   UNL A   1      35.976  23.347  25.322  1.00  0.00     0.144 C 
BRANCH   5   6
ATOM      6  C   UNL A   1      37.160  23.718  26.256  1.00  0.00     0.025 C 
BRANCH   6   7
ATOM      7  C   UNL A   1      38.573  24.008  25.751  1.00  0.00     0.001 C 
BRANCH   7   8
ATOM      8  C   UNL A   1      39.594  24.550  26.747  1.00  0.00    -0.003 C 
ATOM      9  C   UNL A   1      39.769  23.655  27.958  1.00  0.00     0.004 C 
ENDBRANCH   7   8
ENDBRANCH   6   7
ENDBRANCH   5   6
BRANCH   5  10
ATOM     10  S   UNL A   1      36.034  23.188  23.450  1.00  0.00    -0.073 SA
BRANCH  10  11
ATOM     11  C   UNL A   1      34.380  23.428  22.908  1.00  0.00     0.195 A 
ATOM     12  N   UNL A   1      33.955  24.698  22.761  1.00  0.00    -0.187 NA
ATOM     13  N   UNL A   1      33.591  22.363  22.929  1.00  0.00    -0.187 NA
ATOM     14  C   UNL A   1      32.632  24.897  22.822  1.00  0.00     0.221 A 
ATOM     15  C   UNL A   1      32.292  22.602  23.021  1.00  0.00     0.221 A 
ATOM     16  C   UNL A   1      31.781  23.864  23.096  1.00  0.00     0.136 A 
BRANCH  14  17
ATOM     17  O   UNL A   1      32.219  26.181  22.559  1.00  0.00    -0.477 OA
BRANCH  17  18
ATOM     18  C   UNL A   1      30.946  26.617  23.051  1.00  0.00     0.231 C 
BRANCH  18  19
ATOM     19  C   UNL A   1      30.957  27.900  23.924  1.00  0.00     0.045 C 
BRANCH  19  20
ATOM     20  C   UNL A   1      31.977  27.937  25.072  1.00  0.00    -0.008 C 
ATOM     21  C   UNL A   1      33.277  28.689  24.744  1.00  0.00     0.004 C 
ATOM     22  C   UNL A   1      31.400  28.505  26.369  1.00  0.00     0.004 C 
ATOM     23  C   UNL A   1      34.310  28.459  25.856  1.00  0.00     0.000 C 
ATOM     24  C   UNL A   1      32.362  28.215  27.518  1.00  0.00     0.000 C 
ATOM     25  C   UNL A   1      33.771  28.750  27.257  1.00  0.00     0.000 C 
ENDBRANCH  19  20
ENDBRANCH  18  19
ENDBRANCH  17  18
ENDBRANCH  14  17
BRANCH  15  26
ATOM     26  O   UNL A   1      31.525  21.508  23.307  1.00  0.00    -0.477 OA
BRANCH  26  27
ATOM     27  C   UNL A   1      32.113  20.252  22.965  1.00  0.00     0.231 C 
BRANCH  27  28
ATOM     28  C   UNL A   1      33.058  19.840  24.114  1.00  0.00     0.045 C 
BRANCH  28  29
ATOM     29  C   UNL A   1      33.102  18.315  24.312  1.00  0.00    -0.008 C 
ATOM     30  C   UNL A   1      34.528  17.775  24.230  1.00  0.00     0.004 C 
ATOM     31  C   UNL A   1      32.513  17.807  25.631  1.00  0.00     0.004 C 
ATOM     32  C   UNL A   1      34.478  16.266  24.045  1.00  0.00     0.000 C 
ATOM     33  C   UNL A   1      32.500  16.267  25.639  1.00  0.00     0.000 C 
ATOM     34  C   UNL A   1      33.844  15.626  25.270  1.00  0.00     0.000 C 
ENDBRANCH  28  29
ENDBRANCH  27  28
ENDBRANCH  26  27
ENDBRANCH  15  26
ENDBRANCH  10  11
ENDBRANCH   5  10
ENDBRANCH   1   5
BRANCH   3  35
ATOM     35  C   UNL A   1      37.547  20.707  24.699  1.00  0.00     0.117 C 
BRANCH  35  36
ATOM     36  C   UNL A   1      38.521  19.731  25.352  1.00  0.00     0.042 C 
BRANCH  36  37
ATOM     37  C   UNL A   1      39.654  20.420  26.096  1.00  0.00     0.118 C 
BRANCH  37  38
ATOM     38  N   UNL A   1      40.836  19.576  26.206  1.00  0.00    -0.352 N 
ATOM     39  C   UNL A   1      42.153  19.926  26.325  1.00  0.00     0.251 C 
ATOM     40  H   UNL A   1      40.660  18.607  26.192  1.00  0.00     0.163 HD
ATOM     41  O   UNL A   1      43.030  19.066  26.196  1.00  0.00    -0.269 OA
BRANCH  39  42
ATOM     42  C   UNL A   1      42.534  21.326  26.588  1.00  0.00     0.039 A 
ATOM     43  C   UNL A   1      42.883  21.699  27.889  1.00  0.00     0.014 A 
ATOM     44  C   UNL A   1      42.532  22.274  25.561  1.00  0.00     0.014 A 
ATOM     45  C   UNL A   1      43.287  23.009  28.147  1.00  0.00     0.010 A 
ATOM     46  C   UNL A   1      43.017  23.556  25.803  1.00  0.00     0.010 A 
ATOM     47  C   UNL A   1      43.391  23.938  27.099  1.00  0.00    -0.014 A 
BRANCH  47  48
ATOM     48  C   UNL A   1      43.881  25.318  27.338  1.00  0.00     0.031 A 
ATOM     49  C   UNL A   1      45.294  25.688  26.981  1.00  0.00     0.074 A 
ATOM     50  C   UNL A   1      43.074  26.214  27.938  1.00  0.00     0.049 A 
ATOM     51  N   UNL A   1      45.932  26.812  27.185  1.00  0.00    -0.248 NA
ATOM     52  C   UNL A   1      46.108  24.646  26.334  1.00  0.00     0.031 C 
ATOM     53  C   UNL A   1      41.700  25.956  28.375  1.00  0.00     0.029 A 
ATOM     54  N   UNL A   1      43.296  27.520  28.297  1.00  0.00    -0.354 N 
ATOM     55  C   UNL A   1      47.220  26.607  26.709  1.00  0.00     0.074 A 
ATOM     56  C   UNL A   1      47.292  25.235  26.255  1.00  0.00     0.031 C 
ATOM     57  C   UNL A   1      41.196  27.072  28.925  1.00  0.00     0.029 A 
ATOM     58  C   UNL A   1      42.222  28.111  28.917  1.00  0.00     0.049 A 
ATOM     59  H   UNL A   1      44.145  27.989  28.126  1.00  0.00     0.167 HD
ATOM     60  C   UNL A   1      48.242  27.491  26.636  1.00  0.00     0.037 A 
ATOM     61  C   UNL A   1      42.085  29.347  29.432  1.00  0.00     0.037 A 
ATOM     62  C   UNL A   1      48.155  28.862  27.062  1.00  0.00     0.049 A 
ATOM     63  C   UNL A   1      43.242  30.308  29.340  1.00  0.00     0.074 A 
ATOM     64  C   UNL A   1      49.112  29.857  26.970  1.00  0.00     0.029 A 
ATOM     65  N   UNL A   1      47.043  29.433  27.664  1.00  0.00    -0.354 N 
ATOM     66  N   UNL A   1      44.431  30.125  28.819  1.00  0.00    -0.248 NA
ATOM     67  C   UNL A   1      43.032  31.650  29.901  1.00  0.00     0.031 C 
ATOM     68  C   UNL A   1      48.599  31.015  27.562  1.00  0.00     0.029 A 
ATOM     69  C   UNL A   1      47.300  30.758  27.971  1.00  0.00     0.049 A 
ATOM     70  H   UNL A   1      46.196  28.964  27.846  1.00  0.00     0.167 HD
ATOM     71  C   UNL A   1      45.099  31.333  28.962  1.00  0.00     0.074 A 
ATOM     72  C   UNL A   1      44.177  32.247  29.602  1.00  0.00     0.031 C 
ATOM     73  C   UNL A   1      46.364  31.657  28.597  1.00  0.00     0.037 A 
BRANCH  60  74
ATOM     74  C   UNL A   1      49.546  27.007  26.068  1.00  0.00     0.064 A 
ATOM     75  C   UNL A   1      50.494  26.344  26.862  1.00  0.00     0.173 A 
ATOM     76  C   UNL A   1      49.828  27.162  24.702  1.00  0.00     0.173 A 
ATOM     77  F   UNL A   1      50.278  26.180  28.176  1.00  0.00    -0.203 F 
ATOM     78  C   UNL A   1      51.686  25.875  26.316  1.00  0.00     0.198 A 
ATOM     79  C   UNL A   1      51.008  26.664  24.153  1.00  0.00     0.198 A 
ATOM     80  F   UNL A   1      48.955  27.783  23.897  1.00  0.00    -0.203 F 
ATOM     81  F   UNL A   1      52.595  25.285  27.103  1.00  0.00    -0.200 F 
ATOM     82  C   UNL A   1      51.937  26.027  24.961  1.00  0.00     0.200 A 
ATOM     83  F   UNL A   1      51.242  26.798  22.840  1.00  0.00    -0.200 F 
ATOM     84  F   UNL A   1      53.079  25.563  24.434  1.00  0.00    -0.200 F 
ENDBRANCH  60  74
BRANCH  61  85
ATOM     85  C   UNL A   1      40.805  29.755  30.068  1.00  0.00     0.064 A 
ATOM     86  C   UNL A   1      40.694  29.868  31.460  1.00  0.00     0.173 A 
ATOM     87  C   UNL A   1      39.661  30.021  29.300  1.00  0.00     0.173 A 
ATOM     88  F   UNL A   1      41.755  29.605  32.239  1.00  0.00    -0.203 F 
ATOM     89  C   UNL A   1      39.483  30.202  32.063  1.00  0.00     0.198 A 
ATOM     90  C   UNL A   1      38.459  30.386  29.902  1.00  0.00     0.198 A 
ATOM     91  F   UNL A   1      39.713  29.934  27.963  1.00  0.00    -0.203 F 
ATOM     92  F   UNL A   1      39.394  30.248  33.399  1.00  0.00    -0.200 F 
ATOM     93  C   UNL A   1      38.368  30.466  31.284  1.00  0.00     0.200 A 
ATOM     94  F   UNL A   1      37.387  30.656  29.144  1.00  0.00    -0.200 F 
ATOM     95  F   UNL A   1      37.204  30.787  31.863  1.00  0.00    -0.200 F 
ENDBRANCH  61  85
BRANCH  73  96
ATOM     96  C   UNL A   1      46.812  33.068  28.844  1.00  0.00     0.064 A 
ATOM     97  C   UNL A   1      46.599  34.086  27.902  1.00  0.00     0.173 A 
ATOM     98  C   UNL A   1      47.423  33.414  30.060  1.00  0.00     0.173 A 
ATOM     99  F   UNL A   1      46.032  33.804  26.719  1.00  0.00    -0.203 F 
ATOM    100  C   UNL A   1      47.007  35.392  28.157  1.00  0.00     0.198 A 
ATOM    101  C   UNL A   1      47.799  34.728  30.323  1.00  0.00     0.198 A 
ATOM    102  F   UNL A   1      47.643  32.481  30.997  1.00  0.00    -0.203 F 
ATOM    103  F   UNL A   1      46.840  36.338  27.222  1.00  0.00    -0.200 F 
ATOM    104  C   UNL A   1      47.599  35.714  29.369  1.00  0.00     0.200 A 
ATOM    105  F   UNL A   1      48.357  35.039  31.502  1.00  0.00    -0.200 F 
ATOM    106  F   UNL A   1      47.983  36.974  29.615  1.00  0.00    -0.200 F 
ENDBRANCH  73  96
ENDBRANCH  47  48
ENDBRANCH  39  42
ENDBRANCH  37  38
ENDBRANCH  36  37
ENDBRANCH  35  36
ENDBRANCH   3  35
TORSDOF 23
ENDMDL
