MODEL 1
REMARK VINA RESULT:     -13.4      0.000      0.000
REMARK SMILES C[NH+]1CCC(NC(=O)N[C@@H]2C=C[C@H](C(=O)NCCCNC(=O)c3ccc(-c4c5nc(c(-c6c(F)c(F)c(F)c(F)c6F)c6ccc([nH]6)c(-c6c(F)c(F)c(F)c(F)c6F)c6nc(c(-c7c(F)c(F)c(F)c(F)c7F)c7ccc4[nH]7)C=C6)C=C5)cc3)C2)CC1
REMARK SMILES IDX 18 1 17 2 16 3 14 4 15 5 13 7 10 8 11 9 86 10 12 11 9 12
REMARK SMILES IDX 6 13 7 14 8 16 5 18 1 19 2 20 3 21 88 22 4 24 87 25 19 26
REMARK SMILES IDX 20 27 21 28 22 30 23 31 24 32 85 33 25 34 84 35 26 36 27 37
REMARK SMILES IDX 28 38 78 39 29 40 83 41 77 42 79 43 30 44 82 45 76 46 75 47
REMARK SMILES IDX 31 49 63 50 43 51 62 52 44 53 47 54 61 55 80 56 45 57 46 58
REMARK SMILES IDX 60 60 81 61 48 62 32 63 33 64 41 65 34 66 35 67 39 68 42 69
REMARK SMILES IDX 36 70 37 71 40 72 38 73 64 74 65 75 73 76 66 77 67 78 71 79
REMARK SMILES IDX 74 80 68 81 69 82 72 83 70 84 49 85 50 86 58 87 51 88 52 89
REMARK SMILES IDX 56 90 59 91 53 92 54 93 57 94 55 95
REMARK H PARENT 16 6 6 15 9 17 2 23 20 29 79 48 47 59
REMARK Flexibility Score: inf
ROOT
ATOM      1  C   UNL A   1      37.966  19.567  24.995  1.00  0.00     0.042 C 
ENDROOT
BRANCH   1   2
ATOM      2  C   UNL A   1      36.762  20.502  25.000  1.00  0.00     0.117 C 
BRANCH   2   3
ATOM      3  N   UNL A   1      35.514  19.761  25.001  1.00  0.00    -0.356 N 
ATOM      4  C   UNL A   1      34.240  20.236  24.871  1.00  0.00     0.227 C 
ATOM      5  O   UNL A   1      33.305  19.442  24.969  1.00  0.00    -0.274 OA
ATOM      6  H   UNL A   1      35.596  18.786  25.112  1.00  0.00     0.163 HD
BRANCH   4   7
ATOM      7  C   UNL A   1      34.053  21.714  24.556  1.00  0.00     0.103 C 
ATOM      8  C   UNL A   1      32.258  23.143  25.457  1.00  0.00     0.107 C 
ATOM      9  C   UNL A   1      31.922  22.591  24.111  1.00  0.00    -0.006 C 
ATOM     10  C   UNL A   1      33.620  22.523  25.788  1.00  0.00     0.047 C 
ATOM     11  C   UNL A   1      32.902  21.840  23.608  1.00  0.00    -0.016 C 
BRANCH   8  12
ATOM     12  N   UNL A   1      31.205  22.792  26.377  1.00  0.00    -0.332 N 
ATOM     13  N   UNL A   1      29.827  24.720  26.502  1.00  0.00    -0.335 N 
ATOM     14  C   UNL A   1      30.145  23.462  26.864  1.00  0.00     0.315 C 
ATOM     15  H   UNL A   1      29.022  25.073  26.948  1.00  0.00     0.165 HD
ATOM     16  O   UNL A   1      29.417  22.892  27.681  1.00  0.00    -0.249 OA
ATOM     17  H   UNL A   1      31.274  21.872  26.718  1.00  0.00     0.165 HD
BRANCH  13  18
ATOM     18  C   UNL A   1      30.447  25.650  25.583  1.00  0.00     0.095 C 
ATOM     19  C   UNL A   1      32.053  28.675  23.155  1.00  0.00     0.332 C 
ATOM     20  N   UNL A   1      31.170  28.047  24.143  1.00  0.00    -0.337 N 
ATOM     21  C   UNL A   1      31.967  27.589  25.293  1.00  0.00     0.264 C 
ATOM     22  C   UNL A   1      30.383  26.975  23.508  1.00  0.00     0.264 C 
ATOM     23  H   UNL A   1      30.494  28.723  24.501  1.00  0.00     0.347 HD
ATOM     24  C   UNL A   1      31.136  26.803  26.304  1.00  0.00     0.086 C 
ATOM     25  C   UNL A   1      29.514  26.213  24.519  1.00  0.00     0.086 C 
ENDBRANCH  13  18
ENDBRANCH   8  12
ENDBRANCH   4   7
ENDBRANCH   2   3
ENDBRANCH   1   2
BRANCH   1  26
ATOM     26  C   UNL A   1      39.170  20.122  25.751  1.00  0.00     0.118 C 
BRANCH  26  27
ATOM     27  N   UNL A   1      40.217  19.127  25.938  1.00  0.00    -0.352 N 
ATOM     28  C   UNL A   1      41.566  19.284  26.130  1.00  0.00     0.251 C 
ATOM     29  H   UNL A   1      39.908  18.193  25.924  1.00  0.00     0.163 HD
ATOM     30  O   UNL A   1      42.308  18.311  26.058  1.00  0.00    -0.269 OA
BRANCH  28  31
ATOM     31  C   UNL A   1      42.128  20.621  26.406  1.00  0.00     0.039 A 
ATOM     32  C   UNL A   1      42.520  21.421  25.330  1.00  0.00     0.014 A 
ATOM     33  C   UNL A   1      42.294  21.075  27.716  1.00  0.00     0.014 A 
ATOM     34  C   UNL A   1      43.021  22.701  25.567  1.00  0.00     0.010 A 
ATOM     35  C   UNL A   1      42.714  22.380  27.948  1.00  0.00     0.010 A 
ATOM     36  C   UNL A   1      43.088  23.205  26.876  1.00  0.00    -0.014 A 
BRANCH  36  37
ATOM     37  C   UNL A   1      43.548  24.589  27.144  1.00  0.00     0.031 A 
ATOM     38  C   UNL A   1      42.587  25.615  27.677  1.00  0.00     0.074 A 
ATOM     39  C   UNL A   1      44.814  24.937  26.847  1.00  0.00     0.049 A 
ATOM     40  N   UNL A   1      42.782  26.887  27.917  1.00  0.00    -0.248 NA
ATOM     41  C   UNL A   1      41.217  25.156  27.951  1.00  0.00     0.031 C 
ATOM     42  C   UNL A   1      45.826  24.043  26.285  1.00  0.00     0.029 A 
ATOM     43  N   UNL A   1      45.462  26.140  26.969  1.00  0.00    -0.354 N 
ATOM     44  C   UNL A   1      41.560  27.380  28.357  1.00  0.00     0.074 A 
ATOM     45  C   UNL A   1      40.616  26.286  28.288  1.00  0.00     0.031 C 
ATOM     46  C   UNL A   1      46.976  24.718  26.141  1.00  0.00     0.029 A 
ATOM     47  C   UNL A   1      46.772  26.102  26.555  1.00  0.00     0.049 A 
ATOM     48  H   UNL A   1      45.031  26.954  27.319  1.00  0.00     0.167 HD
ATOM     49  C   UNL A   1      41.260  28.624  28.800  1.00  0.00     0.037 A 
ATOM     50  C   UNL A   1      47.699  27.076  26.510  1.00  0.00     0.037 A 
ATOM     51  C   UNL A   1      42.209  29.704  28.875  1.00  0.00     0.049 A 
ATOM     52  C   UNL A   1      47.334  28.458  26.980  1.00  0.00     0.074 A 
ATOM     53  C   UNL A   1      42.021  30.988  29.358  1.00  0.00     0.029 A 
ATOM     54  N   UNL A   1      43.527  29.629  28.444  1.00  0.00    -0.354 N 
ATOM     55  N   UNL A   1      46.196  28.897  27.458  1.00  0.00    -0.248 NA
ATOM     56  C   UNL A   1      48.388  29.479  26.906  1.00  0.00     0.031 C 
ATOM     57  C   UNL A   1      43.206  31.705  29.165  1.00  0.00     0.029 A 
ATOM     58  C   UNL A   1      44.155  30.853  28.623  1.00  0.00     0.049 A 
ATOM     59  H   UNL A   1      43.953  28.826  28.068  1.00  0.00     0.167 HD
ATOM     60  C   UNL A   1      46.403  30.233  27.773  1.00  0.00     0.074 A 
ATOM     61  C   UNL A   1      47.782  30.529  27.442  1.00  0.00     0.031 C 
ATOM     62  C   UNL A   1      45.529  31.132  28.291  1.00  0.00     0.037 A 
BRANCH  49  63
ATOM     63  C   UNL A   1      39.843  28.880  29.230  1.00  0.00     0.064 A 
ATOM     64  C   UNL A   1      39.428  28.694  30.560  1.00  0.00     0.173 A 
ATOM     65  C   UNL A   1      38.886  29.326  28.306  1.00  0.00     0.173 A 
ATOM     66  F   UNL A   1      40.299  28.258  31.483  1.00  0.00    -0.203 F 
ATOM     67  C   UNL A   1      38.103  28.899  30.934  1.00  0.00     0.198 A 
ATOM     68  C   UNL A   1      37.570  29.567  28.693  1.00  0.00     0.198 A 
ATOM     69  F   UNL A   1      39.226  29.530  27.024  1.00  0.00    -0.203 F 
ATOM     70  F   UNL A   1      37.719  28.648  32.194  1.00  0.00    -0.200 F 
ATOM     71  C   UNL A   1      37.177  29.342  30.003  1.00  0.00     0.200 A 
ATOM     72  F   UNL A   1      36.680  30.010  27.794  1.00  0.00    -0.200 F 
ATOM     73  F   UNL A   1      35.902  29.540  30.366  1.00  0.00    -0.200 F 
ENDBRANCH  49  63
BRANCH  50  74
ATOM     74  C   UNL A   1      49.073  26.767  26.034  1.00  0.00     0.064 A 
ATOM     75  C   UNL A   1      49.437  26.994  24.699  1.00  0.00     0.173 A 
ATOM     76  C   UNL A   1      50.051  26.255  26.899  1.00  0.00     0.173 A 
ATOM     77  F   UNL A   1      48.530  27.466  23.829  1.00  0.00    -0.203 F 
ATOM     78  C   UNL A   1      50.720  26.704  24.243  1.00  0.00     0.198 A 
ATOM     79  C   UNL A   1      51.343  25.993  26.448  1.00  0.00     0.198 A 
ATOM     80  F   UNL A   1      49.757  26.027  28.187  1.00  0.00    -0.203 F 
ATOM     81  F   UNL A   1      51.029  26.891  22.953  1.00  0.00    -0.200 F 
ATOM     82  C   UNL A   1      51.675  26.211  25.119  1.00  0.00     0.200 A 
ATOM     83  F   UNL A   1      52.268  25.534  27.303  1.00  0.00    -0.200 F 
ATOM     84  F   UNL A   1      52.913  25.942  24.683  1.00  0.00    -0.200 F 
ENDBRANCH  50  74
BRANCH  62  85
ATOM     85  C   UNL A   1      46.050  32.515  28.570  1.00  0.00     0.064 A 
ATOM     86  C   UNL A   1      45.959  33.545  27.623  1.00  0.00     0.173 A 
ATOM     87  C   UNL A   1      46.612  32.820  29.820  1.00  0.00     0.173 A 
ATOM     88  F   UNL A   1      45.444  33.302  26.408  1.00  0.00    -0.203 F 
ATOM     89  C   UNL A   1      46.438  34.822  27.907  1.00  0.00     0.198 A 
ATOM     90  C   UNL A   1      47.057  34.105  30.112  1.00  0.00     0.198 A 
ATOM     91  F   UNL A   1      46.716  31.872  30.764  1.00  0.00    -0.203 F 
ATOM     92  F   UNL A   1      46.390  35.777  26.968  1.00  0.00    -0.200 F 
ATOM     93  C   UNL A   1      46.979  35.102  29.153  1.00  0.00     0.200 A 
ATOM     94  F   UNL A   1      47.565  34.378  31.322  1.00  0.00    -0.200 F 
ATOM     95  F   UNL A   1      47.431  36.334  29.427  1.00  0.00    -0.200 F 
ENDBRANCH  62  85
ENDBRANCH  36  37
ENDBRANCH  28  31
ENDBRANCH  26  27
ENDBRANCH   1  26
TORSDOF 12
ENDMDL
MODEL 2
REMARK VINA RESULT:     -13.4      0.056      1.134
REMARK SMILES C[NH+]1CCC(NC(=O)N[C@@H]2C=C[C@H](C(=O)NCCCNC(=O)c3ccc(-c4c5nc(c(-c6c(F)c(F)c(F)c(F)c6F)c6ccc([nH]6)c(-c6c(F)c(F)c(F)c(F)c6F)c6nc(c(-c7c(F)c(F)c(F)c(F)c7F)c7ccc4[nH]7)C=C6)C=C5)cc3)C2)CC1
REMARK SMILES IDX 18 1 17 2 16 3 14 4 15 5 13 7 10 8 11 9 86 10 12 11 9 12
REMARK SMILES IDX 6 13 7 14 8 16 5 18 1 19 2 20 3 21 88 22 4 24 87 25 19 26
REMARK SMILES IDX 20 27 21 28 22 30 23 31 24 32 85 33 25 34 84 35 26 36 27 37
REMARK SMILES IDX 28 38 78 39 29 40 83 41 77 42 79 43 30 44 82 45 76 46 75 47
REMARK SMILES IDX 31 49 63 50 43 51 62 52 44 53 47 54 61 55 80 56 45 57 46 58
REMARK SMILES IDX 60 60 81 61 48 62 32 63 33 64 41 65 34 66 35 67 39 68 42 69
REMARK SMILES IDX 36 70 37 71 40 72 38 73 64 74 65 75 73 76 66 77 67 78 71 79
REMARK SMILES IDX 74 80 68 81 69 82 72 83 70 84 49 85 50 86 58 87 51 88 52 89
REMARK SMILES IDX 56 90 59 91 53 92 54 93 57 94 55 95
REMARK H PARENT 16 6 6 15 9 17 2 23 20 29 79 48 47 59
REMARK Flexibility Score: inf
ROOT
ATOM      1  C   UNL A   1      37.963  19.574  24.993  1.00  0.00     0.042 C 
ENDROOT
BRANCH   1   2
ATOM      2  C   UNL A   1      36.757  20.505  25.001  1.00  0.00     0.117 C 
BRANCH   2   3
ATOM      3  N   UNL A   1      35.511  19.761  25.001  1.00  0.00    -0.356 N 
ATOM      4  C   UNL A   1      34.236  20.232  24.862  1.00  0.00     0.227 C 
ATOM      5  O   UNL A   1      33.303  19.435  24.960  1.00  0.00    -0.274 OA
ATOM      6  H   UNL A   1      35.595  18.787  25.118  1.00  0.00     0.163 HD
BRANCH   4   7
ATOM      7  C   UNL A   1      34.046  21.707  24.538  1.00  0.00     0.103 C 
ATOM      8  C   UNL A   1      32.250  23.139  25.430  1.00  0.00     0.107 C 
ATOM      9  C   UNL A   1      31.914  22.578  24.088  1.00  0.00    -0.006 C 
ATOM     10  C   UNL A   1      33.613  22.523  25.764  1.00  0.00     0.047 C 
ATOM     11  C   UNL A   1      32.894  21.825  23.589  1.00  0.00    -0.016 C 
BRANCH   8  12
ATOM     12  N   UNL A   1      31.197  22.792  26.353  1.00  0.00    -0.332 N 
ATOM     13  N   UNL A   1      29.842  24.735  26.501  1.00  0.00    -0.335 N 
ATOM     14  C   UNL A   1      30.148  23.470  26.851  1.00  0.00     0.315 C 
ATOM     15  H   UNL A   1      29.044  25.093  26.954  1.00  0.00     0.165 HD
ATOM     16  O   UNL A   1      29.419  22.902  27.667  1.00  0.00    -0.249 OA
ATOM     17  H   UNL A   1      31.259  21.869  26.686  1.00  0.00     0.165 HD
BRANCH  13  18
ATOM     18  C   UNL A   1      30.467  25.666  25.585  1.00  0.00     0.095 C 
ATOM     19  C   UNL A   1      32.101  28.692  23.178  1.00  0.00     0.332 C 
ATOM     20  N   UNL A   1      31.221  28.068  24.172  1.00  0.00    -0.337 N 
ATOM     21  C   UNL A   1      32.028  27.572  25.298  1.00  0.00     0.264 C 
ATOM     22  C   UNL A   1      30.397  27.026  23.535  1.00  0.00     0.264 C 
ATOM     23  H   UNL A   1      30.569  28.754  24.553  1.00  0.00     0.347 HD
ATOM     24  C   UNL A   1      31.198  26.789  26.312  1.00  0.00     0.086 C 
ATOM     25  C   UNL A   1      29.528  26.268  24.549  1.00  0.00     0.086 C 
ENDBRANCH  13  18
ENDBRANCH   8  12
ENDBRANCH   4   7
ENDBRANCH   2   3
ENDBRANCH   1   2
BRANCH   1  26
ATOM     26  C   UNL A   1      39.166  20.131  25.751  1.00  0.00     0.118 C 
BRANCH  26  27
ATOM     27  N   UNL A   1      40.210  19.134  25.949  1.00  0.00    -0.352 N 
ATOM     28  C   UNL A   1      41.557  19.289  26.153  1.00  0.00     0.251 C 
ATOM     29  H   UNL A   1      39.898  18.200  25.934  1.00  0.00     0.163 HD
ATOM     30  O   UNL A   1      42.297  18.314  26.089  1.00  0.00    -0.269 OA
BRANCH  28  31
ATOM     31  C   UNL A   1      42.118  20.625  26.433  1.00  0.00     0.039 A 
ATOM     32  C   UNL A   1      42.516  21.426  25.359  1.00  0.00     0.014 A 
ATOM     33  C   UNL A   1      42.279  21.078  27.744  1.00  0.00     0.014 A 
ATOM     34  C   UNL A   1      43.017  22.705  25.600  1.00  0.00     0.010 A 
ATOM     35  C   UNL A   1      42.699  22.382  27.979  1.00  0.00     0.010 A 
ATOM     36  C   UNL A   1      43.079  23.207  26.909  1.00  0.00    -0.014 A 
BRANCH  36  37
ATOM     37  C   UNL A   1      43.538  24.591  27.181  1.00  0.00     0.031 A 
ATOM     38  C   UNL A   1      42.580  25.614  27.722  1.00  0.00     0.074 A 
ATOM     39  C   UNL A   1      44.803  24.941  26.879  1.00  0.00     0.049 A 
ATOM     40  N   UNL A   1      42.775  26.885  27.966  1.00  0.00    -0.248 NA
ATOM     41  C   UNL A   1      41.211  25.153  28.000  1.00  0.00     0.031 C 
ATOM     42  C   UNL A   1      45.813  24.050  26.310  1.00  0.00     0.029 A 
ATOM     43  N   UNL A   1      45.451  26.144  27.003  1.00  0.00    -0.354 N 
ATOM     44  C   UNL A   1      41.554  27.376  28.413  1.00  0.00     0.074 A 
ATOM     45  C   UNL A   1      40.611  26.282  28.344  1.00  0.00     0.031 C 
ATOM     46  C   UNL A   1      46.963  24.726  26.163  1.00  0.00     0.029 A 
ATOM     47  C   UNL A   1      46.759  26.109  26.584  1.00  0.00     0.049 A 
ATOM     48  H   UNL A   1      45.021  26.956  27.358  1.00  0.00     0.167 HD
ATOM     49  C   UNL A   1      41.255  28.617  28.862  1.00  0.00     0.037 A 
ATOM     50  C   UNL A   1      47.685  27.084  26.538  1.00  0.00     0.037 A 
ATOM     51  C   UNL A   1      42.203  29.698  28.937  1.00  0.00     0.049 A 
ATOM     52  C   UNL A   1      47.321  28.463  27.015  1.00  0.00     0.074 A 
ATOM     53  C   UNL A   1      42.017  30.980  29.425  1.00  0.00     0.029 A 
ATOM     54  N   UNL A   1      43.519  29.626  28.500  1.00  0.00    -0.354 N 
ATOM     55  N   UNL A   1      46.185  28.900  27.500  1.00  0.00    -0.248 NA
ATOM     56  C   UNL A   1      48.374  29.486  26.940  1.00  0.00     0.031 C 
ATOM     57  C   UNL A   1      43.200  31.699  29.230  1.00  0.00     0.029 A 
ATOM     58  C   UNL A   1      44.147  30.850  28.680  1.00  0.00     0.049 A 
ATOM     59  H   UNL A   1      43.944  28.824  28.119  1.00  0.00     0.167 HD
ATOM     60  C   UNL A   1      46.392  30.235  27.819  1.00  0.00     0.074 A 
ATOM     61  C   UNL A   1      47.769  30.533  27.482  1.00  0.00     0.031 C 
ATOM     62  C   UNL A   1      45.520  31.131  28.344  1.00  0.00     0.037 A 
BRANCH  49  63
ATOM     63  C   UNL A   1      39.839  28.870  29.300  1.00  0.00     0.064 A 
ATOM     64  C   UNL A   1      39.426  28.660  30.626  1.00  0.00     0.173 A 
ATOM     65  C   UNL A   1      38.883  29.339  28.386  1.00  0.00     0.173 A 
ATOM     66  F   UNL A   1      40.296  28.203  31.539  1.00  0.00    -0.203 F 
ATOM     67  C   UNL A   1      38.102  28.863  31.006  1.00  0.00     0.198 A 
ATOM     68  C   UNL A   1      37.569  29.578  28.779  1.00  0.00     0.198 A 
ATOM     69  F   UNL A   1      39.222  29.567  27.108  1.00  0.00    -0.203 F 
ATOM     70  F   UNL A   1      37.719  28.589  32.261  1.00  0.00    -0.200 F 
ATOM     71  C   UNL A   1      37.177  29.328  30.085  1.00  0.00     0.200 A 
ATOM     72  F   UNL A   1      36.679  30.042  27.891  1.00  0.00    -0.200 F 
ATOM     73  F   UNL A   1      35.903  29.525  30.454  1.00  0.00    -0.200 F 
ENDBRANCH  49  63
BRANCH  50  74
ATOM     74  C   UNL A   1      49.057  26.777  26.054  1.00  0.00     0.064 A 
ATOM     75  C   UNL A   1      49.410  26.992  24.714  1.00  0.00     0.173 A 
ATOM     76  C   UNL A   1      50.045  26.281  26.917  1.00  0.00     0.173 A 
ATOM     77  F   UNL A   1      48.494  27.449  23.847  1.00  0.00    -0.203 F 
ATOM     78  C   UNL A   1      50.691  26.704  24.252  1.00  0.00     0.198 A 
ATOM     79  C   UNL A   1      51.335  26.022  26.460  1.00  0.00     0.198 A 
ATOM     80  F   UNL A   1      49.762  26.065  28.210  1.00  0.00    -0.203 F 
ATOM     81  F   UNL A   1      50.989  26.880  22.957  1.00  0.00    -0.200 F 
ATOM     82  C   UNL A   1      51.656  26.227  25.126  1.00  0.00     0.200 A 
ATOM     83  F   UNL A   1      52.269  25.577  27.313  1.00  0.00    -0.200 F 
ATOM     84  F   UNL A   1      52.892  25.960  24.683  1.00  0.00    -0.200 F 
ENDBRANCH  50  74
BRANCH  62  85
ATOM     85  C   UNL A   1      46.040  32.513  28.626  1.00  0.00     0.064 A 
ATOM     86  C   UNL A   1      46.655  32.838  29.844  1.00  0.00     0.173 A 
ATOM     87  C   UNL A   1      45.956  33.514  27.645  1.00  0.00     0.173 A 
ATOM     88  F   UNL A   1      46.747  31.922  30.820  1.00  0.00    -0.203 F 
ATOM     89  C   UNL A   1      47.140  34.123  30.080  1.00  0.00     0.198 A 
ATOM     90  C   UNL A   1      46.473  34.786  27.872  1.00  0.00     0.198 A 
ATOM     91  F   UNL A   1      45.384  33.254  26.460  1.00  0.00    -0.203 F 
ATOM     92  F   UNL A   1      47.675  34.426  31.271  1.00  0.00    -0.200 F 
ATOM     93  C   UNL A   1      47.056  35.092  29.092  1.00  0.00     0.200 A 
ATOM     94  F   UNL A   1      46.405  35.716  26.910  1.00  0.00    -0.200 F 
ATOM     95  F   UNL A   1      47.531  36.325  29.318  1.00  0.00    -0.200 F 
ENDBRANCH  62  85
ENDBRANCH  36  37
ENDBRANCH  28  31
ENDBRANCH  26  27
ENDBRANCH   1  26
TORSDOF 12
ENDMDL
MODEL 3
REMARK VINA RESULT:     -13.2      0.565      7.548
REMARK SMILES C[NH+]1CCC(NC(=O)N[C@@H]2C=C[C@H](C(=O)NCCCNC(=O)c3ccc(-c4c5nc(c(-c6c(F)c(F)c(F)c(F)c6F)c6ccc([nH]6)c(-c6c(F)c(F)c(F)c(F)c6F)c6nc(c(-c7c(F)c(F)c(F)c(F)c7F)c7ccc4[nH]7)C=C6)C=C5)cc3)C2)CC1
REMARK SMILES IDX 18 1 17 2 16 3 14 4 15 5 13 7 10 8 11 9 86 10 12 11 9 12
REMARK SMILES IDX 6 13 7 14 8 16 5 18 1 19 2 20 3 21 88 22 4 24 87 25 19 26
REMARK SMILES IDX 20 27 21 28 22 30 23 31 24 32 85 33 25 34 84 35 26 36 27 37
REMARK SMILES IDX 28 38 78 39 29 40 83 41 77 42 79 43 30 44 82 45 76 46 75 47
REMARK SMILES IDX 31 49 63 50 43 51 62 52 44 53 47 54 61 55 80 56 45 57 46 58
REMARK SMILES IDX 60 60 81 61 48 62 32 63 33 64 41 65 34 66 35 67 39 68 42 69
REMARK SMILES IDX 36 70 37 71 40 72 38 73 64 74 65 75 73 76 66 77 67 78 71 79
REMARK SMILES IDX 74 80 68 81 69 82 72 83 70 84 49 85 50 86 58 87 51 88 52 89
REMARK SMILES IDX 56 90 59 91 53 92 54 93 57 94 55 95
REMARK H PARENT 16 6 6 15 9 17 2 23 20 29 79 48 47 59
REMARK Flexibility Score: inf
ROOT
ATOM      1  C   UNL A   1      37.925  19.525  25.003  1.00  0.00     0.042 C 
ENDROOT
BRANCH   1   2
ATOM      2  C   UNL A   1      36.696  20.425  24.949  1.00  0.00     0.117 C 
BRANCH   2   3
ATOM      3  N   UNL A   1      35.469  19.653  25.013  1.00  0.00    -0.356 N 
ATOM      4  C   UNL A   1      34.181  20.087  24.878  1.00  0.00     0.227 C 
ATOM      5  O   UNL A   1      33.270  19.275  25.036  1.00  0.00    -0.274 OA
ATOM      6  H   UNL A   1      35.580  18.688  25.176  1.00  0.00     0.163 HD
BRANCH   4   7
ATOM      7  C   UNL A   1      33.949  21.539  24.486  1.00  0.00     0.103 C 
ATOM      8  C   UNL A   1      32.151  22.979  25.363  1.00  0.00     0.107 C 
ATOM      9  C   UNL A   1      31.785  22.342  24.063  1.00  0.00    -0.006 C 
ATOM     10  C   UNL A   1      33.537  22.409  25.682  1.00  0.00     0.047 C 
ATOM     11  C   UNL A   1      32.765  21.584  23.571  1.00  0.00    -0.016 C 
BRANCH   8  12
ATOM     12  N   UNL A   1      31.137  22.659  26.336  1.00  0.00    -0.332 N 
ATOM     13  N   UNL A   1      29.838  24.635  26.546  1.00  0.00    -0.335 N 
ATOM     14  C   UNL A   1      30.130  23.364  26.884  1.00  0.00     0.315 C 
ATOM     15  H   UNL A   1      29.073  25.013  27.036  1.00  0.00     0.165 HD
ATOM     16  O   UNL A   1      29.427  22.815  27.736  1.00  0.00    -0.249 OA
ATOM     17  H   UNL A   1      31.192  21.735  26.669  1.00  0.00     0.165 HD
BRANCH  13  18
ATOM     18  C   UNL A   1      30.441  25.549  25.599  1.00  0.00     0.095 C 
ATOM     19  C   UNL A   1      32.051  28.531  23.121  1.00  0.00     0.332 C 
ATOM     20  N   UNL A   1      31.219  27.936  24.173  1.00  0.00    -0.337 N 
ATOM     21  C   UNL A   1      32.084  27.368  25.219  1.00  0.00     0.264 C 
ATOM     22  C   UNL A   1      30.286  26.959  23.587  1.00  0.00     0.264 C 
ATOM     23  H   UNL A   1      30.642  28.650  24.619  1.00  0.00     0.347 HD
ATOM     24  C   UNL A   1      31.294  26.611  26.284  1.00  0.00     0.086 C 
ATOM     25  C   UNL A   1      29.459  26.229  24.655  1.00  0.00     0.086 C 
ENDBRANCH  13  18
ENDBRANCH   8  12
ENDBRANCH   4   7
ENDBRANCH   2   3
ENDBRANCH   1   2
BRANCH   1  26
ATOM     26  C   UNL A   1      39.101  20.146  25.753  1.00  0.00     0.118 C 
BRANCH  26  27
ATOM     27  N   UNL A   1      40.205  19.212  25.928  1.00  0.00    -0.352 N 
ATOM     28  C   UNL A   1      41.541  19.446  26.130  1.00  0.00     0.251 C 
ATOM     29  H   UNL A   1      39.952  18.261  25.897  1.00  0.00     0.163 HD
ATOM     30  O   UNL A   1      42.340  18.521  26.045  1.00  0.00    -0.269 OA
BRANCH  28  31
ATOM     31  C   UNL A   1      42.021  20.809  26.433  1.00  0.00     0.039 A 
ATOM     32  C   UNL A   1      42.269  21.685  25.373  1.00  0.00     0.014 A 
ATOM     33  C   UNL A   1      42.251  21.215  27.749  1.00  0.00     0.014 A 
ATOM     34  C   UNL A   1      42.689  22.989  25.639  1.00  0.00     0.010 A 
ATOM     35  C   UNL A   1      42.589  22.537  28.016  1.00  0.00     0.010 A 
ATOM     36  C   UNL A   1      42.818  23.436  26.963  1.00  0.00    -0.014 A 
BRANCH  36  37
ATOM     37  C   UNL A   1      43.192  24.839  27.268  1.00  0.00     0.031 A 
ATOM     38  C   UNL A   1      44.594  25.319  27.021  1.00  0.00     0.074 A 
ATOM     39  C   UNL A   1      42.283  25.661  27.827  1.00  0.00     0.049 A 
ATOM     40  N   UNL A   1      45.128  26.487  27.278  1.00  0.00    -0.248 NA
ATOM     41  C   UNL A   1      45.529  24.349  26.431  1.00  0.00     0.031 C 
ATOM     42  C   UNL A   1      40.904  25.297  28.154  1.00  0.00     0.029 A 
ATOM     43  N   UNL A   1      42.387  26.969  28.226  1.00  0.00    -0.354 N 
ATOM     44  C   UNL A   1      46.459  26.386  26.894  1.00  0.00     0.074 A 
ATOM     45  C   UNL A   1      46.666  25.026  26.448  1.00  0.00     0.031 C 
ATOM     46  C   UNL A   1      40.281  26.366  28.674  1.00  0.00     0.029 A 
ATOM     47  C   UNL A   1      41.227  27.474  28.760  1.00  0.00     0.049 A 
ATOM     48  H   UNL A   1      43.214  27.497  28.139  1.00  0.00     0.167 HD
ATOM     49  C   UNL A   1      47.413  27.347  26.891  1.00  0.00     0.037 A 
ATOM     50  C   UNL A   1      40.959  28.692  29.267  1.00  0.00     0.037 A 
ATOM     51  C   UNL A   1      47.195  28.702  27.328  1.00  0.00     0.049 A 
ATOM     52  C   UNL A   1      42.043  29.734  29.280  1.00  0.00     0.074 A 
ATOM     53  C   UNL A   1      48.079  29.766  27.317  1.00  0.00     0.029 A 
ATOM     54  N   UNL A   1      46.006  29.176  27.866  1.00  0.00    -0.354 N 
ATOM     55  N   UNL A   1      43.279  29.651  28.852  1.00  0.00    -0.248 NA
ATOM     56  C   UNL A   1      41.692  31.044  29.847  1.00  0.00     0.031 C 
ATOM     57  C   UNL A   1      47.445  30.868  27.901  1.00  0.00     0.029 A 
ATOM     58  C   UNL A   1      46.144  30.511  28.217  1.00  0.00     0.049 A 
ATOM     59  H   UNL A   1      45.186  28.644  27.980  1.00  0.00     0.167 HD
ATOM     60  C   UNL A   1      43.844  30.901  29.064  1.00  0.00     0.074 A 
ATOM     61  C   UNL A   1      42.810  31.729  29.650  1.00  0.00     0.031 C 
ATOM     62  C   UNL A   1      45.104  31.324  28.797  1.00  0.00     0.037 A 
BRANCH  49  63
ATOM     63  C   UNL A   1      48.782  26.959  26.407  1.00  0.00     0.064 A 
ATOM     64  C   UNL A   1      49.155  27.095  25.059  1.00  0.00     0.173 A 
ATOM     65  C   UNL A   1      49.738  26.453  27.300  1.00  0.00     0.173 A 
ATOM     66  F   UNL A   1      48.277  27.564  24.160  1.00  0.00    -0.203 F 
ATOM     67  C   UNL A   1      50.415  26.696  24.619  1.00  0.00     0.198 A 
ATOM     68  C   UNL A   1      51.010  26.090  26.863  1.00  0.00     0.198 A 
ATOM     69  F   UNL A   1      49.441  26.309  28.600  1.00  0.00    -0.203 F 
ATOM     70  F   UNL A   1      50.721  26.772  23.316  1.00  0.00    -0.200 F 
ATOM     71  C   UNL A   1      51.342  26.200  25.522  1.00  0.00     0.200 A 
ATOM     72  F   UNL A   1      51.911  25.626  27.739  1.00  0.00    -0.200 F 
ATOM     73  F   UNL A   1      52.555  25.818  25.096  1.00  0.00    -0.200 F 
ENDBRANCH  49  63
BRANCH  50  74
ATOM     74  C   UNL A   1      39.595  28.999  29.770  1.00  0.00     0.064 A 
ATOM     75  C   UNL A   1      39.252  28.755  31.107  1.00  0.00     0.173 A 
ATOM     76  C   UNL A   1      38.613  29.553  28.935  1.00  0.00     0.173 A 
ATOM     77  F   UNL A   1      40.151  28.209  31.939  1.00  0.00    -0.203 F 
ATOM     78  C   UNL A   1      37.975  29.037  31.586  1.00  0.00     0.198 A 
ATOM     79  C   UNL A   1      37.345  29.862  29.423  1.00  0.00     0.198 A 
ATOM     80  F   UNL A   1      38.892  29.813  27.650  1.00  0.00    -0.203 F 
ATOM     81  F   UNL A   1      37.661  28.756  32.858  1.00  0.00    -0.200 F 
ATOM     82  C   UNL A   1      37.024  29.597  30.746  1.00  0.00     0.200 A 
ATOM     83  F   UNL A   1      36.435  30.420  28.612  1.00  0.00    -0.200 F 
ATOM     84  F   UNL A   1      35.799  29.878  31.210  1.00  0.00    -0.200 F 
ENDBRANCH  50  74
BRANCH  62  85
ATOM     85  C   UNL A   1      45.426  32.761  29.099  1.00  0.00     0.064 A 
ATOM     86  C   UNL A   1      45.991  33.152  30.321  1.00  0.00     0.173 A 
ATOM     87  C   UNL A   1      45.201  33.755  28.132  1.00  0.00     0.173 A 
ATOM     88  F   UNL A   1      46.211  32.245  31.285  1.00  0.00    -0.203 F 
ATOM     89  C   UNL A   1      46.291  34.489  30.576  1.00  0.00     0.198 A 
ATOM     90  C   UNL A   1      45.535  35.083  28.377  1.00  0.00     0.198 A 
ATOM     91  F   UNL A   1      44.669  33.433  26.943  1.00  0.00    -0.203 F 
ATOM     92  F   UNL A   1      46.780  34.847  31.771  1.00  0.00    -0.200 F 
ATOM     93  C   UNL A   1      46.070  35.451  29.601  1.00  0.00     0.200 A 
ATOM     94  F   UNL A   1      45.336  36.008  27.428  1.00  0.00    -0.200 F 
ATOM     95  F   UNL A   1      46.369  36.734  29.845  1.00  0.00    -0.200 F 
ENDBRANCH  62  85
ENDBRANCH  36  37
ENDBRANCH  28  31
ENDBRANCH  26  27
ENDBRANCH   1  26
TORSDOF 12
ENDMDL
