MODEL 1
REMARK VINA RESULT:     -11.8      0.000      0.000
REMARK SMILES COC1CCN(c2ccnc(C(=O)NCCCNC(=O)c3ccc(-c4c5nc(c(-c6c(F)c(F)c(F)c(F)c6F)c6ccc([nH]6)c(-c6c(F)c(F)c(F)c(F)c6F)c6nc(c(-c7c(F)c(F)c(F)c(F)c7F)c7ccc4[nH]7)C=C6)C=C5)cc3)c2)CC1
REMARK SMILES IDX 16 1 15 2 14 3 12 4 13 5 11 7 7 8 8 9 84 10 9 11 10 12 6 13
REMARK SMILES IDX 3 14 4 15 86 16 5 17 85 18 2 19 1 20 17 21 18 22 19 23 20 25
REMARK SMILES IDX 21 26 22 27 83 28 23 29 82 30 24 31 25 32 26 33 76 34 27 35
REMARK SMILES IDX 81 36 75 37 77 38 28 39 80 40 74 41 73 42 29 44 61 45 41 46
REMARK SMILES IDX 60 47 42 48 45 49 59 50 78 51 43 52 44 53 58 55 79 56 46 57
REMARK SMILES IDX 30 58 31 59 39 60 32 61 33 62 37 63 40 64 34 65 35 66 38 67
REMARK SMILES IDX 36 68 62 69 63 70 71 71 64 72 65 73 69 74 72 75 66 76 67 77
REMARK SMILES IDX 70 78 68 79 47 80 48 81 56 82 49 83 50 84 54 85 57 86 51 87
REMARK SMILES IDX 52 88 55 89 53 90
REMARK H PARENT 14 6 18 24 77 43 45 54
REMARK Flexibility Score: inf
ROOT
ATOM      1  C   UNL A   1      35.181  33.296  27.921  1.00  0.00     0.042 C 
ENDROOT
BRANCH   1   2
ATOM      2  C   UNL A   1      35.244  34.780  28.295  1.00  0.00     0.118 C 
BRANCH   2   3
ATOM      3  N   UNL A   1      33.926  35.385  28.268  1.00  0.00    -0.351 N 
ATOM      4  C   UNL A   1      33.110  35.931  29.236  1.00  0.00     0.269 C 
ATOM      5  O   UNL A   1      32.039  36.388  28.829  1.00  0.00    -0.268 OA
ATOM      6  H   UNL A   1      33.531  35.414  27.366  1.00  0.00     0.163 HD
BRANCH   4   7
ATOM      7  C   UNL A   1      33.456  36.013  30.702  1.00  0.00     0.130 A 
ATOM      8  C   UNL A   1      34.329  35.138  32.774  1.00  0.00     0.040 A 
ATOM      9  C   UNL A   1      34.042  36.363  33.365  1.00  0.00     0.046 A 
ATOM     10  C   UNL A   1      33.977  34.960  31.435  1.00  0.00     0.060 A 
ATOM     11  C   UNL A   1      33.485  37.361  32.586  1.00  0.00     0.114 A 
ATOM     12  N   UNL A   1      33.202  37.219  31.275  1.00  0.00    -0.251 NA
BRANCH   8  13
ATOM     13  N   UNL A   1      34.981  34.144  33.468  1.00  0.00    -0.371 N 
ATOM     14  C   UNL A   1      37.460  32.791  33.923  1.00  0.00     0.121 C 
ATOM     15  C   UNL A   1      37.216  34.217  34.435  1.00  0.00     0.053 C 
ATOM     16  C   UNL A   1      36.609  32.522  32.672  1.00  0.00     0.053 C 
ATOM     17  C   UNL A   1      35.730  34.457  34.680  1.00  0.00     0.119 C 
ATOM     18  C   UNL A   1      35.123  32.799  32.924  1.00  0.00     0.119 C 
BRANCH  14  19
ATOM     19  O   UNL A   1      37.126  31.796  34.898  1.00  0.00    -0.381 OA
ATOM     20  C   UNL A   1      38.135  31.581  35.877  1.00  0.00     0.195 C 
ENDBRANCH  14  19
ENDBRANCH   8  13
ENDBRANCH   4   7
ENDBRANCH   2   3
ENDBRANCH   1   2
BRANCH   1  21
ATOM     21  C   UNL A   1      34.405  32.451  28.932  1.00  0.00     0.118 C 
BRANCH  21  22
ATOM     22  N   UNL A   1      33.838  31.261  28.316  1.00  0.00    -0.352 N 
ATOM     23  C   UNL A   1      34.442  30.117  27.863  1.00  0.00     0.251 C 
ATOM     24  H   UNL A   1      32.859  31.281  28.206  1.00  0.00     0.163 HD
ATOM     25  O   UNL A   1      33.806  29.343  27.154  1.00  0.00    -0.269 OA
BRANCH  23  26
ATOM     26  C   UNL A   1      35.847  29.800  28.208  1.00  0.00     0.039 A 
ATOM     27  C   UNL A   1      36.132  29.352  29.503  1.00  0.00     0.014 A 
ATOM     28  C   UNL A   1      36.890  30.013  27.303  1.00  0.00     0.014 A 
ATOM     29  C   UNL A   1      37.450  29.073  29.873  1.00  0.00     0.010 A 
ATOM     30  C   UNL A   1      38.198  29.677  27.653  1.00  0.00     0.010 A 
ATOM     31  C   UNL A   1      38.491  29.209  28.943  1.00  0.00    -0.014 A 
BRANCH  31  32
ATOM     32  C   UNL A   1      39.892  28.864  29.300  1.00  0.00     0.031 A 
ATOM     33  C   UNL A   1      40.730  29.823  30.102  1.00  0.00     0.074 A 
ATOM     34  C   UNL A   1      40.429  27.716  28.845  1.00  0.00     0.049 A 
ATOM     35  N   UNL A   1      41.994  29.740  30.433  1.00  0.00    -0.248 NA
ATOM     36  C   UNL A   1      40.066  31.049  30.573  1.00  0.00     0.031 C 
ATOM     37  C   UNL A   1      39.732  26.725  28.023  1.00  0.00     0.029 A 
ATOM     38  N   UNL A   1      41.691  27.195  28.993  1.00  0.00    -0.354 N 
ATOM     39  C   UNL A   1      42.282  30.910  31.126  1.00  0.00     0.074 A 
ATOM     40  C   UNL A   1      41.070  31.701  31.142  1.00  0.00     0.031 C 
ATOM     41  C   UNL A   1      40.571  25.714  27.746  1.00  0.00     0.029 A 
ATOM     42  C   UNL A   1      41.874  26.000  28.339  1.00  0.00     0.049 A 
ATOM     43  H   UNL A   1      42.398  27.636  29.518  1.00  0.00     0.167 HD
ATOM     44  C   UNL A   1      43.447  31.279  31.710  1.00  0.00     0.037 A 
ATOM     45  C   UNL A   1      42.971  25.231  28.219  1.00  0.00     0.037 A 
ATOM     46  C   UNL A   1      44.638  30.469  31.730  1.00  0.00     0.049 A 
ATOM     47  C   UNL A   1      44.247  25.660  28.895  1.00  0.00     0.074 A 
ATOM     48  C   UNL A   1      45.842  30.723  32.363  1.00  0.00     0.029 A 
ATOM     49  N   UNL A   1      44.772  29.247  31.089  1.00  0.00    -0.354 N 
ATOM     50  N   UNL A   1      44.484  26.732  29.610  1.00  0.00    -0.248 NA
ATOM     51  C   UNL A   1      45.406  24.767  28.753  1.00  0.00     0.031 C 
ATOM     52  C   UNL A   1      46.719  29.673  32.072  1.00  0.00     0.029 A 
ATOM     53  C   UNL A   1      46.046  28.744  31.295  1.00  0.00     0.049 A 
ATOM     54  H   UNL A   1      44.066  28.803  30.565  1.00  0.00     0.167 HD
ATOM     55  C   UNL A   1      45.803  26.629  30.025  1.00  0.00     0.074 A 
ATOM     56  C   UNL A   1      46.313  25.382  29.497  1.00  0.00     0.031 C 
ATOM     57  C   UNL A   1      46.530  27.492  30.777  1.00  0.00     0.037 A 
BRANCH  44  58
ATOM     58  C   UNL A   1      43.502  32.617  32.387  1.00  0.00     0.064 A 
ATOM     59  C   UNL A   1      43.859  33.779  31.689  1.00  0.00     0.173 A 
ATOM     60  C   UNL A   1      43.118  32.748  33.730  1.00  0.00     0.173 A 
ATOM     61  F   UNL A   1      44.241  33.704  30.405  1.00  0.00    -0.203 F 
ATOM     62  C   UNL A   1      43.844  35.023  32.315  1.00  0.00     0.198 A 
ATOM     63  C   UNL A   1      43.080  33.997  34.345  1.00  0.00     0.198 A 
ATOM     64  F   UNL A   1      42.760  31.668  34.441  1.00  0.00    -0.203 F 
ATOM     65  F   UNL A   1      44.218  36.116  31.636  1.00  0.00    -0.200 F 
ATOM     66  C   UNL A   1      43.446  35.132  33.638  1.00  0.00     0.200 A 
ATOM     67  F   UNL A   1      42.681  34.103  35.620  1.00  0.00    -0.200 F 
ATOM     68  F   UNL A   1      43.416  36.333  34.233  1.00  0.00    -0.200 F 
ENDBRANCH  44  58
BRANCH  45  69
ATOM     69  C   UNL A   1      42.919  23.967  27.438  1.00  0.00     0.064 A 
ATOM     70  C   UNL A   1      42.526  22.764  28.041  1.00  0.00     0.173 A 
ATOM     71  C   UNL A   1      43.283  23.931  26.085  1.00  0.00     0.173 A 
ATOM     72  F   UNL A   1      42.187  22.744  29.338  1.00  0.00    -0.203 F 
ATOM     73  C   UNL A   1      42.529  21.567  27.327  1.00  0.00     0.198 A 
ATOM     74  C   UNL A   1      43.256  22.739  25.364  1.00  0.00     0.198 A 
ATOM     75  F   UNL A   1      43.661  25.056  25.459  1.00  0.00    -0.203 F 
ATOM     76  F   UNL A   1      42.201  20.423  27.942  1.00  0.00    -0.200 F 
ATOM     77  C   UNL A   1      42.890  21.556  25.989  1.00  0.00     0.200 A 
ATOM     78  F   UNL A   1      43.593  22.735  24.067  1.00  0.00    -0.200 F 
ATOM     79  F   UNL A   1      42.894  20.405  25.303  1.00  0.00    -0.200 F 
ENDBRANCH  45  69
BRANCH  57  80
ATOM     80  C   UNL A   1      47.939  27.098  31.106  1.00  0.00     0.064 A 
ATOM     81  C   UNL A   1      48.237  26.284  32.209  1.00  0.00     0.173 A 
ATOM     82  C   UNL A   1      49.000  27.510  30.286  1.00  0.00     0.173 A 
ATOM     83  F   UNL A   1      47.257  25.878  33.031  1.00  0.00    -0.203 F 
ATOM     84  C   UNL A   1      49.549  25.915  32.492  1.00  0.00     0.198 A 
ATOM     85  C   UNL A   1      50.308  27.117  30.556  1.00  0.00     0.198 A 
ATOM     86  F   UNL A   1      48.767  28.286  29.217  1.00  0.00    -0.203 F 
ATOM     87  F   UNL A   1      49.816  25.175  33.575  1.00  0.00    -0.200 F 
ATOM     88  C   UNL A   1      50.581  26.326  31.662  1.00  0.00     0.200 A 
ATOM     89  F   UNL A   1      51.303  27.504  29.746  1.00  0.00    -0.200 F 
ATOM     90  F   UNL A   1      51.844  25.966  31.932  1.00  0.00    -0.200 F 
ENDBRANCH  57  80
ENDBRANCH  31  32
ENDBRANCH  23  26
ENDBRANCH  21  22
ENDBRANCH   1  21
TORSDOF 12
ENDMDL
MODEL 2
REMARK VINA RESULT:     -11.6      3.933     11.910
REMARK SMILES COC1CCN(c2ccnc(C(=O)NCCCNC(=O)c3ccc(-c4c5nc(c(-c6c(F)c(F)c(F)c(F)c6F)c6ccc([nH]6)c(-c6c(F)c(F)c(F)c(F)c6F)c6nc(c(-c7c(F)c(F)c(F)c(F)c7F)c7ccc4[nH]7)C=C6)C=C5)cc3)c2)CC1
REMARK SMILES IDX 16 1 15 2 14 3 12 4 13 5 11 7 7 8 8 9 84 10 9 11 10 12 6 13
REMARK SMILES IDX 3 14 4 15 86 16 5 17 85 18 2 19 1 20 17 21 18 22 19 23 20 25
REMARK SMILES IDX 21 26 22 27 83 28 23 29 82 30 24 31 25 32 26 33 76 34 27 35
REMARK SMILES IDX 81 36 75 37 77 38 28 39 80 40 74 41 73 42 29 44 61 45 41 46
REMARK SMILES IDX 60 47 42 48 45 49 59 50 78 51 43 52 44 53 58 55 79 56 46 57
REMARK SMILES IDX 30 58 31 59 39 60 32 61 33 62 37 63 40 64 34 65 35 66 38 67
REMARK SMILES IDX 36 68 62 69 63 70 71 71 64 72 65 73 69 74 72 75 66 76 67 77
REMARK SMILES IDX 70 78 68 79 47 80 48 81 56 82 49 83 50 84 54 85 57 86 51 87
REMARK SMILES IDX 52 88 55 89 53 90
REMARK H PARENT 14 6 18 24 77 43 45 54
REMARK Flexibility Score: inf
ROOT
ATOM      1  C   UNL A   1      40.776  21.017  27.637  1.00  0.00     0.042 C 
ENDROOT
BRANCH   1   2
ATOM      2  C   UNL A   1      41.990  20.134  27.941  1.00  0.00     0.118 C 
BRANCH   2   3
ATOM      3  N   UNL A   1      41.980  18.930  27.132  1.00  0.00    -0.351 N 
ATOM      4  C   UNL A   1      42.794  18.453  26.125  1.00  0.00     0.269 C 
ATOM      5  O   UNL A   1      42.485  17.347  25.676  1.00  0.00    -0.268 OA
ATOM      6  H   UNL A   1      41.235  18.324  27.348  1.00  0.00     0.163 HD
BRANCH   4   7
ATOM      7  C   UNL A   1      44.003  19.176  25.586  1.00  0.00     0.130 A 
ATOM      8  C   UNL A   1      45.199  21.127  24.825  1.00  0.00     0.040 A 
ATOM      9  C   UNL A   1      46.314  20.321  24.634  1.00  0.00     0.046 A 
ATOM     10  C   UNL A   1      44.019  20.521  25.259  1.00  0.00     0.060 A 
ATOM     11  C   UNL A   1      46.220  18.976  24.943  1.00  0.00     0.114 A 
ATOM     12  N   UNL A   1      45.103  18.394  25.425  1.00  0.00    -0.251 NA
BRANCH   8  13
ATOM     13  N   UNL A   1      45.262  22.490  24.639  1.00  0.00    -0.371 N 
ATOM     14  C   UNL A   1      45.233  25.067  25.880  1.00  0.00     0.121 C 
ATOM     15  C   UNL A   1      46.443  24.131  25.998  1.00  0.00     0.053 C 
ATOM     16  C   UNL A   1      43.947  24.251  25.679  1.00  0.00     0.053 C 
ATOM     17  C   UNL A   1      46.527  23.201  24.793  1.00  0.00     0.119 C 
ATOM     18  C   UNL A   1      44.057  23.297  24.485  1.00  0.00     0.119 C 
BRANCH  14  19
ATOM     19  O   UNL A   1      45.349  25.974  24.776  1.00  0.00    -0.381 OA
ATOM     20  C   UNL A   1      46.444  26.875  24.878  1.00  0.00     0.195 C 
ENDBRANCH  14  19
ENDBRANCH   8  13
ENDBRANCH   4   7
ENDBRANCH   2   3
ENDBRANCH   1   2
BRANCH   1  21
ATOM     21  C   UNL A   1      40.966  21.899  26.403  1.00  0.00     0.118 C 
BRANCH  21  22
ATOM     22  N   UNL A   1      39.693  22.227  25.776  1.00  0.00    -0.352 N 
ATOM     23  C   UNL A   1      38.857  23.298  25.961  1.00  0.00     0.251 C 
ATOM     24  H   UNL A   1      39.382  21.572  25.109  1.00  0.00     0.163 HD
ATOM     25  O   UNL A   1      37.717  23.253  25.509  1.00  0.00    -0.269 OA
BRANCH  23  26
ATOM     26  C   UNL A   1      39.301  24.502  26.698  1.00  0.00     0.039 A 
ATOM     27  C   UNL A   1      38.924  24.643  28.039  1.00  0.00     0.014 A 
ATOM     28  C   UNL A   1      40.015  25.526  26.068  1.00  0.00     0.014 A 
ATOM     29  C   UNL A   1      39.299  25.781  28.757  1.00  0.00     0.010 A 
ATOM     30  C   UNL A   1      40.442  26.633  26.802  1.00  0.00     0.010 A 
ATOM     31  C   UNL A   1      40.083  26.774  28.152  1.00  0.00    -0.014 A 
BRANCH  31  32
ATOM     32  C   UNL A   1      40.540  27.965  28.914  1.00  0.00     0.031 A 
ATOM     33  C   UNL A   1      41.938  28.025  29.465  1.00  0.00     0.074 A 
ATOM     34  C   UNL A   1      39.671  28.962  29.167  1.00  0.00     0.049 A 
ATOM     35  N   UNL A   1      42.489  28.935  30.229  1.00  0.00    -0.248 NA
ATOM     36  C   UNL A   1      42.831  26.902  29.133  1.00  0.00     0.031 C 
ATOM     37  C   UNL A   1      38.276  29.001  28.726  1.00  0.00     0.029 A 
ATOM     38  N   UNL A   1      39.826  30.130  29.874  1.00  0.00    -0.354 N 
ATOM     39  C   UNL A   1      43.777  28.483  30.489  1.00  0.00     0.074 A 
ATOM     40  C   UNL A   1      43.918  27.204  29.828  1.00  0.00     0.031 C 
ATOM     41  C   UNL A   1      37.706  30.135  29.163  1.00  0.00     0.029 A 
ATOM     42  C   UNL A   1      38.681  30.887  29.946  1.00  0.00     0.049 A 
ATOM     43  H   UNL A   1      40.677  30.399  30.290  1.00  0.00     0.167 HD
ATOM     44  C   UNL A   1      44.756  29.091  31.200  1.00  0.00     0.037 A 
ATOM     45  C   UNL A   1      38.443  32.048  30.583  1.00  0.00     0.037 A 
ATOM     46  C   UNL A   1      44.627  30.384  31.820  1.00  0.00     0.049 A 
ATOM     47  C   UNL A   1      39.558  32.708  31.350  1.00  0.00     0.074 A 
ATOM     48  C   UNL A   1      45.588  31.118  32.494  1.00  0.00     0.029 A 
ATOM     49  N   UNL A   1      43.463  31.138  31.837  1.00  0.00    -0.354 N 
ATOM     50  N   UNL A   1      40.792  32.305  31.526  1.00  0.00    -0.248 NA
ATOM     51  C   UNL A   1      39.246  33.988  32.003  1.00  0.00     0.031 C 
ATOM     52  C   UNL A   1      44.995  32.298  32.954  1.00  0.00     0.029 A 
ATOM     53  C   UNL A   1      43.677  32.320  32.528  1.00  0.00     0.049 A 
ATOM     54  H   UNL A   1      42.611  30.873  31.420  1.00  0.00     0.167 HD
ATOM     55  C   UNL A   1      41.411  33.292  32.280  1.00  0.00     0.074 A 
ATOM     56  C   UNL A   1      40.421  34.321  32.516  1.00  0.00     0.031 C 
ATOM     57  C   UNL A   1      42.685  33.341  32.738  1.00  0.00     0.037 A 
BRANCH  44  58
ATOM     58  C   UNL A   1      46.067  28.375  31.349  1.00  0.00     0.064 A 
ATOM     59  C   UNL A   1      46.270  27.418  32.353  1.00  0.00     0.173 A 
ATOM     60  C   UNL A   1      47.103  28.593  30.428  1.00  0.00     0.173 A 
ATOM     61  F   UNL A   1      45.313  27.180  33.262  1.00  0.00    -0.203 F 
ATOM     62  C   UNL A   1      47.470  26.716  32.440  1.00  0.00     0.198 A 
ATOM     63  C   UNL A   1      48.291  27.870  30.503  1.00  0.00     0.198 A 
ATOM     64  F   UNL A   1      46.956  29.492  29.444  1.00  0.00    -0.203 F 
ATOM     65  F   UNL A   1      47.653  25.827  33.426  1.00  0.00    -0.200 F 
ATOM     66  C   UNL A   1      48.474  26.935  31.510  1.00  0.00     0.200 A 
ATOM     67  F   UNL A   1      49.256  28.073  29.595  1.00  0.00    -0.200 F 
ATOM     68  F   UNL A   1      49.621  26.245  31.585  1.00  0.00    -0.200 F 
ENDBRANCH  44  58
BRANCH  45  69
ATOM     69  C   UNL A   1      37.096  32.675  30.518  1.00  0.00     0.064 A 
ATOM     70  C   UNL A   1      36.742  33.509  29.448  1.00  0.00     0.173 A 
ATOM     71  C   UNL A   1      36.149  32.474  31.531  1.00  0.00     0.173 A 
ATOM     72  F   UNL A   1      37.621  33.748  28.465  1.00  0.00    -0.203 F 
ATOM     73  C   UNL A   1      35.502  34.144  29.411  1.00  0.00     0.198 A 
ATOM     74  C   UNL A   1      34.898  33.084  31.477  1.00  0.00     0.198 A 
ATOM     75  F   UNL A   1      36.436  31.679  32.573  1.00  0.00    -0.203 F 
ATOM     76  F   UNL A   1      35.210  34.979  28.405  1.00  0.00    -0.200 F 
ATOM     77  C   UNL A   1      34.579  33.928  30.423  1.00  0.00     0.200 A 
ATOM     78  F   UNL A   1      34.003  32.861  32.451  1.00  0.00    -0.200 F 
ATOM     79  F   UNL A   1      33.387  34.539  30.388  1.00  0.00    -0.200 F 
ENDBRANCH  45  69
BRANCH  57  80
ATOM     80  C   UNL A   1      43.094  34.564  33.505  1.00  0.00     0.064 A 
ATOM     81  C   UNL A   1      43.064  34.596  34.907  1.00  0.00     0.173 A 
ATOM     82  C   UNL A   1      43.556  35.703  32.829  1.00  0.00     0.173 A 
ATOM     83  F   UNL A   1      42.614  33.536  35.596  1.00  0.00    -0.203 F 
ATOM     84  C   UNL A   1      43.460  35.734  35.604  1.00  0.00     0.198 A 
ATOM     85  C   UNL A   1      43.977  36.829  33.530  1.00  0.00     0.198 A 
ATOM     86  F   UNL A   1      43.608  35.720  31.489  1.00  0.00    -0.203 F 
ATOM     87  F   UNL A   1      43.381  35.760  36.940  1.00  0.00    -0.200 F 
ATOM     88  C   UNL A   1      43.923  36.845  34.915  1.00  0.00     0.200 A 
ATOM     89  F   UNL A   1      44.436  37.898  32.865  1.00  0.00    -0.200 F 
ATOM     90  F   UNL A   1      44.310  37.939  35.588  1.00  0.00    -0.200 F 
ENDBRANCH  57  80
ENDBRANCH  31  32
ENDBRANCH  23  26
ENDBRANCH  21  22
ENDBRANCH   1  21
TORSDOF 12
ENDMDL
MODEL 3
REMARK VINA RESULT:     -11.4      3.958     11.186
REMARK SMILES COC1CCN(c2ccnc(C(=O)NCCCNC(=O)c3ccc(-c4c5nc(c(-c6c(F)c(F)c(F)c(F)c6F)c6ccc([nH]6)c(-c6c(F)c(F)c(F)c(F)c6F)c6nc(c(-c7c(F)c(F)c(F)c(F)c7F)c7ccc4[nH]7)C=C6)C=C5)cc3)c2)CC1
REMARK SMILES IDX 16 1 15 2 14 3 12 4 13 5 11 7 7 8 8 9 84 10 9 11 10 12 6 13
REMARK SMILES IDX 3 14 4 15 86 16 5 17 85 18 2 19 1 20 17 21 18 22 19 23 20 25
REMARK SMILES IDX 21 26 22 27 83 28 23 29 82 30 24 31 25 32 26 33 76 34 27 35
REMARK SMILES IDX 81 36 75 37 77 38 28 39 80 40 74 41 73 42 29 44 61 45 41 46
REMARK SMILES IDX 60 47 42 48 45 49 59 50 78 51 43 52 44 53 58 55 79 56 46 57
REMARK SMILES IDX 30 58 31 59 39 60 32 61 33 62 37 63 40 64 34 65 35 66 38 67
REMARK SMILES IDX 36 68 62 69 63 70 71 71 64 72 65 73 69 74 72 75 66 76 67 77
REMARK SMILES IDX 70 78 68 79 47 80 48 81 56 82 49 83 50 84 54 85 57 86 51 87
REMARK SMILES IDX 52 88 55 89 53 90
REMARK H PARENT 14 6 18 24 77 43 45 54
REMARK Flexibility Score: inf
ROOT
ATOM      1  C   UNL A   1      40.726  21.065  27.591  1.00  0.00     0.042 C 
ENDROOT
BRANCH   1   2
ATOM      2  C   UNL A   1      41.925  20.165  27.901  1.00  0.00     0.118 C 
BRANCH   2   3
ATOM      3  N   UNL A   1      41.910  18.968  27.081  1.00  0.00    -0.351 N 
ATOM      4  C   UNL A   1      42.737  18.482  26.090  1.00  0.00     0.269 C 
ATOM      5  O   UNL A   1      42.416  17.386  25.624  1.00  0.00    -0.268 OA
ATOM      6  H   UNL A   1      41.147  18.376  27.275  1.00  0.00     0.163 HD
BRANCH   4   7
ATOM      7  C   UNL A   1      43.973  19.184  25.586  1.00  0.00     0.130 A 
ATOM      8  C   UNL A   1      45.225  21.115  24.863  1.00  0.00     0.040 A 
ATOM      9  C   UNL A   1      46.330  20.288  24.699  1.00  0.00     0.046 A 
ATOM     10  C   UNL A   1      44.022  20.530  25.263  1.00  0.00     0.060 A 
ATOM     11  C   UNL A   1      46.202  18.944  25.001  1.00  0.00     0.114 A 
ATOM     12  N   UNL A   1      45.062  18.382  25.451  1.00  0.00    -0.251 NA
BRANCH   8  13
ATOM     13  N   UNL A   1      45.318  22.477  24.682  1.00  0.00    -0.371 N 
ATOM     14  C   UNL A   1      44.889  25.065  25.823  1.00  0.00     0.121 C 
ATOM     15  C   UNL A   1      46.026  24.154  26.302  1.00  0.00     0.053 C 
ATOM     16  C   UNL A   1      43.729  24.222  25.269  1.00  0.00     0.053 C 
ATOM     17  C   UNL A   1      46.472  23.213  25.187  1.00  0.00     0.119 C 
ATOM     18  C   UNL A   1      44.197  23.259  24.173  1.00  0.00     0.119 C 
BRANCH  14  19
ATOM     19  O   UNL A   1      45.306  25.963  24.788  1.00  0.00    -0.381 OA
ATOM     20  C   UNL A   1      46.466  26.721  25.109  1.00  0.00     0.195 C 
ENDBRANCH  14  19
ENDBRANCH   8  13
ENDBRANCH   4   7
ENDBRANCH   2   3
ENDBRANCH   1   2
BRANCH   1  21
ATOM     21  C   UNL A   1      40.902  21.887  26.314  1.00  0.00     0.118 C 
BRANCH  21  22
ATOM     22  N   UNL A   1      39.620  22.268  25.738  1.00  0.00    -0.352 N 
ATOM     23  C   UNL A   1      38.820  23.354  25.984  1.00  0.00     0.251 C 
ATOM     24  H   UNL A   1      39.271  21.643  25.062  1.00  0.00     0.163 HD
ATOM     25  O   UNL A   1      37.665  23.354  25.567  1.00  0.00    -0.269 OA
BRANCH  23  26
ATOM     26  C   UNL A   1      39.320  24.522  26.743  1.00  0.00     0.039 A 
ATOM     27  C   UNL A   1      38.948  24.655  28.086  1.00  0.00     0.014 A 
ATOM     28  C   UNL A   1      40.080  25.523  26.133  1.00  0.00     0.014 A 
ATOM     29  C   UNL A   1      39.377  25.760  28.826  1.00  0.00     0.010 A 
ATOM     30  C   UNL A   1      40.558  26.595  26.887  1.00  0.00     0.010 A 
ATOM     31  C   UNL A   1      40.207  26.727  28.239  1.00  0.00    -0.014 A 
BRANCH  31  32
ATOM     32  C   UNL A   1      40.718  27.880  29.024  1.00  0.00     0.031 A 
ATOM     33  C   UNL A   1      39.800  29.012  29.398  1.00  0.00     0.074 A 
ATOM     34  C   UNL A   1      42.026  27.938  29.342  1.00  0.00     0.049 A 
ATOM     35  N   UNL A   1      40.080  30.142  29.999  1.00  0.00    -0.248 NA
ATOM     36  C   UNL A   1      38.383  28.867  29.026  1.00  0.00     0.031 C 
ATOM     37  C   UNL A   1      43.024  26.925  28.998  1.00  0.00     0.029 A 
ATOM     38  N   UNL A   1      42.745  28.899  30.009  1.00  0.00    -0.354 N 
ATOM     39  C   UNL A   1      38.885  30.849  30.052  1.00  0.00     0.074 A 
ATOM     40  C   UNL A   1      37.883  30.037  29.398  1.00  0.00     0.031 C 
ATOM     41  C   UNL A   1      44.223  27.312  29.463  1.00  0.00     0.029 A 
ATOM     42  C   UNL A   1      44.086  28.615  30.105  1.00  0.00     0.049 A 
ATOM     43  H   UNL A   1      42.338  29.714  30.384  1.00  0.00     0.167 HD
ATOM     44  C   UNL A   1      38.646  32.058  30.615  1.00  0.00     0.037 A 
ATOM     45  C   UNL A   1      45.093  29.332  30.638  1.00  0.00     0.037 A 
ATOM     46  C   UNL A   1      39.636  32.843  31.305  1.00  0.00     0.049 A 
ATOM     47  C   UNL A   1      44.791  30.665  31.272  1.00  0.00     0.074 A 
ATOM     48  C   UNL A   1      39.472  34.043  31.975  1.00  0.00     0.029 A 
ATOM     49  N   UNL A   1      40.976  32.504  31.415  1.00  0.00    -0.354 N 
ATOM     50  N   UNL A   1      43.643  31.287  31.381  1.00  0.00    -0.248 NA
ATOM     51  C   UNL A   1      45.925  31.391  31.861  1.00  0.00     0.031 C 
ATOM     52  C   UNL A   1      40.720  34.450  32.457  1.00  0.00     0.029 A 
ATOM     53  C   UNL A   1      41.653  33.482  32.125  1.00  0.00     0.049 A 
ATOM     54  H   UNL A   1      41.386  31.689  31.043  1.00  0.00     0.167 HD
ATOM     55  C   UNL A   1      43.911  32.459  32.075  1.00  0.00     0.074 A 
ATOM     56  C   UNL A   1      45.326  32.454  32.375  1.00  0.00     0.031 C 
ATOM     57  C   UNL A   1      43.059  33.451  32.431  1.00  0.00     0.037 A 
BRANCH  44  58
ATOM     58  C   UNL A   1      37.256  32.616  30.519  1.00  0.00     0.064 A 
ATOM     59  C   UNL A   1      36.295  32.365  31.508  1.00  0.00     0.173 A 
ATOM     60  C   UNL A   1      36.908  33.474  29.465  1.00  0.00     0.173 A 
ATOM     61  F   UNL A   1      36.578  31.544  32.531  1.00  0.00    -0.203 F 
ATOM     62  C   UNL A   1      35.029  32.941  31.438  1.00  0.00     0.198 A 
ATOM     63  C   UNL A   1      35.649  34.069  29.413  1.00  0.00     0.198 A 
ATOM     64  F   UNL A   1      37.793  33.753  28.497  1.00  0.00    -0.203 F 
ATOM     65  F   UNL A   1      34.116  32.663  32.380  1.00  0.00    -0.200 F 
ATOM     66  C   UNL A   1      34.711  33.799  30.397  1.00  0.00     0.200 A 
ATOM     67  F   UNL A   1      35.348  34.909  28.413  1.00  0.00    -0.200 F 
ATOM     68  F   UNL A   1      33.498  34.367  30.341  1.00  0.00    -0.200 F 
ENDBRANCH  44  58
BRANCH  45  69
ATOM     69  C   UNL A   1      46.483  28.807  30.610  1.00  0.00     0.064 A 
ATOM     70  C   UNL A   1      47.325  29.059  29.518  1.00  0.00     0.173 A 
ATOM     71  C   UNL A   1      46.989  28.026  31.658  1.00  0.00     0.173 A 
ATOM     72  F   UNL A   1      46.880  29.785  28.482  1.00  0.00    -0.203 F 
ATOM     73  C   UNL A   1      48.610  28.523  29.461  1.00  0.00     0.198 A 
ATOM     74  C   UNL A   1      48.285  27.516  31.614  1.00  0.00     0.198 A 
ATOM     75  F   UNL A   1      46.226  27.762  32.729  1.00  0.00    -0.203 F 
ATOM     76  F   UNL A   1      49.374  28.734  28.380  1.00  0.00    -0.200 F 
ATOM     77  C   UNL A   1      49.090  27.755  30.510  1.00  0.00     0.200 A 
ATOM     78  F   UNL A   1      48.751  26.786  32.637  1.00  0.00    -0.200 F 
ATOM     79  F   UNL A   1      50.325  27.238  30.455  1.00  0.00    -0.200 F 
ENDBRANCH  45  69
BRANCH  57  80
ATOM     80  C   UNL A   1      43.627  34.595  33.219  1.00  0.00     0.064 A 
ATOM     81  C   UNL A   1      44.060  35.774  32.596  1.00  0.00     0.173 A 
ATOM     82  C   UNL A   1      43.704  34.522  34.618  1.00  0.00     0.173 A 
ATOM     83  F   UNL A   1      44.021  35.884  31.259  1.00  0.00    -0.203 F 
ATOM     84  C   UNL A   1      44.570  36.831  33.344  1.00  0.00     0.198 A 
ATOM     85  C   UNL A   1      44.189  35.591  35.365  1.00  0.00     0.198 A 
ATOM     86  F   UNL A   1      43.298  33.417  35.261  1.00  0.00    -0.203 F 
ATOM     87  F   UNL A   1      45.020  37.931  32.726  1.00  0.00    -0.200 F 
ATOM     88  C   UNL A   1      44.628  36.742  34.727  1.00  0.00     0.200 A 
ATOM     89  F   UNL A   1      44.232  35.508  36.702  1.00  0.00    -0.200 F 
ATOM     90  F   UNL A   1      45.114  37.762  35.446  1.00  0.00    -0.200 F 
ENDBRANCH  57  80
ENDBRANCH  31  32
ENDBRANCH  23  26
ENDBRANCH  21  22
ENDBRANCH   1  21
TORSDOF 12
ENDMDL
