MODEL 1
REMARK VINA RESULT:     -11.5      0.000      0.000
REMARK SMILES CCC(CC)(NC(=O)c1ccc(C)s1)C(=O)NCCCNC(=O)c1ccc(-c2c3nc(c(-c4c(F)c(F)c(F)c(F)c4F)c4ccc([nH]4)c(-c4c(F)c(F)c(F)c(F)c4F)c4nc(c(-c5c(F)c(F)c(F)c(F)c5F)c5ccc2[nH]5)C=C4)C=C3)cc1
REMARK SMILES IDX 19 1 18 2 17 3 15 4 16 5 3 7 2 8 1 9 4 10 5 11 6 12 7 13
REMARK SMILES IDX 8 15 9 16 10 17 14 18 11 19 12 20 13 21 20 22 21 23 22 24
REMARK SMILES IDX 23 26 24 27 25 28 86 29 26 30 85 31 27 32 28 33 29 34 79 35
REMARK SMILES IDX 30 36 84 37 78 38 80 39 31 40 83 41 77 42 76 43 32 45 64 46
REMARK SMILES IDX 44 47 63 48 45 49 48 50 62 51 81 52 46 53 47 54 61 56 82 57
REMARK SMILES IDX 49 58 33 59 34 60 42 61 35 62 36 63 40 64 43 65 37 66 38 67
REMARK SMILES IDX 41 68 39 69 65 70 66 71 74 72 67 73 68 74 72 75 75 76 69 77
REMARK SMILES IDX 70 78 73 79 71 80 50 81 51 82 59 83 52 84 53 85 57 86 60 87
REMARK SMILES IDX 54 88 55 89 58 90 56 91
REMARK H PARENT 17 6 6 14 21 25 80 44 48 55
REMARK Flexibility Score: inf
ROOT
ATOM      1  C   UNL A   1      31.345  31.742  26.554  1.00  0.00     0.042 C 
ENDROOT
BRANCH   1   2
ATOM      2  C   UNL A   1      31.544  30.328  26.013  1.00  0.00     0.117 C 
BRANCH   2   3
ATOM      3  N   UNL A   1      31.405  30.116  24.579  1.00  0.00    -0.354 N 
ATOM      4  C   UNL A   1      31.542  29.002  23.790  1.00  0.00     0.245 C 
ATOM      5  O   UNL A   1      30.915  29.019  22.725  1.00  0.00    -0.272 OA
ATOM      6  H   UNL A   1      31.166  30.930  24.078  1.00  0.00     0.163 HD
BRANCH   4   7
ATOM      7  C   UNL A   1      32.333  27.735  24.238  1.00  0.00     0.118 C 
BRANCH   7   8
ATOM      8  C   UNL A   1      31.598  26.854  25.297  1.00  0.00     0.035 C 
ATOM      9  C   UNL A   1      30.248  26.245  24.939  1.00  0.00     0.007 C 
ENDBRANCH   7   8
BRANCH   7  10
ATOM     10  C   UNL A   1      33.673  28.288  24.833  1.00  0.00     0.035 C 
ATOM     11  C   UNL A   1      34.023  27.886  26.261  1.00  0.00     0.007 C 
ENDBRANCH   7  10
BRANCH   7  12
ATOM     12  N   UNL A   1      32.587  26.845  23.080  1.00  0.00    -0.337 N 
ATOM     13  C   UNL A   1      33.474  25.801  22.884  1.00  0.00     0.262 C 
ATOM     14  H   UNL A   1      32.015  27.034  22.300  1.00  0.00     0.164 HD
ATOM     15  O   UNL A   1      33.836  25.694  21.705  1.00  0.00    -0.268 OA
BRANCH  13  16
ATOM     16  C   UNL A   1      33.836  24.814  23.905  1.00  0.00     0.092 A 
ATOM     17  C   UNL A   1      34.822  24.714  24.870  1.00  0.00     0.026 A 
ATOM     18  S   UNL A   1      32.826  23.401  23.989  1.00  0.00    -0.135 S 
ATOM     19  C   UNL A   1      34.609  23.640  25.793  1.00  0.00     0.016 A 
ATOM     20  C   UNL A   1      33.544  22.847  25.433  1.00  0.00     0.002 A 
ATOM     21  C   UNL A   1      33.019  21.634  26.124  1.00  0.00     0.056 C 
ENDBRANCH  13  16
ENDBRANCH   7  12
ENDBRANCH   4   7
ENDBRANCH   2   3
ENDBRANCH   1   2
BRANCH   1  22
ATOM     22  C   UNL A   1      32.584  32.531  26.959  1.00  0.00     0.118 C 
BRANCH  22  23
ATOM     23  N   UNL A   1      32.313  33.845  27.506  1.00  0.00    -0.352 N 
ATOM     24  C   UNL A   1      33.024  34.573  28.424  1.00  0.00     0.251 C 
ATOM     25  H   UNL A   1      31.496  34.281  27.167  1.00  0.00     0.163 HD
ATOM     26  O   UNL A   1      32.623  35.694  28.745  1.00  0.00    -0.269 OA
BRANCH  24  27
ATOM     27  C   UNL A   1      34.241  34.031  29.074  1.00  0.00     0.039 A 
ATOM     28  C   UNL A   1      34.074  33.073  30.077  1.00  0.00     0.014 A 
ATOM     29  C   UNL A   1      35.526  34.485  28.763  1.00  0.00     0.014 A 
ATOM     30  C   UNL A   1      35.189  32.538  30.733  1.00  0.00     0.010 A 
ATOM     31  C   UNL A   1      36.645  33.917  29.391  1.00  0.00     0.010 A 
ATOM     32  C   UNL A   1      36.491  32.935  30.381  1.00  0.00    -0.014 A 
BRANCH  32  33
ATOM     33  C   UNL A   1      37.670  32.272  31.012  1.00  0.00     0.031 A 
ATOM     34  C   UNL A   1      38.133  32.627  32.400  1.00  0.00     0.074 A 
ATOM     35  C   UNL A   1      38.355  31.345  30.312  1.00  0.00     0.049 A 
ATOM     36  N   UNL A   1      39.118  32.114  33.101  1.00  0.00    -0.248 NA
ATOM     37  C   UNL A   1      37.419  33.714  33.081  1.00  0.00     0.031 C 
ATOM     38  C   UNL A   1      38.068  30.952  28.932  1.00  0.00     0.029 A 
ATOM     39  N   UNL A   1      39.430  30.564  30.664  1.00  0.00    -0.354 N 
ATOM     40  C   UNL A   1      39.149  32.824  34.295  1.00  0.00     0.074 A 
ATOM     41  C   UNL A   1      38.113  33.831  34.207  1.00  0.00     0.031 C 
ATOM     42  C   UNL A   1      38.920  29.981  28.566  1.00  0.00     0.029 A 
ATOM     43  C   UNL A   1      39.827  29.698  29.674  1.00  0.00     0.049 A 
ATOM     44  H   UNL A   1      39.872  30.618  31.541  1.00  0.00     0.167 HD
ATOM     45  C   UNL A   1      39.956  32.642  35.372  1.00  0.00     0.037 A 
ATOM     46  C   UNL A   1      40.805  28.771  29.657  1.00  0.00     0.037 A 
ATOM     47  C   UNL A   1      40.968  31.620  35.480  1.00  0.00     0.049 A 
ATOM     48  C   UNL A   1      41.644  28.549  30.884  1.00  0.00     0.074 A 
ATOM     49  C   UNL A   1      41.779  31.317  36.562  1.00  0.00     0.029 A 
ATOM     50  N   UNL A   1      41.314  30.736  34.469  1.00  0.00    -0.354 N 
ATOM     51  N   UNL A   1      41.603  29.168  32.037  1.00  0.00    -0.248 NA
ATOM     52  C   UNL A   1      42.657  27.484  30.810  1.00  0.00     0.031 C 
ATOM     53  C   UNL A   1      42.638  30.275  36.195  1.00  0.00     0.029 A 
ATOM     54  C   UNL A   1      42.332  29.896  34.899  1.00  0.00     0.049 A 
ATOM     55  H   UNL A   1      40.897  30.706  33.578  1.00  0.00     0.167 HD
ATOM     56  C   UNL A   1      42.562  28.555  32.833  1.00  0.00     0.074 A 
ATOM     57  C   UNL A   1      43.157  27.502  32.038  1.00  0.00     0.031 C 
ATOM     58  C   UNL A   1      42.917  28.845  34.109  1.00  0.00     0.037 A 
BRANCH  45  59
ATOM     59  C   UNL A   1      39.774  33.566  36.544  1.00  0.00     0.064 A 
ATOM     60  C   UNL A   1      40.416  34.813  36.604  1.00  0.00     0.173 A 
ATOM     61  C   UNL A   1      38.898  33.232  37.588  1.00  0.00     0.173 A 
ATOM     62  F   UNL A   1      41.265  35.181  35.634  1.00  0.00    -0.203 F 
ATOM     63  C   UNL A   1      40.211  35.674  37.679  1.00  0.00     0.198 A 
ATOM     64  C   UNL A   1      38.672  34.109  38.646  1.00  0.00     0.198 A 
ATOM     65  F   UNL A   1      38.245  32.059  37.575  1.00  0.00    -0.203 F 
ATOM     66  F   UNL A   1      40.870  36.840  37.735  1.00  0.00    -0.200 F 
ATOM     67  C   UNL A   1      39.335  35.326  38.695  1.00  0.00     0.200 A 
ATOM     68  F   UNL A   1      37.810  33.778  39.619  1.00  0.00    -0.200 F 
ATOM     69  F   UNL A   1      39.132  36.161  39.723  1.00  0.00    -0.200 F 
ENDBRANCH  45  59
BRANCH  46  70
ATOM     70  C   UNL A   1      41.006  27.939  28.443  1.00  0.00     0.064 A 
ATOM     71  C   UNL A   1      40.353  26.706  28.302  1.00  0.00     0.173 A 
ATOM     72  C   UNL A   1      41.843  28.359  27.400  1.00  0.00     0.173 A 
ATOM     73  F   UNL A   1      39.559  26.253  29.284  1.00  0.00    -0.203 F 
ATOM     74  C   UNL A   1      40.545  25.916  27.170  1.00  0.00     0.198 A 
ATOM     75  C   UNL A   1      42.011  27.581  26.257  1.00  0.00     0.198 A 
ATOM     76  F   UNL A   1      42.484  29.534  27.487  1.00  0.00    -0.203 F 
ATOM     77  F   UNL A   1      39.941  24.723  27.080  1.00  0.00    -0.200 F 
ATOM     78  C   UNL A   1      41.368  26.358  26.146  1.00  0.00     0.200 A 
ATOM     79  F   UNL A   1      42.796  28.017  25.262  1.00  0.00    -0.200 F 
ATOM     80  F   UNL A   1      41.545  25.602  25.054  1.00  0.00    -0.200 F 
ENDBRANCH  46  70
BRANCH  58  81
ATOM     81  C   UNL A   1      43.977  27.986  34.739  1.00  0.00     0.064 A 
ATOM     82  C   UNL A   1      43.664  26.772  35.368  1.00  0.00     0.173 A 
ATOM     83  C   UNL A   1      45.324  28.378  34.701  1.00  0.00     0.173 A 
ATOM     84  F   UNL A   1      42.390  26.360  35.445  1.00  0.00    -0.203 F 
ATOM     85  C   UNL A   1      44.657  25.998  35.963  1.00  0.00     0.198 A 
ATOM     86  C   UNL A   1      46.317  27.587  35.273  1.00  0.00     0.198 A 
ATOM     87  F   UNL A   1      45.677  29.528  34.107  1.00  0.00    -0.203 F 
ATOM     88  F   UNL A   1      44.328  24.867  36.605  1.00  0.00    -0.200 F 
ATOM     89  C   UNL A   1      45.982  26.403  35.911  1.00  0.00     0.200 A 
ATOM     90  F   UNL A   1      47.599  27.976  35.213  1.00  0.00    -0.200 F 
ATOM     91  F   UNL A   1      46.936  25.656  36.485  1.00  0.00    -0.200 F 
ENDBRANCH  58  81
ENDBRANCH  32  33
ENDBRANCH  24  27
ENDBRANCH  22  23
ENDBRANCH   1  22
TORSDOF 14
ENDMDL
MODEL 2
REMARK VINA RESULT:     -11.5      0.278      1.643
REMARK SMILES CCC(CC)(NC(=O)c1ccc(C)s1)C(=O)NCCCNC(=O)c1ccc(-c2c3nc(c(-c4c(F)c(F)c(F)c(F)c4F)c4ccc([nH]4)c(-c4c(F)c(F)c(F)c(F)c4F)c4nc(c(-c5c(F)c(F)c(F)c(F)c5F)c5ccc2[nH]5)C=C4)C=C3)cc1
REMARK SMILES IDX 19 1 18 2 17 3 15 4 16 5 3 7 2 8 1 9 4 10 5 11 6 12 7 13
REMARK SMILES IDX 8 15 9 16 10 17 14 18 11 19 12 20 13 21 20 22 21 23 22 24
REMARK SMILES IDX 23 26 24 27 25 28 86 29 26 30 85 31 27 32 28 33 29 34 79 35
REMARK SMILES IDX 30 36 84 37 78 38 80 39 31 40 83 41 77 42 76 43 32 45 64 46
REMARK SMILES IDX 44 47 63 48 45 49 48 50 62 51 81 52 46 53 47 54 61 56 82 57
REMARK SMILES IDX 49 58 33 59 34 60 42 61 35 62 36 63 40 64 43 65 37 66 38 67
REMARK SMILES IDX 41 68 39 69 65 70 66 71 74 72 67 73 68 74 72 75 75 76 69 77
REMARK SMILES IDX 70 78 73 79 71 80 50 81 51 82 59 83 52 84 53 85 57 86 60 87
REMARK SMILES IDX 54 88 55 89 58 90 56 91
REMARK H PARENT 17 6 6 14 21 25 80 44 48 55
REMARK Flexibility Score: inf
ROOT
ATOM      1  C   UNL A   1      31.333  31.742  26.385  1.00  0.00     0.042 C 
ENDROOT
BRANCH   1   2
ATOM      2  C   UNL A   1      31.510  30.296  25.927  1.00  0.00     0.117 C 
BRANCH   2   3
ATOM      3  N   UNL A   1      31.568  30.030  24.497  1.00  0.00    -0.354 N 
ATOM      4  C   UNL A   1      31.715  28.873  23.775  1.00  0.00     0.245 C 
ATOM      5  O   UNL A   1      31.260  28.896  22.626  1.00  0.00    -0.272 OA
ATOM      6  H   UNL A   1      31.486  30.838  23.939  1.00  0.00     0.163 HD
BRANCH   4   7
ATOM      7  C   UNL A   1      32.305  27.563  24.381  1.00  0.00     0.118 C 
BRANCH   7   8
ATOM      8  C   UNL A   1      31.417  26.900  25.480  1.00  0.00     0.035 C 
ATOM      9  C   UNL A   1      30.063  26.323  25.083  1.00  0.00     0.007 C 
ENDBRANCH   7   8
BRANCH   7  10
ATOM     10  C   UNL A   1      33.687  27.988  24.987  1.00  0.00     0.035 C 
ATOM     11  C   UNL A   1      33.932  27.669  26.457  1.00  0.00     0.007 C 
ENDBRANCH   7  10
BRANCH   7  12
ATOM     12  N   UNL A   1      32.476  26.535  23.326  1.00  0.00    -0.337 N 
ATOM     13  C   UNL A   1      33.388  25.505  23.167  1.00  0.00     0.262 C 
ATOM     14  H   UNL A   1      31.815  26.597  22.600  1.00  0.00     0.164 HD
ATOM     15  O   UNL A   1      33.624  25.254  21.978  1.00  0.00    -0.268 OA
BRANCH  13  16
ATOM     16  C   UNL A   1      33.909  24.679  24.259  1.00  0.00     0.092 A 
ATOM     17  C   UNL A   1      35.141  24.512  24.865  1.00  0.00     0.026 A 
ATOM     18  S   UNL A   1      32.758  23.630  25.034  1.00  0.00    -0.135 S 
ATOM     19  C   UNL A   1      35.084  23.736  26.068  1.00  0.00     0.016 A 
ATOM     20  C   UNL A   1      33.836  23.201  26.284  1.00  0.00     0.002 A 
ATOM     21  C   UNL A   1      33.385  22.331  27.408  1.00  0.00     0.056 C 
ENDBRANCH  13  16
ENDBRANCH   7  12
ENDBRANCH   4   7
ENDBRANCH   2   3
ENDBRANCH   1   2
BRANCH   1  22
ATOM     22  C   UNL A   1      32.557  32.476  26.917  1.00  0.00     0.118 C 
BRANCH  22  23
ATOM     23  N   UNL A   1      32.286  33.791  27.462  1.00  0.00    -0.352 N 
ATOM     24  C   UNL A   1      32.999  34.521  28.378  1.00  0.00     0.251 C 
ATOM     25  H   UNL A   1      31.468  34.224  27.125  1.00  0.00     0.163 HD
ATOM     26  O   UNL A   1      32.597  35.642  28.697  1.00  0.00    -0.269 OA
BRANCH  24  27
ATOM     27  C   UNL A   1      34.218  33.982  29.026  1.00  0.00     0.039 A 
ATOM     28  C   UNL A   1      34.055  33.024  30.031  1.00  0.00     0.014 A 
ATOM     29  C   UNL A   1      35.501  34.437  28.711  1.00  0.00     0.014 A 
ATOM     30  C   UNL A   1      35.171  32.492  30.684  1.00  0.00     0.010 A 
ATOM     31  C   UNL A   1      36.623  33.872  29.338  1.00  0.00     0.010 A 
ATOM     32  C   UNL A   1      36.472  32.890  30.329  1.00  0.00    -0.014 A 
BRANCH  32  33
ATOM     33  C   UNL A   1      37.653  32.231  30.958  1.00  0.00     0.031 A 
ATOM     34  C   UNL A   1      38.119  32.588  32.345  1.00  0.00     0.074 A 
ATOM     35  C   UNL A   1      38.338  31.303  30.258  1.00  0.00     0.049 A 
ATOM     36  N   UNL A   1      39.105  32.077  33.045  1.00  0.00    -0.248 NA
ATOM     37  C   UNL A   1      37.404  33.674  33.027  1.00  0.00     0.031 C 
ATOM     38  C   UNL A   1      38.050  30.909  28.879  1.00  0.00     0.029 A 
ATOM     39  N   UNL A   1      39.415  30.524  30.609  1.00  0.00    -0.354 N 
ATOM     40  C   UNL A   1      39.138  32.788  34.238  1.00  0.00     0.074 A 
ATOM     41  C   UNL A   1      38.100  33.793  34.151  1.00  0.00     0.031 C 
ATOM     42  C   UNL A   1      38.902  29.939  28.512  1.00  0.00     0.029 A 
ATOM     43  C   UNL A   1      39.812  29.659  29.619  1.00  0.00     0.049 A 
ATOM     44  H   UNL A   1      39.859  30.580  31.485  1.00  0.00     0.167 HD
ATOM     45  C   UNL A   1      39.947  32.608  35.314  1.00  0.00     0.037 A 
ATOM     46  C   UNL A   1      40.791  28.733  29.601  1.00  0.00     0.037 A 
ATOM     47  C   UNL A   1      40.961  31.588  35.420  1.00  0.00     0.049 A 
ATOM     48  C   UNL A   1      41.633  28.513  30.827  1.00  0.00     0.074 A 
ATOM     49  C   UNL A   1      41.775  31.288  36.501  1.00  0.00     0.029 A 
ATOM     50  N   UNL A   1      41.306  30.703  34.410  1.00  0.00    -0.354 N 
ATOM     51  N   UNL A   1      41.594  29.134  31.979  1.00  0.00    -0.248 NA
ATOM     52  C   UNL A   1      42.648  27.451  30.751  1.00  0.00     0.031 C 
ATOM     53  C   UNL A   1      42.635  30.246  36.133  1.00  0.00     0.029 A 
ATOM     54  C   UNL A   1      42.327  29.866  34.839  1.00  0.00     0.049 A 
ATOM     55  H   UNL A   1      40.888  30.672  33.519  1.00  0.00     0.167 HD
ATOM     56  C   UNL A   1      42.555  28.523  32.774  1.00  0.00     0.074 A 
ATOM     57  C   UNL A   1      43.150  27.470  31.978  1.00  0.00     0.031 C 
ATOM     58  C   UNL A   1      42.912  28.815  34.048  1.00  0.00     0.037 A 
BRANCH  45  59
ATOM     59  C   UNL A   1      39.766  33.533  36.485  1.00  0.00     0.064 A 
ATOM     60  C   UNL A   1      40.404  34.783  36.541  1.00  0.00     0.173 A 
ATOM     61  C   UNL A   1      38.895  33.197  37.533  1.00  0.00     0.173 A 
ATOM     62  F   UNL A   1      41.247  35.153  35.567  1.00  0.00    -0.203 F 
ATOM     63  C   UNL A   1      40.199  35.645  37.615  1.00  0.00     0.198 A 
ATOM     64  C   UNL A   1      38.670  34.075  38.590  1.00  0.00     0.198 A 
ATOM     65  F   UNL A   1      38.246  32.022  37.523  1.00  0.00    -0.203 F 
ATOM     66  F   UNL A   1      40.854  36.813  37.667  1.00  0.00    -0.200 F 
ATOM     67  C   UNL A   1      39.328  35.295  38.635  1.00  0.00     0.200 A 
ATOM     68  F   UNL A   1      37.813  33.742  39.567  1.00  0.00    -0.200 F 
ATOM     69  F   UNL A   1      39.125  36.130  39.663  1.00  0.00    -0.200 F 
ENDBRANCH  45  59
BRANCH  46  70
ATOM     70  C   UNL A   1      40.991  27.900  28.388  1.00  0.00     0.064 A 
ATOM     71  C   UNL A   1      41.857  28.315  27.366  1.00  0.00     0.173 A 
ATOM     72  C   UNL A   1      40.331  26.673  28.228  1.00  0.00     0.173 A 
ATOM     73  F   UNL A   1      42.493  29.491  27.466  1.00  0.00    -0.203 F 
ATOM     74  C   UNL A   1      42.041  27.543  26.221  1.00  0.00     0.198 A 
ATOM     75  C   UNL A   1      40.538  25.889  27.094  1.00  0.00     0.198 A 
ATOM     76  F   UNL A   1      39.497  26.230  29.180  1.00  0.00    -0.203 F 
ATOM     77  F   UNL A   1      42.843  27.984  25.242  1.00  0.00    -0.200 F 
ATOM     78  C   UNL A   1      41.387  26.328  26.090  1.00  0.00     0.200 A 
ATOM     79  F   UNL A   1      39.916  24.708  26.976  1.00  0.00    -0.200 F 
ATOM     80  F   UNL A   1      41.571  25.582  24.992  1.00  0.00    -0.200 F 
ENDBRANCH  46  70
BRANCH  58  81
ATOM     81  C   UNL A   1      43.974  27.958  34.677  1.00  0.00     0.064 A 
ATOM     82  C   UNL A   1      45.328  28.324  34.650  1.00  0.00     0.173 A 
ATOM     83  C   UNL A   1      43.630  26.763  35.326  1.00  0.00     0.173 A 
ATOM     84  F   UNL A   1      45.712  29.449  34.029  1.00  0.00    -0.203 F 
ATOM     85  C   UNL A   1      46.301  27.509  35.223  1.00  0.00     0.198 A 
ATOM     86  C   UNL A   1      44.603  25.964  35.922  1.00  0.00     0.198 A 
ATOM     87  F   UNL A   1      42.349  26.370  35.385  1.00  0.00    -0.203 F 
ATOM     88  F   UNL A   1      47.595  27.853  35.140  1.00  0.00    -0.200 F 
ATOM     89  C   UNL A   1      45.938  26.333  35.863  1.00  0.00     0.200 A 
ATOM     90  F   UNL A   1      44.249  24.833  36.548  1.00  0.00    -0.200 F 
ATOM     91  F   UNL A   1      46.877  25.549  36.412  1.00  0.00    -0.200 F 
ENDBRANCH  58  81
ENDBRANCH  32  33
ENDBRANCH  24  27
ENDBRANCH  22  23
ENDBRANCH   1  22
TORSDOF 14
ENDMDL
MODEL 3
REMARK VINA RESULT:     -11.4      5.726      9.948
REMARK SMILES CCC(CC)(NC(=O)c1ccc(C)s1)C(=O)NCCCNC(=O)c1ccc(-c2c3nc(c(-c4c(F)c(F)c(F)c(F)c4F)c4ccc([nH]4)c(-c4c(F)c(F)c(F)c(F)c4F)c4nc(c(-c5c(F)c(F)c(F)c(F)c5F)c5ccc2[nH]5)C=C4)C=C3)cc1
REMARK SMILES IDX 19 1 18 2 17 3 15 4 16 5 3 7 2 8 1 9 4 10 5 11 6 12 7 13
REMARK SMILES IDX 8 15 9 16 10 17 14 18 11 19 12 20 13 21 20 22 21 23 22 24
REMARK SMILES IDX 23 26 24 27 25 28 86 29 26 30 85 31 27 32 28 33 29 34 79 35
REMARK SMILES IDX 30 36 84 37 78 38 80 39 31 40 83 41 77 42 76 43 32 45 64 46
REMARK SMILES IDX 44 47 63 48 45 49 48 50 62 51 81 52 46 53 47 54 61 56 82 57
REMARK SMILES IDX 49 58 33 59 34 60 42 61 35 62 36 63 40 64 43 65 37 66 38 67
REMARK SMILES IDX 41 68 39 69 65 70 66 71 74 72 67 73 68 74 72 75 75 76 69 77
REMARK SMILES IDX 70 78 73 79 71 80 50 81 51 82 59 83 52 84 53 85 57 86 60 87
REMARK SMILES IDX 54 88 55 89 58 90 56 91
REMARK H PARENT 17 6 6 14 21 25 80 44 48 55
REMARK Flexibility Score: inf
ROOT
ATOM      1  C   UNL A   1      38.160  19.430  25.002  1.00  0.00     0.042 C 
ENDROOT
BRANCH   1   2
ATOM      2  C   UNL A   1      37.017  20.437  24.894  1.00  0.00     0.117 C 
BRANCH   2   3
ATOM      3  N   UNL A   1      35.654  19.950  25.051  1.00  0.00    -0.354 N 
ATOM      4  C   UNL A   1      34.432  20.562  24.934  1.00  0.00     0.245 C 
ATOM      5  O   UNL A   1      33.484  19.819  24.656  1.00  0.00    -0.272 OA
ATOM      6  H   UNL A   1      35.599  18.995  25.287  1.00  0.00     0.163 HD
BRANCH   4   7
ATOM      7  C   UNL A   1      34.244  22.107  25.021  1.00  0.00     0.118 C 
BRANCH   7   8
ATOM      8  C   UNL A   1      35.102  22.923  24.003  1.00  0.00     0.035 C 
ATOM      9  C   UNL A   1      36.192  23.847  24.534  1.00  0.00     0.007 C 
ENDBRANCH   7   8
BRANCH   7  10
ATOM     10  C   UNL A   1      34.649  22.479  26.488  1.00  0.00     0.035 C 
ATOM     11  C   UNL A   1      33.882  21.803  27.618  1.00  0.00     0.007 C 
ENDBRANCH   7  10
BRANCH   7  12
ATOM     12  N   UNL A   1      32.834  22.475  24.744  1.00  0.00    -0.337 N 
ATOM     13  C   UNL A   1      32.074  23.578  25.091  1.00  0.00     0.262 C 
ATOM     14  H   UNL A   1      32.346  21.806  24.212  1.00  0.00     0.164 HD
ATOM     15  O   UNL A   1      30.874  23.307  25.232  1.00  0.00    -0.268 OA
BRANCH  13  16
ATOM     16  C   UNL A   1      32.575  24.954  25.135  1.00  0.00     0.092 A 
ATOM     17  C   UNL A   1      33.060  25.794  26.122  1.00  0.00     0.026 A 
ATOM     18  S   UNL A   1      32.603  25.802  23.616  1.00  0.00    -0.135 S 
ATOM     19  C   UNL A   1      33.651  26.993  25.609  1.00  0.00     0.016 A 
ATOM     20  C   UNL A   1      33.479  27.120  24.251  1.00  0.00     0.002 A 
ATOM     21  C   UNL A   1      33.934  28.227  23.361  1.00  0.00     0.056 C 
ENDBRANCH  13  16
ENDBRANCH   7  12
ENDBRANCH   4   7
ENDBRANCH   2   3
ENDBRANCH   1   2
BRANCH   1  22
ATOM     22  C   UNL A   1      39.279  19.726  25.992  1.00  0.00     0.118 C 
BRANCH  22  23
ATOM     23  N   UNL A   1      40.424  18.843  25.893  1.00  0.00    -0.352 N 
ATOM     24  C   UNL A   1      41.756  19.117  26.072  1.00  0.00     0.251 C 
ATOM     25  H   UNL A   1      40.215  17.909  25.662  1.00  0.00     0.163 HD
ATOM     26  O   UNL A   1      42.578  18.205  25.957  1.00  0.00    -0.269 OA
BRANCH  24  27
ATOM     27  C   UNL A   1      42.238  20.488  26.361  1.00  0.00     0.039 A 
ATOM     28  C   UNL A   1      42.623  21.286  25.281  1.00  0.00     0.014 A 
ATOM     29  C   UNL A   1      42.375  20.979  27.663  1.00  0.00     0.014 A 
ATOM     30  C   UNL A   1      43.099  22.584  25.499  1.00  0.00     0.010 A 
ATOM     31  C   UNL A   1      42.812  22.295  27.877  1.00  0.00     0.010 A 
ATOM     32  C   UNL A   1      43.175  23.115  26.798  1.00  0.00    -0.014 A 
BRANCH  32  33
ATOM     33  C   UNL A   1      43.578  24.538  27.001  1.00  0.00     0.031 A 
ATOM     34  C   UNL A   1      42.612  25.572  27.513  1.00  0.00     0.074 A 
ATOM     35  C   UNL A   1      44.837  24.914  26.698  1.00  0.00     0.049 A 
ATOM     36  N   UNL A   1      42.820  26.841  27.779  1.00  0.00    -0.248 NA
ATOM     37  C   UNL A   1      41.226  25.137  27.732  1.00  0.00     0.031 C 
ATOM     38  C   UNL A   1      45.861  24.040  26.124  1.00  0.00     0.029 A 
ATOM     39  N   UNL A   1      45.472  26.126  26.830  1.00  0.00    -0.354 N 
ATOM     40  C   UNL A   1      41.594  27.356  28.180  1.00  0.00     0.074 A 
ATOM     41  C   UNL A   1      40.637  26.274  28.083  1.00  0.00     0.031 C 
ATOM     42  C   UNL A   1      47.003  24.731  25.987  1.00  0.00     0.029 A 
ATOM     43  C   UNL A   1      46.788  26.103  26.439  1.00  0.00     0.049 A 
ATOM     44  H   UNL A   1      45.026  26.933  27.172  1.00  0.00     0.167 HD
ATOM     45  C   UNL A   1      41.296  28.611  28.606  1.00  0.00     0.037 A 
ATOM     46  C   UNL A   1      47.726  27.070  26.451  1.00  0.00     0.037 A 
ATOM     47  C   UNL A   1      42.250  29.685  28.736  1.00  0.00     0.049 A 
ATOM     48  C   UNL A   1      47.385  28.434  26.984  1.00  0.00     0.074 A 
ATOM     49  C   UNL A   1      42.050  30.964  29.230  1.00  0.00     0.029 A 
ATOM     50  N   UNL A   1      43.585  29.610  28.368  1.00  0.00    -0.354 N 
ATOM     51  N   UNL A   1      46.243  28.881  27.443  1.00  0.00    -0.248 NA
ATOM     52  C   UNL A   1      48.473  29.423  27.014  1.00  0.00     0.031 C 
ATOM     53  C   UNL A   1      43.252  31.673  29.127  1.00  0.00     0.029 A 
ATOM     54  C   UNL A   1      44.215  30.821  28.613  1.00  0.00     0.049 A 
ATOM     55  H   UNL A   1      44.022  28.812  27.989  1.00  0.00     0.167 HD
ATOM     56  C   UNL A   1      46.478  30.190  27.839  1.00  0.00     0.074 A 
ATOM     57  C   UNL A   1      47.877  30.461  27.585  1.00  0.00     0.031 C 
ATOM     58  C   UNL A   1      45.608  31.087  28.365  1.00  0.00     0.037 A 
BRANCH  45  59
ATOM     59  C   UNL A   1      39.869  28.900  28.981  1.00  0.00     0.064 A 
ATOM     60  C   UNL A   1      38.929  29.323  28.027  1.00  0.00     0.173 A 
ATOM     61  C   UNL A   1      39.418  28.690  30.293  1.00  0.00     0.173 A 
ATOM     62  F   UNL A   1      39.308  29.540  26.759  1.00  0.00    -0.203 F 
ATOM     63  C   UNL A   1      37.602  29.553  28.381  1.00  0.00     0.198 A 
ATOM     64  C   UNL A   1      38.083  28.892  30.636  1.00  0.00     0.198 A 
ATOM     65  F   UNL A   1      40.269  28.270  31.242  1.00  0.00    -0.203 F 
ATOM     66  F   UNL A   1      36.735  29.999  27.462  1.00  0.00    -0.200 F 
ATOM     67  C   UNL A   1      37.178  29.331  29.681  1.00  0.00     0.200 A 
ATOM     68  F   UNL A   1      37.671  28.659  31.891  1.00  0.00    -0.200 F 
ATOM     69  F   UNL A   1      35.898  29.544  30.017  1.00  0.00    -0.200 F 
ENDBRANCH  45  59
BRANCH  46  70
ATOM     70  C   UNL A   1      49.104  26.762  25.988  1.00  0.00     0.064 A 
ATOM     71  C   UNL A   1      49.483  26.994  24.659  1.00  0.00     0.173 A 
ATOM     72  C   UNL A   1      50.067  26.239  26.863  1.00  0.00     0.173 A 
ATOM     73  F   UNL A   1      48.589  27.473  23.782  1.00  0.00    -0.203 F 
ATOM     74  C   UNL A   1      50.771  26.698  24.217  1.00  0.00     0.198 A 
ATOM     75  C   UNL A   1      51.362  25.970  26.425  1.00  0.00     0.198 A 
ATOM     76  F   UNL A   1      49.754  26.006  28.145  1.00  0.00    -0.203 F 
ATOM     77  F   UNL A   1      51.094  26.891  22.930  1.00  0.00    -0.200 F 
ATOM     78  C   UNL A   1      51.710  26.193  25.102  1.00  0.00     0.200 A 
ATOM     79  F   UNL A   1      52.273  25.496  27.286  1.00  0.00    -0.200 F 
ATOM     80  F   UNL A   1      52.951  25.917  24.677  1.00  0.00    -0.200 F 
ENDBRANCH  46  70
BRANCH  58  81
ATOM     81  C   UNL A   1      46.152  32.437  28.735  1.00  0.00     0.064 A 
ATOM     82  C   UNL A   1      46.150  33.507  27.828  1.00  0.00     0.173 A 
ATOM     83  C   UNL A   1      46.671  32.666  30.019  1.00  0.00     0.173 A 
ATOM     84  F   UNL A   1      45.680  33.336  26.584  1.00  0.00    -0.203 F 
ATOM     85  C   UNL A   1      46.675  34.748  28.182  1.00  0.00     0.198 A 
ATOM     86  C   UNL A   1      47.170  33.916  30.378  1.00  0.00     0.198 A 
ATOM     87  F   UNL A   1      46.693  31.678  30.926  1.00  0.00    -0.203 F 
ATOM     88  F   UNL A   1      46.710  35.741  27.282  1.00  0.00    -0.200 F 
ATOM     89  C   UNL A   1      47.179  34.952  29.458  1.00  0.00     0.200 A 
ATOM     90  F   UNL A   1      47.649  34.114  31.615  1.00  0.00    -0.200 F 
ATOM     91  F   UNL A   1      47.686  36.147  29.796  1.00  0.00    -0.200 F 
ENDBRANCH  58  81
ENDBRANCH  32  33
ENDBRANCH  24  27
ENDBRANCH  22  23
ENDBRANCH   1  22
TORSDOF 14
ENDMDL
