MODEL 1
REMARK VINA RESULT:     -14.0      0.000      0.000
REMARK SMILES Cc1ccc(-c2cc(Cl)cc3c2O[C@@H](C(F)(F)F)C(C(=O)NCCCNC(=O)c2ccc(-c4c5nc(c(-c6c(F)c(F)c(F)c(F)c6F)c6ccc([nH]6)c(-c6c(F)c(F)c(F)c(F)c6F)c6nc(c(-c7c(F)c(F)c(F)c(F)c7F)c7ccc4[nH]7)C=C6)C=C5)cc2)=C3)cc1
REMARK SMILES IDX 24 1 23 2 22 3 20 4 21 5 19 7 6 8 7 9 12 10 8 11 11 12 13 13
REMARK SMILES IDX 9 14 10 15 92 16 14 17 5 18 1 19 2 20 3 21 94 22 4 23 93 24
REMARK SMILES IDX 15 25 16 26 17 27 18 28 25 29 26 30 27 31 28 33 29 34 30 35
REMARK SMILES IDX 91 36 31 37 90 38 32 39 33 40 34 41 84 42 35 43 89 44 83 45
REMARK SMILES IDX 85 46 36 47 88 48 82 49 81 50 37 52 69 53 49 54 68 55 50 56
REMARK SMILES IDX 53 57 67 58 86 59 51 60 52 61 66 63 87 64 54 65 38 66 39 67
REMARK SMILES IDX 47 68 40 69 41 70 45 71 48 72 42 73 43 74 46 75 44 76 70 77
REMARK SMILES IDX 71 78 79 79 72 80 73 81 77 82 80 83 74 84 75 85 78 86 76 87
REMARK SMILES IDX 55 88 56 89 64 90 57 91 58 92 62 93 65 94 59 95 60 96 63 97
REMARK SMILES IDX 61 98
REMARK H PARENT 22 6 26 32 85 51 53 62
REMARK Flexibility Score: inf
ROOT
ATOM      1  C   UNL A   1      34.008  29.382  25.994  1.00  0.00     0.042 C 
ENDROOT
BRANCH   1   2
ATOM      2  C   UNL A   1      33.028  28.350  25.440  1.00  0.00     0.118 C 
BRANCH   2   3
ATOM      3  N   UNL A   1      33.675  27.184  24.850  1.00  0.00    -0.352 N 
ATOM      4  C   UNL A   1      33.301  26.316  23.866  1.00  0.00     0.251 C 
ATOM      5  O   UNL A   1      34.212  25.898  23.144  1.00  0.00    -0.270 OA
ATOM      6  H   UNL A   1      34.557  26.985  25.238  1.00  0.00     0.163 HD
BRANCH   4   7
ATOM      7  C   UNL A   1      31.883  25.754  23.707  1.00  0.00     0.067 C 
ATOM      8  C   UNL A   1      33.575  22.325  24.997  1.00  0.00     0.026 A 
ATOM      9  C   UNL A   1      33.260  21.091  24.394  1.00  0.00     0.033 A 
ATOM     10  C   UNL A   1      32.763  23.395  24.624  1.00  0.00     0.135 A 
ATOM     11  C   UNL A   1      32.461  21.050  23.246  1.00  0.00     0.042 A 
ATOM     12  C   UNL A   1      32.219  23.436  23.314  1.00  0.00     0.019 A 
ATOM     13  O   UNL A   1      32.374  24.361  25.576  1.00  0.00    -0.475 OA
ATOM     14  Cl  UNL A   1      32.154  19.538  22.485  1.00  0.00    -0.084 Cl
ATOM     15  C   UNL A   1      32.025  22.233  22.643  1.00  0.00     0.032 A 
ATOM     16  C   UNL A   1      31.847  24.783  22.752  1.00  0.00     0.025 C 
ATOM     17  C   UNL A   1      31.301  25.156  24.980  1.00  0.00     0.314 C 
BRANCH   8  18
ATOM     18  C   UNL A   1      35.037  22.551  25.171  1.00  0.00    -0.015 A 
ATOM     19  C   UNL A   1      39.241  22.569  26.247  1.00  0.00     0.044 C 
ATOM     20  C   UNL A   1      37.803  22.588  25.818  1.00  0.00    -0.051 A 
ATOM     21  C   UNL A   1      36.982  23.701  26.065  1.00  0.00     0.004 A 
ATOM     22  C   UNL A   1      37.253  21.480  25.180  1.00  0.00     0.004 A 
ATOM     23  C   UNL A   1      35.608  23.683  25.751  1.00  0.00     0.009 A 
ATOM     24  C   UNL A   1      35.899  21.471  24.855  1.00  0.00     0.009 A 
ENDBRANCH   8  18
BRANCH  17  25
ATOM     25  C   UNL A   1      30.377  26.046  25.818  1.00  0.00     0.429 C 
ATOM     26  F   UNL A   1      29.998  27.136  25.091  1.00  0.00    -0.167 F 
ATOM     27  F   UNL A   1      29.240  25.430  26.191  1.00  0.00    -0.167 F 
ATOM     28  F   UNL A   1      30.973  26.551  26.919  1.00  0.00    -0.167 F 
ENDBRANCH  17  25
ENDBRANCH   4   7
ENDBRANCH   2   3
ENDBRANCH   1   2
BRANCH   1  29
ATOM     29  C   UNL A   1      33.896  29.642  27.493  1.00  0.00     0.118 C 
BRANCH  29  30
ATOM     30  N   UNL A   1      34.638  30.818  27.953  1.00  0.00    -0.352 N 
ATOM     31  C   UNL A   1      35.960  30.910  28.367  1.00  0.00     0.251 C 
ATOM     32  H   UNL A   1      34.128  31.660  27.972  1.00  0.00     0.163 HD
ATOM     33  O   UNL A   1      36.455  31.976  28.680  1.00  0.00    -0.269 OA
BRANCH  31  34
ATOM     34  C   UNL A   1      36.791  29.685  28.311  1.00  0.00     0.039 A 
ATOM     35  C   UNL A   1      36.998  28.975  29.498  1.00  0.00     0.014 A 
ATOM     36  C   UNL A   1      37.565  29.440  27.183  1.00  0.00     0.014 A 
ATOM     37  C   UNL A   1      38.164  28.230  29.637  1.00  0.00     0.010 A 
ATOM     38  C   UNL A   1      38.768  28.791  27.352  1.00  0.00     0.010 A 
ATOM     39  C   UNL A   1      39.104  28.262  28.605  1.00  0.00    -0.014 A 
BRANCH  39  40
ATOM     40  C   UNL A   1      40.520  27.980  28.822  1.00  0.00     0.031 A 
ATOM     41  C   UNL A   1      41.156  26.763  28.280  1.00  0.00     0.074 A 
ATOM     42  C   UNL A   1      41.283  28.934  29.405  1.00  0.00     0.049 A 
ATOM     43  N   UNL A   1      42.237  26.241  28.754  1.00  0.00    -0.248 NA
ATOM     44  C   UNL A   1      40.604  26.023  27.152  1.00  0.00     0.031 C 
ATOM     45  C   UNL A   1      42.741  29.013  29.437  1.00  0.00     0.029 A 
ATOM     46  N   UNL A   1      40.861  29.976  30.254  1.00  0.00    -0.354 N 
ATOM     47  C   UNL A   1      42.669  25.297  27.854  1.00  0.00     0.074 A 
ATOM     48  C   UNL A   1      41.590  25.157  26.900  1.00  0.00     0.031 C 
ATOM     49  C   UNL A   1      43.110  29.814  30.449  1.00  0.00     0.029 A 
ATOM     50  C   UNL A   1      41.907  30.151  31.189  1.00  0.00     0.049 A 
ATOM     51  H   UNL A   1      40.016  30.478  30.206  1.00  0.00     0.167 HD
ATOM     52  C   UNL A   1      43.948  24.829  27.918  1.00  0.00     0.037 A 
ATOM     53  C   UNL A   1      41.716  29.909  32.518  1.00  0.00     0.037 A 
ATOM     54  C   UNL A   1      44.681  25.412  29.037  1.00  0.00     0.049 A 
ATOM     55  C   UNL A   1      42.606  28.823  33.077  1.00  0.00     0.074 A 
ATOM     56  C   UNL A   1      45.555  26.483  29.121  1.00  0.00     0.029 A 
ATOM     57  N   UNL A   1      44.296  25.119  30.343  1.00  0.00    -0.354 N 
ATOM     58  N   UNL A   1      43.230  27.946  32.341  1.00  0.00    -0.248 NA
ATOM     59  C   UNL A   1      42.820  28.609  34.506  1.00  0.00     0.031 C 
ATOM     60  C   UNL A   1      45.643  26.878  30.476  1.00  0.00     0.029 A 
ATOM     61  C   UNL A   1      44.840  26.035  31.223  1.00  0.00     0.049 A 
ATOM     62  H   UNL A   1      43.718  24.365  30.602  1.00  0.00     0.167 HD
ATOM     63  C   UNL A   1      43.872  27.049  33.151  1.00  0.00     0.074 A 
ATOM     64  C   UNL A   1      43.606  27.519  34.498  1.00  0.00     0.031 C 
ATOM     65  C   UNL A   1      44.553  25.979  32.647  1.00  0.00     0.037 A 
BRANCH  52  66
ATOM     66  C   UNL A   1      44.584  24.099  26.761  1.00  0.00     0.064 A 
ATOM     67  C   UNL A   1      44.320  22.736  26.518  1.00  0.00     0.173 A 
ATOM     68  C   UNL A   1      45.529  24.688  25.903  1.00  0.00     0.173 A 
ATOM     69  F   UNL A   1      43.378  22.071  27.195  1.00  0.00    -0.203 F 
ATOM     70  C   UNL A   1      45.036  21.994  25.575  1.00  0.00     0.198 A 
ATOM     71  C   UNL A   1      46.285  23.935  24.998  1.00  0.00     0.198 A 
ATOM     72  F   UNL A   1      45.733  26.015  25.913  1.00  0.00    -0.203 F 
ATOM     73  F   UNL A   1      44.756  20.695  25.399  1.00  0.00    -0.200 F 
ATOM     74  C   UNL A   1      46.048  22.583  24.845  1.00  0.00     0.200 A 
ATOM     75  F   UNL A   1      47.257  24.526  24.289  1.00  0.00    -0.200 F 
ATOM     76  F   UNL A   1      46.778  21.857  23.989  1.00  0.00    -0.200 F 
ENDBRANCH  52  66
BRANCH  53  77
ATOM     77  C   UNL A   1      40.330  30.185  32.977  1.00  0.00     0.064 A 
ATOM     78  C   UNL A   1      39.907  31.526  33.063  1.00  0.00     0.173 A 
ATOM     79  C   UNL A   1      39.341  29.195  32.974  1.00  0.00     0.173 A 
ATOM     80  F   UNL A   1      40.814  32.515  33.067  1.00  0.00    -0.203 F 
ATOM     81  C   UNL A   1      38.557  31.864  33.029  1.00  0.00     0.198 A 
ATOM     82  C   UNL A   1      37.987  29.538  32.953  1.00  0.00     0.198 A 
ATOM     83  F   UNL A   1      39.677  27.900  32.872  1.00  0.00    -0.203 F 
ATOM     84  F   UNL A   1      38.191  33.154  32.996  1.00  0.00    -0.200 F 
ATOM     85  C   UNL A   1      37.598  30.869  32.948  1.00  0.00     0.200 A 
ATOM     86  F   UNL A   1      37.059  28.577  32.839  1.00  0.00    -0.200 F 
ATOM     87  F   UNL A   1      36.303  31.193  32.818  1.00  0.00    -0.200 F 
ENDBRANCH  53  77
BRANCH  65  88
ATOM     88  C   UNL A   1      45.097  24.837  33.462  1.00  0.00     0.064 A 
ATOM     89  C   UNL A   1      44.465  23.587  33.563  1.00  0.00     0.173 A 
ATOM     90  C   UNL A   1      46.373  24.933  34.065  1.00  0.00     0.173 A 
ATOM     91  F   UNL A   1      43.307  23.342  32.934  1.00  0.00    -0.203 F 
ATOM     92  C   UNL A   1      45.036  22.529  34.274  1.00  0.00     0.198 A 
ATOM     93  C   UNL A   1      46.963  23.859  34.727  1.00  0.00     0.198 A 
ATOM     94  F   UNL A   1      47.088  26.066  34.006  1.00  0.00    -0.203 F 
ATOM     95  F   UNL A   1      44.375  21.367  34.379  1.00  0.00    -0.200 F 
ATOM     96  C   UNL A   1      46.288  22.662  34.847  1.00  0.00     0.200 A 
ATOM     97  F   UNL A   1      48.198  23.986  35.233  1.00  0.00    -0.200 F 
ATOM     98  F   UNL A   1      46.848  21.632  35.494  1.00  0.00    -0.200 F 
ENDBRANCH  65  88
ENDBRANCH  39  40
ENDBRANCH  31  34
ENDBRANCH  29  30
ENDBRANCH   1  29
TORSDOF 12
ENDMDL
MODEL 2
REMARK VINA RESULT:     -13.9      3.773      9.563
REMARK SMILES Cc1ccc(-c2cc(Cl)cc3c2O[C@@H](C(F)(F)F)C(C(=O)NCCCNC(=O)c2ccc(-c4c5nc(c(-c6c(F)c(F)c(F)c(F)c6F)c6ccc([nH]6)c(-c6c(F)c(F)c(F)c(F)c6F)c6nc(c(-c7c(F)c(F)c(F)c(F)c7F)c7ccc4[nH]7)C=C6)C=C5)cc2)=C3)cc1
REMARK SMILES IDX 24 1 23 2 22 3 20 4 21 5 19 7 6 8 7 9 12 10 8 11 11 12 13 13
REMARK SMILES IDX 9 14 10 15 92 16 14 17 5 18 1 19 2 20 3 21 94 22 4 23 93 24
REMARK SMILES IDX 15 25 16 26 17 27 18 28 25 29 26 30 27 31 28 33 29 34 30 35
REMARK SMILES IDX 91 36 31 37 90 38 32 39 33 40 34 41 84 42 35 43 89 44 83 45
REMARK SMILES IDX 85 46 36 47 88 48 82 49 81 50 37 52 69 53 49 54 68 55 50 56
REMARK SMILES IDX 53 57 67 58 86 59 51 60 52 61 66 63 87 64 54 65 38 66 39 67
REMARK SMILES IDX 47 68 40 69 41 70 45 71 48 72 42 73 43 74 46 75 44 76 70 77
REMARK SMILES IDX 71 78 79 79 72 80 73 81 77 82 80 83 74 84 75 85 78 86 76 87
REMARK SMILES IDX 55 88 56 89 64 90 57 91 58 92 62 93 65 94 59 95 60 96 63 97
REMARK SMILES IDX 61 98
REMARK H PARENT 22 6 26 32 85 51 53 62
REMARK Flexibility Score: inf
ROOT
ATOM      1  C   UNL A   1      38.528  20.631  25.438  1.00  0.00     0.042 C 
ENDROOT
BRANCH   1   2
ATOM      2  C   UNL A   1      37.237  20.539  24.626  1.00  0.00     0.118 C 
BRANCH   2   3
ATOM      3  N   UNL A   1      36.389  21.719  24.739  1.00  0.00    -0.352 N 
ATOM      4  C   UNL A   1      35.423  22.084  25.632  1.00  0.00     0.251 C 
ATOM      5  O   UNL A   1      35.365  23.290  25.896  1.00  0.00    -0.270 OA
ATOM      6  H   UNL A   1      36.543  22.384  24.031  1.00  0.00     0.163 HD
BRANCH   4   7
ATOM      7  C   UNL A   1      34.368  21.126  26.198  1.00  0.00     0.067 C 
ATOM      8  C   UNL A   1      31.770  23.633  24.392  1.00  0.00     0.026 A 
ATOM      9  C   UNL A   1      30.583  24.033  25.038  1.00  0.00     0.033 A 
ATOM     10  C   UNL A   1      32.466  22.596  25.013  1.00  0.00     0.135 A 
ATOM     11  C   UNL A   1      30.352  23.680  26.372  1.00  0.00     0.042 A 
ATOM     12  C   UNL A   1      32.426  22.476  26.427  1.00  0.00     0.019 A 
ATOM     13  O   UNL A   1      33.094  21.595  24.241  1.00  0.00    -0.475 OA
ATOM     14  Cl  UNL A   1      28.931  24.245  27.159  1.00  0.00    -0.084 Cl
ATOM     15  C   UNL A   1      31.322  22.988  27.101  1.00  0.00     0.032 A 
ATOM     16  C   UNL A   1      33.568  21.761  27.102  1.00  0.00     0.025 C 
ATOM     17  C   UNL A   1      33.459  20.507  25.148  1.00  0.00     0.314 C 
BRANCH   8  18
ATOM     18  C   UNL A   1      32.536  24.761  23.793  1.00  0.00    -0.015 A 
ATOM     19  C   UNL A   1      34.154  28.538  22.397  1.00  0.00     0.044 C 
ATOM     20  C   UNL A   1      33.653  27.207  22.876  1.00  0.00    -0.051 A 
ATOM     21  C   UNL A   1      33.212  26.225  21.974  1.00  0.00     0.004 A 
ATOM     22  C   UNL A   1      33.601  26.935  24.240  1.00  0.00     0.004 A 
ATOM     23  C   UNL A   1      32.651  25.013  22.426  1.00  0.00     0.009 A 
ATOM     24  C   UNL A   1      33.063  25.729  24.684  1.00  0.00     0.009 A 
ENDBRANCH   8  18
BRANCH  17  25
ATOM     25  C   UNL A   1      33.817  19.105  24.643  1.00  0.00     0.429 C 
ATOM     26  F   UNL A   1      33.300  18.164  25.485  1.00  0.00    -0.167 F 
ATOM     27  F   UNL A   1      33.316  18.834  23.424  1.00  0.00    -0.167 F 
ATOM     28  F   UNL A   1      35.145  18.866  24.625  1.00  0.00    -0.167 F 
ENDBRANCH  17  25
ENDBRANCH   4   7
ENDBRANCH   2   3
ENDBRANCH   1   2
BRANCH   1  29
ATOM     29  C   UNL A   1      38.984  22.048  25.771  1.00  0.00     0.118 C 
BRANCH  29  30
ATOM     30  N   UNL A   1      40.402  22.152  26.126  1.00  0.00    -0.352 N 
ATOM     31  C   UNL A   1      41.112  23.260  26.570  1.00  0.00     0.251 C 
ATOM     32  H   UNL A   1      40.922  21.321  26.036  1.00  0.00     0.163 HD
ATOM     33  O   UNL A   1      42.286  23.180  26.873  1.00  0.00    -0.269 OA
BRANCH  31  34
ATOM     34  C   UNL A   1      40.368  24.524  26.771  1.00  0.00     0.039 A 
ATOM     35  C   UNL A   1      40.827  25.670  26.115  1.00  0.00     0.014 A 
ATOM     36  C   UNL A   1      39.443  24.611  27.806  1.00  0.00     0.014 A 
ATOM     37  C   UNL A   1      40.578  26.913  26.686  1.00  0.00     0.010 A 
ATOM     38  C   UNL A   1      39.282  25.828  28.430  1.00  0.00     0.010 A 
ATOM     39  C   UNL A   1      39.923  26.964  27.918  1.00  0.00    -0.014 A 
BRANCH  39  40
ATOM     40  C   UNL A   1      40.059  28.090  28.837  1.00  0.00     0.031 A 
ATOM     41  C   UNL A   1      39.068  29.184  28.867  1.00  0.00     0.074 A 
ATOM     42  C   UNL A   1      41.035  28.042  29.772  1.00  0.00     0.049 A 
ATOM     43  N   UNL A   1      39.314  30.369  29.317  1.00  0.00    -0.248 NA
ATOM     44  C   UNL A   1      37.705  29.025  28.374  1.00  0.00     0.031 C 
ATOM     45  C   UNL A   1      41.166  28.870  30.968  1.00  0.00     0.029 A 
ATOM     46  N   UNL A   1      42.235  27.304  29.729  1.00  0.00    -0.354 N 
ATOM     47  C   UNL A   1      38.112  31.024  29.434  1.00  0.00     0.074 A 
ATOM     48  C   UNL A   1      37.145  30.168  28.783  1.00  0.00     0.031 C 
ATOM     49  C   UNL A   1      42.443  28.837  31.382  1.00  0.00     0.029 A 
ATOM     50  C   UNL A   1      43.199  28.109  30.378  1.00  0.00     0.049 A 
ATOM     51  H   UNL A   1      42.373  26.415  29.332  1.00  0.00     0.167 HD
ATOM     52  C   UNL A   1      38.024  32.155  30.191  1.00  0.00     0.037 A 
ATOM     53  C   UNL A   1      44.277  28.605  29.704  1.00  0.00     0.037 A 
ATOM     54  C   UNL A   1      39.317  32.534  30.750  1.00  0.00     0.049 A 
ATOM     55  C   UNL A   1      44.344  30.114  29.680  1.00  0.00     0.074 A 
ATOM     56  C   UNL A   1      39.903  32.303  31.984  1.00  0.00     0.029 A 
ATOM     57  N   UNL A   1      40.343  32.942  29.901  1.00  0.00    -0.354 N 
ATOM     58  N   UNL A   1      43.327  30.889  29.937  1.00  0.00    -0.248 NA
ATOM     59  C   UNL A   1      45.542  30.865  29.315  1.00  0.00     0.031 C 
ATOM     60  C   UNL A   1      41.296  32.509  31.858  1.00  0.00     0.029 A 
ATOM     61  C   UNL A   1      41.560  32.887  30.554  1.00  0.00     0.049 A 
ATOM     62  H   UNL A   1      40.218  33.230  28.968  1.00  0.00     0.167 HD
ATOM     63  C   UNL A   1      43.691  32.194  29.740  1.00  0.00     0.074 A 
ATOM     64  C   UNL A   1      45.093  32.130  29.373  1.00  0.00     0.031 C 
ATOM     65  C   UNL A   1      42.800  33.220  29.873  1.00  0.00     0.037 A 
BRANCH  52  66
ATOM     66  C   UNL A   1      36.694  32.692  30.660  1.00  0.00     0.064 A 
ATOM     67  C   UNL A   1      35.918  33.545  29.848  1.00  0.00     0.173 A 
ATOM     68  C   UNL A   1      36.175  32.453  31.945  1.00  0.00     0.173 A 
ATOM     69  F   UNL A   1      36.242  33.787  28.573  1.00  0.00    -0.203 F 
ATOM     70  C   UNL A   1      34.783  34.204  30.329  1.00  0.00     0.198 A 
ATOM     71  C   UNL A   1      35.072  33.154  32.445  1.00  0.00     0.198 A 
ATOM     72  F   UNL A   1      36.720  31.523  32.744  1.00  0.00    -0.203 F 
ATOM     73  F   UNL A   1      34.095  35.019  29.518  1.00  0.00    -0.200 F 
ATOM     74  C   UNL A   1      34.385  34.041  31.639  1.00  0.00     0.200 A 
ATOM     75  F   UNL A   1      34.692  32.976  33.718  1.00  0.00    -0.200 F 
ATOM     76  F   UNL A   1      33.336  34.722  32.119  1.00  0.00    -0.200 F 
ENDBRANCH  52  66
BRANCH  53  77
ATOM     77  C   UNL A   1      44.746  27.720  28.606  1.00  0.00     0.064 A 
ATOM     78  C   UNL A   1      45.422  26.532  28.945  1.00  0.00     0.173 A 
ATOM     79  C   UNL A   1      44.239  27.827  27.306  1.00  0.00     0.173 A 
ATOM     80  F   UNL A   1      45.926  26.377  30.180  1.00  0.00    -0.203 F 
ATOM     81  C   UNL A   1      45.485  25.456  28.063  1.00  0.00     0.198 A 
ATOM     82  C   UNL A   1      44.316  26.751  26.419  1.00  0.00     0.198 A 
ATOM     83  F   UNL A   1      43.567  28.924  26.928  1.00  0.00    -0.203 F 
ATOM     84  F   UNL A   1      46.035  24.299  28.457  1.00  0.00    -0.200 F 
ATOM     85  C   UNL A   1      44.909  25.558  26.808  1.00  0.00     0.200 A 
ATOM     86  F   UNL A   1      43.727  26.835  25.217  1.00  0.00    -0.200 F 
ATOM     87  F   UNL A   1      44.882  24.494  25.992  1.00  0.00    -0.200 F 
ENDBRANCH  53  77
BRANCH  65  88
ATOM     88  C   UNL A   1      43.056  34.646  29.467  1.00  0.00     0.064 A 
ATOM     89  C   UNL A   1      43.297  35.681  30.386  1.00  0.00     0.173 A 
ATOM     90  C   UNL A   1      43.205  34.985  28.103  1.00  0.00     0.173 A 
ATOM     91  F   UNL A   1      43.298  35.451  31.707  1.00  0.00    -0.203 F 
ATOM     92  C   UNL A   1      43.598  36.980  29.969  1.00  0.00     0.198 A 
ATOM     93  C   UNL A   1      43.559  36.270  27.692  1.00  0.00     0.198 A 
ATOM     94  F   UNL A   1      43.033  34.074  27.135  1.00  0.00    -0.203 F 
ATOM     95  F   UNL A   1      43.777  37.945  30.882  1.00  0.00    -0.200 F 
ATOM     96  C   UNL A   1      43.739  37.271  28.624  1.00  0.00     0.200 A 
ATOM     97  F   UNL A   1      43.741  36.524  26.389  1.00  0.00    -0.200 F 
ATOM     98  F   UNL A   1      44.065  38.508  28.231  1.00  0.00    -0.200 F 
ENDBRANCH  65  88
ENDBRANCH  39  40
ENDBRANCH  31  34
ENDBRANCH  29  30
ENDBRANCH   1  29
TORSDOF 12
ENDMDL
MODEL 3
REMARK VINA RESULT:     -13.8      1.743      2.375
REMARK SMILES Cc1ccc(-c2cc(Cl)cc3c2O[C@@H](C(F)(F)F)C(C(=O)NCCCNC(=O)c2ccc(-c4c5nc(c(-c6c(F)c(F)c(F)c(F)c6F)c6ccc([nH]6)c(-c6c(F)c(F)c(F)c(F)c6F)c6nc(c(-c7c(F)c(F)c(F)c(F)c7F)c7ccc4[nH]7)C=C6)C=C5)cc2)=C3)cc1
REMARK SMILES IDX 24 1 23 2 22 3 20 4 21 5 19 7 6 8 7 9 12 10 8 11 11 12 13 13
REMARK SMILES IDX 9 14 10 15 92 16 14 17 5 18 1 19 2 20 3 21 94 22 4 23 93 24
REMARK SMILES IDX 15 25 16 26 17 27 18 28 25 29 26 30 27 31 28 33 29 34 30 35
REMARK SMILES IDX 91 36 31 37 90 38 32 39 33 40 34 41 84 42 35 43 89 44 83 45
REMARK SMILES IDX 85 46 36 47 88 48 82 49 81 50 37 52 69 53 49 54 68 55 50 56
REMARK SMILES IDX 53 57 67 58 86 59 51 60 52 61 66 63 87 64 54 65 38 66 39 67
REMARK SMILES IDX 47 68 40 69 41 70 45 71 48 72 42 73 43 74 46 75 44 76 70 77
REMARK SMILES IDX 71 78 79 79 72 80 73 81 77 82 80 83 74 84 75 85 78 86 76 87
REMARK SMILES IDX 55 88 56 89 64 90 57 91 58 92 62 93 65 94 59 95 60 96 63 97
REMARK SMILES IDX 61 98
REMARK H PARENT 22 6 26 32 85 51 53 62
REMARK Flexibility Score: inf
ROOT
ATOM      1  C   UNL A   1      32.999  31.529  27.262  1.00  0.00     0.042 C 
ENDROOT
BRANCH   1   2
ATOM      2  C   UNL A   1      31.873  30.634  26.746  1.00  0.00     0.118 C 
BRANCH   2   3
ATOM      3  N   UNL A   1      32.309  29.289  26.392  1.00  0.00    -0.352 N 
ATOM      4  C   UNL A   1      32.880  28.767  25.268  1.00  0.00     0.251 C 
ATOM      5  O   UNL A   1      33.709  27.869  25.455  1.00  0.00    -0.270 OA
ATOM      6  H   UNL A   1      32.163  28.627  27.105  1.00  0.00     0.163 HD
BRANCH   4   7
ATOM      7  C   UNL A   1      32.462  29.134  23.839  1.00  0.00     0.067 C 
ATOM      8  C   UNL A   1      31.651  25.191  23.540  1.00  0.00     0.026 A 
ATOM      9  C   UNL A   1      32.005  24.465  22.385  1.00  0.00     0.033 A 
ATOM     10  C   UNL A   1      31.772  26.576  23.433  1.00  0.00     0.135 A 
ATOM     11  C   UNL A   1      32.770  25.067  21.380  1.00  0.00     0.042 A 
ATOM     12  C   UNL A   1      32.787  27.128  22.608  1.00  0.00     0.019 A 
ATOM     13  O   UNL A   1      30.815  27.424  24.030  1.00  0.00    -0.475 OA
ATOM     14  Cl  UNL A   1      33.253  24.137  20.016  1.00  0.00    -0.084 Cl
ATOM     15  C   UNL A   1      33.250  26.370  21.538  1.00  0.00     0.032 A 
ATOM     16  C   UNL A   1      33.265  28.522  22.923  1.00  0.00     0.025 C 
ATOM     17  C   UNL A   1      31.026  28.768  23.495  1.00  0.00     0.314 C 
BRANCH   8  18
ATOM     18  C   UNL A   1      32.049  24.525  24.812  1.00  0.00    -0.015 A 
ATOM     19  C   UNL A   1      33.632  22.045  28.002  1.00  0.00     0.044 C 
ATOM     20  C   UNL A   1      33.080  22.951  26.940  1.00  0.00    -0.051 A 
ATOM     21  C   UNL A   1      31.697  23.053  26.714  1.00  0.00     0.004 A 
ATOM     22  C   UNL A   1      33.945  23.696  26.144  1.00  0.00     0.004 A 
ATOM     23  C   UNL A   1      31.183  23.828  25.654  1.00  0.00     0.009 A 
ATOM     24  C   UNL A   1      33.433  24.475  25.108  1.00  0.00     0.009 A 
ENDBRANCH   8  18
BRANCH  17  25
ATOM     25  C   UNL A   1      29.970  29.873  23.613  1.00  0.00     0.429 C 
ATOM     26  F   UNL A   1      29.876  30.551  22.434  1.00  0.00    -0.167 F 
ATOM     27  F   UNL A   1      28.736  29.404  23.876  1.00  0.00    -0.167 F 
ATOM     28  F   UNL A   1      30.278  30.812  24.533  1.00  0.00    -0.167 F 
ENDBRANCH  17  25
ENDBRANCH   4   7
ENDBRANCH   2   3
ENDBRANCH   1   2
BRANCH   1  29
ATOM     29  C   UNL A   1      34.147  30.795  27.946  1.00  0.00     0.118 C 
BRANCH  29  30
ATOM     30  N   UNL A   1      34.899  31.615  28.899  1.00  0.00    -0.352 N 
ATOM     31  C   UNL A   1      36.093  31.329  29.546  1.00  0.00     0.251 C 
ATOM     32  H   UNL A   1      34.500  32.490  29.111  1.00  0.00     0.163 HD
ATOM     33  O   UNL A   1      36.626  32.137  30.282  1.00  0.00    -0.269 OA
BRANCH  31  34
ATOM     34  C   UNL A   1      36.765  30.048  29.227  1.00  0.00     0.039 A 
ATOM     35  C   UNL A   1      36.984  29.142  30.269  1.00  0.00     0.014 A 
ATOM     36  C   UNL A   1      37.407  29.904  28.003  1.00  0.00     0.014 A 
ATOM     37  C   UNL A   1      38.061  28.267  30.179  1.00  0.00     0.010 A 
ATOM     38  C   UNL A   1      38.535  29.114  27.952  1.00  0.00     0.010 A 
ATOM     39  C   UNL A   1      38.909  28.362  29.074  1.00  0.00    -0.014 A 
BRANCH  39  40
ATOM     40  C   UNL A   1      40.295  27.903  29.103  1.00  0.00     0.031 A 
ATOM     41  C   UNL A   1      40.678  26.576  28.583  1.00  0.00     0.074 A 
ATOM     42  C   UNL A   1      41.254  28.780  29.480  1.00  0.00     0.049 A 
ATOM     43  N   UNL A   1      41.747  25.943  28.935  1.00  0.00    -0.248 NA
ATOM     44  C   UNL A   1      39.865  25.844  27.618  1.00  0.00     0.031 C 
ATOM     45  C   UNL A   1      42.697  28.659  29.288  1.00  0.00     0.029 A 
ATOM     46  N   UNL A   1      41.107  29.925  30.286  1.00  0.00    -0.354 N 
ATOM     47  C   UNL A   1      41.908  24.889  28.069  1.00  0.00     0.074 A 
ATOM     48  C   UNL A   1      40.683  24.835  27.301  1.00  0.00     0.031 C 
ATOM     49  C   UNL A   1      43.320  29.468  30.160  1.00  0.00     0.029 A 
ATOM     50  C   UNL A   1      42.301  30.018  31.037  1.00  0.00     0.049 A 
ATOM     51  H   UNL A   1      40.334  30.535  30.320  1.00  0.00     0.167 HD
ATOM     52  C   UNL A   1      43.112  24.255  27.984  1.00  0.00     0.037 A 
ATOM     53  C   UNL A   1      42.294  29.895  32.396  1.00  0.00     0.037 A 
ATOM     54  C   UNL A   1      44.080  24.806  28.926  1.00  0.00     0.049 A 
ATOM     55  C   UNL A   1      43.117  28.738  32.910  1.00  0.00     0.074 A 
ATOM     56  C   UNL A   1      45.084  25.750  28.784  1.00  0.00     0.029 A 
ATOM     57  N   UNL A   1      43.873  24.659  30.295  1.00  0.00    -0.354 N 
ATOM     58  N   UNL A   1      43.501  27.735  32.171  1.00  0.00    -0.248 NA
ATOM     59  C   UNL A   1      43.527  28.594  34.305  1.00  0.00     0.031 C 
ATOM     60  C   UNL A   1      45.435  26.220  30.072  1.00  0.00     0.029 A 
ATOM     61  C   UNL A   1      44.661  25.548  31.000  1.00  0.00     0.049 A 
ATOM     62  H   UNL A   1      43.253  24.011  30.702  1.00  0.00     0.167 HD
ATOM     63  C   UNL A   1      44.146  26.815  32.954  1.00  0.00     0.074 A 
ATOM     64  C   UNL A   1      44.158  27.407  34.278  1.00  0.00     0.031 C 
ATOM     65  C   UNL A   1      44.598  25.630  32.451  1.00  0.00     0.037 A 
BRANCH  52  66
ATOM     66  C   UNL A   1      43.459  23.367  26.815  1.00  0.00     0.064 A 
ATOM     67  C   UNL A   1      43.059  22.016  26.773  1.00  0.00     0.173 A 
ATOM     68  C   UNL A   1      44.259  23.788  25.737  1.00  0.00     0.173 A 
ATOM     69  F   UNL A   1      42.221  21.504  27.681  1.00  0.00    -0.203 F 
ATOM     70  C   UNL A   1      43.525  21.129  25.799  1.00  0.00     0.198 A 
ATOM     71  C   UNL A   1      44.772  22.890  24.795  1.00  0.00     0.198 A 
ATOM     72  F   UNL A   1      44.554  25.086  25.567  1.00  0.00    -0.203 F 
ATOM     73  F   UNL A   1      43.126  19.850  25.819  1.00  0.00    -0.200 F 
ATOM     74  C   UNL A   1      44.415  21.556  24.835  1.00  0.00     0.200 A 
ATOM     75  F   UNL A   1      45.628  23.324  23.859  1.00  0.00    -0.200 F 
ATOM     76  F   UNL A   1      44.914  20.692  23.942  1.00  0.00    -0.200 F 
ENDBRANCH  52  66
BRANCH  53  77
ATOM     77  C   UNL A   1      41.044  30.391  33.028  1.00  0.00     0.064 A 
ATOM     78  C   UNL A   1      40.837  31.782  33.106  1.00  0.00     0.173 A 
ATOM     79  C   UNL A   1      39.931  29.562  33.211  1.00  0.00     0.173 A 
ATOM     80  F   UNL A   1      41.871  32.623  32.936  1.00  0.00    -0.203 F 
ATOM     81  C   UNL A   1      39.561  32.320  33.244  1.00  0.00     0.198 A 
ATOM     82  C   UNL A   1      38.653  30.105  33.362  1.00  0.00     0.198 A 
ATOM     83  F   UNL A   1      40.057  28.229  33.128  1.00  0.00    -0.203 F 
ATOM     84  F   UNL A   1      39.386  33.648  33.198  1.00  0.00    -0.200 F 
ATOM     85  C   UNL A   1      38.466  31.479  33.345  1.00  0.00     0.200 A 
ATOM     86  F   UNL A   1      37.588  29.292  33.425  1.00  0.00    -0.200 F 
ATOM     87  F   UNL A   1      37.227  31.991  33.380  1.00  0.00    -0.200 F 
ENDBRANCH  53  77
BRANCH  65  88
ATOM     88  C   UNL A   1      45.117  24.482  33.274  1.00  0.00     0.064 A 
ATOM     89  C   UNL A   1      44.374  23.319  33.536  1.00  0.00     0.173 A 
ATOM     90  C   UNL A   1      46.460  24.467  33.713  1.00  0.00     0.173 A 
ATOM     91  F   UNL A   1      43.127  23.171  33.068  1.00  0.00    -0.203 F 
ATOM     92  C   UNL A   1      44.914  22.245  34.247  1.00  0.00     0.198 A 
ATOM     93  C   UNL A   1      47.013  23.372  34.375  1.00  0.00     0.198 A 
ATOM     94  F   UNL A   1      47.278  25.507  33.491  1.00  0.00    -0.203 F 
ATOM     95  F   UNL A   1      44.153  21.174  34.511  1.00  0.00    -0.200 F 
ATOM     96  C   UNL A   1      46.236  22.268  34.658  1.00  0.00     0.200 A 
ATOM     97  F   UNL A   1      48.308  23.388  34.721  1.00  0.00    -0.200 F 
ATOM     98  F   UNL A   1      46.760  21.220  35.306  1.00  0.00    -0.200 F 
ENDBRANCH  65  88
ENDBRANCH  39  40
ENDBRANCH  31  34
ENDBRANCH  29  30
ENDBRANCH   1  29
TORSDOF 12
ENDMDL
