MODEL 1
REMARK VINA RESULT:     -13.3      0.000      0.000
REMARK SMILES CN(C)c1nccnc1N1CCC(Oc2ccc3ccccc3c2)(C(=O)NCCCNC(=O)c2ccc(-c3c4nc(c(-c5c(F)c(F)c(F)c(F)c5F)c5ccc([nH]5)c(-c5c(F)c(F)c(F)c(F)c5F)c5nc(c(-c6c(F)c(F)c(F)c(F)c6F)c6ccc3[nH]6)C=C5)C=C4)cc2)CC1
REMARK SMILES IDX 29 1 28 2 27 3 25 4 26 5 13 7 10 8 11 9 98 10 12 11 97 12
REMARK SMILES IDX 9 13 4 14 5 15 6 16 8 17 7 18 2 19 1 20 3 21 14 22 15 23
REMARK SMILES IDX 16 24 24 25 17 26 23 27 18 28 22 29 19 30 21 31 20 32 30 33
REMARK SMILES IDX 31 34 32 35 33 37 34 38 35 39 96 40 36 41 95 42 37 43 38 44
REMARK SMILES IDX 39 45 89 46 40 47 94 48 88 49 90 50 41 51 93 52 87 53 86 54
REMARK SMILES IDX 42 56 74 57 54 58 73 59 55 60 58 61 72 62 91 63 56 64 57 65
REMARK SMILES IDX 71 67 92 68 59 69 43 70 44 71 52 72 45 73 46 74 50 75 53 76
REMARK SMILES IDX 47 77 48 78 51 79 49 80 75 81 76 82 84 83 77 84 78 85 82 86
REMARK SMILES IDX 85 87 79 88 80 89 83 90 81 91 60 92 61 93 69 94 62 95 63 96
REMARK SMILES IDX 67 97 70 98 64 99 65 100 68 101 66 102
REMARK H PARENT 27 6 31 36 90 55 58 66
REMARK Flexibility Score: inf
ROOT
ATOM      1  C   UNL A   1      39.088  21.540  26.316  1.00  0.00     0.042 C 
ENDROOT
BRANCH   1   2
ATOM      2  C   UNL A   1      38.005  22.577  26.041  1.00  0.00     0.118 C 
BRANCH   2   3
ATOM      3  N   UNL A   1      37.718  22.697  24.625  1.00  0.00    -0.353 N 
ATOM      4  C   UNL A   1      36.544  22.911  23.963  1.00  0.00     0.264 C 
ATOM      5  O   UNL A   1      36.653  23.087  22.745  1.00  0.00    -0.270 OA
ATOM      6  H   UNL A   1      38.505  22.609  24.040  1.00  0.00     0.163 HD
BRANCH   4   7
ATOM      7  C   UNL A   1      35.167  22.916  24.693  1.00  0.00     0.190 C 
ATOM      8  N   UNL A   1      33.801  25.071  23.372  1.00  0.00    -0.353 N 
ATOM      9  C   UNL A   1      33.915  23.804  22.686  1.00  0.00     0.123 C 
ATOM     10  C   UNL A   1      34.778  25.436  24.390  1.00  0.00     0.123 C 
ATOM     11  C   UNL A   1      34.014  22.680  23.700  1.00  0.00     0.080 C 
ATOM     12  C   UNL A   1      34.972  24.285  25.387  1.00  0.00     0.080 C 
BRANCH   8  13
ATOM     13  C   UNL A   1      32.594  25.756  23.353  1.00  0.00     0.171 A 
ATOM     14  C   UNL A   1      31.493  25.373  24.193  1.00  0.00     0.171 A 
ATOM     15  N   UNL A   1      30.278  25.968  24.050  1.00  0.00    -0.234 NA
ATOM     16  C   UNL A   1      30.190  26.951  23.132  1.00  0.00     0.134 A 
ATOM     17  N   UNL A   1      32.483  26.778  22.465  1.00  0.00    -0.234 NA
ATOM     18  C   UNL A   1      31.267  27.353  22.367  1.00  0.00     0.134 A 
BRANCH  14  19
ATOM     19  N   UNL A   1      31.637  24.424  25.222  1.00  0.00    -0.360 N 
ATOM     20  C   UNL A   1      30.838  23.219  25.088  1.00  0.00     0.145 C 
ATOM     21  C   UNL A   1      31.766  24.991  26.560  1.00  0.00     0.145 C 
ENDBRANCH  14  19
ENDBRANCH   8  13
BRANCH   7  22
ATOM     22  O   UNL A   1      35.352  21.847  25.662  1.00  0.00    -0.477 OA
BRANCH  22  23
ATOM     23  C   UNL A   1      34.589  20.727  25.515  1.00  0.00     0.121 A 
ATOM     24  C   UNL A   1      33.271  20.682  25.957  1.00  0.00     0.047 A 
ATOM     25  C   UNL A   1      35.125  19.657  24.802  1.00  0.00     0.055 A 
ATOM     26  C   UNL A   1      32.531  19.509  25.820  1.00  0.00     0.012 A 
ATOM     27  C   UNL A   1      34.383  18.480  24.627  1.00  0.00    -0.015 A 
ATOM     28  C   UNL A   1      33.081  18.394  25.174  1.00  0.00    -0.018 A 
ATOM     29  C   UNL A   1      34.905  17.380  23.929  1.00  0.00     0.009 A 
ATOM     30  C   UNL A   1      32.357  17.199  25.049  1.00  0.00     0.009 A 
ATOM     31  C   UNL A   1      34.168  16.202  23.801  1.00  0.00     0.001 A 
ATOM     32  C   UNL A   1      32.900  16.108  24.371  1.00  0.00     0.001 A 
ENDBRANCH  22  23
ENDBRANCH   7  22
ENDBRANCH   4   7
ENDBRANCH   2   3
ENDBRANCH   1   2
BRANCH   1  33
ATOM     33  C   UNL A   1      39.032  20.322  25.401  1.00  0.00     0.118 C 
BRANCH  33  34
ATOM     34  N   UNL A   1      40.018  19.311  25.750  1.00  0.00    -0.352 N 
ATOM     35  C   UNL A   1      41.329  19.444  26.127  1.00  0.00     0.251 C 
ATOM     36  H   UNL A   1      39.692  18.383  25.710  1.00  0.00     0.163 HD
ATOM     37  O   UNL A   1      42.045  18.443  26.196  1.00  0.00    -0.269 OA
BRANCH  35  38
ATOM     38  C   UNL A   1      41.904  20.771  26.432  1.00  0.00     0.039 A 
ATOM     39  C   UNL A   1      42.235  21.620  25.372  1.00  0.00     0.014 A 
ATOM     40  C   UNL A   1      42.159  21.171  27.747  1.00  0.00     0.014 A 
ATOM     41  C   UNL A   1      42.758  22.890  25.630  1.00  0.00     0.010 A 
ATOM     42  C   UNL A   1      42.609  22.463  28.007  1.00  0.00     0.010 A 
ATOM     43  C   UNL A   1      42.917  23.335  26.952  1.00  0.00    -0.014 A 
BRANCH  43  44
ATOM     44  C   UNL A   1      43.409  24.705  27.249  1.00  0.00     0.031 A 
ATOM     45  C   UNL A   1      42.472  25.742  27.804  1.00  0.00     0.074 A 
ATOM     46  C   UNL A   1      44.684  25.032  26.961  1.00  0.00     0.049 A 
ATOM     47  N   UNL A   1      42.691  27.011  28.047  1.00  0.00    -0.248 NA
ATOM     48  C   UNL A   1      41.101  25.301  28.105  1.00  0.00     0.031 C 
ATOM     49  C   UNL A   1      45.680  24.129  26.383  1.00  0.00     0.029 A 
ATOM     50  N   UNL A   1      45.358  26.221  27.104  1.00  0.00    -0.354 N 
ATOM     51  C   UNL A   1      41.486  27.519  28.515  1.00  0.00     0.074 A 
ATOM     52  C   UNL A   1      40.526  26.437  28.476  1.00  0.00     0.031 C 
ATOM     53  C   UNL A   1      46.841  24.788  26.238  1.00  0.00     0.029 A 
ATOM     54  C   UNL A   1      46.661  26.169  26.674  1.00  0.00     0.049 A 
ATOM     55  H   UNL A   1      44.945  27.032  27.480  1.00  0.00     0.167 HD
ATOM     56  C   UNL A   1      41.211  28.769  28.958  1.00  0.00     0.037 A 
ATOM     57  C   UNL A   1      47.603  27.131  26.627  1.00  0.00     0.037 A 
ATOM     58  C   UNL A   1      42.174  29.837  29.023  1.00  0.00     0.049 A 
ATOM     59  C   UNL A   1      47.266  28.514  27.118  1.00  0.00     0.074 A 
ATOM     60  C   UNL A   1      42.003  31.125  29.501  1.00  0.00     0.029 A 
ATOM     61  N   UNL A   1      43.490  29.741  28.598  1.00  0.00    -0.354 N 
ATOM     62  N   UNL A   1      46.139  28.966  27.609  1.00  0.00    -0.248 NA
ATOM     63  C   UNL A   1      48.337  29.519  27.052  1.00  0.00     0.031 C 
ATOM     64  C   UNL A   1      43.205  31.819  29.332  1.00  0.00     0.029 A 
ATOM     65  C   UNL A   1      44.138  30.951  28.789  1.00  0.00     0.049 A 
ATOM     66  H   UNL A   1      43.903  28.931  28.217  1.00  0.00     0.167 HD
ATOM     67  C   UNL A   1      46.373  30.295  27.938  1.00  0.00     0.074 A 
ATOM     68  C   UNL A   1      47.753  30.572  27.606  1.00  0.00     0.031 C 
ATOM     69  C   UNL A   1      45.518  31.205  28.467  1.00  0.00     0.037 A 
BRANCH  56  70
ATOM     70  C   UNL A   1      39.813  29.051  29.422  1.00  0.00     0.064 A 
ATOM     71  C   UNL A   1      38.816  29.476  28.530  1.00  0.00     0.173 A 
ATOM     72  C   UNL A   1      39.449  28.842  30.761  1.00  0.00     0.173 A 
ATOM     73  F   UNL A   1      39.115  29.702  27.242  1.00  0.00    -0.203 F 
ATOM     74  C   UNL A   1      37.512  29.700  28.966  1.00  0.00     0.198 A 
ATOM     75  C   UNL A   1      38.138  29.040  31.187  1.00  0.00     0.198 A 
ATOM     76  F   UNL A   1      40.362  28.429  31.654  1.00  0.00    -0.203 F 
ATOM     77  F   UNL A   1      36.587  30.143  28.103  1.00  0.00    -0.200 F 
ATOM     78  C   UNL A   1      37.173  29.474  30.291  1.00  0.00     0.200 A 
ATOM     79  F   UNL A   1      37.808  28.808  32.465  1.00  0.00    -0.200 F 
ATOM     80  F   UNL A   1      35.915  29.678  30.705  1.00  0.00    -0.200 F 
ENDBRANCH  56  70
BRANCH  57  81
ATOM     81  C   UNL A   1      48.961  26.823  26.108  1.00  0.00     0.064 A 
ATOM     82  C   UNL A   1      49.291  27.069  24.768  1.00  0.00     0.173 A 
ATOM     83  C   UNL A   1      49.946  26.257  26.930  1.00  0.00     0.173 A 
ATOM     84  F   UNL A   1      48.375  27.589  23.938  1.00  0.00    -0.203 F 
ATOM     85  C   UNL A   1      50.545  26.734  24.262  1.00  0.00     0.198 A 
ATOM     86  C   UNL A   1      51.211  25.950  26.430  1.00  0.00     0.198 A 
ATOM     87  F   UNL A   1      49.683  26.005  28.220  1.00  0.00    -0.203 F 
ATOM     88  F   UNL A   1      50.815  26.930  22.965  1.00  0.00    -0.200 F 
ATOM     89  C   UNL A   1      51.505  26.179  25.095  1.00  0.00     0.200 A 
ATOM     90  F   UNL A   1      52.139  25.425  27.240  1.00  0.00    -0.200 F 
ATOM     91  F   UNL A   1      52.711  25.855  24.607  1.00  0.00    -0.200 F 
ENDBRANCH  57  81
BRANCH  69  92
ATOM     92  C   UNL A   1      46.063  32.572  28.757  1.00  0.00     0.064 A 
ATOM     93  C   UNL A   1      46.678  32.874  29.980  1.00  0.00     0.173 A 
ATOM     94  C   UNL A   1      46.004  33.580  27.782  1.00  0.00     0.173 A 
ATOM     95  F   UNL A   1      46.745  31.949  30.949  1.00  0.00    -0.203 F 
ATOM     96  C   UNL A   1      47.191  34.145  30.228  1.00  0.00     0.198 A 
ATOM     97  C   UNL A   1      46.544  34.839  28.022  1.00  0.00     0.198 A 
ATOM     98  F   UNL A   1      45.432  33.338  26.593  1.00  0.00    -0.203 F 
ATOM     99  F   UNL A   1      47.732  34.426  31.420  1.00  0.00    -0.200 F 
ATOM    100  C   UNL A   1      47.130  35.123  29.247  1.00  0.00     0.200 A 
ATOM    101  F   UNL A   1      46.495  35.780  27.069  1.00  0.00    -0.200 F 
ATOM    102  F   UNL A   1      47.631  36.344  29.484  1.00  0.00    -0.200 F 
ENDBRANCH  69  92
ENDBRANCH  43  44
ENDBRANCH  35  38
ENDBRANCH  33  34
ENDBRANCH   1  33
TORSDOF 14
ENDMDL
MODEL 2
REMARK VINA RESULT:     -13.2      5.299     11.070
REMARK SMILES CN(C)c1nccnc1N1CCC(Oc2ccc3ccccc3c2)(C(=O)NCCCNC(=O)c2ccc(-c3c4nc(c(-c5c(F)c(F)c(F)c(F)c5F)c5ccc([nH]5)c(-c5c(F)c(F)c(F)c(F)c5F)c5nc(c(-c6c(F)c(F)c(F)c(F)c6F)c6ccc3[nH]6)C=C5)C=C4)cc2)CC1
REMARK SMILES IDX 29 1 28 2 27 3 25 4 26 5 13 7 10 8 11 9 98 10 12 11 97 12
REMARK SMILES IDX 9 13 4 14 5 15 6 16 8 17 7 18 2 19 1 20 3 21 14 22 15 23
REMARK SMILES IDX 16 24 24 25 17 26 23 27 18 28 22 29 19 30 21 31 20 32 30 33
REMARK SMILES IDX 31 34 32 35 33 37 34 38 35 39 96 40 36 41 95 42 37 43 38 44
REMARK SMILES IDX 39 45 89 46 40 47 94 48 88 49 90 50 41 51 93 52 87 53 86 54
REMARK SMILES IDX 42 56 74 57 54 58 73 59 55 60 58 61 72 62 91 63 56 64 57 65
REMARK SMILES IDX 71 67 92 68 59 69 43 70 44 71 52 72 45 73 46 74 50 75 53 76
REMARK SMILES IDX 47 77 48 78 51 79 49 80 75 81 76 82 84 83 77 84 78 85 82 86
REMARK SMILES IDX 85 87 79 88 80 89 83 90 81 91 60 92 61 93 69 94 62 95 63 96
REMARK SMILES IDX 67 97 70 98 64 99 65 100 68 101 66 102
REMARK H PARENT 27 6 31 36 90 55 58 66
REMARK Flexibility Score: inf
ROOT
ATOM      1  C   UNL A   1      31.891  31.458  27.178  1.00  0.00     0.042 C 
ENDROOT
BRANCH   1   2
ATOM      2  C   UNL A   1      32.569  30.102  27.013  1.00  0.00     0.118 C 
BRANCH   2   3
ATOM      3  N   UNL A   1      33.201  29.969  25.715  1.00  0.00    -0.353 N 
ATOM      4  C   UNL A   1      33.022  29.050  24.721  1.00  0.00     0.264 C 
ATOM      5  O   UNL A   1      33.633  29.285  23.673  1.00  0.00    -0.270 OA
ATOM      6  H   UNL A   1      33.874  30.659  25.515  1.00  0.00     0.163 HD
BRANCH   4   7
ATOM      7  C   UNL A   1      32.124  27.790  24.905  1.00  0.00     0.190 C 
ATOM      8  N   UNL A   1      33.988  25.656  24.430  1.00  0.00    -0.353 N 
ATOM      9  C   UNL A   1      34.032  26.338  25.704  1.00  0.00     0.123 C 
ATOM     10  C   UNL A   1      33.456  26.339  23.258  1.00  0.00     0.123 C 
ATOM     11  C   UNL A   1      32.658  26.890  26.035  1.00  0.00     0.080 C 
ATOM     12  C   UNL A   1      32.105  26.990  23.581  1.00  0.00     0.080 C 
BRANCH   8  13
ATOM     13  C   UNL A   1      34.083  24.272  24.389  1.00  0.00     0.171 A 
ATOM     14  C   UNL A   1      32.945  23.427  24.628  1.00  0.00     0.171 A 
ATOM     15  N   UNL A   1      33.096  22.079  24.725  1.00  0.00    -0.234 NA
ATOM     16  C   UNL A   1      34.339  21.594  24.534  1.00  0.00     0.134 A 
ATOM     17  N   UNL A   1      35.316  23.748  24.160  1.00  0.00    -0.234 NA
ATOM     18  C   UNL A   1      35.419  22.406  24.248  1.00  0.00     0.134 A 
BRANCH  14  19
ATOM     19  N   UNL A   1      31.639  23.945  24.712  1.00  0.00    -0.360 N 
ATOM     20  C   UNL A   1      30.979  23.791  25.996  1.00  0.00     0.145 C 
ATOM     21  C   UNL A   1      30.826  23.744  23.518  1.00  0.00     0.145 C 
ENDBRANCH  14  19
ENDBRANCH   8  13
BRANCH   7  22
ATOM     22  O   UNL A   1      30.831  28.397  25.182  1.00  0.00    -0.477 OA
BRANCH  22  23
ATOM     23  C   UNL A   1      30.187  29.005  24.146  1.00  0.00     0.121 A 
ATOM     24  C   UNL A   1      29.708  28.278  23.061  1.00  0.00     0.047 A 
ATOM     25  C   UNL A   1      29.915  30.367  24.251  1.00  0.00     0.055 A 
ATOM     26  C   UNL A   1      29.085  28.937  22.003  1.00  0.00     0.012 A 
ATOM     27  C   UNL A   1      29.260  31.040  23.209  1.00  0.00    -0.015 A 
ATOM     28  C   UNL A   1      28.871  30.321  22.055  1.00  0.00    -0.018 A 
ATOM     29  C   UNL A   1      28.990  32.416  23.281  1.00  0.00     0.009 A 
ATOM     30  C   UNL A   1      28.267  31.001  20.988  1.00  0.00     0.009 A 
ATOM     31  C   UNL A   1      28.375  33.077  22.217  1.00  0.00     0.001 A 
ATOM     32  C   UNL A   1      28.025  32.373  21.067  1.00  0.00     0.001 A 
ENDBRANCH  22  23
ENDBRANCH   7  22
ENDBRANCH   4   7
ENDBRANCH   2   3
ENDBRANCH   1   2
BRANCH   1  33
ATOM     33  C   UNL A   1      32.660  32.619  26.559  1.00  0.00     0.118 C 
BRANCH  33  34
ATOM     34  N   UNL A   1      32.430  33.878  27.251  1.00  0.00    -0.352 N 
ATOM     35  C   UNL A   1      33.005  34.382  28.389  1.00  0.00     0.251 C 
ATOM     36  H   UNL A   1      31.754  34.461  26.837  1.00  0.00     0.163 HD
ATOM     37  O   UNL A   1      32.528  35.390  28.914  1.00  0.00    -0.269 OA
BRANCH  35  38
ATOM     38  C   UNL A   1      34.174  33.724  29.009  1.00  0.00     0.039 A 
ATOM     39  C   UNL A   1      35.449  34.233  28.743  1.00  0.00     0.014 A 
ATOM     40  C   UNL A   1      34.033  32.590  29.814  1.00  0.00     0.014 A 
ATOM     41  C   UNL A   1      36.572  33.646  29.334  1.00  0.00     0.010 A 
ATOM     42  C   UNL A   1      35.142  32.053  30.462  1.00  0.00     0.010 A 
ATOM     43  C   UNL A   1      36.424  32.572  30.226  1.00  0.00    -0.014 A 
BRANCH  43  44
ATOM     44  C   UNL A   1      37.598  31.977  30.916  1.00  0.00     0.031 A 
ATOM     45  C   UNL A   1      38.423  30.923  30.231  1.00  0.00     0.074 A 
ATOM     46  C   UNL A   1      37.883  32.343  32.181  1.00  0.00     0.049 A 
ATOM     47  N   UNL A   1      39.429  30.226  30.699  1.00  0.00    -0.248 NA
ATOM     48  C   UNL A   1      38.056  30.591  28.846  1.00  0.00     0.031 C 
ATOM     49  C   UNL A   1      37.136  33.325  32.968  1.00  0.00     0.029 A 
ATOM     50  N   UNL A   1      38.873  31.919  33.034  1.00  0.00    -0.354 N 
ATOM     51  C   UNL A   1      39.804  29.368  29.673  1.00  0.00     0.074 A 
ATOM     52  C   UNL A   1      38.888  29.595  28.575  1.00  0.00     0.031 C 
ATOM     53  C   UNL A   1      37.703  33.442  34.179  1.00  0.00     0.029 A 
ATOM     54  C   UNL A   1      38.828  32.518  34.269  1.00  0.00     0.049 A 
ATOM     55  H   UNL A   1      39.552  31.251  32.782  1.00  0.00     0.167 HD
ATOM     56  C   UNL A   1      40.831  28.487  29.641  1.00  0.00     0.037 A 
ATOM     57  C   UNL A   1      39.601  32.332  35.356  1.00  0.00     0.037 A 
ATOM     58  C   UNL A   1      41.759  28.281  30.722  1.00  0.00     0.049 A 
ATOM     59  C   UNL A   1      40.731  31.339  35.295  1.00  0.00     0.074 A 
ATOM     60  C   UNL A   1      42.862  27.445  30.767  1.00  0.00     0.029 A 
ATOM     61  N   UNL A   1      41.694  28.921  31.950  1.00  0.00    -0.354 N 
ATOM     62  N   UNL A   1      41.108  30.575  34.300  1.00  0.00    -0.248 NA
ATOM     63  C   UNL A   1      41.547  31.188  36.508  1.00  0.00     0.031 C 
ATOM     64  C   UNL A   1      43.442  27.552  32.035  1.00  0.00     0.029 A 
ATOM     65  C   UNL A   1      42.727  28.487  32.765  1.00  0.00     0.049 A 
ATOM     66  H   UNL A   1      41.013  29.586  32.205  1.00  0.00     0.167 HD
ATOM     67  C   UNL A   1      42.219  29.877  34.754  1.00  0.00     0.074 A 
ATOM     68  C   UNL A   1      42.465  30.320  36.109  1.00  0.00     0.031 C 
ATOM     69  C   UNL A   1      42.967  28.951  34.107  1.00  0.00     0.037 A 
BRANCH  56  70
ATOM     70  C   UNL A   1      41.020  27.682  28.388  1.00  0.00     0.064 A 
ATOM     71  C   UNL A   1      41.864  28.121  27.357  1.00  0.00     0.173 A 
ATOM     72  C   UNL A   1      40.398  26.434  28.241  1.00  0.00     0.173 A 
ATOM     73  F   UNL A   1      42.474  29.313  27.444  1.00  0.00    -0.203 F 
ATOM     74  C   UNL A   1      42.061  27.349  26.214  1.00  0.00     0.198 A 
ATOM     75  C   UNL A   1      40.619  25.652  27.110  1.00  0.00     0.198 A 
ATOM     76  F   UNL A   1      39.587  25.964  29.201  1.00  0.00    -0.203 F 
ATOM     77  F   UNL A   1      42.840  27.807  25.225  1.00  0.00    -0.200 F 
ATOM     78  C   UNL A   1      41.445  26.112  26.095  1.00  0.00     0.200 A 
ATOM     79  F   UNL A   1      40.034  24.451  27.002  1.00  0.00    -0.200 F 
ATOM     80  F   UNL A   1      41.646  25.365  25.001  1.00  0.00    -0.200 F 
ENDBRANCH  56  70
BRANCH  57  81
ATOM     81  C   UNL A   1      39.346  33.111  36.596  1.00  0.00     0.064 A 
ATOM     82  C   UNL A   1      40.018  34.318  36.837  1.00  0.00     0.173 A 
ATOM     83  C   UNL A   1      38.449  32.657  37.573  1.00  0.00     0.173 A 
ATOM     84  F   UNL A   1      40.903  34.781  35.942  1.00  0.00    -0.203 F 
ATOM     85  C   UNL A   1      39.823  35.027  38.020  1.00  0.00     0.198 A 
ATOM     86  C   UNL A   1      38.232  33.382  38.743  1.00  0.00     0.198 A 
ATOM     87  F   UNL A   1      37.778  31.511  37.389  1.00  0.00    -0.203 F 
ATOM     88  F   UNL A   1      40.518  36.149  38.249  1.00  0.00    -0.200 F 
ATOM     89  C   UNL A   1      38.926  34.560  38.970  1.00  0.00     0.200 A 
ATOM     90  F   UNL A   1      37.356  32.936  39.653  1.00  0.00    -0.200 F 
ATOM     91  F   UNL A   1      38.740  35.241  40.109  1.00  0.00    -0.200 F 
ENDBRANCH  57  81
BRANCH  69  92
ATOM     92  C   UNL A   1      44.146  28.385  34.841  1.00  0.00     0.064 A 
ATOM     93  C   UNL A   1      45.400  29.012  34.814  1.00  0.00     0.173 A 
ATOM     94  C   UNL A   1      44.009  27.221  35.613  1.00  0.00     0.173 A 
ATOM     95  F   UNL A   1      45.585  30.118  34.078  1.00  0.00    -0.203 F 
ATOM     96  C   UNL A   1      46.481  28.481  35.513  1.00  0.00     0.198 A 
ATOM     97  C   UNL A   1      45.083  26.709  36.334  1.00  0.00     0.198 A 
ATOM     98  F   UNL A   1      42.828  26.587  35.677  1.00  0.00    -0.203 F 
ATOM     99  F   UNL A   1      47.681  29.070  35.435  1.00  0.00    -0.200 F 
ATOM    100  C   UNL A   1      46.320  27.334  36.277  1.00  0.00     0.200 A 
ATOM    101  F   UNL A   1      44.923  25.608  37.081  1.00  0.00    -0.200 F 
ATOM    102  F   UNL A   1      47.359  26.828  36.955  1.00  0.00    -0.200 F 
ENDBRANCH  69  92
ENDBRANCH  43  44
ENDBRANCH  35  38
ENDBRANCH  33  34
ENDBRANCH   1  33
TORSDOF 14
ENDMDL
MODEL 3
REMARK VINA RESULT:     -13.2      5.105      9.648
REMARK SMILES CN(C)c1nccnc1N1CCC(Oc2ccc3ccccc3c2)(C(=O)NCCCNC(=O)c2ccc(-c3c4nc(c(-c5c(F)c(F)c(F)c(F)c5F)c5ccc([nH]5)c(-c5c(F)c(F)c(F)c(F)c5F)c5nc(c(-c6c(F)c(F)c(F)c(F)c6F)c6ccc3[nH]6)C=C5)C=C4)cc2)CC1
REMARK SMILES IDX 29 1 28 2 27 3 25 4 26 5 13 7 10 8 11 9 98 10 12 11 97 12
REMARK SMILES IDX 9 13 4 14 5 15 6 16 8 17 7 18 2 19 1 20 3 21 14 22 15 23
REMARK SMILES IDX 16 24 24 25 17 26 23 27 18 28 22 29 19 30 21 31 20 32 30 33
REMARK SMILES IDX 31 34 32 35 33 37 34 38 35 39 96 40 36 41 95 42 37 43 38 44
REMARK SMILES IDX 39 45 89 46 40 47 94 48 88 49 90 50 41 51 93 52 87 53 86 54
REMARK SMILES IDX 42 56 74 57 54 58 73 59 55 60 58 61 72 62 91 63 56 64 57 65
REMARK SMILES IDX 71 67 92 68 59 69 43 70 44 71 52 72 45 73 46 74 50 75 53 76
REMARK SMILES IDX 47 77 48 78 51 79 49 80 75 81 76 82 84 83 77 84 78 85 82 86
REMARK SMILES IDX 85 87 79 88 80 89 83 90 81 91 60 92 61 93 69 94 62 95 63 96
REMARK SMILES IDX 67 97 70 98 64 99 65 100 68 101 66 102
REMARK H PARENT 27 6 31 36 90 55 58 66
REMARK Flexibility Score: inf
ROOT
ATOM      1  C   UNL A   1      33.592  31.358  26.876  1.00  0.00     0.042 C 
ENDROOT
BRANCH   1   2
ATOM      2  C   UNL A   1      33.484  29.854  26.650  1.00  0.00     0.118 C 
BRANCH   2   3
ATOM      3  N   UNL A   1      33.871  29.481  25.303  1.00  0.00    -0.353 N 
ATOM      4  C   UNL A   1      33.378  28.526  24.461  1.00  0.00     0.264 C 
ATOM      5  O   UNL A   1      33.849  28.541  23.319  1.00  0.00    -0.270 OA
ATOM      6  H   UNL A   1      34.616  30.006  24.931  1.00  0.00     0.163 HD
BRANCH   4   7
ATOM      7  C   UNL A   1      32.312  27.486  24.917  1.00  0.00     0.190 C 
ATOM      8  N   UNL A   1      33.665  24.997  24.443  1.00  0.00    -0.353 N 
ATOM      9  C   UNL A   1      34.032  25.769  25.608  1.00  0.00     0.123 C 
ATOM     10  C   UNL A   1      33.084  25.662  23.284  1.00  0.00     0.123 C 
ATOM     11  C   UNL A   1      32.850  26.606  26.060  1.00  0.00     0.080 C 
ATOM     12  C   UNL A   1      31.939  26.589  23.713  1.00  0.00     0.080 C 
BRANCH   8  13
ATOM     13  C   UNL A   1      33.504  23.623  24.553  1.00  0.00     0.171 A 
ATOM     14  C   UNL A   1      34.613  22.718  24.422  1.00  0.00     0.171 A 
ATOM     15  N   UNL A   1      34.406  21.374  24.389  1.00  0.00    -0.234 NA
ATOM     16  C   UNL A   1      33.134  20.954  24.536  1.00  0.00     0.134 A 
ATOM     17  N   UNL A   1      32.238  23.166  24.740  1.00  0.00    -0.234 NA
ATOM     18  C   UNL A   1      32.079  21.827  24.718  1.00  0.00     0.134 A 
BRANCH  14  19
ATOM     19  N   UNL A   1      35.945  23.174  24.383  1.00  0.00    -0.360 N 
ATOM     20  C   UNL A   1      36.653  22.954  23.136  1.00  0.00     0.145 C 
ATOM     21  C   UNL A   1      36.694  22.970  25.618  1.00  0.00     0.145 C 
ENDBRANCH  14  19
ENDBRANCH   8  13
BRANCH   7  22
ATOM     22  O   UNL A   1      31.208  28.355  25.299  1.00  0.00    -0.477 OA
BRANCH  22  23
ATOM     23  C   UNL A   1      30.422  28.848  24.299  1.00  0.00     0.121 A 
ATOM     24  C   UNL A   1      29.765  28.004  23.409  1.00  0.00     0.047 A 
ATOM     25  C   UNL A   1      30.197  30.221  24.258  1.00  0.00     0.055 A 
ATOM     26  C   UNL A   1      28.997  28.543  22.379  1.00  0.00     0.012 A 
ATOM     27  C   UNL A   1      29.400  30.778  23.247  1.00  0.00    -0.015 A 
ATOM     28  C   UNL A   1      28.821  29.930  22.275  1.00  0.00    -0.018 A 
ATOM     29  C   UNL A   1      29.172  32.161  23.172  1.00  0.00     0.009 A 
ATOM     30  C   UNL A   1      28.070  30.488  21.230  1.00  0.00     0.009 A 
ATOM     31  C   UNL A   1      28.411  32.701  22.134  1.00  0.00     0.001 A 
ATOM     32  C   UNL A   1      27.872  31.867  21.157  1.00  0.00     0.001 A 
ENDBRANCH  22  23
ENDBRANCH   7  22
ENDBRANCH   4   7
ENDBRANCH   2   3
ENDBRANCH   1   2
BRANCH   1  33
ATOM     33  C   UNL A   1      32.279  32.025  27.271  1.00  0.00     0.118 C 
BRANCH  33  34
ATOM     34  N   UNL A   1      32.409  33.463  27.446  1.00  0.00    -0.352 N 
ATOM     35  C   UNL A   1      33.278  34.186  28.222  1.00  0.00     0.251 C 
ATOM     36  H   UNL A   1      31.772  34.004  26.926  1.00  0.00     0.163 HD
ATOM     37  O   UNL A   1      33.095  35.396  28.372  1.00  0.00    -0.269 OA
BRANCH  35  38
ATOM     38  C   UNL A   1      34.421  33.535  28.897  1.00  0.00     0.039 A 
ATOM     39  C   UNL A   1      34.169  32.712  29.999  1.00  0.00     0.014 A 
ATOM     40  C   UNL A   1      35.737  33.758  28.484  1.00  0.00     0.014 A 
ATOM     41  C   UNL A   1      35.227  32.064  30.643  1.00  0.00     0.010 A 
ATOM     42  C   UNL A   1      36.782  33.055  29.076  1.00  0.00     0.010 A 
ATOM     43  C   UNL A   1      36.540  32.203  30.165  1.00  0.00    -0.014 A 
BRANCH  43  44
ATOM     44  C   UNL A   1      37.669  31.472  30.794  1.00  0.00     0.031 A 
ATOM     45  C   UNL A   1      38.068  31.771  32.213  1.00  0.00     0.074 A 
ATOM     46  C   UNL A   1      38.374  30.583  30.067  1.00  0.00     0.049 A 
ATOM     47  N   UNL A   1      39.076  31.301  32.906  1.00  0.00    -0.248 NA
ATOM     48  C   UNL A   1      37.238  32.741  32.943  1.00  0.00     0.031 C 
ATOM     49  C   UNL A   1      38.113  30.234  28.669  1.00  0.00     0.029 A 
ATOM     50  N   UNL A   1      39.466  29.818  30.401  1.00  0.00    -0.354 N 
ATOM     51  C   UNL A   1      39.008  31.929  34.143  1.00  0.00     0.074 A 
ATOM     52  C   UNL A   1      37.892  32.848  34.091  1.00  0.00     0.031 C 
ATOM     53  C   UNL A   1      39.005  29.314  28.271  1.00  0.00     0.029 A 
ATOM     54  C   UNL A   1      39.925  29.036  29.369  1.00  0.00     0.049 A 
ATOM     55  H   UNL A   1      39.879  29.830  31.294  1.00  0.00     0.167 HD
ATOM     56  C   UNL A   1      39.792  31.738  35.231  1.00  0.00     0.037 A 
ATOM     57  C   UNL A   1      40.977  28.196  29.314  1.00  0.00     0.037 A 
ATOM     58  C   UNL A   1      40.885  30.803  35.291  1.00  0.00     0.049 A 
ATOM     59  C   UNL A   1      41.836  28.011  30.536  1.00  0.00     0.074 A 
ATOM     60  C   UNL A   1      41.707  30.505  36.364  1.00  0.00     0.029 A 
ATOM     61  N   UNL A   1      41.306  30.013  34.233  1.00  0.00    -0.354 N 
ATOM     62  N   UNL A   1      41.727  28.569  31.716  1.00  0.00    -0.248 NA
ATOM     63  C   UNL A   1      42.962  27.074  30.418  1.00  0.00     0.031 C 
ATOM     64  C   UNL A   1      42.650  29.561  35.945  1.00  0.00     0.029 A 
ATOM     65  C   UNL A   1      42.386  29.238  34.624  1.00  0.00     0.049 A 
ATOM     66  H   UNL A   1      40.897  30.003  33.337  1.00  0.00     0.167 HD
ATOM     67  C   UNL A   1      42.747  28.030  32.489  1.00  0.00     0.074 A 
ATOM     68  C   UNL A   1      43.456  27.090  31.648  1.00  0.00     0.031 C 
ATOM     69  C   UNL A   1      43.070  28.294  33.779  1.00  0.00     0.037 A 
BRANCH  56  70
ATOM     70  C   UNL A   1      39.490  32.549  36.457  1.00  0.00     0.064 A 
ATOM     71  C   UNL A   1      40.174  33.743  36.733  1.00  0.00     0.173 A 
ATOM     72  C   UNL A   1      38.468  32.161  37.336  1.00  0.00     0.173 A 
ATOM     73  F   UNL A   1      41.168  34.152  35.929  1.00  0.00    -0.203 F 
ATOM     74  C   UNL A   1      39.861  34.506  37.854  1.00  0.00     0.198 A 
ATOM     75  C   UNL A   1      38.138  32.941  38.441  1.00  0.00     0.198 A 
ATOM     76  F   UNL A   1      37.778  31.031  37.115  1.00  0.00    -0.203 F 
ATOM     77  F   UNL A   1      40.555  35.622  38.118  1.00  0.00    -0.200 F 
ATOM     78  C   UNL A   1      38.838  34.109  38.703  1.00  0.00     0.200 A 
ATOM     79  F   UNL A   1      37.141  32.564  39.253  1.00  0.00    -0.200 F 
ATOM     80  F   UNL A   1      38.530  34.852  39.775  1.00  0.00    -0.200 F 
ENDBRANCH  56  70
BRANCH  57  81
ATOM     81  C   UNL A   1      41.273  27.452  28.061  1.00  0.00     0.064 A 
ATOM     82  C   UNL A   1      40.736  26.176  27.840  1.00  0.00     0.173 A 
ATOM     83  C   UNL A   1      42.114  27.987  27.076  1.00  0.00     0.173 A 
ATOM     84  F   UNL A   1      39.944  25.614  28.764  1.00  0.00    -0.203 F 
ATOM     85  C   UNL A   1      41.052  25.452  26.692  1.00  0.00     0.198 A 
ATOM     86  C   UNL A   1      42.406  27.274  25.914  1.00  0.00     0.198 A 
ATOM     87  F   UNL A   1      42.650  29.205  27.237  1.00  0.00    -0.203 F 
ATOM     88  F   UNL A   1      40.569  24.213  26.531  1.00  0.00    -0.200 F 
ATOM     89  C   UNL A   1      41.883  26.004  25.729  1.00  0.00     0.200 A 
ATOM     90  F   UNL A   1      43.198  27.815  24.980  1.00  0.00    -0.200 F 
ATOM     91  F   UNL A   1      42.188  25.305  24.626  1.00  0.00    -0.200 F 
ENDBRANCH  57  81
BRANCH  69  92
ATOM     92  C   UNL A   1      44.213  27.524  34.371  1.00  0.00     0.064 A 
ATOM     93  C   UNL A   1      44.027  26.262  34.951  1.00  0.00     0.173 A 
ATOM     94  C   UNL A   1      45.517  28.042  34.323  1.00  0.00     0.173 A 
ATOM     95  F   UNL A   1      42.798  25.732  35.035  1.00  0.00    -0.203 F 
ATOM     96  C   UNL A   1      45.101  25.555  35.485  1.00  0.00     0.198 A 
ATOM     97  C   UNL A   1      46.592  27.319  34.831  1.00  0.00     0.198 A 
ATOM     98  F   UNL A   1      45.747  29.243  33.772  1.00  0.00    -0.203 F 
ATOM     99  F   UNL A   1      44.894  24.371  36.077  1.00  0.00    -0.200 F 
ATOM    100  C   UNL A   1      46.383  26.081  35.418  1.00  0.00     0.200 A 
ATOM    101  F   UNL A   1      47.832  27.824  34.755  1.00  0.00    -0.200 F 
ATOM    102  F   UNL A   1      47.417  25.396  35.926  1.00  0.00    -0.200 F 
ENDBRANCH  69  92
ENDBRANCH  43  44
ENDBRANCH  35  38
ENDBRANCH  33  34
ENDBRANCH   1  33
TORSDOF 14
ENDMDL
