MODEL 1
REMARK VINA RESULT:     -13.8      0.000      0.000
REMARK SMILES CCn1ncc(NC(=O)[C@@H]2CCCC[C@@H]2C(=O)NCCCNC(=O)c2ccc(-c3c4nc(c(-c5c(F)c(F)c(F)c(F)c5F)c5ccc([nH]5)c(-c5c(F)c(F)c(F)c(F)c5F)c5nc(c(-c6c(F)c(F)c(F)c(F)c6F)c6ccc3[nH]6)C=C5)C=C4)cc2)c1C(=O)Nc1cnn(C)c1C
REMARK SMILES IDX 19 1 18 2 16 3 17 4 15 6 10 7 11 8 12 9 14 10 13 11 8 12
REMARK SMILES IDX 7 13 9 15 6 16 3 17 4 18 88 19 5 20 2 21 1 22 89 23 90 24
REMARK SMILES IDX 91 25 92 27 93 28 97 29 94 30 95 31 98 32 96 33 20 34 21 35
REMARK SMILES IDX 22 36 23 37 24 39 25 40 26 41 87 42 27 43 86 44 28 45 29 46
REMARK SMILES IDX 30 47 80 48 31 49 85 50 79 51 81 52 32 53 84 54 78 55 77 56
REMARK SMILES IDX 33 58 65 59 45 60 64 61 46 62 49 63 63 64 82 65 47 66 48 67
REMARK SMILES IDX 62 69 83 70 50 71 34 72 35 73 43 74 36 75 37 76 41 77 44 78
REMARK SMILES IDX 38 79 39 80 42 81 40 82 66 83 67 84 75 85 68 86 69 87 73 88
REMARK SMILES IDX 76 89 70 90 71 91 74 92 72 93 51 94 52 95 60 96 53 97 54 98
REMARK SMILES IDX 58 99 61 100 55 101 56 102 59 103 57 104
REMARK H PARENT 18 5 7 14 91 26 22 38 81 57 49 68
REMARK Flexibility Score: inf
ROOT
ATOM      1  C   UNL A   1      36.601  23.688  25.973  1.00  0.00     0.117 C 
ENDROOT
BRANCH   1   2
ATOM      2  N   UNL A   1      35.666  23.058  26.888  1.00  0.00    -0.356 N 
ATOM      3  C   UNL A   1      34.357  22.746  26.725  1.00  0.00     0.223 C 
ATOM      4  O   UNL A   1      33.786  22.211  27.678  1.00  0.00    -0.275 OA
ATOM      5  H   UNL A   1      36.042  22.819  27.766  1.00  0.00     0.163 HD
BRANCH   3   6
ATOM      6  C   UNL A   1      33.646  23.063  25.412  1.00  0.00     0.091 C 
ATOM      7  C   UNL A   1      32.115  22.953  25.544  1.00  0.00     0.091 C 
ATOM      8  C   UNL A   1      31.751  21.519  25.685  1.00  0.00     0.014 C 
ATOM      9  C   UNL A   1      32.231  20.595  24.609  1.00  0.00     0.001 C 
ATOM     10  C   UNL A   1      34.179  22.122  24.294  1.00  0.00     0.014 C 
ATOM     11  C   UNL A   1      33.715  20.672  24.392  1.00  0.00     0.001 C 
BRANCH   7  12
ATOM     12  C   UNL A   1      31.406  23.857  26.568  1.00  0.00     0.228 C 
ATOM     13  N   UNL A   1      31.494  25.222  26.685  1.00  0.00    -0.322 N 
ATOM     14  H   UNL A   1      30.978  25.555  27.456  1.00  0.00     0.170 HD
ATOM     15  O   UNL A   1      30.661  23.300  27.392  1.00  0.00    -0.274 OA
BRANCH  13  16
ATOM     16  C   UNL A   1      32.122  26.269  25.997  1.00  0.00     0.092 A 
ATOM     17  N   UNL A   1      32.662  28.100  24.951  1.00  0.00    -0.258 N 
ATOM     18  N   UNL A   1      33.677  27.932  25.826  1.00  0.00    -0.178 NA
ATOM     19  C   UNL A   1      31.913  26.947  24.775  1.00  0.00     0.150 A 
ATOM     20  C   UNL A   1      33.335  26.827  26.475  1.00  0.00     0.162 A 
BRANCH  17  21
ATOM     21  C   UNL A   1      32.448  29.455  24.489  1.00  0.00     0.142 C 
ATOM     22  C   UNL A   1      31.496  30.239  25.381  1.00  0.00     0.029 C 
ENDBRANCH  17  21
BRANCH  19  23
ATOM     23  C   UNL A   1      31.138  26.511  23.597  1.00  0.00     0.276 C 
ATOM     24  O   UNL A   1      31.437  25.481  22.987  1.00  0.00    -0.267 OA
ATOM     25  N   UNL A   1      29.854  27.013  23.402  1.00  0.00    -0.318 N 
ATOM     26  H   UNL A   1      29.110  26.430  23.676  1.00  0.00     0.170 HD
BRANCH  25  27
ATOM     27  C   UNL A   1      29.510  28.234  22.871  1.00  0.00     0.082 A 
ATOM     28  C   UNL A   1      30.299  29.127  22.121  1.00  0.00     0.161 A 
ATOM     29  C   UNL A   1      28.268  28.841  22.968  1.00  0.00     0.059 A 
ATOM     30  N   UNL A   1      29.678  30.290  21.924  1.00  0.00    -0.179 NA
ATOM     31  N   UNL A   1      28.492  30.130  22.540  1.00  0.00    -0.271 N 
ATOM     32  C   UNL A   1      26.963  28.430  23.549  1.00  0.00     0.068 C 
ATOM     33  C   UNL A   1      27.725  31.310  22.876  1.00  0.00     0.174 C 
ENDBRANCH  25  27
ENDBRANCH  19  23
ENDBRANCH  13  16
ENDBRANCH   7  12
ENDBRANCH   3   6
ENDBRANCH   1   2
BRANCH   1  34
ATOM     34  C   UNL A   1      37.856  22.850  25.753  1.00  0.00     0.042 C 
BRANCH  34  35
ATOM     35  C   UNL A   1      38.929  23.111  26.785  1.00  0.00     0.118 C 
BRANCH  35  36
ATOM     36  N   UNL A   1      40.210  22.503  26.451  1.00  0.00    -0.352 N 
ATOM     37  C   UNL A   1      41.405  23.156  26.207  1.00  0.00     0.251 C 
ATOM     38  H   UNL A   1      40.227  21.521  26.391  1.00  0.00     0.163 HD
ATOM     39  O   UNL A   1      42.319  22.607  25.626  1.00  0.00    -0.269 OA
BRANCH  37  40
ATOM     40  C   UNL A   1      41.529  24.550  26.672  1.00  0.00     0.039 A 
ATOM     41  C   UNL A   1      41.168  25.609  25.841  1.00  0.00     0.014 A 
ATOM     42  C   UNL A   1      41.964  24.777  27.979  1.00  0.00     0.014 A 
ATOM     43  C   UNL A   1      41.187  26.896  26.366  1.00  0.00     0.010 A 
ATOM     44  C   UNL A   1      41.830  26.020  28.542  1.00  0.00     0.010 A 
ATOM     45  C   UNL A   1      41.495  27.089  27.727  1.00  0.00    -0.014 A 
BRANCH  45  46
ATOM     46  C   UNL A   1      41.341  28.402  28.335  1.00  0.00     0.031 A 
ATOM     47  C   UNL A   1      42.440  29.336  27.987  1.00  0.00     0.074 A 
ATOM     48  C   UNL A   1      40.250  28.799  29.024  1.00  0.00     0.049 A 
ATOM     49  N   UNL A   1      43.428  29.668  28.746  1.00  0.00    -0.248 NA
ATOM     50  C   UNL A   1      42.574  29.803  26.599  1.00  0.00     0.031 C 
ATOM     51  C   UNL A   1      38.965  28.112  29.181  1.00  0.00     0.029 A 
ATOM     52  N   UNL A   1      40.044  29.967  29.695  1.00  0.00    -0.354 N 
ATOM     53  C   UNL A   1      44.190  30.567  28.013  1.00  0.00     0.074 A 
ATOM     54  C   UNL A   1      43.740  30.453  26.651  1.00  0.00     0.031 C 
ATOM     55  C   UNL A   1      38.054  28.960  29.710  1.00  0.00     0.029 A 
ATOM     56  C   UNL A   1      38.727  30.189  30.089  1.00  0.00     0.049 A 
ATOM     57  H   UNL A   1      40.769  30.605  29.885  1.00  0.00     0.167 HD
ATOM     58  C   UNL A   1      44.929  31.512  28.658  1.00  0.00     0.037 A 
ATOM     59  C   UNL A   1      38.236  31.308  30.682  1.00  0.00     0.037 A 
ATOM     60  C   UNL A   1      45.044  31.187  30.062  1.00  0.00     0.049 A 
ATOM     61  C   UNL A   1      39.389  32.025  31.277  1.00  0.00     0.074 A 
ATOM     62  C   UNL A   1      45.576  30.137  30.784  1.00  0.00     0.029 A 
ATOM     63  N   UNL A   1      44.185  31.836  30.914  1.00  0.00    -0.354 N 
ATOM     64  N   UNL A   1      40.069  31.582  32.297  1.00  0.00    -0.248 NA
ATOM     65  C   UNL A   1      40.068  33.013  30.454  1.00  0.00     0.031 C 
ATOM     66  C   UNL A   1      44.676  29.943  31.875  1.00  0.00     0.029 A 
ATOM     67  C   UNL A   1      43.693  30.933  31.815  1.00  0.00     0.049 A 
ATOM     68  H   UNL A   1      43.961  32.794  30.881  1.00  0.00     0.167 HD
ATOM     69  C   UNL A   1      41.388  31.864  31.982  1.00  0.00     0.074 A 
ATOM     70  C   UNL A   1      41.317  32.839  30.895  1.00  0.00     0.031 C 
ATOM     71  C   UNL A   1      42.393  31.056  32.431  1.00  0.00     0.037 A 
BRANCH  58  72
ATOM     72  C   UNL A   1      45.156  32.923  28.160  1.00  0.00     0.064 A 
ATOM     73  C   UNL A   1      46.485  33.377  28.010  1.00  0.00     0.173 A 
ATOM     74  C   UNL A   1      44.169  33.930  28.140  1.00  0.00     0.173 A 
ATOM     75  F   UNL A   1      47.510  32.510  28.022  1.00  0.00    -0.203 F 
ATOM     76  C   UNL A   1      46.801  34.736  27.954  1.00  0.00     0.198 A 
ATOM     77  C   UNL A   1      44.486  35.283  28.031  1.00  0.00     0.198 A 
ATOM     78  F   UNL A   1      42.874  33.671  28.340  1.00  0.00    -0.203 F 
ATOM     79  F   UNL A   1      48.085  35.120  27.958  1.00  0.00    -0.200 F 
ATOM     80  C   UNL A   1      45.803  35.689  27.974  1.00  0.00     0.200 A 
ATOM     81  F   UNL A   1      43.503  36.194  28.072  1.00  0.00    -0.200 F 
ATOM     82  F   UNL A   1      46.104  36.993  27.989  1.00  0.00    -0.200 F 
ENDBRANCH  58  72
BRANCH  59  83
ATOM     83  C   UNL A   1      36.909  31.956  30.547  1.00  0.00     0.064 A 
ATOM     84  C   UNL A   1      35.971  31.906  31.596  1.00  0.00     0.173 A 
ATOM     85  C   UNL A   1      36.658  32.896  29.530  1.00  0.00     0.173 A 
ATOM     86  F   UNL A   1      36.154  31.067  32.625  1.00  0.00    -0.203 F 
ATOM     87  C   UNL A   1      34.877  32.776  31.646  1.00  0.00     0.198 A 
ATOM     88  C   UNL A   1      35.563  33.761  29.580  1.00  0.00     0.198 A 
ATOM     89  F   UNL A   1      37.525  33.063  28.523  1.00  0.00    -0.203 F 
ATOM     90  F   UNL A   1      34.048  32.749  32.701  1.00  0.00    -0.200 F 
ATOM     91  C   UNL A   1      34.682  33.713  30.646  1.00  0.00     0.200 A 
ATOM     92  F   UNL A   1      35.404  34.689  28.626  1.00  0.00    -0.200 F 
ATOM     93  F   UNL A   1      33.676  34.595  30.730  1.00  0.00    -0.200 F 
ENDBRANCH  59  83
BRANCH  71  94
ATOM     94  C   UNL A   1      42.069  30.086  33.535  1.00  0.00     0.064 A 
ATOM     95  C   UNL A   1      41.617  28.768  33.344  1.00  0.00     0.173 A 
ATOM     96  C   UNL A   1      42.346  30.485  34.850  1.00  0.00     0.173 A 
ATOM     97  F   UNL A   1      41.417  28.275  32.115  1.00  0.00    -0.203 F 
ATOM     98  C   UNL A   1      41.410  27.912  34.426  1.00  0.00     0.198 A 
ATOM     99  C   UNL A   1      42.179  29.617  35.923  1.00  0.00     0.198 A 
ATOM    100  F   UNL A   1      42.824  31.717  35.091  1.00  0.00    -0.203 F 
ATOM    101  F   UNL A   1      40.959  26.666  34.221  1.00  0.00    -0.200 F 
ATOM    102  C   UNL A   1      41.700  28.335  35.713  1.00  0.00     0.200 A 
ATOM    103  F   UNL A   1      42.507  30.017  37.160  1.00  0.00    -0.200 F 
ATOM    104  F   UNL A   1      41.538  27.501  36.750  1.00  0.00    -0.200 F 
ENDBRANCH  71  94
ENDBRANCH  45  46
ENDBRANCH  37  40
ENDBRANCH  35  36
ENDBRANCH  34  35
ENDBRANCH   1  34
TORSDOF 15
ENDMDL
MODEL 2
REMARK VINA RESULT:     -13.8      1.527      2.671
REMARK SMILES CCn1ncc(NC(=O)[C@@H]2CCCC[C@@H]2C(=O)NCCCNC(=O)c2ccc(-c3c4nc(c(-c5c(F)c(F)c(F)c(F)c5F)c5ccc([nH]5)c(-c5c(F)c(F)c(F)c(F)c5F)c5nc(c(-c6c(F)c(F)c(F)c(F)c6F)c6ccc3[nH]6)C=C5)C=C4)cc2)c1C(=O)Nc1cnn(C)c1C
REMARK SMILES IDX 19 1 18 2 16 3 17 4 15 6 10 7 11 8 12 9 14 10 13 11 8 12
REMARK SMILES IDX 7 13 9 15 6 16 3 17 4 18 88 19 5 20 2 21 1 22 89 23 90 24
REMARK SMILES IDX 91 25 92 27 93 28 97 29 94 30 95 31 98 32 96 33 20 34 21 35
REMARK SMILES IDX 22 36 23 37 24 39 25 40 26 41 87 42 27 43 86 44 28 45 29 46
REMARK SMILES IDX 30 47 80 48 31 49 85 50 79 51 81 52 32 53 84 54 78 55 77 56
REMARK SMILES IDX 33 58 65 59 45 60 64 61 46 62 49 63 63 64 82 65 47 66 48 67
REMARK SMILES IDX 62 69 83 70 50 71 34 72 35 73 43 74 36 75 37 76 41 77 44 78
REMARK SMILES IDX 38 79 39 80 42 81 40 82 66 83 67 84 75 85 68 86 69 87 73 88
REMARK SMILES IDX 76 89 70 90 71 91 74 92 72 93 51 94 52 95 60 96 53 97 54 98
REMARK SMILES IDX 58 99 61 100 55 101 56 102 59 103 57 104
REMARK H PARENT 18 5 7 14 91 26 22 38 81 57 49 68
REMARK Flexibility Score: inf
ROOT
ATOM      1  C   UNL A   1      36.751  23.561  25.554  1.00  0.00     0.117 C 
ENDROOT
BRANCH   1   2
ATOM      2  N   UNL A   1      35.904  23.088  26.634  1.00  0.00    -0.356 N 
ATOM      3  C   UNL A   1      34.591  22.750  26.634  1.00  0.00     0.223 C 
ATOM      4  O   UNL A   1      34.108  22.378  27.704  1.00  0.00    -0.275 OA
ATOM      5  H   UNL A   1      36.354  22.998  27.505  1.00  0.00     0.163 HD
BRANCH   3   6
ATOM      6  C   UNL A   1      33.772  22.844  25.350  1.00  0.00     0.091 C 
ATOM      7  C   UNL A   1      32.275  22.573  25.599  1.00  0.00     0.091 C 
ATOM      8  C   UNL A   1      32.098  21.128  25.902  1.00  0.00     0.014 C 
ATOM      9  C   UNL A   1      32.624  20.159  24.889  1.00  0.00     0.001 C 
ATOM     10  C   UNL A   1      34.349  21.860  24.292  1.00  0.00     0.014 C 
ATOM     11  C   UNL A   1      34.072  20.385  24.561  1.00  0.00     0.001 C 
BRANCH   7  12
ATOM     12  C   UNL A   1      31.523  23.489  26.579  1.00  0.00     0.228 C 
ATOM     13  N   UNL A   1      31.136  24.792  26.381  1.00  0.00    -0.322 N 
ATOM     14  H   UNL A   1      30.711  25.171  27.185  1.00  0.00     0.170 HD
ATOM     15  O   UNL A   1      31.219  23.008  27.684  1.00  0.00    -0.274 OA
BRANCH  13  16
ATOM     16  C   UNL A   1      31.185  25.726  25.338  1.00  0.00     0.092 A 
ATOM     17  N   UNL A   1      31.606  26.887  23.545  1.00  0.00    -0.258 N 
ATOM     18  N   UNL A   1      30.257  26.842  23.576  1.00  0.00    -0.178 NA
ATOM     19  C   UNL A   1      32.179  26.549  24.761  1.00  0.00     0.150 A 
ATOM     20  C   UNL A   1      30.004  26.118  24.658  1.00  0.00     0.162 A 
BRANCH  17  21
ATOM     21  C   UNL A   1      32.199  27.117  22.244  1.00  0.00     0.142 C 
ATOM     22  C   UNL A   1      32.005  25.946  21.292  1.00  0.00     0.029 C 
ENDBRANCH  17  21
BRANCH  19  23
ATOM     23  C   UNL A   1      33.471  26.977  25.334  1.00  0.00     0.276 C 
ATOM     24  O   UNL A   1      34.365  26.159  25.563  1.00  0.00    -0.267 OA
ATOM     25  N   UNL A   1      33.841  28.316  25.251  1.00  0.00    -0.318 N 
ATOM     26  H   UNL A   1      34.474  28.551  24.535  1.00  0.00     0.170 HD
BRANCH  25  27
ATOM     27  C   UNL A   1      33.419  29.349  26.056  1.00  0.00     0.082 A 
ATOM     28  C   UNL A   1      32.195  30.044  26.034  1.00  0.00     0.161 A 
ATOM     29  C   UNL A   1      34.143  29.919  27.091  1.00  0.00     0.059 A 
ATOM     30  N   UNL A   1      32.210  31.097  26.852  1.00  0.00    -0.179 NA
ATOM     31  N   UNL A   1      33.439  31.062  27.399  1.00  0.00    -0.271 N 
ATOM     32  C   UNL A   1      35.463  29.629  27.707  1.00  0.00     0.068 C 
ATOM     33  C   UNL A   1      33.951  32.263  28.024  1.00  0.00     0.174 C 
ENDBRANCH  25  27
ENDBRANCH  19  23
ENDBRANCH  13  16
ENDBRANCH   7  12
ENDBRANCH   3   6
ENDBRANCH   1   2
BRANCH   1  34
ATOM     34  C   UNL A   1      37.872  22.581  25.220  1.00  0.00     0.042 C 
BRANCH  34  35
ATOM     35  C   UNL A   1      38.766  22.281  26.401  1.00  0.00     0.118 C 
BRANCH  35  36
ATOM     36  N   UNL A   1      40.144  21.995  26.023  1.00  0.00    -0.352 N 
ATOM     37  C   UNL A   1      41.218  22.865  26.066  1.00  0.00     0.251 C 
ATOM     38  H   UNL A   1      40.330  21.084  25.701  1.00  0.00     0.163 HD
ATOM     39  O   UNL A   1      42.234  22.648  25.436  1.00  0.00    -0.269 OA
BRANCH  37  40
ATOM     40  C   UNL A   1      41.085  24.075  26.899  1.00  0.00     0.039 A 
ATOM     41  C   UNL A   1      41.829  24.215  28.069  1.00  0.00     0.014 A 
ATOM     42  C   UNL A   1      40.239  25.094  26.457  1.00  0.00     0.014 A 
ATOM     43  C   UNL A   1      41.760  25.423  28.753  1.00  0.00     0.010 A 
ATOM     44  C   UNL A   1      40.295  26.334  27.039  1.00  0.00     0.010 A 
ATOM     45  C   UNL A   1      41.010  26.487  28.216  1.00  0.00    -0.014 A 
BRANCH  45  46
ATOM     46  C   UNL A   1      41.076  27.810  28.820  1.00  0.00     0.031 A 
ATOM     47  C   UNL A   1      42.212  28.621  28.318  1.00  0.00     0.074 A 
ATOM     48  C   UNL A   1      40.133  28.320  29.640  1.00  0.00     0.049 A 
ATOM     49  N   UNL A   1      43.320  28.847  28.936  1.00  0.00    -0.248 NA
ATOM     50  C   UNL A   1      42.210  29.070  26.917  1.00  0.00     0.031 C 
ATOM     51  C   UNL A   1      38.815  27.774  29.973  1.00  0.00     0.029 A 
ATOM     52  N   UNL A   1      40.141  29.504  30.314  1.00  0.00    -0.354 N 
ATOM     53  C   UNL A   1      44.070  29.660  28.097  1.00  0.00     0.074 A 
ATOM     54  C   UNL A   1      43.435  29.593  26.807  1.00  0.00     0.031 C 
ATOM     55  C   UNL A   1      38.075  28.715  30.604  1.00  0.00     0.029 A 
ATOM     56  C   UNL A   1      38.918  29.865  30.874  1.00  0.00     0.049 A 
ATOM     57  H   UNL A   1      40.948  30.062  30.399  1.00  0.00     0.167 HD
ATOM     58  C   UNL A   1      44.982  30.521  28.626  1.00  0.00     0.037 A 
ATOM     59  C   UNL A   1      38.630  31.030  31.509  1.00  0.00     0.037 A 
ATOM     60  C   UNL A   1      45.247  30.187  30.007  1.00  0.00     0.049 A 
ATOM     61  C   UNL A   1      39.920  31.621  31.938  1.00  0.00     0.074 A 
ATOM     62  C   UNL A   1      45.755  29.086  30.669  1.00  0.00     0.029 A 
ATOM     63  N   UNL A   1      44.580  30.924  30.955  1.00  0.00    -0.354 N 
ATOM     64  N   UNL A   1      40.677  31.110  32.868  1.00  0.00    -0.248 NA
ATOM     65  C   UNL A   1      40.585  32.531  31.020  1.00  0.00     0.031 C 
ATOM     66  C   UNL A   1      44.991  28.990  31.871  1.00  0.00     0.029 A 
ATOM     67  C   UNL A   1      44.119  30.078  31.925  1.00  0.00     0.049 A 
ATOM     68  H   UNL A   1      44.456  31.900  30.938  1.00  0.00     0.167 HD
ATOM     69  C   UNL A   1      41.966  31.250  32.378  1.00  0.00     0.074 A 
ATOM     70  C   UNL A   1      41.856  32.226  31.296  1.00  0.00     0.031 C 
ATOM     71  C   UNL A   1      42.930  30.339  32.704  1.00  0.00     0.037 A 
BRANCH  58  72
ATOM     72  C   UNL A   1      45.290  31.899  28.082  1.00  0.00     0.064 A 
ATOM     73  C   UNL A   1      44.228  32.820  27.944  1.00  0.00     0.173 A 
ATOM     74  C   UNL A   1      46.476  32.240  27.398  1.00  0.00     0.173 A 
ATOM     75  F   UNL A   1      43.047  32.596  28.541  1.00  0.00    -0.203 F 
ATOM     76  C   UNL A   1      44.317  33.932  27.104  1.00  0.00     0.198 A 
ATOM     77  C   UNL A   1      46.577  33.380  26.602  1.00  0.00     0.198 A 
ATOM     78  F   UNL A   1      47.545  31.439  27.372  1.00  0.00    -0.203 F 
ATOM     79  F   UNL A   1      43.234  34.694  26.894  1.00  0.00    -0.200 F 
ATOM     80  C   UNL A   1      45.488  34.207  26.426  1.00  0.00     0.200 A 
ATOM     81  F   UNL A   1      47.716  33.618  25.937  1.00  0.00    -0.200 F 
ATOM     82  F   UNL A   1      45.555  35.231  25.567  1.00  0.00    -0.200 F 
ENDBRANCH  58  72
BRANCH  59  83
ATOM     83  C   UNL A   1      37.372  31.816  31.540  1.00  0.00     0.064 A 
ATOM     84  C   UNL A   1      36.674  32.015  32.746  1.00  0.00     0.173 A 
ATOM     85  C   UNL A   1      37.005  32.644  30.463  1.00  0.00     0.173 A 
ATOM     86  F   UNL A   1      36.986  31.296  33.833  1.00  0.00    -0.203 F 
ATOM     87  C   UNL A   1      35.703  33.013  32.878  1.00  0.00     0.198 A 
ATOM     88  C   UNL A   1      36.032  33.638  30.595  1.00  0.00     0.198 A 
ATOM     89  F   UNL A   1      37.655  32.574  29.293  1.00  0.00    -0.203 F 
ATOM     90  F   UNL A   1      35.114  33.221  34.065  1.00  0.00    -0.200 F 
ATOM     91  C   UNL A   1      35.393  33.834  31.807  1.00  0.00     0.200 A 
ATOM     92  F   UNL A   1      35.767  34.450  29.563  1.00  0.00    -0.200 F 
ATOM     93  F   UNL A   1      34.517  34.837  31.952  1.00  0.00    -0.200 F 
ENDBRANCH  59  83
BRANCH  71  94
ATOM     94  C   UNL A   1      42.654  29.410  33.856  1.00  0.00     0.064 A 
ATOM     95  C   UNL A   1      41.958  28.193  33.759  1.00  0.00     0.173 A 
ATOM     96  C   UNL A   1      43.232  29.724  35.094  1.00  0.00     0.173 A 
ATOM     97  F   UNL A   1      41.455  27.772  32.592  1.00  0.00    -0.203 F 
ATOM     98  C   UNL A   1      41.810  27.356  34.866  1.00  0.00     0.198 A 
ATOM     99  C   UNL A   1      43.119  28.869  36.185  1.00  0.00     0.198 A 
ATOM    100  F   UNL A   1      43.948  30.851  35.235  1.00  0.00    -0.203 F 
ATOM    101  F   UNL A   1      41.123  26.209  34.756  1.00  0.00    -0.200 F 
ATOM    102  C   UNL A   1      42.398  27.692  36.075  1.00  0.00     0.200 A 
ATOM    103  F   UNL A   1      43.731  29.176  37.337  1.00  0.00    -0.200 F 
ATOM    104  F   UNL A   1      42.290  26.870  37.129  1.00  0.00    -0.200 F 
ENDBRANCH  71  94
ENDBRANCH  45  46
ENDBRANCH  37  40
ENDBRANCH  35  36
ENDBRANCH  34  35
ENDBRANCH   1  34
TORSDOF 15
ENDMDL
MODEL 3
REMARK VINA RESULT:     -13.8      3.157      9.087
REMARK SMILES CCn1ncc(NC(=O)[C@@H]2CCCC[C@@H]2C(=O)NCCCNC(=O)c2ccc(-c3c4nc(c(-c5c(F)c(F)c(F)c(F)c5F)c5ccc([nH]5)c(-c5c(F)c(F)c(F)c(F)c5F)c5nc(c(-c6c(F)c(F)c(F)c(F)c6F)c6ccc3[nH]6)C=C5)C=C4)cc2)c1C(=O)Nc1cnn(C)c1C
REMARK SMILES IDX 19 1 18 2 16 3 17 4 15 6 10 7 11 8 12 9 14 10 13 11 8 12
REMARK SMILES IDX 7 13 9 15 6 16 3 17 4 18 88 19 5 20 2 21 1 22 89 23 90 24
REMARK SMILES IDX 91 25 92 27 93 28 97 29 94 30 95 31 98 32 96 33 20 34 21 35
REMARK SMILES IDX 22 36 23 37 24 39 25 40 26 41 87 42 27 43 86 44 28 45 29 46
REMARK SMILES IDX 30 47 80 48 31 49 85 50 79 51 81 52 32 53 84 54 78 55 77 56
REMARK SMILES IDX 33 58 65 59 45 60 64 61 46 62 49 63 63 64 82 65 47 66 48 67
REMARK SMILES IDX 62 69 83 70 50 71 34 72 35 73 43 74 36 75 37 76 41 77 44 78
REMARK SMILES IDX 38 79 39 80 42 81 40 82 66 83 67 84 75 85 68 86 69 87 73 88
REMARK SMILES IDX 76 89 70 90 71 91 74 92 72 93 51 94 52 95 60 96 53 97 54 98
REMARK SMILES IDX 58 99 61 100 55 101 56 102 59 103 57 104
REMARK H PARENT 18 5 7 14 91 26 22 38 81 57 49 68
REMARK Flexibility Score: inf
ROOT
ATOM      1  C   UNL A   1      33.819  28.822  26.531  1.00  0.00     0.117 C 
ENDROOT
BRANCH   1   2
ATOM      2  N   UNL A   1      34.033  29.048  25.112  1.00  0.00    -0.356 N 
ATOM      3  C   UNL A   1      33.369  28.558  24.037  1.00  0.00     0.223 C 
ATOM      4  O   UNL A   1      33.764  28.911  22.925  1.00  0.00    -0.275 OA
ATOM      5  H   UNL A   1      34.778  29.654  24.897  1.00  0.00     0.163 HD
BRANCH   3   6
ATOM      6  C   UNL A   1      32.192  27.605  24.227  1.00  0.00     0.091 C 
ATOM      7  C   UNL A   1      31.793  26.910  22.911  1.00  0.00     0.091 C 
ATOM      8  C   UNL A   1      31.160  27.913  22.016  1.00  0.00     0.014 C 
ATOM      9  C   UNL A   1      29.984  28.659  22.568  1.00  0.00     0.001 C 
ATOM     10  C   UNL A   1      30.988  28.382  24.835  1.00  0.00     0.014 C 
ATOM     11  C   UNL A   1      30.282  29.334  23.876  1.00  0.00     0.001 C 
BRANCH   7  12
ATOM     12  C   UNL A   1      32.848  26.047  22.195  1.00  0.00     0.228 C 
ATOM     13  N   UNL A   1      33.297  24.801  22.556  1.00  0.00    -0.322 N 
ATOM     14  H   UNL A   1      34.012  24.485  21.956  1.00  0.00     0.170 HD
ATOM     15  O   UNL A   1      33.360  26.519  21.167  1.00  0.00    -0.274 OA
BRANCH  13  16
ATOM     16  C   UNL A   1      33.008  23.858  23.551  1.00  0.00     0.092 A 
ATOM     17  N   UNL A   1      32.399  22.777  25.340  1.00  0.00    -0.258 N 
ATOM     18  N   UNL A   1      31.906  22.019  24.337  1.00  0.00    -0.178 NA
ATOM     19  C   UNL A   1      33.363  23.674  24.906  1.00  0.00     0.150 A 
ATOM     20  C   UNL A   1      32.261  22.690  23.250  1.00  0.00     0.162 A 
BRANCH  17  21
ATOM     21  C   UNL A   1      31.740  22.632  26.621  1.00  0.00     0.142 C 
ATOM     22  C   UNL A   1      30.224  22.581  26.501  1.00  0.00     0.029 C 
ENDBRANCH  17  21
BRANCH  19  23
ATOM     23  C   UNL A   1      34.501  24.251  25.650  1.00  0.00     0.276 C 
ATOM     24  O   UNL A   1      34.535  25.453  25.922  1.00  0.00    -0.267 OA
ATOM     25  N   UNL A   1      35.330  23.409  26.385  1.00  0.00    -0.318 N 
ATOM     26  H   UNL A   1      35.164  23.369  27.354  1.00  0.00     0.170 HD
BRANCH  25  27
ATOM     27  C   UNL A   1      36.355  22.625  25.908  1.00  0.00     0.082 A 
ATOM     28  C   UNL A   1      36.284  21.390  25.237  1.00  0.00     0.161 A 
ATOM     29  C   UNL A   1      37.707  22.916  25.992  1.00  0.00     0.059 A 
ATOM     30  N   UNL A   1      37.490  20.843  25.079  1.00  0.00    -0.179 NA
ATOM     31  N   UNL A   1      38.324  21.736  25.642  1.00  0.00    -0.271 N 
ATOM     32  C   UNL A   1      38.481  24.078  26.501  1.00  0.00     0.068 C 
ATOM     33  C   UNL A   1      39.653  21.301  26.012  1.00  0.00     0.174 C 
ENDBRANCH  25  27
ENDBRANCH  19  23
ENDBRANCH  13  16
ENDBRANCH   7  12
ENDBRANCH   3   6
ENDBRANCH   1   2
BRANCH   1  34
ATOM     34  C   UNL A   1      33.306  30.065  27.249  1.00  0.00     0.042 C 
BRANCH  34  35
ATOM     35  C   UNL A   1      34.306  31.199  27.257  1.00  0.00     0.118 C 
BRANCH  35  36
ATOM     36  N   UNL A   1      34.267  31.994  28.477  1.00  0.00    -0.352 N 
ATOM     37  C   UNL A   1      35.075  31.853  29.590  1.00  0.00     0.251 C 
ATOM     38  H   UNL A   1      33.591  32.708  28.513  1.00  0.00     0.163 HD
ATOM     39  O   UNL A   1      34.763  32.328  30.663  1.00  0.00    -0.269 OA
BRANCH  37  40
ATOM     40  C   UNL A   1      36.332  31.097  29.431  1.00  0.00     0.039 A 
ATOM     41  C   UNL A   1      37.545  31.764  29.274  1.00  0.00     0.014 A 
ATOM     42  C   UNL A   1      36.279  29.703  29.497  1.00  0.00     0.014 A 
ATOM     43  C   UNL A   1      38.713  31.011  29.251  1.00  0.00     0.010 A 
ATOM     44  C   UNL A   1      37.435  28.978  29.635  1.00  0.00     0.010 A 
ATOM     45  C   UNL A   1      38.650  29.619  29.459  1.00  0.00    -0.014 A 
BRANCH  45  46
ATOM     46  C   UNL A   1      39.872  28.845  29.621  1.00  0.00     0.031 A 
ATOM     47  C   UNL A   1      40.279  28.694  31.040  1.00  0.00     0.074 A 
ATOM     48  C   UNL A   1      40.504  28.201  28.618  1.00  0.00     0.049 A 
ATOM     49  N   UNL A   1      41.219  29.342  31.638  1.00  0.00    -0.248 NA
ATOM     50  C   UNL A   1      39.442  27.890  31.944  1.00  0.00     0.031 C 
ATOM     51  C   UNL A   1      40.059  27.994  27.237  1.00  0.00     0.029 A 
ATOM     52  N   UNL A   1      41.686  27.523  28.652  1.00  0.00    -0.354 N 
ATOM     53  C   UNL A   1      41.247  28.862  32.941  1.00  0.00     0.074 A 
ATOM     54  C   UNL A   1      40.019  28.136  33.125  1.00  0.00     0.031 C 
ATOM     55  C   UNL A   1      40.845  27.072  26.636  1.00  0.00     0.029 A 
ATOM     56  C   UNL A   1      41.949  26.752  27.523  1.00  0.00     0.049 A 
ATOM     57  H   UNL A   1      42.306  27.575  29.415  1.00  0.00     0.167 HD
ATOM     58  C   UNL A   1      42.413  28.887  33.646  1.00  0.00     0.037 A 
ATOM     59  C   UNL A   1      43.000  25.911  27.343  1.00  0.00     0.037 A 
ATOM     60  C   UNL A   1      43.377  29.743  32.993  1.00  0.00     0.049 A 
ATOM     61  C   UNL A   1      44.052  26.319  28.304  1.00  0.00     0.074 A 
ATOM     62  C   UNL A   1      43.432  31.083  32.663  1.00  0.00     0.029 A 
ATOM     63  N   UNL A   1      44.318  29.121  32.209  1.00  0.00    -0.354 N 
ATOM     64  N   UNL A   1      44.717  27.437  28.218  1.00  0.00    -0.248 NA
ATOM     65  C   UNL A   1      44.047  25.693  29.617  1.00  0.00     0.031 C 
ATOM     66  C   UNL A   1      44.078  31.127  31.391  1.00  0.00     0.029 A 
ATOM     67  C   UNL A   1      44.460  29.829  31.047  1.00  0.00     0.049 A 
ATOM     68  H   UNL A   1      44.808  28.302  32.445  1.00  0.00     0.167 HD
ATOM     69  C   UNL A   1      44.807  27.886  29.526  1.00  0.00     0.074 A 
ATOM     70  C   UNL A   1      44.478  26.724  30.349  1.00  0.00     0.031 C 
ATOM     71  C   UNL A   1      44.847  29.225  29.794  1.00  0.00     0.037 A 
BRANCH  58  72
ATOM     72  C   UNL A   1      42.849  27.827  34.634  1.00  0.00     0.064 A 
ATOM     73  C   UNL A   1      43.215  28.233  35.936  1.00  0.00     0.173 A 
ATOM     74  C   UNL A   1      43.234  26.517  34.280  1.00  0.00     0.173 A 
ATOM     75  F   UNL A   1      42.911  29.462  36.381  1.00  0.00    -0.203 F 
ATOM     76  C   UNL A   1      43.994  27.428  36.770  1.00  0.00     0.198 A 
ATOM     77  C   UNL A   1      43.966  25.698  35.137  1.00  0.00     0.198 A 
ATOM     78  F   UNL A   1      43.024  26.012  33.061  1.00  0.00    -0.203 F 
ATOM     79  F   UNL A   1      44.437  27.915  37.938  1.00  0.00    -0.200 F 
ATOM     80  C   UNL A   1      44.378  26.165  36.367  1.00  0.00     0.200 A 
ATOM     81  F   UNL A   1      44.345  24.482  34.718  1.00  0.00    -0.200 F 
ATOM     82  F   UNL A   1      45.181  25.417  37.134  1.00  0.00    -0.200 F 
ENDBRANCH  58  72
BRANCH  59  83
ATOM     83  C   UNL A   1      43.078  24.622  26.613  1.00  0.00     0.064 A 
ATOM     84  C   UNL A   1      43.858  24.497  25.449  1.00  0.00     0.173 A 
ATOM     85  C   UNL A   1      42.653  23.421  27.211  1.00  0.00     0.173 A 
ATOM     86  F   UNL A   1      44.337  25.589  24.837  1.00  0.00    -0.203 F 
ATOM     87  C   UNL A   1      44.230  23.247  24.943  1.00  0.00     0.198 A 
ATOM     88  C   UNL A   1      43.022  22.174  26.703  1.00  0.00     0.198 A 
ATOM     89  F   UNL A   1      41.960  23.434  28.358  1.00  0.00    -0.203 F 
ATOM     90  F   UNL A   1      45.038  23.170  23.875  1.00  0.00    -0.200 F 
ATOM     91  C   UNL A   1      43.824  22.086  25.579  1.00  0.00     0.200 A 
ATOM     92  F   UNL A   1      42.654  21.057  27.347  1.00  0.00    -0.200 F 
ATOM     93  F   UNL A   1      44.240  20.890  25.138  1.00  0.00    -0.200 F 
ENDBRANCH  59  83
BRANCH  71  94
ATOM     94  C   UNL A   1      45.139  30.159  28.650  1.00  0.00     0.064 A 
ATOM     95  C   UNL A   1      44.169  30.724  27.805  1.00  0.00     0.173 A 
ATOM     96  C   UNL A   1      46.464  30.587  28.486  1.00  0.00     0.173 A 
ATOM     97  F   UNL A   1      42.869  30.442  27.953  1.00  0.00    -0.203 F 
ATOM     98  C   UNL A   1      44.522  31.640  26.812  1.00  0.00     0.198 A 
ATOM     99  C   UNL A   1      46.807  31.531  27.524  1.00  0.00     0.198 A 
ATOM    100  F   UNL A   1      47.427  30.116  29.295  1.00  0.00    -0.203 F 
ATOM    101  F   UNL A   1      43.583  32.151  26.003  1.00  0.00    -0.200 F 
ATOM    102  C   UNL A   1      45.840  32.048  26.680  1.00  0.00     0.200 A 
ATOM    103  F   UNL A   1      48.075  31.957  27.434  1.00  0.00    -0.200 F 
ATOM    104  F   UNL A   1      46.174  32.956  25.753  1.00  0.00    -0.200 F 
ENDBRANCH  71  94
ENDBRANCH  45  46
ENDBRANCH  37  40
ENDBRANCH  35  36
ENDBRANCH  34  35
ENDBRANCH   1  34
TORSDOF 15
ENDMDL
