MODEL 1
REMARK VINA RESULT:     -10.6      0.000      0.000
REMARK SMILES COCCOCC[C@@H]1CCC[C@]1([NH3+])C(=O)NCCCNC(=O)c1ccc(-c2c3nc(c(-c4c(F)c(F)c(F)c(F)c4F)c4ccc([nH]4)c(-c4c(F)c(F)c(F)c(F)c4F)c4nc(c(-c5c(F)c(F)c(F)c(F)c5F)c5ccc2[nH]5)C=C4)C=C3)cc1
REMARK SMILES IDX 14 1 15 2 16 3 12 5 8 6 9 7 10 8 11 9 7 10 6 11 5 12 4 13
REMARK SMILES IDX 3 14 2 15 1 16 13 17 17 21 18 22 19 23 20 24 21 25 22 27
REMARK SMILES IDX 23 28 24 29 85 30 25 31 84 32 26 33 27 34 28 35 78 36 29 37
REMARK SMILES IDX 83 38 77 39 79 40 30 41 82 42 76 43 75 44 31 46 63 47 43 48
REMARK SMILES IDX 62 49 44 50 47 51 61 52 80 53 45 54 46 55 60 57 81 58 48 59
REMARK SMILES IDX 32 60 33 61 41 62 34 63 35 64 39 65 42 66 36 67 37 68 40 69
REMARK SMILES IDX 38 70 64 71 65 72 73 73 66 74 67 75 71 76 74 77 68 78 69 79
REMARK SMILES IDX 72 80 70 81 49 82 50 83 58 84 51 85 52 86 56 87 59 88 53 89
REMARK SMILES IDX 54 90 57 91 55 92
REMARK H PARENT 16 4 13 18 13 19 13 20 20 26 79 45 47 56
REMARK Flexibility Score: inf
ROOT
ATOM      1  C   UNL A   1      32.068  28.505  26.736  1.00  0.00     0.281 C 
ATOM      2  O   UNL A   1      31.901  27.821  27.754  1.00  0.00    -0.268 OA
ATOM      3  N   UNL A   1      31.431  29.714  26.745  1.00  0.00    -0.351 N 
ATOM      4  H   UNL A   1      30.817  29.824  27.508  1.00  0.00     0.163 HD
ENDROOT
BRANCH   1   5
ATOM      5  C   UNL A   1      32.897  27.954  25.511  1.00  0.00     0.176 C 
ATOM      6  C   UNL A   1      32.034  27.152  24.477  1.00  0.00     0.063 C 
ATOM      7  C   UNL A   1      32.046  25.707  24.995  1.00  0.00     0.011 C 
ATOM      8  C   UNL A   1      33.106  25.604  26.082  1.00  0.00     0.008 C 
ATOM      9  C   UNL A   1      33.905  26.891  25.992  1.00  0.00     0.079 C 
BRANCH   6  10
ATOM     10  C   UNL A   1      30.643  27.755  24.264  1.00  0.00     0.039 C 
BRANCH  10  11
ATOM     11  C   UNL A   1      29.793  27.590  23.003  1.00  0.00     0.161 C 
BRANCH  11  12
ATOM     12  O   UNL A   1      29.837  28.609  22.027  1.00  0.00    -0.379 OA
BRANCH  12  13
ATOM     13  C   UNL A   1      29.004  29.758  22.200  1.00  0.00     0.188 C 
BRANCH  13  14
ATOM     14  C   UNL A   1      27.565  29.541  22.683  1.00  0.00     0.188 C 
BRANCH  14  15
ATOM     15  O   UNL A   1      27.181  30.586  23.582  1.00  0.00    -0.382 OA
ATOM     16  C   UNL A   1      27.727  31.851  23.230  1.00  0.00     0.195 C 
ENDBRANCH  14  15
ENDBRANCH  13  14
ENDBRANCH  12  13
ENDBRANCH  11  12
ENDBRANCH  10  11
ENDBRANCH   6  10
BRANCH   5  17
ATOM     17  N   UNL A   1      33.672  29.053  24.896  1.00  0.00    -0.345 N 
ATOM     18  H   UNL A   1      34.639  28.755  24.766  1.00  0.00     0.345 HD
ATOM     19  H   UNL A   1      33.646  29.869  25.506  1.00  0.00     0.345 HD
ATOM     20  H   UNL A   1      33.266  29.290  23.991  1.00  0.00     0.345 HD
ENDBRANCH   5  17
ENDBRANCH   1   5
BRANCH   3  21
ATOM     21  C   UNL A   1      31.468  30.874  25.863  1.00  0.00     0.118 C 
BRANCH  21  22
ATOM     22  C   UNL A   1      31.361  32.219  26.582  1.00  0.00     0.042 C 
BRANCH  22  23
ATOM     23  C   UNL A   1      32.645  32.720  27.220  1.00  0.00     0.118 C 
BRANCH  23  24
ATOM     24  N   UNL A   1      32.548  34.111  27.623  1.00  0.00    -0.352 N 
ATOM     25  C   UNL A   1      33.154  34.776  28.662  1.00  0.00     0.251 C 
ATOM     26  H   UNL A   1      31.956  34.664  27.065  1.00  0.00     0.163 HD
ATOM     27  O   UNL A   1      32.747  35.889  28.979  1.00  0.00    -0.269 OA
BRANCH  25  28
ATOM     28  C   UNL A   1      34.279  34.171  29.418  1.00  0.00     0.039 A 
ATOM     29  C   UNL A   1      35.585  34.413  28.981  1.00  0.00     0.014 A 
ATOM     30  C   UNL A   1      34.067  33.310  30.499  1.00  0.00     0.014 A 
ATOM     31  C   UNL A   1      36.670  33.832  29.644  1.00  0.00     0.010 A 
ATOM     32  C   UNL A   1      35.151  32.799  31.214  1.00  0.00     0.010 A 
ATOM     33  C   UNL A   1      36.464  33.035  30.782  1.00  0.00    -0.014 A 
BRANCH  33  34
ATOM     34  C   UNL A   1      37.607  32.413  31.504  1.00  0.00     0.031 A 
ATOM     35  C   UNL A   1      38.353  31.259  30.889  1.00  0.00     0.074 A 
ATOM     36  C   UNL A   1      37.947  32.851  32.730  1.00  0.00     0.049 A 
ATOM     37  N   UNL A   1      39.340  30.552  31.382  1.00  0.00    -0.248 NA
ATOM     38  C   UNL A   1      37.914  30.824  29.554  1.00  0.00     0.031 C 
ATOM     39  C   UNL A   1      37.281  33.933  33.457  1.00  0.00     0.029 A 
ATOM     40  N   UNL A   1      38.937  32.437  33.586  1.00  0.00    -0.354 N 
ATOM     41  C   UNL A   1      39.624  29.582  30.428  1.00  0.00     0.074 A 
ATOM     42  C   UNL A   1      38.673  29.757  29.352  1.00  0.00     0.031 C 
ATOM     43  C   UNL A   1      37.896  34.113  34.637  1.00  0.00     0.029 A 
ATOM     44  C   UNL A   1      38.976  33.139  34.766  1.00  0.00     0.049 A 
ATOM     45  H   UNL A   1      39.561  31.704  33.375  1.00  0.00     0.167 HD
ATOM     46  C   UNL A   1      40.602  28.645  30.436  1.00  0.00     0.037 A 
ATOM     47  C   UNL A   1      39.788  33.011  35.832  1.00  0.00     0.037 A 
ATOM     48  C   UNL A   1      41.570  28.491  31.490  1.00  0.00     0.049 A 
ATOM     49  C   UNL A   1      40.871  31.966  35.816  1.00  0.00     0.074 A 
ATOM     50  C   UNL A   1      42.642  27.617  31.558  1.00  0.00     0.029 A 
ATOM     51  N   UNL A   1      41.584  29.231  32.663  1.00  0.00    -0.354 N 
ATOM     52  N   UNL A   1      41.169  31.098  34.881  1.00  0.00    -0.248 NA
ATOM     53  C   UNL A   1      41.731  31.887  37.006  1.00  0.00     0.031 C 
ATOM     54  C   UNL A   1      43.279  27.799  32.791  1.00  0.00     0.029 A 
ATOM     55  C   UNL A   1      42.631  28.818  33.472  1.00  0.00     0.049 A 
ATOM     56  H   UNL A   1      40.943  29.943  32.889  1.00  0.00     0.167 HD
ATOM     57  C   UNL A   1      42.265  30.389  35.355  1.00  0.00     0.074 A 
ATOM     58  C   UNL A   1      42.587  30.937  36.656  1.00  0.00     0.031 C 
ATOM     59  C   UNL A   1      42.943  29.374  34.763  1.00  0.00     0.037 A 
BRANCH  46  60
ATOM     60  C   UNL A   1      40.676  27.711  29.262  1.00  0.00     0.064 A 
ATOM     61  C   UNL A   1      41.617  27.891  28.236  1.00  0.00     0.173 A 
ATOM     62  C   UNL A   1      39.813  26.609  29.173  1.00  0.00     0.173 A 
ATOM     63  F   UNL A   1      42.458  28.935  28.268  1.00  0.00    -0.203 F 
ATOM     64  C   UNL A   1      41.667  27.023  27.148  1.00  0.00     0.198 A 
ATOM     65  C   UNL A   1      39.888  25.725  28.099  1.00  0.00     0.198 A 
ATOM     66  F   UNL A   1      38.900  26.385  30.130  1.00  0.00    -0.203 F 
ATOM     67  F   UNL A   1      42.539  27.247  26.156  1.00  0.00    -0.200 F 
ATOM     68  C   UNL A   1      40.807  25.938  27.084  1.00  0.00     0.200 A 
ATOM     69  F   UNL A   1      39.064  24.668  28.044  1.00  0.00    -0.200 F 
ATOM     70  F   UNL A   1      40.860  25.100  26.039  1.00  0.00    -0.200 F 
ENDBRANCH  46  60
BRANCH  47  71
ATOM     71  C   UNL A   1      39.630  33.924  36.993  1.00  0.00     0.064 A 
ATOM     72  C   UNL A   1      38.856  33.549  38.100  1.00  0.00     0.173 A 
ATOM     73  C   UNL A   1      40.253  35.179  37.027  1.00  0.00     0.173 A 
ATOM     74  F   UNL A   1      38.223  32.367  38.104  1.00  0.00    -0.203 F 
ATOM     75  C   UNL A   1      38.701  34.401  39.191  1.00  0.00     0.198 A 
ATOM     76  C   UNL A   1      40.119  36.020  38.129  1.00  0.00     0.198 A 
ATOM     77  F   UNL A   1      41.009  35.582  35.994  1.00  0.00    -0.203 F 
ATOM     78  F   UNL A   1      37.925  34.034  40.220  1.00  0.00    -0.200 F 
ATOM     79  C   UNL A   1      39.338  35.633  39.208  1.00  0.00     0.200 A 
ATOM     80  F   UNL A   1      40.747  37.203  38.148  1.00  0.00    -0.200 F 
ATOM     81  F   UNL A   1      39.195  36.449  40.261  1.00  0.00    -0.200 F 
ENDBRANCH  47  71
BRANCH  59  82
ATOM     82  C   UNL A   1      44.117  28.809  35.504  1.00  0.00     0.064 A 
ATOM     83  C   UNL A   1      45.413  29.316  35.326  1.00  0.00     0.173 A 
ATOM     84  C   UNL A   1      43.939  27.772  36.434  1.00  0.00     0.173 A 
ATOM     85  F   UNL A   1      45.637  30.295  34.438  1.00  0.00    -0.203 F 
ATOM     86  C   UNL A   1      46.491  28.788  36.032  1.00  0.00     0.198 A 
ATOM     87  C   UNL A   1      45.014  27.267  37.159  1.00  0.00     0.198 A 
ATOM     88  F   UNL A   1      42.718  27.256  36.646  1.00  0.00    -0.203 F 
ATOM     89  F   UNL A   1      47.727  29.257  35.813  1.00  0.00    -0.200 F 
ATOM     90  C   UNL A   1      46.290  27.770  36.953  1.00  0.00     0.200 A 
ATOM     91  F   UNL A   1      44.816  26.291  38.056  1.00  0.00    -0.200 F 
ATOM     92  F   UNL A   1      47.327  27.268  37.636  1.00  0.00    -0.200 F 
ENDBRANCH  59  82
ENDBRANCH  33  34
ENDBRANCH  25  28
ENDBRANCH  23  24
ENDBRANCH  22  23
ENDBRANCH  21  22
ENDBRANCH   3  21
TORSDOF 17
ENDMDL
MODEL 2
REMARK VINA RESULT:     -10.4      1.044      2.228
REMARK SMILES COCCOCC[C@@H]1CCC[C@]1([NH3+])C(=O)NCCCNC(=O)c1ccc(-c2c3nc(c(-c4c(F)c(F)c(F)c(F)c4F)c4ccc([nH]4)c(-c4c(F)c(F)c(F)c(F)c4F)c4nc(c(-c5c(F)c(F)c(F)c(F)c5F)c5ccc2[nH]5)C=C4)C=C3)cc1
REMARK SMILES IDX 14 1 15 2 16 3 12 5 8 6 9 7 10 8 11 9 7 10 6 11 5 12 4 13
REMARK SMILES IDX 3 14 2 15 1 16 13 17 17 21 18 22 19 23 20 24 21 25 22 27
REMARK SMILES IDX 23 28 24 29 85 30 25 31 84 32 26 33 27 34 28 35 78 36 29 37
REMARK SMILES IDX 83 38 77 39 79 40 30 41 82 42 76 43 75 44 31 46 63 47 43 48
REMARK SMILES IDX 62 49 44 50 47 51 61 52 80 53 45 54 46 55 60 57 81 58 48 59
REMARK SMILES IDX 32 60 33 61 41 62 34 63 35 64 39 65 42 66 36 67 37 68 40 69
REMARK SMILES IDX 38 70 64 71 65 72 73 73 66 74 67 75 71 76 74 77 68 78 69 79
REMARK SMILES IDX 72 80 70 81 49 82 50 83 58 84 51 85 52 86 56 87 59 88 53 89
REMARK SMILES IDX 54 90 57 91 55 92
REMARK H PARENT 16 4 13 18 13 19 13 20 20 26 79 45 47 56
REMARK Flexibility Score: inf
ROOT
ATOM      1  C   UNL A   1      32.723  29.367  24.911  1.00  0.00     0.281 C 
ATOM      2  O   UNL A   1      32.987  29.129  23.725  1.00  0.00    -0.268 OA
ATOM      3  N   UNL A   1      31.881  30.425  25.111  1.00  0.00    -0.351 N 
ATOM      4  H   UNL A   1      31.700  30.938  24.290  1.00  0.00     0.163 HD
ENDROOT
BRANCH   1   5
ATOM      5  C   UNL A   1      33.389  28.537  26.077  1.00  0.00     0.176 C 
ATOM      6  C   UNL A   1      33.625  27.029  25.720  1.00  0.00     0.063 C 
ATOM      7  C   UNL A   1      32.318  26.325  26.112  1.00  0.00     0.011 C 
ATOM      8  C   UNL A   1      31.488  27.297  26.938  1.00  0.00     0.008 C 
ATOM      9  C   UNL A   1      32.424  28.443  27.276  1.00  0.00     0.079 C 
BRANCH   6  10
ATOM     10  C   UNL A   1      34.066  26.820  24.269  1.00  0.00     0.039 C 
BRANCH  10  11
ATOM     11  C   UNL A   1      33.718  25.604  23.408  1.00  0.00     0.161 C 
BRANCH  11  12
ATOM     12  O   UNL A   1      33.573  25.789  22.015  1.00  0.00    -0.379 OA
BRANCH  12  13
ATOM     13  C   UNL A   1      32.254  25.876  21.471  1.00  0.00     0.188 C 
BRANCH  13  14
ATOM     14  C   UNL A   1      31.122  26.347  22.391  1.00  0.00     0.188 C 
BRANCH  14  15
ATOM     15  O   UNL A   1      30.646  27.631  21.975  1.00  0.00    -0.382 OA
ATOM     16  C   UNL A   1      29.659  28.167  22.848  1.00  0.00     0.195 C 
ENDBRANCH  14  15
ENDBRANCH  13  14
ENDBRANCH  12  13
ENDBRANCH  11  12
ENDBRANCH  10  11
ENDBRANCH   6  10
BRANCH   5  17
ATOM     17  N   UNL A   1      34.611  29.223  26.545  1.00  0.00    -0.345 N 
ATOM     18  H   UNL A   1      34.372  29.863  27.303  1.00  0.00     0.345 HD
ATOM     19  H   UNL A   1      35.023  29.747  25.774  1.00  0.00     0.345 HD
ATOM     20  H   UNL A   1      35.281  28.532  26.883  1.00  0.00     0.345 HD
ENDBRANCH   5  17
ENDBRANCH   1   5
BRANCH   3  21
ATOM     21  C   UNL A   1      31.195  30.953  26.285  1.00  0.00     0.118 C 
BRANCH  21  22
ATOM     22  C   UNL A   1      31.324  32.466  26.464  1.00  0.00     0.042 C 
BRANCH  22  23
ATOM     23  C   UNL A   1      32.577  32.932  27.185  1.00  0.00     0.118 C 
BRANCH  23  24
ATOM     24  N   UNL A   1      32.466  34.306  27.641  1.00  0.00    -0.352 N 
ATOM     25  C   UNL A   1      33.065  34.937  28.704  1.00  0.00     0.251 C 
ATOM     26  H   UNL A   1      31.868  34.873  27.103  1.00  0.00     0.163 HD
ATOM     27  O   UNL A   1      32.647  36.033  29.063  1.00  0.00    -0.269 OA
BRANCH  25  28
ATOM     28  C   UNL A   1      34.196  34.314  29.437  1.00  0.00     0.039 A 
ATOM     29  C   UNL A   1      35.497  34.544  28.977  1.00  0.00     0.014 A 
ATOM     30  C   UNL A   1      33.994  33.451  30.518  1.00  0.00     0.014 A 
ATOM     31  C   UNL A   1      36.586  33.946  29.618  1.00  0.00     0.010 A 
ATOM     32  C   UNL A   1      35.084  32.924  31.211  1.00  0.00     0.010 A 
ATOM     33  C   UNL A   1      36.392  33.147  30.756  1.00  0.00    -0.014 A 
BRANCH  33  34
ATOM     34  C   UNL A   1      37.540  32.508  31.454  1.00  0.00     0.031 A 
ATOM     35  C   UNL A   1      38.280  31.366  30.807  1.00  0.00     0.074 A 
ATOM     36  C   UNL A   1      37.891  32.918  32.686  1.00  0.00     0.049 A 
ATOM     37  N   UNL A   1      39.270  30.648  31.276  1.00  0.00    -0.248 NA
ATOM     38  C   UNL A   1      37.829  30.961  29.467  1.00  0.00     0.031 C 
ATOM     39  C   UNL A   1      37.233  33.985  33.442  1.00  0.00     0.029 A 
ATOM     40  N   UNL A   1      38.888  32.484  33.525  1.00  0.00    -0.354 N 
ATOM     41  C   UNL A   1      39.544  29.699  30.299  1.00  0.00     0.074 A 
ATOM     42  C   UNL A   1      38.585  29.898  29.235  1.00  0.00     0.031 C 
ATOM     43  C   UNL A   1      37.857  34.138  34.621  1.00  0.00     0.029 A 
ATOM     44  C   UNL A   1      38.938  33.160  34.719  1.00  0.00     0.049 A 
ATOM     45  H   UNL A   1      39.509  31.755  33.292  1.00  0.00     0.167 HD
ATOM     46  C   UNL A   1      40.522  28.761  30.278  1.00  0.00     0.037 A 
ATOM     47  C   UNL A   1      39.759  33.007  35.775  1.00  0.00     0.037 A 
ATOM     48  C   UNL A   1      41.498  28.583  31.320  1.00  0.00     0.049 A 
ATOM     49  C   UNL A   1      40.840  31.962  35.727  1.00  0.00     0.074 A 
ATOM     50  C   UNL A   1      42.570  27.706  31.360  1.00  0.00     0.029 A 
ATOM     51  N   UNL A   1      41.523  29.296  32.508  1.00  0.00    -0.354 N 
ATOM     52  N   UNL A   1      41.129  31.115  34.771  1.00  0.00    -0.248 NA
ATOM     53  C   UNL A   1      41.710  31.856  36.907  1.00  0.00     0.031 C 
ATOM     54  C   UNL A   1      43.217  27.860  32.590  1.00  0.00     0.029 A 
ATOM     55  C   UNL A   1      42.576  28.865  33.299  1.00  0.00     0.049 A 
ATOM     56  H   UNL A   1      40.885  30.004  32.756  1.00  0.00     0.167 HD
ATOM     57  C   UNL A   1      42.228  30.394  35.220  1.00  0.00     0.074 A 
ATOM     58  C   UNL A   1      42.562  30.913  36.529  1.00  0.00     0.031 C 
ATOM     59  C   UNL A   1      42.899  29.392  34.600  1.00  0.00     0.037 A 
BRANCH  46  60
ATOM     60  C   UNL A   1      40.584  27.853  29.083  1.00  0.00     0.064 A 
ATOM     61  C   UNL A   1      39.770  26.715  28.980  1.00  0.00     0.173 A 
ATOM     62  C   UNL A   1      41.451  28.137  28.017  1.00  0.00     0.173 A 
ATOM     63  F   UNL A   1      38.932  26.393  29.976  1.00  0.00    -0.203 F 
ATOM     64  C   UNL A   1      39.846  25.876  27.871  1.00  0.00     0.198 A 
ATOM     65  C   UNL A   1      41.502  27.313  26.895  1.00  0.00     0.198 A 
ATOM     66  F   UNL A   1      42.247  29.216  28.060  1.00  0.00    -0.203 F 
ATOM     67  F   UNL A   1      39.096  24.767  27.820  1.00  0.00    -0.200 F 
ATOM     68  C   UNL A   1      40.707  26.179  26.827  1.00  0.00     0.200 A 
ATOM     69  F   UNL A   1      42.326  27.614  25.881  1.00  0.00    -0.200 F 
ATOM     70  F   UNL A   1      40.776  25.374  25.758  1.00  0.00    -0.200 F 
ENDBRANCH  46  60
BRANCH  47  71
ATOM     71  C   UNL A   1      39.611  33.895  36.958  1.00  0.00     0.064 A 
ATOM     72  C   UNL A   1      40.240  35.147  36.998  1.00  0.00     0.173 A 
ATOM     73  C   UNL A   1      38.835  33.518  38.062  1.00  0.00     0.173 A 
ATOM     74  F   UNL A   1      41.011  35.541  35.973  1.00  0.00    -0.203 F 
ATOM     75  C   UNL A   1      40.109  35.983  38.103  1.00  0.00     0.198 A 
ATOM     76  C   UNL A   1      38.683  34.366  39.157  1.00  0.00     0.198 A 
ATOM     77  F   UNL A   1      38.208  32.332  38.070  1.00  0.00    -0.203 F 
ATOM     78  F   UNL A   1      40.750  37.159  38.132  1.00  0.00    -0.200 F 
ATOM     79  C   UNL A   1      39.324  35.596  39.180  1.00  0.00     0.200 A 
ATOM     80  F   UNL A   1      37.913  33.995  40.188  1.00  0.00    -0.200 F 
ATOM     81  F   UNL A   1      39.191  36.404  40.240  1.00  0.00    -0.200 F 
ENDBRANCH  47  71
BRANCH  59  82
ATOM     82  C   UNL A   1      44.080  28.809  35.318  1.00  0.00     0.064 A 
ATOM     83  C   UNL A   1      45.368  29.344  35.171  1.00  0.00     0.173 A 
ATOM     84  C   UNL A   1      43.913  27.726  36.196  1.00  0.00     0.173 A 
ATOM     85  F   UNL A   1      45.581  30.369  34.332  1.00  0.00    -0.203 F 
ATOM     86  C   UNL A   1      46.451  28.799  35.856  1.00  0.00     0.198 A 
ATOM     87  C   UNL A   1      44.993  27.202  36.900  1.00  0.00     0.198 A 
ATOM     88  F   UNL A   1      42.700  27.182  36.376  1.00  0.00    -0.203 F 
ATOM     89  F   UNL A   1      47.680  29.296  35.666  1.00  0.00    -0.200 F 
ATOM     90  C   UNL A   1      46.262  27.735  36.725  1.00  0.00     0.200 A 
ATOM     91  F   UNL A   1      44.807  26.181  37.749  1.00  0.00    -0.200 F 
ATOM     92  F   UNL A   1      47.304  27.216  37.389  1.00  0.00    -0.200 F 
ENDBRANCH  59  82
ENDBRANCH  33  34
ENDBRANCH  25  28
ENDBRANCH  23  24
ENDBRANCH  22  23
ENDBRANCH  21  22
ENDBRANCH   3  21
TORSDOF 17
ENDMDL
MODEL 3
REMARK VINA RESULT:     -10.4      0.950      7.539
REMARK SMILES COCCOCC[C@@H]1CCC[C@]1([NH3+])C(=O)NCCCNC(=O)c1ccc(-c2c3nc(c(-c4c(F)c(F)c(F)c(F)c4F)c4ccc([nH]4)c(-c4c(F)c(F)c(F)c(F)c4F)c4nc(c(-c5c(F)c(F)c(F)c(F)c5F)c5ccc2[nH]5)C=C4)C=C3)cc1
REMARK SMILES IDX 14 1 15 2 16 3 12 5 8 6 9 7 10 8 11 9 7 10 6 11 5 12 4 13
REMARK SMILES IDX 3 14 2 15 1 16 13 17 17 21 18 22 19 23 20 24 21 25 22 27
REMARK SMILES IDX 23 28 24 29 85 30 25 31 84 32 26 33 27 34 28 35 78 36 29 37
REMARK SMILES IDX 83 38 77 39 79 40 30 41 82 42 76 43 75 44 31 46 63 47 43 48
REMARK SMILES IDX 62 49 44 50 47 51 61 52 80 53 45 54 46 55 60 57 81 58 48 59
REMARK SMILES IDX 32 60 33 61 41 62 34 63 35 64 39 65 42 66 36 67 37 68 40 69
REMARK SMILES IDX 38 70 64 71 65 72 73 73 66 74 67 75 71 76 74 77 68 78 69 79
REMARK SMILES IDX 72 80 70 81 49 82 50 83 58 84 51 85 52 86 56 87 59 88 53 89
REMARK SMILES IDX 54 90 57 91 55 92
REMARK H PARENT 16 4 13 18 13 19 13 20 20 26 79 45 47 56
REMARK Flexibility Score: inf
ROOT
ATOM      1  C   UNL A   1      32.201  28.818  26.678  1.00  0.00     0.281 C 
ATOM      2  O   UNL A   1      32.184  28.141  27.714  1.00  0.00    -0.268 OA
ATOM      3  N   UNL A   1      31.392  29.920  26.700  1.00  0.00    -0.351 N 
ATOM      4  H   UNL A   1      30.805  29.956  27.489  1.00  0.00     0.163 HD
ENDROOT
BRANCH   1   5
ATOM      5  C   UNL A   1      33.046  28.368  25.423  1.00  0.00     0.176 C 
ATOM      6  C   UNL A   1      32.242  27.485  24.407  1.00  0.00     0.063 C 
ATOM      7  C   UNL A   1      32.425  26.046  24.911  1.00  0.00     0.011 C 
ATOM      8  C   UNL A   1      33.523  26.050  25.965  1.00  0.00     0.008 C 
ATOM      9  C   UNL A   1      34.177  27.416  25.863  1.00  0.00     0.079 C 
BRANCH   6  10
ATOM     10  C   UNL A   1      30.788  27.936  24.243  1.00  0.00     0.039 C 
BRANCH  10  11
ATOM     11  C   UNL A   1      29.883  27.582  23.063  1.00  0.00     0.161 C 
BRANCH  11  12
ATOM     12  O   UNL A   1      29.774  28.507  22.000  1.00  0.00    -0.379 OA
BRANCH  12  13
ATOM     13  C   UNL A   1      29.135  29.761  22.250  1.00  0.00     0.188 C 
BRANCH  13  14
ATOM     14  C   UNL A   1      27.621  29.766  22.489  1.00  0.00     0.188 C 
BRANCH  14  15
ATOM     15  O   UNL A   1      27.280  30.721  23.499  1.00  0.00    -0.382 OA
ATOM     16  C   UNL A   1      28.172  31.829  23.540  1.00  0.00     0.195 C 
ENDBRANCH  14  15
ENDBRANCH  13  14
ENDBRANCH  12  13
ENDBRANCH  11  12
ENDBRANCH  10  11
ENDBRANCH   6  10
BRANCH   5  17
ATOM     17  N   UNL A   1      33.679  29.548  24.796  1.00  0.00    -0.345 N 
ATOM     18  H   UNL A   1      34.298  29.242  24.045  1.00  0.00     0.345 HD
ATOM     19  H   UNL A   1      34.218  30.055  25.497  1.00  0.00     0.345 HD
ATOM     20  H   UNL A   1      32.957  30.158  24.414  1.00  0.00     0.345 HD
ENDBRANCH   5  17
ENDBRANCH   1   5
BRANCH   3  21
ATOM     21  C   UNL A   1      31.217  31.053  25.798  1.00  0.00     0.118 C 
BRANCH  21  22
ATOM     22  C   UNL A   1      31.291  32.420  26.479  1.00  0.00     0.042 C 
BRANCH  22  23
ATOM     23  C   UNL A   1      32.619  32.747  27.140  1.00  0.00     0.118 C 
BRANCH  23  24
ATOM     24  N   UNL A   1      32.656  34.105  27.649  1.00  0.00    -0.352 N 
ATOM     25  C   UNL A   1      33.409  34.652  28.661  1.00  0.00     0.251 C 
ATOM     26  H   UNL A   1      32.046  34.733  27.199  1.00  0.00     0.163 HD
ATOM     27  O   UNL A   1      33.111  35.759  29.098  1.00  0.00    -0.269 OA
BRANCH  25  28
ATOM     28  C   UNL A   1      34.564  33.925  29.245  1.00  0.00     0.039 A 
ATOM     29  C   UNL A   1      34.312  32.865  30.121  1.00  0.00     0.014 A 
ATOM     30  C   UNL A   1      35.885  34.318  29.006  1.00  0.00     0.014 A 
ATOM     31  C   UNL A   1      35.373  32.179  30.721  1.00  0.00     0.010 A 
ATOM     32  C   UNL A   1      36.944  33.580  29.535  1.00  0.00     0.010 A 
ATOM     33  C   UNL A   1      36.701  32.517  30.416  1.00  0.00    -0.014 A 
BRANCH  33  34
ATOM     34  C   UNL A   1      37.842  31.794  31.040  1.00  0.00     0.031 A 
ATOM     35  C   UNL A   1      38.274  32.128  32.444  1.00  0.00     0.074 A 
ATOM     36  C   UNL A   1      38.522  30.872  30.334  1.00  0.00     0.049 A 
ATOM     37  N   UNL A   1      39.274  31.647  33.141  1.00  0.00    -0.248 NA
ATOM     38  C   UNL A   1      37.495  33.158  33.147  1.00  0.00     0.031 C 
ATOM     39  C   UNL A   1      38.235  30.484  28.953  1.00  0.00     0.029 A 
ATOM     40  N   UNL A   1      39.600  30.094  30.680  1.00  0.00    -0.354 N 
ATOM     41  C   UNL A   1      39.252  32.328  34.352  1.00  0.00     0.074 A 
ATOM     42  C   UNL A   1      38.176  33.292  34.277  1.00  0.00     0.031 C 
ATOM     43  C   UNL A   1      39.097  29.526  28.577  1.00  0.00     0.029 A 
ATOM     44  C   UNL A   1      40.019  29.256  29.677  1.00  0.00     0.049 A 
ATOM     45  H   UNL A   1      40.033  30.136  31.564  1.00  0.00     0.167 HD
ATOM     46  C   UNL A   1      40.043  32.153  35.438  1.00  0.00     0.037 A 
ATOM     47  C   UNL A   1      41.034  28.371  29.646  1.00  0.00     0.037 A 
ATOM     48  C   UNL A   1      41.093  31.173  35.528  1.00  0.00     0.049 A 
ATOM     49  C   UNL A   1      41.896  28.190  30.865  1.00  0.00     0.074 A 
ATOM     50  C   UNL A   1      41.904  30.871  36.609  1.00  0.00     0.029 A 
ATOM     51  N   UNL A   1      41.479  30.333  34.494  1.00  0.00    -0.354 N 
ATOM     52  N   UNL A   1      41.824  28.795  32.026  1.00  0.00    -0.248 NA
ATOM     53  C   UNL A   1      42.977  27.199  30.770  1.00  0.00     0.031 C 
ATOM     54  C   UNL A   1      42.808  29.878  36.217  1.00  0.00     0.029 A 
ATOM     55  C   UNL A   1      42.531  29.528  34.904  1.00  0.00     0.049 A 
ATOM     56  H   UNL A   1      41.067  30.311  33.600  1.00  0.00     0.167 HD
ATOM     57  C   UNL A   1      42.831  28.241  32.806  1.00  0.00     0.074 A 
ATOM     58  C   UNL A   1      43.491  27.243  31.991  1.00  0.00     0.031 C 
ATOM     59  C   UNL A   1      43.176  28.536  34.084  1.00  0.00     0.037 A 
BRANCH  46  60
ATOM     60  C   UNL A   1      39.799  33.042  36.623  1.00  0.00     0.064 A 
ATOM     61  C   UNL A   1      40.520  34.232  36.811  1.00  0.00     0.173 A 
ATOM     62  C   UNL A   1      38.817  32.715  37.569  1.00  0.00     0.173 A 
ATOM     63  F   UNL A   1      41.477  34.586  35.942  1.00  0.00    -0.203 F 
ATOM     64  C   UNL A   1      40.290  35.042  37.921  1.00  0.00     0.198 A 
ATOM     65  C   UNL A   1      38.568  33.544  38.661  1.00  0.00     0.198 A 
ATOM     66  F   UNL A   1      38.093  31.593  37.434  1.00  0.00    -0.203 F 
ATOM     67  F   UNL A   1      41.027  36.146  38.106  1.00  0.00    -0.200 F 
ATOM     68  C   UNL A   1      39.310  34.701  38.841  1.00  0.00     0.200 A 
ATOM     69  F   UNL A   1      37.612  33.219  39.543  1.00  0.00    -0.200 F 
ATOM     70  F   UNL A   1      39.086  35.484  39.905  1.00  0.00    -0.200 F 
ENDBRANCH  46  60
BRANCH  47  71
ATOM     71  C   UNL A   1      41.267  27.560  28.423  1.00  0.00     0.064 A 
ATOM     72  C   UNL A   1      42.174  27.986  27.442  1.00  0.00     0.173 A 
ATOM     73  C   UNL A   1      40.602  26.344  28.214  1.00  0.00     0.173 A 
ATOM     74  F   UNL A   1      42.818  29.153  27.588  1.00  0.00    -0.203 F 
ATOM     75  C   UNL A   1      42.395  27.232  26.292  1.00  0.00     0.198 A 
ATOM     76  C   UNL A   1      40.843  25.578  27.075  1.00  0.00     0.198 A 
ATOM     77  F   UNL A   1      39.728  25.891  29.125  1.00  0.00    -0.203 F 
ATOM     78  F   UNL A   1      43.239  27.680  25.353  1.00  0.00    -0.200 F 
ATOM     79  C   UNL A   1      41.735  26.025  26.112  1.00  0.00     0.200 A 
ATOM     80  F   UNL A   1      40.214  24.407  26.912  1.00  0.00    -0.200 F 
ATOM     81  F   UNL A   1      41.955  25.297  25.010  1.00  0.00    -0.200 F 
ENDBRANCH  47  71
BRANCH  59  82
ATOM     82  C   UNL A   1      44.301  27.750  34.690  1.00  0.00     0.064 A 
ATOM     83  C   UNL A   1      45.626  28.208  34.646  1.00  0.00     0.173 A 
ATOM     84  C   UNL A   1      44.044  26.542  35.356  1.00  0.00     0.173 A 
ATOM     85  F   UNL A   1      45.924  29.350  34.008  1.00  0.00    -0.203 F 
ATOM     86  C   UNL A   1      46.656  27.473  35.226  1.00  0.00     0.198 A 
ATOM     87  C   UNL A   1      45.073  25.823  35.959  1.00  0.00     0.198 A 
ATOM     88  F   UNL A   1      42.793  26.062  35.431  1.00  0.00    -0.203 F 
ATOM     89  F   UNL A   1      47.920  27.907  35.134  1.00  0.00    -0.200 F 
ATOM     90  C   UNL A   1      46.379  26.286  35.888  1.00  0.00     0.200 A 
ATOM     91  F   UNL A   1      44.802  24.682  36.608  1.00  0.00    -0.200 F 
ATOM     92  F   UNL A   1      47.371  25.583  36.450  1.00  0.00    -0.200 F 
ENDBRANCH  59  82
ENDBRANCH  33  34
ENDBRANCH  25  28
ENDBRANCH  23  24
ENDBRANCH  22  23
ENDBRANCH  21  22
ENDBRANCH   3  21
TORSDOF 17
ENDMDL
