MODEL 1
REMARK VINA RESULT:     -13.0      0.000      0.000
REMARK SMILES O=C(NCCCNC(=O)c1ccc2c(c1)NC1=[NH+]S(=O)(=O)[NH+]=C1N2)c1ccc(-c2c3nc(c(-c4c(F)c(F)c(F)c(F)c4F)c4ccc([nH]4)c(-c4c(F)c(F)c(F)c(F)c4F)c4nc(c(-c5c(F)c(F)c(F)c(F)c5F)c5ccc2[nH]5)C=C4)C=C3)cc1
REMARK SMILES IDX 4 1 3 2 1 3 2 4 25 6 26 7 87 8 27 9 86 10 28 11 29 12 30 13
REMARK SMILES IDX 80 14 31 15 85 16 79 17 81 18 32 19 84 20 78 21 77 22 33 24
REMARK SMILES IDX 65 25 45 26 64 27 46 28 49 29 63 30 82 31 47 32 48 33 62 35
REMARK SMILES IDX 83 36 50 37 34 38 35 39 43 40 36 41 37 42 41 43 44 44 38 45
REMARK SMILES IDX 39 46 42 47 40 48 66 49 67 50 75 51 68 52 69 53 73 54 76 55
REMARK SMILES IDX 70 56 71 57 74 58 72 59 51 60 52 61 60 62 53 63 54 64 58 65
REMARK SMILES IDX 61 66 55 67 56 68 59 69 57 70 5 71 6 72 7 73 8 74 9 76 10 77
REMARK SMILES IDX 11 78 15 79 12 80 14 81 13 82 16 83 24 84 17 85 23 87 18 89
REMARK SMILES IDX 22 90 19 91 20 94 21 95
REMARK H PARENT 3 5 81 23 49 34 7 75 16 86 24 88 18 92 22 93
REMARK Flexibility Score: inf
ROOT
ATOM      1  C   UNL A   1      42.992  22.645  25.461  1.00  0.00     0.118 C 
ENDROOT
BRANCH   1   2
ATOM      2  N   UNL A   1      41.979  22.007  26.325  1.00  0.00    -0.352 N 
ATOM      3  O   UNL A   1      40.642  21.924  28.181  1.00  0.00    -0.269 OA
ATOM      4  C   UNL A   1      41.230  22.594  27.343  1.00  0.00     0.251 C 
ATOM      5  H   UNL A   1      41.811  21.051  26.160  1.00  0.00     0.163 HD
BRANCH   4   6
ATOM      6  C   UNL A   1      41.155  24.065  27.367  1.00  0.00     0.039 A 
ATOM      7  C   UNL A   1      40.200  24.828  26.697  1.00  0.00     0.014 A 
ATOM      8  C   UNL A   1      42.027  24.660  28.255  1.00  0.00     0.014 A 
ATOM      9  C   UNL A   1      40.112  26.182  27.022  1.00  0.00     0.010 A 
ATOM     10  C   UNL A   1      41.604  25.790  28.872  1.00  0.00     0.010 A 
ATOM     11  C   UNL A   1      40.823  26.651  28.141  1.00  0.00    -0.014 A 
BRANCH  11  12
ATOM     12  C   UNL A   1      40.792  28.022  28.626  1.00  0.00     0.031 A 
ATOM     13  C   UNL A   1      41.877  28.868  28.098  1.00  0.00     0.074 A 
ATOM     14  C   UNL A   1      39.777  28.525  29.373  1.00  0.00     0.049 A 
ATOM     15  N   UNL A   1      42.915  29.271  28.746  1.00  0.00    -0.248 NA
ATOM     16  C   UNL A   1      41.912  29.156  26.658  1.00  0.00     0.031 C 
ATOM     17  C   UNL A   1      38.494  27.911  29.761  1.00  0.00     0.029 A 
ATOM     18  N   UNL A   1      39.663  29.768  29.911  1.00  0.00    -0.354 N 
ATOM     19  C   UNL A   1      43.643  30.042  27.853  1.00  0.00     0.074 A 
ATOM     20  C   UNL A   1      43.084  29.787  26.549  1.00  0.00     0.031 C 
ATOM     21  C   UNL A   1      37.658  28.847  30.261  1.00  0.00     0.029 A 
ATOM     22  C   UNL A   1      38.405  30.076  30.419  1.00  0.00     0.049 A 
ATOM     23  H   UNL A   1      40.415  30.403  29.937  1.00  0.00     0.167 HD
ATOM     24  C   UNL A   1      44.476  31.014  28.311  1.00  0.00     0.037 A 
ATOM     25  C   UNL A   1      38.014  31.259  30.954  1.00  0.00     0.037 A 
ATOM     26  C   UNL A   1      44.753  30.838  29.718  1.00  0.00     0.049 A 
ATOM     27  C   UNL A   1      39.252  31.956  31.383  1.00  0.00     0.074 A 
ATOM     28  C   UNL A   1      45.341  29.835  30.466  1.00  0.00     0.029 A 
ATOM     29  N   UNL A   1      44.029  31.590  30.611  1.00  0.00    -0.354 N 
ATOM     30  N   UNL A   1      40.017  31.532  32.352  1.00  0.00    -0.248 NA
ATOM     31  C   UNL A   1      39.890  32.836  30.417  1.00  0.00     0.031 C 
ATOM     32  C   UNL A   1      44.556  29.751  31.654  1.00  0.00     0.029 A 
ATOM     33  C   UNL A   1      43.586  30.753  31.604  1.00  0.00     0.049 A 
ATOM     34  H   UNL A   1      43.857  32.558  30.548  1.00  0.00     0.167 HD
ATOM     35  C   UNL A   1      41.309  31.726  31.887  1.00  0.00     0.074 A 
ATOM     36  C   UNL A   1      41.169  32.600  30.724  1.00  0.00     0.031 C 
ATOM     37  C   UNL A   1      42.336  30.931  32.309  1.00  0.00     0.037 A 
BRANCH  24  38
ATOM     38  C   UNL A   1      44.722  32.315  27.599  1.00  0.00     0.064 A 
ATOM     39  C   UNL A   1      45.907  32.478  26.859  1.00  0.00     0.173 A 
ATOM     40  C   UNL A   1      43.993  33.497  27.856  1.00  0.00     0.173 A 
ATOM     41  F   UNL A   1      46.689  31.424  26.583  1.00  0.00    -0.203 F 
ATOM     42  C   UNL A   1      46.362  33.739  26.465  1.00  0.00     0.198 A 
ATOM     43  C   UNL A   1      44.420  34.746  27.415  1.00  0.00     0.198 A 
ATOM     44  F   UNL A   1      42.907  33.511  28.638  1.00  0.00    -0.203 F 
ATOM     45  F   UNL A   1      47.556  33.860  25.872  1.00  0.00    -0.200 F 
ATOM     46  C   UNL A   1      45.620  34.872  26.747  1.00  0.00     0.200 A 
ATOM     47  F   UNL A   1      43.699  35.834  27.721  1.00  0.00    -0.200 F 
ATOM     48  F   UNL A   1      46.082  36.087  26.425  1.00  0.00    -0.200 F 
ENDBRANCH  24  38
BRANCH  25  49
ATOM     49  C   UNL A   1      36.722  31.966  30.770  1.00  0.00     0.064 A 
ATOM     50  C   UNL A   1      35.824  32.112  31.842  1.00  0.00     0.173 A 
ATOM     51  C   UNL A   1      36.484  32.775  29.642  1.00  0.00     0.173 A 
ATOM     52  F   UNL A   1      36.000  31.405  32.968  1.00  0.00    -0.203 F 
ATOM     53  C   UNL A   1      34.783  33.047  31.807  1.00  0.00     0.198 A 
ATOM     54  C   UNL A   1      35.443  33.705  29.607  1.00  0.00     0.198 A 
ATOM     55  F   UNL A   1      37.318  32.754  28.592  1.00  0.00    -0.203 F 
ATOM     56  F   UNL A   1      33.996  33.211  32.879  1.00  0.00    -0.200 F 
ATOM     57  C   UNL A   1      34.604  33.854  30.696  1.00  0.00     0.200 A 
ATOM     58  F   UNL A   1      35.303  34.506  28.541  1.00  0.00    -0.200 F 
ATOM     59  F   UNL A   1      33.656  34.802  30.692  1.00  0.00    -0.200 F 
ENDBRANCH  25  49
BRANCH  37  60
ATOM     60  C   UNL A   1      42.077  30.008  33.472  1.00  0.00     0.064 A 
ATOM     61  C   UNL A   1      41.653  28.673  33.347  1.00  0.00     0.173 A 
ATOM     62  C   UNL A   1      42.423  30.451  34.754  1.00  0.00     0.173 A 
ATOM     63  F   UNL A   1      41.386  28.143  32.147  1.00  0.00    -0.203 F 
ATOM     64  C   UNL A   1      41.555  27.835  34.457  1.00  0.00     0.198 A 
ATOM     65  C   UNL A   1      42.357  29.603  35.858  1.00  0.00     0.198 A 
ATOM     66  F   UNL A   1      42.881  31.700  34.931  1.00  0.00    -0.203 F 
ATOM     67  F   UNL A   1      41.146  26.565  34.310  1.00  0.00    -0.200 F 
ATOM     68  C   UNL A   1      41.916  28.298  35.710  1.00  0.00     0.200 A 
ATOM     69  F   UNL A   1      42.753  30.044  37.060  1.00  0.00    -0.200 F 
ATOM     70  F   UNL A   1      41.866  27.481  36.772  1.00  0.00    -0.200 F 
ENDBRANCH  37  60
ENDBRANCH  11  12
ENDBRANCH   4   6
ENDBRANCH   1   2
BRANCH   1  71
ATOM     71  C   UNL A   1      44.173  21.766  25.112  1.00  0.00     0.042 C 
BRANCH  71  72
ATOM     72  C   UNL A   1      45.477  22.282  25.721  1.00  0.00     0.118 C 
BRANCH  72  73
ATOM     73  N   UNL A   1      45.364  22.703  27.119  1.00  0.00    -0.352 N 
ATOM     74  C   UNL A   1      45.539  23.939  27.696  1.00  0.00     0.251 C 
ATOM     75  H   UNL A   1      45.122  21.985  27.748  1.00  0.00     0.163 HD
ATOM     76  O   UNL A   1      45.506  24.075  28.914  1.00  0.00    -0.269 OA
BRANCH  74  77
ATOM     77  C   UNL A   1      45.835  25.103  26.838  1.00  0.00     0.044 A 
ATOM     78  C   UNL A   1      44.883  26.108  26.649  1.00  0.00     0.018 A 
ATOM     79  C   UNL A   1      47.057  25.137  26.161  1.00  0.00     0.070 A 
ATOM     80  C   UNL A   1      45.060  27.046  25.636  1.00  0.00     0.057 A 
ATOM     81  C   UNL A   1      47.263  26.099  25.172  1.00  0.00     0.173 A 
ATOM     82  C   UNL A   1      46.221  27.020  24.861  1.00  0.00     0.172 A 
ATOM     83  N   UNL A   1      48.445  26.092  24.409  1.00  0.00    -0.229 N 
ATOM     84  N   UNL A   1      46.348  27.881  23.757  1.00  0.00    -0.229 N 
ATOM     85  C   UNL A   1      48.575  26.883  23.301  1.00  0.00     0.383 C 
ATOM     86  H   UNL A   1      49.190  25.507  24.675  1.00  0.00     0.313 HD
ATOM     87  C   UNL A   1      47.441  27.825  22.940  1.00  0.00     0.383 C 
ATOM     88  H   UNL A   1      45.636  28.536  23.569  1.00  0.00     0.313 HD
ATOM     89  N   UNL A   1      49.554  26.947  22.470  1.00  0.00    -0.122 N 
ATOM     90  N   UNL A   1      47.664  28.483  21.860  1.00  0.00    -0.122 N 
ATOM     91  S   UNL A   1      49.131  28.015  21.305  1.00  0.00     0.469 S 
ATOM     92  H   UNL A   1      50.400  26.446  22.526  1.00  0.00     0.331 HD
ATOM     93  H   UNL A   1      47.065  29.143  21.443  1.00  0.00     0.331 HD
ATOM     94  O   UNL A   1      50.025  29.145  21.364  1.00  0.00    -0.143 OA
ATOM     95  O   UNL A   1      48.931  27.276  20.072  1.00  0.00    -0.143 OA
ENDBRANCH  74  77
ENDBRANCH  72  73
ENDBRANCH  71  72
ENDBRANCH   1  71
TORSDOF 10
ENDMDL
MODEL 2
REMARK VINA RESULT:     -13.0      5.090     11.881
REMARK SMILES O=C(NCCCNC(=O)c1ccc2c(c1)NC1=[NH+]S(=O)(=O)[NH+]=C1N2)c1ccc(-c2c3nc(c(-c4c(F)c(F)c(F)c(F)c4F)c4ccc([nH]4)c(-c4c(F)c(F)c(F)c(F)c4F)c4nc(c(-c5c(F)c(F)c(F)c(F)c5F)c5ccc2[nH]5)C=C4)C=C3)cc1
REMARK SMILES IDX 4 1 3 2 1 3 2 4 25 6 26 7 87 8 27 9 86 10 28 11 29 12 30 13
REMARK SMILES IDX 80 14 31 15 85 16 79 17 81 18 32 19 84 20 78 21 77 22 33 24
REMARK SMILES IDX 65 25 45 26 64 27 46 28 49 29 63 30 82 31 47 32 48 33 62 35
REMARK SMILES IDX 83 36 50 37 34 38 35 39 43 40 36 41 37 42 41 43 44 44 38 45
REMARK SMILES IDX 39 46 42 47 40 48 66 49 67 50 75 51 68 52 69 53 73 54 76 55
REMARK SMILES IDX 70 56 71 57 74 58 72 59 51 60 52 61 60 62 53 63 54 64 58 65
REMARK SMILES IDX 61 66 55 67 56 68 59 69 57 70 5 71 6 72 7 73 8 74 9 76 10 77
REMARK SMILES IDX 11 78 15 79 12 80 14 81 13 82 16 83 24 84 17 85 23 87 18 89
REMARK SMILES IDX 22 90 19 91 20 94 21 95
REMARK H PARENT 3 5 81 23 49 34 7 75 16 86 24 88 18 92 22 93
REMARK Flexibility Score: inf
ROOT
ATOM      1  C   UNL A   1      34.854  32.942  31.003  1.00  0.00     0.118 C 
ENDROOT
BRANCH   1   2
ATOM      2  N   UNL A   1      34.847  33.199  29.549  1.00  0.00    -0.352 N 
ATOM      3  O   UNL A   1      35.830  33.256  27.482  1.00  0.00    -0.269 OA
ATOM      4  C   UNL A   1      35.760  32.752  28.595  1.00  0.00     0.251 C 
ATOM      5  H   UNL A   1      34.105  33.753  29.212  1.00  0.00     0.163 HD
BRANCH   4   6
ATOM      6  C   UNL A   1      36.637  31.630  28.972  1.00  0.00     0.039 A 
ATOM      7  C   UNL A   1      36.404  30.293  28.653  1.00  0.00     0.014 A 
ATOM      8  C   UNL A   1      37.831  32.015  29.545  1.00  0.00     0.014 A 
ATOM      9  C   UNL A   1      37.449  29.390  28.861  1.00  0.00     0.010 A 
ATOM     10  C   UNL A   1      38.918  31.252  29.277  1.00  0.00     0.010 A 
ATOM     11  C   UNL A   1      38.725  29.898  29.163  1.00  0.00    -0.014 A 
BRANCH  11  12
ATOM     12  C   UNL A   1      39.914  29.083  29.360  1.00  0.00     0.031 A 
ATOM     13  C   UNL A   1      40.228  28.815  30.775  1.00  0.00     0.074 A 
ATOM     14  C   UNL A   1      40.588  28.493  28.342  1.00  0.00     0.049 A 
ATOM     15  N   UNL A   1      41.181  29.347  31.459  1.00  0.00    -0.248 NA
ATOM     16  C   UNL A   1      39.290  28.010  31.568  1.00  0.00     0.031 C 
ATOM     17  C   UNL A   1      40.264  28.427  26.905  1.00  0.00     0.029 A 
ATOM     18  N   UNL A   1      41.726  27.750  28.404  1.00  0.00    -0.354 N 
ATOM     19  C   UNL A   1      41.095  28.789  32.725  1.00  0.00     0.074 A 
ATOM     20  C   UNL A   1      39.818  28.124  32.789  1.00  0.00     0.031 C 
ATOM     21  C   UNL A   1      41.042  27.509  26.291  1.00  0.00     0.029 A 
ATOM     22  C   UNL A   1      42.050  27.073  27.233  1.00  0.00     0.049 A 
ATOM     23  H   UNL A   1      42.277  27.696  29.217  1.00  0.00     0.167 HD
ATOM     24  C   UNL A   1      42.200  28.715  33.514  1.00  0.00     0.037 A 
ATOM     25  C   UNL A   1      43.093  26.227  27.048  1.00  0.00     0.037 A 
ATOM     26  C   UNL A   1      43.242  29.590  33.030  1.00  0.00     0.049 A 
ATOM     27  C   UNL A   1      44.092  26.556  28.094  1.00  0.00     0.074 A 
ATOM     28  C   UNL A   1      43.342  30.955  32.838  1.00  0.00     0.029 A 
ATOM     29  N   UNL A   1      44.239  29.034  32.265  1.00  0.00    -0.354 N 
ATOM     30  N   UNL A   1      44.746  27.685  28.135  1.00  0.00    -0.248 NA
ATOM     31  C   UNL A   1      43.997  25.840  29.356  1.00  0.00     0.031 C 
ATOM     32  C   UNL A   1      44.056  31.105  31.612  1.00  0.00     0.029 A 
ATOM     33  C   UNL A   1      44.421  29.834  31.165  1.00  0.00     0.049 A 
ATOM     34  H   UNL A   1      44.734  28.207  32.468  1.00  0.00     0.167 HD
ATOM     35  C   UNL A   1      44.762  28.032  29.478  1.00  0.00     0.074 A 
ATOM     36  C   UNL A   1      44.352  26.822  30.189  1.00  0.00     0.031 C 
ATOM     37  C   UNL A   1      44.821  29.340  29.866  1.00  0.00     0.037 A 
BRANCH  24  38
ATOM     38  C   UNL A   1      42.474  27.590  34.473  1.00  0.00     0.064 A 
ATOM     39  C   UNL A   1      43.019  26.389  33.983  1.00  0.00     0.173 A 
ATOM     40  C   UNL A   1      41.955  27.536  35.785  1.00  0.00     0.173 A 
ATOM     41  F   UNL A   1      43.514  26.322  32.738  1.00  0.00    -0.203 F 
ATOM     42  C   UNL A   1      42.982  25.206  34.726  1.00  0.00     0.198 A 
ATOM     43  C   UNL A   1      41.969  26.370  36.545  1.00  0.00     0.198 A 
ATOM     44  F   UNL A   1      41.310  28.569  36.341  1.00  0.00    -0.203 F 
ATOM     45  F   UNL A   1      43.397  24.060  34.173  1.00  0.00    -0.200 F 
ATOM     46  C   UNL A   1      42.454  25.198  36.004  1.00  0.00     0.200 A 
ATOM     47  F   UNL A   1      41.430  26.377  37.771  1.00  0.00    -0.200 F 
ATOM     48  F   UNL A   1      42.362  24.054  36.696  1.00  0.00    -0.200 F 
ENDBRANCH  24  38
BRANCH  25  49
ATOM     49  C   UNL A   1      43.111  24.944  26.302  1.00  0.00     0.064 A 
ATOM     50  C   UNL A   1      44.014  24.741  25.244  1.00  0.00     0.173 A 
ATOM     51  C   UNL A   1      42.473  23.793  26.806  1.00  0.00     0.173 A 
ATOM     52  F   UNL A   1      44.692  25.778  24.730  1.00  0.00    -0.203 F 
ATOM     53  C   UNL A   1      44.300  23.461  24.755  1.00  0.00     0.198 A 
ATOM     54  C   UNL A   1      42.755  22.517  26.315  1.00  0.00     0.198 A 
ATOM     55  F   UNL A   1      41.640  23.873  27.854  1.00  0.00    -0.203 F 
ATOM     56  F   UNL A   1      45.225  23.302  23.798  1.00  0.00    -0.200 F 
ATOM     57  C   UNL A   1      43.682  22.349  25.302  1.00  0.00     0.200 A 
ATOM     58  F   UNL A   1      42.179  21.446  26.878  1.00  0.00    -0.200 F 
ATOM     59  F   UNL A   1      44.011  21.117  24.888  1.00  0.00    -0.200 F 
ENDBRANCH  25  49
BRANCH  37  60
ATOM     60  C   UNL A   1      45.120  30.373  28.811  1.00  0.00     0.064 A 
ATOM     61  C   UNL A   1      44.143  31.015  28.029  1.00  0.00     0.173 A 
ATOM     62  C   UNL A   1      46.436  30.840  28.700  1.00  0.00     0.173 A 
ATOM     63  F   UNL A   1      42.850  30.690  28.137  1.00  0.00    -0.203 F 
ATOM     64  C   UNL A   1      44.476  32.054  27.160  1.00  0.00     0.198 A 
ATOM     65  C   UNL A   1      46.761  31.900  27.857  1.00  0.00     0.198 A 
ATOM     66  F   UNL A   1      47.405  30.301  29.457  1.00  0.00    -0.203 F 
ATOM     67  F   UNL A   1      43.524  32.647  26.423  1.00  0.00    -0.200 F 
ATOM     68  C   UNL A   1      45.783  32.502  27.082  1.00  0.00     0.200 A 
ATOM     69  F   UNL A   1      48.020  32.359  27.821  1.00  0.00    -0.200 F 
ATOM     70  F   UNL A   1      46.098  33.530  26.281  1.00  0.00    -0.200 F 
ENDBRANCH  37  60
ENDBRANCH  11  12
ENDBRANCH   4   6
ENDBRANCH   1   2
BRANCH   1  71
ATOM     71  C   UNL A   1      34.452  34.124  31.858  1.00  0.00     0.042 C 
BRANCH  71  72
ATOM     72  C   UNL A   1      35.600  34.614  32.741  1.00  0.00     0.118 C 
BRANCH  72  73
ATOM     73  N   UNL A   1      36.872  34.782  32.036  1.00  0.00    -0.352 N 
ATOM     74  C   UNL A   1      38.112  34.244  32.293  1.00  0.00     0.251 C 
ATOM     75  H   UNL A   1      36.834  35.376  31.252  1.00  0.00     0.163 HD
ATOM     76  O   UNL A   1      39.094  34.592  31.645  1.00  0.00    -0.269 OA
BRANCH  74  77
ATOM     77  C   UNL A   1      38.270  33.286  33.403  1.00  0.00     0.044 A 
ATOM     78  C   UNL A   1      38.491  31.930  33.147  1.00  0.00     0.018 A 
ATOM     79  C   UNL A   1      38.116  33.752  34.712  1.00  0.00     0.070 A 
ATOM     80  C   UNL A   1      38.363  31.002  34.176  1.00  0.00     0.057 A 
ATOM     81  C   UNL A   1      38.029  32.833  35.758  1.00  0.00     0.173 A 
ATOM     82  C   UNL A   1      38.083  31.438  35.473  1.00  0.00     0.172 A 
ATOM     83  N   UNL A   1      37.775  33.273  37.071  1.00  0.00    -0.229 N 
ATOM     84  N   UNL A   1      37.827  30.500  36.490  1.00  0.00    -0.229 N 
ATOM     85  C   UNL A   1      37.474  32.385  38.067  1.00  0.00     0.383 C 
ATOM     86  H   UNL A   1      37.814  34.235  37.275  1.00  0.00     0.313 HD
ATOM     87  C   UNL A   1      37.480  30.901  37.748  1.00  0.00     0.383 C 
ATOM     88  H   UNL A   1      37.899  29.539  36.291  1.00  0.00     0.313 HD
ATOM     89  N   UNL A   1      37.160  32.628  39.289  1.00  0.00    -0.122 N 
ATOM     90  N   UNL A   1      37.143  30.176  38.752  1.00  0.00    -0.122 N 
ATOM     91  S   UNL A   1      36.837  31.189  40.000  1.00  0.00     0.469 S 
ATOM     92  H   UNL A   1      37.121  33.514  39.717  1.00  0.00     0.331 HD
ATOM     93  H   UNL A   1      37.078  29.194  38.768  1.00  0.00     0.331 HD
ATOM     94  O   UNL A   1      37.816  30.952  41.033  1.00  0.00    -0.143 OA
ATOM     95  O   UNL A   1      35.415  31.139  40.283  1.00  0.00    -0.143 OA
ENDBRANCH  74  77
ENDBRANCH  72  73
ENDBRANCH  71  72
ENDBRANCH   1  71
TORSDOF 10
ENDMDL
MODEL 3
REMARK VINA RESULT:     -12.9      4.765      7.756
REMARK SMILES O=C(NCCCNC(=O)c1ccc2c(c1)NC1=[NH+]S(=O)(=O)[NH+]=C1N2)c1ccc(-c2c3nc(c(-c4c(F)c(F)c(F)c(F)c4F)c4ccc([nH]4)c(-c4c(F)c(F)c(F)c(F)c4F)c4nc(c(-c5c(F)c(F)c(F)c(F)c5F)c5ccc2[nH]5)C=C4)C=C3)cc1
REMARK SMILES IDX 4 1 3 2 1 3 2 4 25 6 26 7 87 8 27 9 86 10 28 11 29 12 30 13
REMARK SMILES IDX 80 14 31 15 85 16 79 17 81 18 32 19 84 20 78 21 77 22 33 24
REMARK SMILES IDX 65 25 45 26 64 27 46 28 49 29 63 30 82 31 47 32 48 33 62 35
REMARK SMILES IDX 83 36 50 37 34 38 35 39 43 40 36 41 37 42 41 43 44 44 38 45
REMARK SMILES IDX 39 46 42 47 40 48 66 49 67 50 75 51 68 52 69 53 73 54 76 55
REMARK SMILES IDX 70 56 71 57 74 58 72 59 51 60 52 61 60 62 53 63 54 64 58 65
REMARK SMILES IDX 61 66 55 67 56 68 59 69 57 70 5 71 6 72 7 73 8 74 9 76 10 77
REMARK SMILES IDX 11 78 15 79 12 80 14 81 13 82 16 83 24 84 17 85 23 87 18 89
REMARK SMILES IDX 22 90 19 91 20 94 21 95
REMARK H PARENT 3 5 81 23 49 34 7 75 16 86 24 88 18 92 22 93
REMARK Flexibility Score: inf
ROOT
ATOM      1  C   UNL A   1      38.017  23.882  25.753  1.00  0.00     0.118 C 
ENDROOT
BRANCH   1   2
ATOM      2  N   UNL A   1      38.805  22.703  26.164  1.00  0.00    -0.352 N 
ATOM      3  O   UNL A   1      40.708  21.687  26.928  1.00  0.00    -0.269 OA
ATOM      4  C   UNL A   1      39.992  22.678  26.894  1.00  0.00     0.251 C 
ATOM      5  H   UNL A   1      38.446  21.827  25.890  1.00  0.00     0.163 HD
BRANCH   4   6
ATOM      6  C   UNL A   1      40.350  23.894  27.644  1.00  0.00     0.039 A 
ATOM      7  C   UNL A   1      41.653  24.332  27.880  1.00  0.00     0.014 A 
ATOM      8  C   UNL A   1      39.274  24.690  27.978  1.00  0.00     0.014 A 
ATOM      9  C   UNL A   1      41.817  25.624  28.384  1.00  0.00     0.010 A 
ATOM     10  C   UNL A   1      39.477  26.029  27.988  1.00  0.00     0.010 A 
ATOM     11  C   UNL A   1      40.701  26.478  28.417  1.00  0.00    -0.014 A 
BRANCH  11  12
ATOM     12  C   UNL A   1      40.731  27.860  28.871  1.00  0.00     0.031 A 
ATOM     13  C   UNL A   1      41.824  28.658  28.288  1.00  0.00     0.074 A 
ATOM     14  C   UNL A   1      39.759  28.411  29.640  1.00  0.00     0.049 A 
ATOM     15  N   UNL A   1      42.896  29.041  28.892  1.00  0.00    -0.248 NA
ATOM     16  C   UNL A   1      41.819  28.914  26.842  1.00  0.00     0.031 C 
ATOM     17  C   UNL A   1      38.471  27.848  30.085  1.00  0.00     0.029 A 
ATOM     18  N   UNL A   1      39.703  29.669  30.153  1.00  0.00    -0.354 N 
ATOM     19  C   UNL A   1      43.617  29.768  27.958  1.00  0.00     0.074 A 
ATOM     20  C   UNL A   1      43.006  29.503  26.679  1.00  0.00     0.031 C 
ATOM     21  C   UNL A   1      37.683  28.821  30.591  1.00  0.00     0.029 A 
ATOM     22  C   UNL A   1      38.474  30.028  30.697  1.00  0.00     0.049 A 
ATOM     23  H   UNL A   1      40.476  30.279  30.141  1.00  0.00     0.167 HD
ATOM     24  C   UNL A   1      44.496  30.721  28.366  1.00  0.00     0.037 A 
ATOM     25  C   UNL A   1      38.140  31.235  31.218  1.00  0.00     0.037 A 
ATOM     26  C   UNL A   1      44.815  30.566  29.766  1.00  0.00     0.049 A 
ATOM     27  C   UNL A   1      39.413  31.900  31.589  1.00  0.00     0.074 A 
ATOM     28  C   UNL A   1      45.396  29.560  30.516  1.00  0.00     0.029 A 
ATOM     29  N   UNL A   1      44.147  31.360  30.666  1.00  0.00    -0.354 N 
ATOM     30  N   UNL A   1      40.198  31.472  32.541  1.00  0.00    -0.248 NA
ATOM     31  C   UNL A   1      40.046  32.738  30.583  1.00  0.00     0.031 C 
ATOM     32  C   UNL A   1      44.650  29.528  31.732  1.00  0.00     0.029 A 
ATOM     33  C   UNL A   1      43.712  30.560  31.692  1.00  0.00     0.049 A 
ATOM     34  H   UNL A   1      44.004  32.332  30.587  1.00  0.00     0.167 HD
ATOM     35  C   UNL A   1      41.479  31.613  32.029  1.00  0.00     0.074 A 
ATOM     36  C   UNL A   1      41.326  32.467  30.852  1.00  0.00     0.031 C 
ATOM     37  C   UNL A   1      42.493  30.794  32.434  1.00  0.00     0.037 A 
BRANCH  24  38
ATOM     38  C   UNL A   1      44.759  31.998  27.617  1.00  0.00     0.064 A 
ATOM     39  C   UNL A   1      45.989  32.162  26.953  1.00  0.00     0.173 A 
ATOM     40  C   UNL A   1      43.986  33.170  27.771  1.00  0.00     0.173 A 
ATOM     41  F   UNL A   1      46.814  31.120  26.778  1.00  0.00    -0.203 F 
ATOM     42  C   UNL A   1      46.439  33.418  26.538  1.00  0.00     0.198 A 
ATOM     43  C   UNL A   1      44.412  34.410  27.308  1.00  0.00     0.198 A 
ATOM     44  F   UNL A   1      42.848  33.186  28.476  1.00  0.00    -0.203 F 
ATOM     45  F   UNL A   1      47.668  33.547  26.023  1.00  0.00    -0.200 F 
ATOM     46  C   UNL A   1      45.652  34.541  26.719  1.00  0.00     0.200 A 
ATOM     47  F   UNL A   1      43.645  35.489  27.516  1.00  0.00    -0.200 F 
ATOM     48  F   UNL A   1      46.105  35.754  26.377  1.00  0.00    -0.200 F 
ENDBRANCH  24  38
BRANCH  25  49
ATOM     49  C   UNL A   1      36.866  31.980  31.061  1.00  0.00     0.064 A 
ATOM     50  C   UNL A   1      36.030  32.213  32.167  1.00  0.00     0.173 A 
ATOM     51  C   UNL A   1      36.599  32.740  29.906  1.00  0.00     0.173 A 
ATOM     52  F   UNL A   1      36.237  31.557  33.318  1.00  0.00    -0.203 F 
ATOM     53  C   UNL A   1      35.022  33.184  32.135  1.00  0.00     0.198 A 
ATOM     54  C   UNL A   1      35.591  33.706  29.874  1.00  0.00     0.198 A 
ATOM     55  F   UNL A   1      37.377  32.635  28.819  1.00  0.00    -0.203 F 
ATOM     56  F   UNL A   1      34.296  33.430  33.235  1.00  0.00    -0.200 F 
ATOM     57  C   UNL A   1      34.814  33.940  30.994  1.00  0.00     0.200 A 
ATOM     58  F   UNL A   1      35.424  34.457  28.777  1.00  0.00    -0.200 F 
ATOM     59  F   UNL A   1      33.901  34.922  30.987  1.00  0.00    -0.200 F 
ENDBRANCH  25  49
BRANCH  37  60
ATOM     60  C   UNL A   1      42.244  29.905  33.625  1.00  0.00     0.064 A 
ATOM     61  C   UNL A   1      41.759  28.588  33.545  1.00  0.00     0.173 A 
ATOM     62  C   UNL A   1      42.663  30.357  34.883  1.00  0.00     0.173 A 
ATOM     63  F   UNL A   1      41.419  28.048  32.370  1.00  0.00    -0.203 F 
ATOM     64  C   UNL A   1      41.673  27.776  34.676  1.00  0.00     0.198 A 
ATOM     65  C   UNL A   1      42.608  29.533  36.005  1.00  0.00     0.198 A 
ATOM     66  F   UNL A   1      43.182  31.588  35.015  1.00  0.00    -0.203 F 
ATOM     67  F   UNL A   1      41.203  26.523  34.572  1.00  0.00    -0.200 F 
ATOM     68  C   UNL A   1      42.106  28.246  35.903  1.00  0.00     0.200 A 
ATOM     69  F   UNL A   1      43.073  29.979  37.181  1.00  0.00    -0.200 F 
ATOM     70  F   UNL A   1      42.066  27.452  36.983  1.00  0.00    -0.200 F 
ENDBRANCH  37  60
ENDBRANCH  11  12
ENDBRANCH   4   6
ENDBRANCH   1   2
BRANCH   1  71
ATOM     71  C   UNL A   1      36.558  23.602  25.465  1.00  0.00     0.042 C 
BRANCH  71  72
ATOM     72  C   UNL A   1      36.317  23.245  23.998  1.00  0.00     0.118 C 
BRANCH  72  73
ATOM     73  N   UNL A   1      35.185  23.945  23.387  1.00  0.00    -0.352 N 
ATOM     74  C   UNL A   1      33.842  23.647  23.396  1.00  0.00     0.251 C 
ATOM     75  H   UNL A   1      35.424  24.760  22.889  1.00  0.00     0.163 HD
ATOM     76  O   UNL A   1      33.049  24.302  22.728  1.00  0.00    -0.269 OA
BRANCH  74  77
ATOM     77  C   UNL A   1      33.363  22.486  24.170  1.00  0.00     0.044 A 
ATOM     78  C   UNL A   1      33.161  22.584  25.549  1.00  0.00     0.018 A 
ATOM     79  C   UNL A   1      33.191  21.269  23.505  1.00  0.00     0.070 A 
ATOM     80  C   UNL A   1      32.981  21.429  26.305  1.00  0.00     0.057 A 
ATOM     81  C   UNL A   1      32.966  20.110  24.249  1.00  0.00     0.173 A 
ATOM     82  C   UNL A   1      32.932  20.186  25.672  1.00  0.00     0.172 A 
ATOM     83  N   UNL A   1      32.888  18.859  23.609  1.00  0.00    -0.229 N 
ATOM     84  N   UNL A   1      32.878  19.008  26.439  1.00  0.00    -0.229 N 
ATOM     85  C   UNL A   1      32.885  17.697  24.331  1.00  0.00     0.383 C 
ATOM     86  H   UNL A   1      32.836  18.819  22.627  1.00  0.00     0.313 HD
ATOM     87  C   UNL A   1      32.902  17.778  25.846  1.00  0.00     0.383 C 
ATOM     88  H   UNL A   1      32.821  19.072  27.420  1.00  0.00     0.313 HD
ATOM     89  N   UNL A   1      32.880  16.486  23.900  1.00  0.00    -0.122 N 
ATOM     90  N   UNL A   1      32.938  16.623  26.406  1.00  0.00    -0.122 N 
ATOM     91  S   UNL A   1      32.950  15.507  25.210  1.00  0.00     0.469 S 
ATOM     92  H   UNL A   1      32.843  16.201  22.958  1.00  0.00     0.331 HD
ATOM     93  H   UNL A   1      32.957  16.443  27.374  1.00  0.00     0.331 HD
ATOM     94  O   UNL A   1      31.728  14.743  25.284  1.00  0.00    -0.143 OA
ATOM     95  O   UNL A   1      34.246  14.855  25.214  1.00  0.00    -0.143 OA
ENDBRANCH  74  77
ENDBRANCH  72  73
ENDBRANCH  71  72
ENDBRANCH   1  71
TORSDOF 10
ENDMDL
