MODEL 1
REMARK VINA RESULT:     -13.1      0.000      0.000
REMARK SMILES NC(=O)c1ccc(Oc2cccc(C(=O)NCCCNC(=O)c3ccc(-c4c5nc(c(-c6c(F)c(F)c(F)c(F)c6F)c6ccc([nH]6)c(-c6c(F)c(F)c(F)c(F)c6F)c6nc(c(-c7c(F)c(F)c(F)c(F)c7F)c7ccc4[nH]7)C=C6)C=C5)cc3)c2)nc1
REMARK SMILES IDX 17 1 16 2 14 3 15 4 13 6 9 7 10 8 86 9 11 10 12 11 8 12 7 13
REMARK SMILES IDX 4 14 5 15 88 16 6 17 87 18 2 19 1 20 3 23 18 24 19 25 20 26
REMARK SMILES IDX 21 27 22 29 23 30 24 31 85 32 25 33 84 34 26 35 27 36 28 37
REMARK SMILES IDX 78 38 29 39 83 40 77 41 79 42 30 43 82 44 76 45 75 46 31 48
REMARK SMILES IDX 63 49 43 50 62 51 44 52 47 53 61 54 80 55 45 56 46 57 60 59
REMARK SMILES IDX 81 60 48 61 32 62 33 63 41 64 34 65 35 66 39 67 42 68 36 69
REMARK SMILES IDX 37 70 40 71 38 72 64 73 65 74 73 75 66 76 67 77 71 78 74 79
REMARK SMILES IDX 68 80 69 81 72 82 70 83 49 84 50 85 58 86 51 87 52 88 56 89
REMARK SMILES IDX 59 90 53 91 54 92 57 93 55 94
REMARK H PARENT 16 5 1 21 1 22 20 28 79 47 47 58
REMARK Flexibility Score: inf
ROOT
ATOM      1  C   UNL A   1      31.388  31.115  25.957  1.00  0.00     0.118 C 
ENDROOT
BRANCH   1   2
ATOM      2  N   UNL A   1      32.277  30.302  26.765  1.00  0.00    -0.352 N 
ATOM      3  C   UNL A   1      32.725  29.010  26.658  1.00  0.00     0.251 C 
ATOM      4  O   UNL A   1      33.483  28.609  27.541  1.00  0.00    -0.269 OA
ATOM      5  H   UNL A   1      32.631  30.774  27.553  1.00  0.00     0.163 HD
BRANCH   3   6
ATOM      6  C   UNL A   1      32.408  28.113  25.511  1.00  0.00     0.043 A 
ATOM      7  C   UNL A   1      31.001  27.272  23.730  1.00  0.00     0.130 A 
ATOM      8  C   UNL A   1      32.058  26.528  23.212  1.00  0.00     0.047 A 
ATOM      9  C   UNL A   1      31.149  27.980  24.925  1.00  0.00     0.061 A 
ATOM     10  C   UNL A   1      33.294  26.560  23.849  1.00  0.00     0.005 A 
ATOM     11  C   UNL A   1      33.473  27.367  24.976  1.00  0.00     0.014 A 
BRANCH   7  12
ATOM     12  O   UNL A   1      29.809  27.261  23.047  1.00  0.00    -0.439 OA
BRANCH  12  13
ATOM     13  C   UNL A   1      29.267  28.470  22.653  1.00  0.00     0.219 A 
ATOM     14  C   UNL A   1      28.423  30.963  21.819  1.00  0.00     0.058 A 
ATOM     15  C   UNL A   1      27.593  30.205  22.642  1.00  0.00     0.021 A 
ATOM     16  C   UNL A   1      29.638  30.411  21.440  1.00  0.00     0.129 A 
ATOM     17  C   UNL A   1      28.029  28.951  23.081  1.00  0.00     0.070 A 
ATOM     18  N   UNL A   1      30.074  29.188  21.841  1.00  0.00    -0.221 NA
BRANCH  14  19
ATOM     19  C   UNL A   1      28.072  32.314  21.329  1.00  0.00     0.250 C 
ATOM     20  N   UNL A   1      27.698  32.429  20.019  1.00  0.00    -0.366 N 
ATOM     21  H   UNL A   1      27.456  33.311  19.652  1.00  0.00     0.159 HD
ATOM     22  H   UNL A   1      27.670  31.632  19.443  1.00  0.00     0.159 HD
ATOM     23  O   UNL A   1      28.084  33.281  22.074  1.00  0.00    -0.269 OA
ENDBRANCH  14  19
ENDBRANCH  12  13
ENDBRANCH   7  12
ENDBRANCH   3   6
ENDBRANCH   1   2
BRANCH   1  24
ATOM     24  C   UNL A   1      31.258  32.519  26.544  1.00  0.00     0.042 C 
BRANCH  24  25
ATOM     25  C   UNL A   1      32.517  32.962  27.283  1.00  0.00     0.118 C 
BRANCH  25  26
ATOM     26  N   UNL A   1      32.434  34.357  27.697  1.00  0.00    -0.352 N 
ATOM     27  C   UNL A   1      33.062  35.013  28.724  1.00  0.00     0.251 C 
ATOM     28  H   UNL A   1      31.832  34.916  27.154  1.00  0.00     0.163 HD
ATOM     29  O   UNL A   1      32.662  36.120  29.072  1.00  0.00    -0.269 OA
BRANCH  27  30
ATOM     30  C   UNL A   1      34.219  34.399  29.406  1.00  0.00     0.039 A 
ATOM     31  C   UNL A   1      34.008  33.684  30.588  1.00  0.00     0.014 A 
ATOM     32  C   UNL A   1      35.515  34.571  28.912  1.00  0.00     0.014 A 
ATOM     33  C   UNL A   1      35.093  33.108  31.251  1.00  0.00     0.010 A 
ATOM     34  C   UNL A   1      36.582  33.924  29.523  1.00  0.00     0.010 A 
ATOM     35  C   UNL A   1      36.385  33.202  30.710  1.00  0.00    -0.014 A 
BRANCH  35  36
ATOM     36  C   UNL A   1      37.550  32.572  31.379  1.00  0.00     0.031 A 
ATOM     37  C   UNL A   1      38.275  31.435  30.715  1.00  0.00     0.074 A 
ATOM     38  C   UNL A   1      37.909  32.979  32.610  1.00  0.00     0.049 A 
ATOM     39  N   UNL A   1      39.263  30.704  31.166  1.00  0.00    -0.248 NA
ATOM     40  C   UNL A   1      37.804  31.045  29.377  1.00  0.00     0.031 C 
ATOM     41  C   UNL A   1      37.249  34.039  33.375  1.00  0.00     0.029 A 
ATOM     42  N   UNL A   1      38.909  32.542  33.440  1.00  0.00    -0.354 N 
ATOM     43  C   UNL A   1      39.518  29.763  30.177  1.00  0.00     0.074 A 
ATOM     44  C   UNL A   1      38.539  29.970  29.134  1.00  0.00     0.031 C 
ATOM     45  C   UNL A   1      37.876  34.185  34.552  1.00  0.00     0.029 A 
ATOM     46  C   UNL A   1      38.952  33.203  34.643  1.00  0.00     0.049 A 
ATOM     47  H   UNL A   1      39.537  31.823  33.198  1.00  0.00     0.167 HD
ATOM     48  C   UNL A   1      40.497  28.828  30.133  1.00  0.00     0.037 A 
ATOM     49  C   UNL A   1      39.762  33.028  35.705  1.00  0.00     0.037 A 
ATOM     50  C   UNL A   1      41.475  28.638  31.172  1.00  0.00     0.049 A 
ATOM     51  C   UNL A   1      40.836  31.976  35.638  1.00  0.00     0.074 A 
ATOM     52  C   UNL A   1      42.541  27.757  31.205  1.00  0.00     0.029 A 
ATOM     53  N   UNL A   1      41.500  29.340  32.369  1.00  0.00    -0.354 N 
ATOM     54  N   UNL A   1      41.114  31.136  34.670  1.00  0.00    -0.248 NA
ATOM     55  C   UNL A   1      41.715  31.856  36.808  1.00  0.00     0.031 C 
ATOM     56  C   UNL A   1      43.175  27.885  32.446  1.00  0.00     0.029 A 
ATOM     57  C   UNL A   1      42.547  28.894  33.159  1.00  0.00     0.049 A 
ATOM     58  H   UNL A   1      40.866  30.052  32.620  1.00  0.00     0.167 HD
ATOM     59  C   UNL A   1      42.216  30.410  35.098  1.00  0.00     0.074 A 
ATOM     60  C   UNL A   1      42.564  30.919  36.410  1.00  0.00     0.031 C 
ATOM     61  C   UNL A   1      42.883  29.415  34.462  1.00  0.00     0.037 A 
BRANCH  48  62
ATOM     62  C   UNL A   1      40.547  27.935  28.922  1.00  0.00     0.064 A 
ATOM     63  C   UNL A   1      41.330  28.255  27.800  1.00  0.00     0.173 A 
ATOM     64  C   UNL A   1      39.810  26.742  28.884  1.00  0.00     0.173 A 
ATOM     65  F   UNL A   1      42.048  29.388  27.777  1.00  0.00    -0.203 F 
ATOM     66  C   UNL A   1      41.334  27.440  26.671  1.00  0.00     0.198 A 
ATOM     67  C   UNL A   1      39.847  25.910  27.769  1.00  0.00     0.198 A 
ATOM     68  F   UNL A   1      39.050  26.382  29.930  1.00  0.00    -0.203 F 
ATOM     69  F   UNL A   1      42.033  27.802  25.587  1.00  0.00    -0.200 F 
ATOM     70  C   UNL A   1      40.598  26.265  26.658  1.00  0.00     0.200 A 
ATOM     71  F   UNL A   1      39.147  24.766  27.764  1.00  0.00    -0.200 F 
ATOM     72  F   UNL A   1      40.603  25.481  25.572  1.00  0.00    -0.200 F 
ENDBRANCH  48  62
BRANCH  49  73
ATOM     73  C   UNL A   1      39.600  33.891  36.903  1.00  0.00     0.064 A 
ATOM     74  C   UNL A   1      40.216  35.149  36.973  1.00  0.00     0.173 A 
ATOM     75  C   UNL A   1      38.814  33.489  37.992  1.00  0.00     0.173 A 
ATOM     76  F   UNL A   1      40.994  35.571  35.965  1.00  0.00    -0.203 F 
ATOM     77  C   UNL A   1      40.065  35.963  38.094  1.00  0.00     0.198 A 
ATOM     78  C   UNL A   1      38.638  34.316  39.099  1.00  0.00     0.198 A 
ATOM     79  F   UNL A   1      38.196  32.299  37.971  1.00  0.00    -0.203 F 
ATOM     80  F   UNL A   1      40.700  37.142  38.154  1.00  0.00    -0.200 F 
ATOM     81  C   UNL A   1      39.270  35.550  39.153  1.00  0.00     0.200 A 
ATOM     82  F   UNL A   1      37.855  33.921  40.111  1.00  0.00    -0.200 F 
ATOM     83  F   UNL A   1      39.118  36.337  40.226  1.00  0.00    -0.200 F 
ENDBRANCH  49  73
BRANCH  61  84
ATOM     84  C   UNL A   1      44.084  28.837  35.155  1.00  0.00     0.064 A 
ATOM     85  C   UNL A   1      45.371  29.361  34.973  1.00  0.00     0.173 A 
ATOM     86  C   UNL A   1      43.933  27.764  36.049  1.00  0.00     0.173 A 
ATOM     87  F   UNL A   1      45.572  30.376  34.119  1.00  0.00    -0.203 F 
ATOM     88  C   UNL A   1      46.467  28.816  35.635  1.00  0.00     0.198 A 
ATOM     89  C   UNL A   1      45.026  27.245  36.738  1.00  0.00     0.198 A 
ATOM     90  F   UNL A   1      42.723  27.229  36.268  1.00  0.00    -0.203 F 
ATOM     91  F   UNL A   1      47.696  29.298  35.403  1.00  0.00    -0.200 F 
ATOM     92  C   UNL A   1      46.293  27.764  36.523  1.00  0.00     0.200 A 
ATOM     93  F   UNL A   1      44.852  26.241  37.608  1.00  0.00    -0.200 F 
ATOM     94  F   UNL A   1      47.348  27.247  37.167  1.00  0.00    -0.200 F 
ENDBRANCH  61  84
ENDBRANCH  35  36
ENDBRANCH  27  30
ENDBRANCH  25  26
ENDBRANCH  24  25
ENDBRANCH   1  24
TORSDOF 13
ENDMDL
MODEL 2
REMARK VINA RESULT:     -13.0      6.896     12.053
REMARK SMILES NC(=O)c1ccc(Oc2cccc(C(=O)NCCCNC(=O)c3ccc(-c4c5nc(c(-c6c(F)c(F)c(F)c(F)c6F)c6ccc([nH]6)c(-c6c(F)c(F)c(F)c(F)c6F)c6nc(c(-c7c(F)c(F)c(F)c(F)c7F)c7ccc4[nH]7)C=C6)C=C5)cc3)c2)nc1
REMARK SMILES IDX 17 1 16 2 14 3 15 4 13 6 9 7 10 8 86 9 11 10 12 11 8 12 7 13
REMARK SMILES IDX 4 14 5 15 88 16 6 17 87 18 2 19 1 20 3 23 18 24 19 25 20 26
REMARK SMILES IDX 21 27 22 29 23 30 24 31 85 32 25 33 84 34 26 35 27 36 28 37
REMARK SMILES IDX 78 38 29 39 83 40 77 41 79 42 30 43 82 44 76 45 75 46 31 48
REMARK SMILES IDX 63 49 43 50 62 51 44 52 47 53 61 54 80 55 45 56 46 57 60 59
REMARK SMILES IDX 81 60 48 61 32 62 33 63 41 64 34 65 35 66 39 67 42 68 36 69
REMARK SMILES IDX 37 70 40 71 38 72 64 73 65 74 73 75 66 76 67 77 71 78 74 79
REMARK SMILES IDX 68 80 69 81 72 82 70 83 49 84 50 85 58 86 51 87 52 88 56 89
REMARK SMILES IDX 59 90 53 91 54 92 57 93 55 94
REMARK H PARENT 16 5 1 21 1 22 20 28 79 47 47 58
REMARK Flexibility Score: inf
ROOT
ATOM      1  C   UNL A   1      37.050  20.077  24.979  1.00  0.00     0.118 C 
ENDROOT
BRANCH   1   2
ATOM      2  N   UNL A   1      37.372  21.485  25.121  1.00  0.00    -0.352 N 
ATOM      3  C   UNL A   1      36.608  22.622  25.167  1.00  0.00     0.251 C 
ATOM      4  O   UNL A   1      37.208  23.691  25.285  1.00  0.00    -0.269 OA
ATOM      5  H   UNL A   1      38.337  21.659  25.200  1.00  0.00     0.163 HD
BRANCH   3   6
ATOM      6  C   UNL A   1      35.117  22.623  25.158  1.00  0.00     0.043 A 
ATOM      7  C   UNL A   1      32.944  21.737  24.567  1.00  0.00     0.130 A 
ATOM      8  C   UNL A   1      32.317  22.621  25.441  1.00  0.00     0.047 A 
ATOM      9  C   UNL A   1      34.324  21.806  24.354  1.00  0.00     0.061 A 
ATOM     10  C   UNL A   1      33.087  23.524  26.170  1.00  0.00     0.005 A 
ATOM     11  C   UNL A   1      34.478  23.506  26.046  1.00  0.00     0.014 A 
BRANCH   7  12
ATOM     12  O   UNL A   1      32.162  20.824  23.902  1.00  0.00    -0.439 OA
BRANCH  12  13
ATOM     13  C   UNL A   1      32.417  19.478  24.096  1.00  0.00     0.219 A 
ATOM     14  C   UNL A   1      32.962  16.847  24.728  1.00  0.00     0.058 A 
ATOM     15  C   UNL A   1      33.111  17.274  23.410  1.00  0.00     0.021 A 
ATOM     16  C   UNL A   1      32.522  17.773  25.662  1.00  0.00     0.129 A 
ATOM     17  C   UNL A   1      32.855  18.612  23.094  1.00  0.00     0.070 A 
ATOM     18  N   UNL A   1      32.251  19.072  25.374  1.00  0.00    -0.221 NA
BRANCH  14  19
ATOM     19  C   UNL A   1      33.242  15.464  25.173  1.00  0.00     0.250 C 
ATOM     20  N   UNL A   1      32.169  14.683  25.504  1.00  0.00    -0.366 N 
ATOM     21  H   UNL A   1      32.311  13.755  25.806  1.00  0.00     0.159 HD
ATOM     22  H   UNL A   1      31.257  15.046  25.441  1.00  0.00     0.159 HD
ATOM     23  O   UNL A   1      34.382  15.029  25.211  1.00  0.00    -0.269 OA
ENDBRANCH  14  19
ENDBRANCH  12  13
ENDBRANCH   7  12
ENDBRANCH   3   6
ENDBRANCH   1   2
BRANCH   1  24
ATOM     24  C   UNL A   1      38.322  19.231  24.965  1.00  0.00     0.042 C 
BRANCH  24  25
ATOM     25  C   UNL A   1      39.414  19.803  25.864  1.00  0.00     0.118 C 
BRANCH  25  26
ATOM     26  N   UNL A   1      40.556  18.904  25.960  1.00  0.00    -0.352 N 
ATOM     27  C   UNL A   1      41.896  19.182  26.033  1.00  0.00     0.251 C 
ATOM     28  H   UNL A   1      40.330  17.945  25.975  1.00  0.00     0.163 HD
ATOM     29  O   UNL A   1      42.714  18.286  25.843  1.00  0.00    -0.269 OA
BRANCH  27  30
ATOM     30  C   UNL A   1      42.360  20.548  26.346  1.00  0.00     0.039 A 
ATOM     31  C   UNL A   1      42.735  21.394  25.299  1.00  0.00     0.014 A 
ATOM     32  C   UNL A   1      42.475  20.979  27.671  1.00  0.00     0.014 A 
ATOM     33  C   UNL A   1      43.187  22.684  25.579  1.00  0.00     0.010 A 
ATOM     34  C   UNL A   1      42.841  22.291  27.944  1.00  0.00     0.010 A 
ATOM     35  C   UNL A   1      43.218  23.152  26.902  1.00  0.00    -0.014 A 
BRANCH  35  36
ATOM     36  C   UNL A   1      43.665  24.529  27.224  1.00  0.00     0.031 A 
ATOM     37  C   UNL A   1      42.683  25.533  27.761  1.00  0.00     0.074 A 
ATOM     38  C   UNL A   1      44.935  24.893  26.968  1.00  0.00     0.049 A 
ATOM     39  N   UNL A   1      42.857  26.802  28.031  1.00  0.00    -0.248 NA
ATOM     40  C   UNL A   1      41.312  25.053  27.995  1.00  0.00     0.031 C 
ATOM     41  C   UNL A   1      45.965  24.021  26.401  1.00  0.00     0.029 A 
ATOM     42  N   UNL A   1      45.573  26.095  27.140  1.00  0.00    -0.354 N 
ATOM     43  C   UNL A   1      41.618  27.272  28.448  1.00  0.00     0.074 A 
ATOM     44  C   UNL A   1      40.688  26.171  28.332  1.00  0.00     0.031 C 
ATOM     45  C   UNL A   1      47.112  24.709  26.293  1.00  0.00     0.029 A 
ATOM     46  C   UNL A   1      46.887  26.080  26.741  1.00  0.00     0.049 A 
ATOM     47  H   UNL A   1      45.132  26.892  27.514  1.00  0.00     0.167 HD
ATOM     48  C   UNL A   1      41.293  28.502  28.912  1.00  0.00     0.037 A 
ATOM     49  C   UNL A   1      47.805  27.066  26.729  1.00  0.00     0.037 A 
ATOM     50  C   UNL A   1      42.231  29.588  29.036  1.00  0.00     0.049 A 
ATOM     51  C   UNL A   1      47.419  28.428  27.239  1.00  0.00     0.074 A 
ATOM     52  C   UNL A   1      42.020  30.858  29.543  1.00  0.00     0.029 A 
ATOM     53  N   UNL A   1      43.560  29.531  28.641  1.00  0.00    -0.354 N 
ATOM     54  N   UNL A   1      46.263  28.844  27.697  1.00  0.00    -0.248 NA
ATOM     55  C   UNL A   1      48.470  29.454  27.240  1.00  0.00     0.031 C 
ATOM     56  C   UNL A   1      43.206  31.587  29.399  1.00  0.00     0.029 A 
ATOM     57  C   UNL A   1      44.176  30.751  28.868  1.00  0.00     0.049 A 
ATOM     58  H   UNL A   1      44.002  28.739  28.256  1.00  0.00     0.167 HD
ATOM     59  C   UNL A   1      46.454  30.169  28.068  1.00  0.00     0.074 A 
ATOM     60  C   UNL A   1      47.842  30.481  27.794  1.00  0.00     0.031 C 
ATOM     61  C   UNL A   1      45.561  31.044  28.593  1.00  0.00     0.037 A 
BRANCH  48  62
ATOM     62  C   UNL A   1      39.861  28.737  29.308  1.00  0.00     0.064 A 
ATOM     63  C   UNL A   1      38.912  29.225  28.394  1.00  0.00     0.173 A 
ATOM     64  C   UNL A   1      39.428  28.463  30.614  1.00  0.00     0.173 A 
ATOM     65  F   UNL A   1      39.271  29.512  27.134  1.00  0.00    -0.203 F 
ATOM     66  C   UNL A   1      37.599  29.475  28.786  1.00  0.00     0.198 A 
ATOM     67  C   UNL A   1      38.105  28.678  30.993  1.00  0.00     0.198 A 
ATOM     68  F   UNL A   1      40.288  27.988  31.528  1.00  0.00    -0.203 F 
ATOM     69  F   UNL A   1      36.731  30.007  27.915  1.00  0.00    -0.200 F 
ATOM     70  C   UNL A   1      37.195  29.196  30.083  1.00  0.00     0.200 A 
ATOM     71  F   UNL A   1      37.711  28.392  32.242  1.00  0.00    -0.200 F 
ATOM     72  F   UNL A   1      35.932  29.436  30.459  1.00  0.00    -0.200 F 
ENDBRANCH  48  62
BRANCH  49  73
ATOM     73  C   UNL A   1      49.181  26.784  26.244  1.00  0.00     0.064 A 
ATOM     74  C   UNL A   1      50.150  26.243  27.100  1.00  0.00     0.173 A 
ATOM     75  C   UNL A   1      49.550  27.029  24.914  1.00  0.00     0.173 A 
ATOM     76  F   UNL A   1      49.852  26.009  28.387  1.00  0.00    -0.203 F 
ATOM     77  C   UNL A   1      51.441  25.975  26.649  1.00  0.00     0.198 A 
ATOM     78  C   UNL A   1      50.831  26.732  24.454  1.00  0.00     0.198 A 
ATOM     79  F   UNL A   1      48.657  27.537  24.052  1.00  0.00    -0.203 F 
ATOM     80  F   UNL A   1      52.360  25.499  27.499  1.00  0.00    -0.200 F 
ATOM     81  C   UNL A   1      51.778  26.211  25.325  1.00  0.00     0.200 A 
ATOM     82  F   UNL A   1      51.147  26.945  23.171  1.00  0.00    -0.200 F 
ATOM     83  F   UNL A   1      53.017  25.944  24.888  1.00  0.00    -0.200 F 
ENDBRANCH  49  73
BRANCH  61  84
ATOM     84  C   UNL A   1      46.067  32.414  28.946  1.00  0.00     0.064 A 
ATOM     85  C   UNL A   1      46.617  32.701  30.204  1.00  0.00     0.173 A 
ATOM     86  C   UNL A   1      46.035  33.446  27.993  1.00  0.00     0.173 A 
ATOM     87  F   UNL A   1      46.658  31.757  31.155  1.00  0.00    -0.203 F 
ATOM     88  C   UNL A   1      47.090  33.976  30.504  1.00  0.00     0.198 A 
ATOM     89  C   UNL A   1      46.542  34.709  28.285  1.00  0.00     0.198 A 
ATOM     90  F   UNL A   1      45.527  33.223  26.772  1.00  0.00    -0.203 F 
ATOM     91  F   UNL A   1      47.562  34.242  31.730  1.00  0.00    -0.200 F 
ATOM     92  C   UNL A   1      47.060  34.975  29.543  1.00  0.00     0.200 A 
ATOM     93  F   UNL A   1      46.528  35.667  27.349  1.00  0.00    -0.200 F 
ATOM     94  F   UNL A   1      47.524  36.199  29.830  1.00  0.00    -0.200 F 
ENDBRANCH  61  84
ENDBRANCH  35  36
ENDBRANCH  27  30
ENDBRANCH  25  26
ENDBRANCH  24  25
ENDBRANCH   1  24
TORSDOF 13
ENDMDL
MODEL 3
REMARK VINA RESULT:     -13.0      6.862     12.059
REMARK SMILES NC(=O)c1ccc(Oc2cccc(C(=O)NCCCNC(=O)c3ccc(-c4c5nc(c(-c6c(F)c(F)c(F)c(F)c6F)c6ccc([nH]6)c(-c6c(F)c(F)c(F)c(F)c6F)c6nc(c(-c7c(F)c(F)c(F)c(F)c7F)c7ccc4[nH]7)C=C6)C=C5)cc3)c2)nc1
REMARK SMILES IDX 17 1 16 2 14 3 15 4 13 6 9 7 10 8 86 9 11 10 12 11 8 12 7 13
REMARK SMILES IDX 4 14 5 15 88 16 6 17 87 18 2 19 1 20 3 23 18 24 19 25 20 26
REMARK SMILES IDX 21 27 22 29 23 30 24 31 85 32 25 33 84 34 26 35 27 36 28 37
REMARK SMILES IDX 78 38 29 39 83 40 77 41 79 42 30 43 82 44 76 45 75 46 31 48
REMARK SMILES IDX 63 49 43 50 62 51 44 52 47 53 61 54 80 55 45 56 46 57 60 59
REMARK SMILES IDX 81 60 48 61 32 62 33 63 41 64 34 65 35 66 39 67 42 68 36 69
REMARK SMILES IDX 37 70 40 71 38 72 64 73 65 74 73 75 66 76 67 77 71 78 74 79
REMARK SMILES IDX 68 80 69 81 72 82 70 83 49 84 50 85 58 86 51 87 52 88 56 89
REMARK SMILES IDX 59 90 53 91 54 92 57 93 55 94
REMARK H PARENT 16 5 1 21 1 22 20 28 79 47 47 58
REMARK Flexibility Score: inf
ROOT
ATOM      1  C   UNL A   1      37.007  20.074  24.975  1.00  0.00     0.118 C 
ENDROOT
BRANCH   1   2
ATOM      2  N   UNL A   1      37.331  21.482  25.114  1.00  0.00    -0.352 N 
ATOM      3  C   UNL A   1      36.572  22.623  25.129  1.00  0.00     0.251 C 
ATOM      4  O   UNL A   1      37.173  23.690  25.256  1.00  0.00    -0.269 OA
ATOM      5  H   UNL A   1      38.295  21.652  25.219  1.00  0.00     0.163 HD
BRANCH   3   6
ATOM      6  C   UNL A   1      35.082  22.631  25.077  1.00  0.00     0.043 A 
ATOM      7  C   UNL A   1      32.921  21.732  24.460  1.00  0.00     0.130 A 
ATOM      8  C   UNL A   1      32.275  22.652  25.282  1.00  0.00     0.047 A 
ATOM      9  C   UNL A   1      34.307  21.786  24.284  1.00  0.00     0.061 A 
ATOM     10  C   UNL A   1      33.029  23.579  25.996  1.00  0.00     0.005 A 
ATOM     11  C   UNL A   1      34.423  23.550  25.913  1.00  0.00     0.014 A 
BRANCH   7  12
ATOM     12  O   UNL A   1      32.153  20.797  23.810  1.00  0.00    -0.439 OA
BRANCH  12  13
ATOM     13  C   UNL A   1      32.408  19.459  24.047  1.00  0.00     0.219 A 
ATOM     14  C   UNL A   1      32.957  16.849  24.763  1.00  0.00     0.058 A 
ATOM     15  C   UNL A   1      33.094  17.232  23.430  1.00  0.00     0.021 A 
ATOM     16  C   UNL A   1      32.528  17.807  25.670  1.00  0.00     0.129 A 
ATOM     17  C   UNL A   1      32.835  18.557  23.071  1.00  0.00     0.070 A 
ATOM     18  N   UNL A   1      32.256  19.097  25.340  1.00  0.00    -0.221 NA
BRANCH  14  19
ATOM     19  C   UNL A   1      33.241  15.483  25.252  1.00  0.00     0.250 C 
ATOM     20  N   UNL A   1      32.168  14.679  25.524  1.00  0.00    -0.366 N 
ATOM     21  H   UNL A   1      32.312  13.761  25.852  1.00  0.00     0.159 HD
ATOM     22  H   UNL A   1      31.254  15.017  25.392  1.00  0.00     0.159 HD
ATOM     23  O   UNL A   1      34.386  15.079  25.376  1.00  0.00    -0.269 OA
ENDBRANCH  14  19
ENDBRANCH  12  13
ENDBRANCH   7  12
ENDBRANCH   3   6
ENDBRANCH   1   2
BRANCH   1  24
ATOM     24  C   UNL A   1      38.272  19.221  25.030  1.00  0.00     0.042 C 
BRANCH  24  25
ATOM     25  C   UNL A   1      39.343  19.822  25.935  1.00  0.00     0.118 C 
BRANCH  25  26
ATOM     26  N   UNL A   1      40.501  18.945  26.053  1.00  0.00    -0.352 N 
ATOM     27  C   UNL A   1      41.836  19.247  26.123  1.00  0.00     0.251 C 
ATOM     28  H   UNL A   1      40.292  17.983  26.089  1.00  0.00     0.163 HD
ATOM     29  O   UNL A   1      42.669  18.361  25.954  1.00  0.00    -0.269 OA
BRANCH  27  30
ATOM     30  C   UNL A   1      42.275  20.628  26.406  1.00  0.00     0.039 A 
ATOM     31  C   UNL A   1      42.417  21.035  27.736  1.00  0.00     0.014 A 
ATOM     32  C   UNL A   1      42.495  21.537  25.368  1.00  0.00     0.014 A 
ATOM     33  C   UNL A   1      42.819  22.341  28.021  1.00  0.00     0.010 A 
ATOM     34  C   UNL A   1      42.981  22.808  25.649  1.00  0.00     0.010 A 
ATOM     35  C   UNL A   1      43.130  23.229  26.979  1.00  0.00    -0.014 A 
BRANCH  35  36
ATOM     36  C   UNL A   1      43.589  24.612  27.256  1.00  0.00     0.031 A 
ATOM     37  C   UNL A   1      42.624  25.633  27.792  1.00  0.00     0.074 A 
ATOM     38  C   UNL A   1      44.854  24.964  26.960  1.00  0.00     0.049 A 
ATOM     39  N   UNL A   1      42.809  26.908  28.026  1.00  0.00    -0.248 NA
ATOM     40  C   UNL A   1      41.258  25.165  28.071  1.00  0.00     0.031 C 
ATOM     41  C   UNL A   1      45.866  24.075  26.389  1.00  0.00     0.029 A 
ATOM     42  N   UNL A   1      45.500  26.167  27.086  1.00  0.00    -0.354 N 
ATOM     43  C   UNL A   1      41.583  27.393  28.462  1.00  0.00     0.074 A 
ATOM     44  C   UNL A   1      40.646  26.293  28.396  1.00  0.00     0.031 C 
ATOM     45  C   UNL A   1      47.012  24.755  26.236  1.00  0.00     0.029 A 
ATOM     46  C   UNL A   1      46.804  26.137  26.656  1.00  0.00     0.049 A 
ATOM     47  H   UNL A   1      45.071  26.975  27.451  1.00  0.00     0.167 HD
ATOM     48  C   UNL A   1      41.274  28.635  28.903  1.00  0.00     0.037 A 
ATOM     49  C   UNL A   1      47.724  27.119  26.597  1.00  0.00     0.037 A 
ATOM     50  C   UNL A   1      42.219  29.720  28.978  1.00  0.00     0.049 A 
ATOM     51  C   UNL A   1      47.357  28.494  27.082  1.00  0.00     0.074 A 
ATOM     52  C   UNL A   1      42.024  31.002  29.458  1.00  0.00     0.029 A 
ATOM     53  N   UNL A   1      43.537  29.647  28.551  1.00  0.00    -0.354 N 
ATOM     54  N   UNL A   1      46.213  28.927  27.558  1.00  0.00    -0.248 NA
ATOM     55  C   UNL A   1      48.411  29.516  27.032  1.00  0.00     0.031 C 
ATOM     56  C   UNL A   1      43.209  31.723  29.267  1.00  0.00     0.029 A 
ATOM     57  C   UNL A   1      44.163  30.870  28.733  1.00  0.00     0.049 A 
ATOM     58  H   UNL A   1      43.966  28.844  28.175  1.00  0.00     0.167 HD
ATOM     59  C   UNL A   1      46.418  30.259  27.892  1.00  0.00     0.074 A 
ATOM     60  C   UNL A   1      47.800  30.558  27.576  1.00  0.00     0.031 C 
ATOM     61  C   UNL A   1      45.541  31.151  28.417  1.00  0.00     0.037 A 
BRANCH  48  62
ATOM     62  C   UNL A   1      39.852  28.885  29.329  1.00  0.00     0.064 A 
ATOM     63  C   UNL A   1      39.431  28.680  30.653  1.00  0.00     0.173 A 
ATOM     64  C   UNL A   1      38.901  29.342  28.405  1.00  0.00     0.173 A 
ATOM     65  F   UNL A   1      40.295  28.234  31.577  1.00  0.00    -0.203 F 
ATOM     66  C   UNL A   1      38.102  28.876  31.023  1.00  0.00     0.198 A 
ATOM     67  C   UNL A   1      37.582  29.575  28.787  1.00  0.00     0.198 A 
ATOM     68  F   UNL A   1      39.248  29.563  27.128  1.00  0.00    -0.203 F 
ATOM     69  F   UNL A   1      37.710  28.605  32.275  1.00  0.00    -0.200 F 
ATOM     70  C   UNL A   1      37.181  29.329  30.092  1.00  0.00     0.200 A 
ATOM     71  F   UNL A   1      36.696  30.029  27.890  1.00  0.00    -0.200 F 
ATOM     72  F   UNL A   1      35.903  29.518  30.449  1.00  0.00    -0.200 F 
ENDBRANCH  48  62
BRANCH  49  73
ATOM     73  C   UNL A   1      49.087  26.819  26.085  1.00  0.00     0.064 A 
ATOM     74  C   UNL A   1      50.079  26.309  26.933  1.00  0.00     0.173 A 
ATOM     75  C   UNL A   1      49.420  27.017  24.737  1.00  0.00     0.173 A 
ATOM     76  F   UNL A   1      49.816  26.120  28.235  1.00  0.00    -0.203 F 
ATOM     77  C   UNL A   1      51.358  26.024  26.457  1.00  0.00     0.198 A 
ATOM     78  C   UNL A   1      50.689  26.703  24.255  1.00  0.00     0.198 A 
ATOM     79  F   UNL A   1      48.504  27.495  23.882  1.00  0.00    -0.203 F 
ATOM     80  F   UNL A   1      52.300  25.578  27.298  1.00  0.00    -0.200 F 
ATOM     81  C   UNL A   1      51.659  26.213  25.117  1.00  0.00     0.200 A 
ATOM     82  F   UNL A   1      50.970  26.871  22.956  1.00  0.00    -0.200 F 
ATOM     83  F   UNL A   1      52.886  25.931  24.657  1.00  0.00    -0.200 F 
ENDBRANCH  49  73
BRANCH  61  84
ATOM     84  C   UNL A   1      46.060  32.527  28.724  1.00  0.00     0.064 A 
ATOM     85  C   UNL A   1      45.963  33.580  27.803  1.00  0.00     0.173 A 
ATOM     86  C   UNL A   1      46.628  32.804  29.978  1.00  0.00     0.173 A 
ATOM     87  F   UNL A   1      45.443  33.366  26.585  1.00  0.00    -0.203 F 
ATOM     88  C   UNL A   1      46.441  34.850  28.114  1.00  0.00     0.198 A 
ATOM     89  C   UNL A   1      47.072  34.084  30.299  1.00  0.00     0.198 A 
ATOM     90  F   UNL A   1      46.737  31.836  30.900  1.00  0.00    -0.203 F 
ATOM     91  F   UNL A   1      46.388  35.827  27.198  1.00  0.00    -0.200 F 
ATOM     92  C   UNL A   1      46.987  35.103  29.364  1.00  0.00     0.200 A 
ATOM     93  F   UNL A   1      47.582  34.329  31.514  1.00  0.00    -0.200 F 
ATOM     94  F   UNL A   1      47.437  36.328  29.665  1.00  0.00    -0.200 F 
ENDBRANCH  61  84
ENDBRANCH  35  36
ENDBRANCH  27  30
ENDBRANCH  25  26
ENDBRANCH  24  25
ENDBRANCH   1  24
TORSDOF 13
ENDMDL
