MODEL 1
REMARK VINA RESULT:     -12.1      0.000      0.000
REMARK SMILES O=C(CNC(=O)c1ccco1)Nc1cccc(C(=O)NCCCNC(=O)c2ccc(-c3c4nc(c(-c5c(F)c(F)c(F)c(F)c5F)c5ccc([nH]5)c(-c5c(F)c(F)c(F)c(F)c5F)c5nc(c(-c6c(F)c(F)c(F)c(F)c6F)c6ccc3[nH]6)C=C5)C=C4)cc2)c1
REMARK SMILES IDX 21 1 20 2 18 3 19 4 17 6 13 7 14 8 90 9 15 10 16 11 12 12
REMARK SMILES IDX 1 13 2 14 3 16 4 17 5 18 6 20 7 21 8 22 11 23 9 24 10 25
REMARK SMILES IDX 22 26 23 27 24 28 25 29 26 31 27 32 28 33 89 34 29 35 88 36
REMARK SMILES IDX 30 37 31 38 32 39 82 40 33 41 87 42 81 43 83 44 34 45 86 46
REMARK SMILES IDX 80 47 79 48 35 50 67 51 47 52 66 53 48 54 51 55 65 56 84 57
REMARK SMILES IDX 49 58 50 59 64 61 85 62 52 63 36 64 37 65 45 66 38 67 39 68
REMARK SMILES IDX 43 69 46 70 40 71 41 72 44 73 42 74 68 75 69 76 77 77 70 78
REMARK SMILES IDX 71 79 75 80 78 81 72 82 73 83 76 84 74 85 53 86 54 87 62 88
REMARK SMILES IDX 55 89 56 90 60 91 63 92 57 93 58 94 61 95 59 96
REMARK H PARENT 20 5 12 15 4 19 24 30 83 49 51 60
REMARK Flexibility Score: inf
ROOT
ATOM      1  C   UNL A   1      37.490  20.884  24.619  1.00  0.00     0.118 C 
ENDROOT
BRANCH   1   2
ATOM      2  N   UNL A   1      38.008  22.112  25.213  1.00  0.00    -0.352 N 
ATOM      3  C   UNL A   1      37.386  23.239  25.708  1.00  0.00     0.251 C 
ATOM      4  O   UNL A   1      38.092  24.150  26.138  1.00  0.00    -0.269 OA
ATOM      5  H   UNL A   1      38.991  22.141  25.272  1.00  0.00     0.163 HD
BRANCH   3   6
ATOM      6  C   UNL A   1      35.909  23.426  25.669  1.00  0.00     0.041 A 
ATOM      7  C   UNL A   1      33.980  24.667  24.881  1.00  0.00     0.042 A 
ATOM      8  C   UNL A   1      33.207  24.096  25.897  1.00  0.00     0.026 A 
ATOM      9  C   UNL A   1      35.281  24.202  24.697  1.00  0.00     0.040 A 
ATOM     10  C   UNL A   1      33.767  23.147  26.758  1.00  0.00     0.003 A 
ATOM     11  C   UNL A   1      35.128  22.845  26.672  1.00  0.00     0.014 A 
BRANCH   7  12
ATOM     12  N   UNL A   1      33.466  25.784  24.178  1.00  0.00    -0.325 N 
ATOM     13  O   UNL A   1      33.652  25.058  21.963  1.00  0.00    -0.273 OA
ATOM     14  C   UNL A   1      33.429  25.935  22.796  1.00  0.00     0.243 C 
ATOM     15  H   UNL A   1      33.100  26.521  24.718  1.00  0.00     0.169 HD
BRANCH  14  16
ATOM     16  C   UNL A   1      33.354  27.392  22.334  1.00  0.00     0.216 C 
BRANCH  16  17
ATOM     17  N   UNL A   1      32.014  27.834  22.003  1.00  0.00    -0.340 N 
ATOM     18  C   UNL A   1      31.020  28.303  22.829  1.00  0.00     0.287 C 
ATOM     19  H   UNL A   1      31.782  27.793  21.046  1.00  0.00     0.164 HD
ATOM     20  O   UNL A   1      29.922  28.487  22.310  1.00  0.00    -0.266 OA
BRANCH  18  21
ATOM     21  C   UNL A   1      31.290  28.521  24.235  1.00  0.00     0.191 A 
ATOM     22  C   UNL A   1      31.665  29.625  24.982  1.00  0.00     0.056 A 
ATOM     23  O   UNL A   1      31.134  27.451  25.078  1.00  0.00    -0.459 OA
ATOM     24  C   UNL A   1      31.779  29.196  26.328  1.00  0.00     0.043 A 
ATOM     25  C   UNL A   1      31.441  27.865  26.332  1.00  0.00     0.196 A 
ENDBRANCH  18  21
ENDBRANCH  16  17
ENDBRANCH  14  16
ENDBRANCH   7  12
ENDBRANCH   3   6
ENDBRANCH   1   2
BRANCH   1  26
ATOM     26  C   UNL A   1      38.286  19.634  24.951  1.00  0.00     0.042 C 
BRANCH  26  27
ATOM     27  C   UNL A   1      39.208  19.753  26.150  1.00  0.00     0.118 C 
BRANCH  27  28
ATOM     28  N   UNL A   1      40.403  18.928  26.036  1.00  0.00    -0.352 N 
ATOM     29  C   UNL A   1      41.738  19.244  26.052  1.00  0.00     0.251 C 
ATOM     30  H   UNL A   1      40.219  17.967  25.928  1.00  0.00     0.163 HD
ATOM     31  O   UNL A   1      42.558  18.380  25.749  1.00  0.00    -0.269 OA
BRANCH  29  32
ATOM     32  C   UNL A   1      42.217  20.603  26.401  1.00  0.00     0.039 A 
ATOM     33  C   UNL A   1      42.396  21.531  25.369  1.00  0.00     0.014 A 
ATOM     34  C   UNL A   1      42.543  20.965  27.709  1.00  0.00     0.014 A 
ATOM     35  C   UNL A   1      42.837  22.824  25.660  1.00  0.00     0.010 A 
ATOM     36  C   UNL A   1      42.869  22.286  28.013  1.00  0.00     0.010 A 
ATOM     37  C   UNL A   1      43.036  23.228  26.991  1.00  0.00    -0.014 A 
BRANCH  37  38
ATOM     38  C   UNL A   1      43.414  24.630  27.307  1.00  0.00     0.031 A 
ATOM     39  C   UNL A   1      44.800  25.141  27.021  1.00  0.00     0.074 A 
ATOM     40  C   UNL A   1      42.502  25.441  27.879  1.00  0.00     0.049 A 
ATOM     41  N   UNL A   1      45.287  26.346  27.187  1.00  0.00    -0.248 NA
ATOM     42  C   UNL A   1      45.778  24.170  26.505  1.00  0.00     0.031 C 
ATOM     43  C   UNL A   1      41.150  25.042  28.276  1.00  0.00     0.029 A 
ATOM     44  N   UNL A   1      42.566  26.768  28.217  1.00  0.00    -0.354 N 
ATOM     45  C   UNL A   1      46.620  26.274  26.802  1.00  0.00     0.074 A 
ATOM     46  C   UNL A   1      46.886  24.893  26.461  1.00  0.00     0.031 C 
ATOM     47  C   UNL A   1      40.495  26.112  28.751  1.00  0.00     0.029 A 
ATOM     48  C   UNL A   1      41.392  27.263  28.731  1.00  0.00     0.049 A 
ATOM     49  H   UNL A   1      43.377  27.316  28.102  1.00  0.00     0.167 HD
ATOM     50  C   UNL A   1      47.532  27.272  26.710  1.00  0.00     0.037 A 
ATOM     51  C   UNL A   1      41.070  28.506  29.131  1.00  0.00     0.037 A 
ATOM     52  C   UNL A   1      47.258  28.647  27.040  1.00  0.00     0.049 A 
ATOM     53  C   UNL A   1      42.097  29.599  29.008  1.00  0.00     0.074 A 
ATOM     54  C   UNL A   1      48.093  29.746  26.928  1.00  0.00     0.029 A 
ATOM     55  N   UNL A   1      46.056  29.111  27.554  1.00  0.00    -0.354 N 
ATOM     56  N   UNL A   1      43.327  29.534  28.558  1.00  0.00    -0.248 NA
ATOM     57  C   UNL A   1      41.684  30.940  29.438  1.00  0.00     0.031 C 
ATOM     58  C   UNL A   1      47.416  30.862  27.431  1.00  0.00     0.029 A 
ATOM     59  C   UNL A   1      46.136  30.475  27.792  1.00  0.00     0.049 A 
ATOM     60  H   UNL A   1      45.262  28.554  27.724  1.00  0.00     0.167 HD
ATOM     61  C   UNL A   1      43.826  30.828  28.627  1.00  0.00     0.074 A 
ATOM     62  C   UNL A   1      42.753  31.660  29.131  1.00  0.00     0.031 C 
ATOM     63  C   UNL A   1      45.062  31.287  28.307  1.00  0.00     0.037 A 
BRANCH  50  64
ATOM     64  C   UNL A   1      48.913  26.913  26.231  1.00  0.00     0.064 A 
ATOM     65  C   UNL A   1      49.283  27.038  24.882  1.00  0.00     0.173 A 
ATOM     66  C   UNL A   1      49.889  26.469  27.136  1.00  0.00     0.173 A 
ATOM     67  F   UNL A   1      48.387  27.447  23.971  1.00  0.00    -0.203 F 
ATOM     68  C   UNL A   1      50.566  26.702  24.454  1.00  0.00     0.198 A 
ATOM     69  C   UNL A   1      51.181  26.168  26.710  1.00  0.00     0.198 A 
ATOM     70  F   UNL A   1      49.595  26.335  28.438  1.00  0.00    -0.203 F 
ATOM     71  F   UNL A   1      50.876  26.778  23.152  1.00  0.00    -0.200 F 
ATOM     72  C   UNL A   1      51.516  26.276  25.369  1.00  0.00     0.200 A 
ATOM     73  F   UNL A   1      52.102  25.771  27.598  1.00  0.00    -0.200 F 
ATOM     74  F   UNL A   1      52.751  25.961  24.957  1.00  0.00    -0.200 F 
ENDBRANCH  50  64
BRANCH  51  75
ATOM     75  C   UNL A   1      39.705  28.793  29.648  1.00  0.00     0.064 A 
ATOM     76  C   UNL A   1      38.685  29.237  28.793  1.00  0.00     0.173 A 
ATOM     77  C   UNL A   1      39.391  28.633  31.006  1.00  0.00     0.173 A 
ATOM     78  F   UNL A   1      38.938  29.420  27.488  1.00  0.00    -0.203 F 
ATOM     79  C   UNL A   1      37.415  29.535  29.280  1.00  0.00     0.198 A 
ATOM     80  C   UNL A   1      38.110  28.899  31.485  1.00  0.00     0.198 A 
ATOM     81  F   UNL A   1      40.325  28.202  31.865  1.00  0.00    -0.203 F 
ATOM     82  F   UNL A   1      36.475  30.008  28.450  1.00  0.00    -0.200 F 
ATOM     83  C   UNL A   1      37.126  29.360  30.624  1.00  0.00     0.200 A 
ATOM     84  F   UNL A   1      37.830  28.707  32.782  1.00  0.00    -0.200 F 
ATOM     85  F   UNL A   1      35.903  29.641  31.093  1.00  0.00    -0.200 F 
ENDBRANCH  51  75
BRANCH  63  86
ATOM     86  C   UNL A   1      45.303  32.762  28.476  1.00  0.00     0.064 A 
ATOM     87  C   UNL A   1      45.001  33.682  27.459  1.00  0.00     0.173 A 
ATOM     88  C   UNL A   1      45.853  33.260  29.667  1.00  0.00     0.173 A 
ATOM     89  F   UNL A   1      44.485  33.257  26.296  1.00  0.00    -0.203 F 
ATOM     90  C   UNL A   1      45.292  35.035  27.608  1.00  0.00     0.198 A 
ATOM     91  C   UNL A   1      46.104  34.620  29.828  1.00  0.00     0.198 A 
ATOM     92  F   UNL A   1      46.151  32.428  30.676  1.00  0.00    -0.203 F 
ATOM     93  F   UNL A   1      45.069  35.881  26.592  1.00  0.00    -0.200 F 
ATOM     94  C   UNL A   1      45.838  35.504  28.793  1.00  0.00     0.200 A 
ATOM     95  F   UNL A   1      46.615  35.073  30.980  1.00  0.00    -0.200 F 
ATOM     96  F   UNL A   1      46.123  36.806  28.932  1.00  0.00    -0.200 F 
ENDBRANCH  63  86
ENDBRANCH  37  38
ENDBRANCH  29  32
ENDBRANCH  27  28
ENDBRANCH  26  27
ENDBRANCH   1  26
TORSDOF 14
ENDMDL
MODEL 2
REMARK VINA RESULT:     -11.7      1.352      2.252
REMARK SMILES O=C(CNC(=O)c1ccco1)Nc1cccc(C(=O)NCCCNC(=O)c2ccc(-c3c4nc(c(-c5c(F)c(F)c(F)c(F)c5F)c5ccc([nH]5)c(-c5c(F)c(F)c(F)c(F)c5F)c5nc(c(-c6c(F)c(F)c(F)c(F)c6F)c6ccc3[nH]6)C=C5)C=C4)cc2)c1
REMARK SMILES IDX 21 1 20 2 18 3 19 4 17 6 13 7 14 8 90 9 15 10 16 11 12 12
REMARK SMILES IDX 1 13 2 14 3 16 4 17 5 18 6 20 7 21 8 22 11 23 9 24 10 25
REMARK SMILES IDX 22 26 23 27 24 28 25 29 26 31 27 32 28 33 89 34 29 35 88 36
REMARK SMILES IDX 30 37 31 38 32 39 82 40 33 41 87 42 81 43 83 44 34 45 86 46
REMARK SMILES IDX 80 47 79 48 35 50 67 51 47 52 66 53 48 54 51 55 65 56 84 57
REMARK SMILES IDX 49 58 50 59 64 61 85 62 52 63 36 64 37 65 45 66 38 67 39 68
REMARK SMILES IDX 43 69 46 70 40 71 41 72 44 73 42 74 68 75 69 76 77 77 70 78
REMARK SMILES IDX 71 79 75 80 78 81 72 82 73 83 76 84 74 85 53 86 54 87 62 88
REMARK SMILES IDX 55 89 56 90 60 91 63 92 57 93 58 94 61 95 59 96
REMARK H PARENT 20 5 12 15 4 19 24 30 83 49 51 60
REMARK Flexibility Score: inf
ROOT
ATOM      1  C   UNL A   1      36.991  20.717  24.629  1.00  0.00     0.118 C 
ENDROOT
BRANCH   1   2
ATOM      2  N   UNL A   1      36.140  21.137  25.736  1.00  0.00    -0.352 N 
ATOM      3  C   UNL A   1      34.792  21.422  25.815  1.00  0.00     0.251 C 
ATOM      4  O   UNL A   1      34.339  21.783  26.900  1.00  0.00    -0.269 OA
ATOM      5  H   UNL A   1      36.619  21.237  26.590  1.00  0.00     0.163 HD
BRANCH   3   6
ATOM      6  C   UNL A   1      33.891  21.386  24.630  1.00  0.00     0.041 A 
ATOM      7  C   UNL A   1      32.465  22.553  23.054  1.00  0.00     0.042 A 
ATOM      8  C   UNL A   1      31.869  21.338  22.704  1.00  0.00     0.026 A 
ATOM      9  C   UNL A   1      33.570  22.530  23.902  1.00  0.00     0.040 A 
ATOM     10  C   UNL A   1      32.325  20.143  23.270  1.00  0.00     0.003 A 
ATOM     11  C   UNL A   1      33.304  20.171  24.264  1.00  0.00     0.014 A 
BRANCH   7  12
ATOM     12  N   UNL A   1      31.841  23.760  22.651  1.00  0.00    -0.325 N 
ATOM     13  O   UNL A   1      33.653  24.940  21.762  1.00  0.00    -0.273 OA
ATOM     14  C   UNL A   1      32.483  24.880  22.134  1.00  0.00     0.243 C 
ATOM     15  H   UNL A   1      30.862  23.809  22.746  1.00  0.00     0.169 HD
BRANCH  14  16
ATOM     16  C   UNL A   1      31.694  26.181  22.307  1.00  0.00     0.216 C 
BRANCH  16  17
ATOM     17  N   UNL A   1      32.303  27.118  23.228  1.00  0.00    -0.340 N 
ATOM     18  C   UNL A   1      32.245  27.155  24.602  1.00  0.00     0.287 C 
ATOM     19  H   UNL A   1      32.837  27.832  22.810  1.00  0.00     0.164 HD
ATOM     20  O   UNL A   1      32.745  28.140  25.141  1.00  0.00    -0.266 OA
BRANCH  18  21
ATOM     21  C   UNL A   1      31.592  26.087  25.328  1.00  0.00     0.191 A 
ATOM     22  C   UNL A   1      30.284  25.847  25.715  1.00  0.00     0.056 A 
ATOM     23  O   UNL A   1      32.370  25.032  25.729  1.00  0.00    -0.459 OA
ATOM     24  C   UNL A   1      30.277  24.614  26.414  1.00  0.00     0.043 A 
ATOM     25  C   UNL A   1      31.573  24.157  26.390  1.00  0.00     0.196 A 
ENDBRANCH  18  21
ENDBRANCH  16  17
ENDBRANCH  14  16
ENDBRANCH   7  12
ENDBRANCH   3   6
ENDBRANCH   1   2
BRANCH   1  26
ATOM     26  C   UNL A   1      37.987  19.622  24.974  1.00  0.00     0.042 C 
BRANCH  26  27
ATOM     27  C   UNL A   1      39.046  20.008  25.990  1.00  0.00     0.118 C 
BRANCH  27  28
ATOM     28  N   UNL A   1      40.216  19.142  25.953  1.00  0.00    -0.352 N 
ATOM     29  C   UNL A   1      41.558  19.413  26.041  1.00  0.00     0.251 C 
ATOM     30  H   UNL A   1      40.005  18.187  25.844  1.00  0.00     0.163 HD
ATOM     31  O   UNL A   1      42.363  18.517  25.794  1.00  0.00    -0.269 OA
BRANCH  29  32
ATOM     32  C   UNL A   1      42.063  20.759  26.403  1.00  0.00     0.039 A 
ATOM     33  C   UNL A   1      42.301  21.678  25.376  1.00  0.00     0.014 A 
ATOM     34  C   UNL A   1      42.356  21.114  27.720  1.00  0.00     0.014 A 
ATOM     35  C   UNL A   1      42.768  22.959  25.679  1.00  0.00     0.010 A 
ATOM     36  C   UNL A   1      42.709  22.427  28.033  1.00  0.00     0.010 A 
ATOM     37  C   UNL A   1      42.935  23.361  27.015  1.00  0.00    -0.014 A 
BRANCH  37  38
ATOM     38  C   UNL A   1      43.341  24.753  27.341  1.00  0.00     0.031 A 
ATOM     39  C   UNL A   1      44.740  25.236  27.063  1.00  0.00     0.074 A 
ATOM     40  C   UNL A   1      42.445  25.580  27.914  1.00  0.00     0.049 A 
ATOM     41  N   UNL A   1      45.252  26.429  27.238  1.00  0.00    -0.248 NA
ATOM     42  C   UNL A   1      45.699  24.247  26.545  1.00  0.00     0.031 C 
ATOM     43  C   UNL A   1      41.083  25.207  28.303  1.00  0.00     0.029 A 
ATOM     44  N   UNL A   1      42.536  26.904  28.259  1.00  0.00    -0.354 N 
ATOM     45  C   UNL A   1      46.585  26.331  26.858  1.00  0.00     0.074 A 
ATOM     46  C   UNL A   1      46.822  24.946  26.510  1.00  0.00     0.031 C 
ATOM     47  C   UNL A   1      40.450  26.289  28.781  1.00  0.00     0.029 A 
ATOM     48  C   UNL A   1      41.370  27.420  28.771  1.00  0.00     0.049 A 
ATOM     49  H   UNL A   1      43.358  27.435  28.151  1.00  0.00     0.167 HD
ATOM     50  C   UNL A   1      47.518  27.310  26.776  1.00  0.00     0.037 A 
ATOM     51  C   UNL A   1      41.073  28.668  29.177  1.00  0.00     0.037 A 
ATOM     52  C   UNL A   1      47.272  28.688  27.112  1.00  0.00     0.049 A 
ATOM     53  C   UNL A   1      42.124  29.739  29.065  1.00  0.00     0.074 A 
ATOM     54  C   UNL A   1      48.130  29.769  27.010  1.00  0.00     0.029 A 
ATOM     55  N   UNL A   1      46.078  29.175  27.624  1.00  0.00    -0.354 N 
ATOM     56  N   UNL A   1      43.354  29.651  28.619  1.00  0.00    -0.248 NA
ATOM     57  C   UNL A   1      41.738  31.086  29.501  1.00  0.00     0.031 C 
ATOM     58  C   UNL A   1      47.476  30.897  27.517  1.00  0.00     0.029 A 
ATOM     59  C   UNL A   1      46.186  30.536  27.871  1.00  0.00     0.049 A 
ATOM     60  H   UNL A   1      45.272  28.634  27.788  1.00  0.00     0.167 HD
ATOM     61  C   UNL A   1      43.881  30.933  28.698  1.00  0.00     0.074 A 
ATOM     62  C   UNL A   1      42.823  31.785  29.203  1.00  0.00     0.031 C 
ATOM     63  C   UNL A   1      45.128  31.368  28.386  1.00  0.00     0.037 A 
BRANCH  50  64
ATOM     64  C   UNL A   1      48.892  26.924  26.300  1.00  0.00     0.064 A 
ATOM     65  C   UNL A   1      49.861  26.408  27.177  1.00  0.00     0.173 A 
ATOM     66  C   UNL A   1      49.236  27.039  24.944  1.00  0.00     0.173 A 
ATOM     67  F   UNL A   1      49.591  26.287  28.485  1.00  0.00    -0.203 F 
ATOM     68  C   UNL A   1      51.129  26.055  26.720  1.00  0.00     0.198 A 
ATOM     69  C   UNL A   1      50.493  26.650  24.485  1.00  0.00     0.198 A 
ATOM     70  F   UNL A   1      48.351  27.519  24.059  1.00  0.00    -0.203 F 
ATOM     71  F   UNL A   1      52.053  25.618  27.588  1.00  0.00    -0.200 F 
ATOM     72  C   UNL A   1      51.441  26.168  25.375  1.00  0.00     0.200 A 
ATOM     73  F   UNL A   1      50.788  26.747  23.182  1.00  0.00    -0.200 F 
ATOM     74  F   UNL A   1      52.659  25.820  24.936  1.00  0.00    -0.200 F 
ENDBRANCH  50  64
BRANCH  51  75
ATOM     75  C   UNL A   1      39.713  28.981  29.691  1.00  0.00     0.064 A 
ATOM     76  C   UNL A   1      39.385  28.781  31.040  1.00  0.00     0.173 A 
ATOM     77  C   UNL A   1      38.713  29.484  28.846  1.00  0.00     0.173 A 
ATOM     78  F   UNL A   1      40.302  28.288  31.886  1.00  0.00    -0.203 F 
ATOM     79  C   UNL A   1      38.103  29.044  31.517  1.00  0.00     0.198 A 
ATOM     80  C   UNL A   1      37.441  29.780  29.333  1.00  0.00     0.198 A 
ATOM     81  F   UNL A   1      38.975  29.704  27.550  1.00  0.00    -0.203 F 
ATOM     82  F   UNL A   1      37.803  28.793  32.799  1.00  0.00    -0.200 F 
ATOM     83  C   UNL A   1      37.134  29.550  30.665  1.00  0.00     0.200 A 
ATOM     84  F   UNL A   1      36.514  30.289  28.510  1.00  0.00    -0.200 F 
ATOM     85  F   UNL A   1      35.902  29.810  31.124  1.00  0.00    -0.200 F 
ENDBRANCH  51  75
BRANCH  63  86
ATOM     86  C   UNL A   1      45.399  32.836  28.564  1.00  0.00     0.064 A 
ATOM     87  C   UNL A   1      45.140  33.765  27.544  1.00  0.00     0.173 A 
ATOM     88  C   UNL A   1      45.936  33.317  29.768  1.00  0.00     0.173 A 
ATOM     89  F   UNL A   1      44.639  33.356  26.369  1.00  0.00    -0.203 F 
ATOM     90  C   UNL A   1      45.459  35.111  27.703  1.00  0.00     0.198 A 
ATOM     91  C   UNL A   1      46.215  34.671  29.938  1.00  0.00     0.198 A 
ATOM     92  F   UNL A   1      46.193  32.477  30.780  1.00  0.00    -0.203 F 
ATOM     93  F   UNL A   1      45.277  35.965  26.686  1.00  0.00    -0.200 F 
ATOM     94  C   UNL A   1      45.992  35.564  28.901  1.00  0.00     0.200 A 
ATOM     95  F   UNL A   1      46.713  35.109  31.102  1.00  0.00    -0.200 F 
ATOM     96  F   UNL A   1      46.303  36.858  29.050  1.00  0.00    -0.200 F 
ENDBRANCH  63  86
ENDBRANCH  37  38
ENDBRANCH  29  32
ENDBRANCH  27  28
ENDBRANCH  26  27
ENDBRANCH   1  26
TORSDOF 14
ENDMDL
MODEL 3
REMARK VINA RESULT:     -11.7      1.370      2.283
REMARK SMILES O=C(CNC(=O)c1ccco1)Nc1cccc(C(=O)NCCCNC(=O)c2ccc(-c3c4nc(c(-c5c(F)c(F)c(F)c(F)c5F)c5ccc([nH]5)c(-c5c(F)c(F)c(F)c(F)c5F)c5nc(c(-c6c(F)c(F)c(F)c(F)c6F)c6ccc3[nH]6)C=C5)C=C4)cc2)c1
REMARK SMILES IDX 21 1 20 2 18 3 19 4 17 6 13 7 14 8 90 9 15 10 16 11 12 12
REMARK SMILES IDX 1 13 2 14 3 16 4 17 5 18 6 20 7 21 8 22 11 23 9 24 10 25
REMARK SMILES IDX 22 26 23 27 24 28 25 29 26 31 27 32 28 33 89 34 29 35 88 36
REMARK SMILES IDX 30 37 31 38 32 39 82 40 33 41 87 42 81 43 83 44 34 45 86 46
REMARK SMILES IDX 80 47 79 48 35 50 67 51 47 52 66 53 48 54 51 55 65 56 84 57
REMARK SMILES IDX 49 58 50 59 64 61 85 62 52 63 36 64 37 65 45 66 38 67 39 68
REMARK SMILES IDX 43 69 46 70 40 71 41 72 44 73 42 74 68 75 69 76 77 77 70 78
REMARK SMILES IDX 71 79 75 80 78 81 72 82 73 83 76 84 74 85 53 86 54 87 62 88
REMARK SMILES IDX 55 89 56 90 60 91 63 92 57 93 58 94 61 95 59 96
REMARK H PARENT 20 5 12 15 4 19 24 30 83 49 51 60
REMARK Flexibility Score: inf
ROOT
ATOM      1  C   UNL A   1      36.908  20.624  24.652  1.00  0.00     0.118 C 
ENDROOT
BRANCH   1   2
ATOM      2  N   UNL A   1      35.997  20.943  25.745  1.00  0.00    -0.352 N 
ATOM      3  C   UNL A   1      34.637  21.178  25.782  1.00  0.00     0.251 C 
ATOM      4  O   UNL A   1      34.126  21.452  26.867  1.00  0.00    -0.269 OA
ATOM      5  H   UNL A   1      36.435  21.003  26.624  1.00  0.00     0.163 HD
BRANCH   3   6
ATOM      6  C   UNL A   1      33.788  21.189  24.558  1.00  0.00     0.041 A 
ATOM      7  C   UNL A   1      32.419  22.416  22.977  1.00  0.00     0.042 A 
ATOM      8  C   UNL A   1      31.853  21.213  22.545  1.00  0.00     0.026 A 
ATOM      9  C   UNL A   1      33.486  22.363  23.871  1.00  0.00     0.040 A 
ATOM     10  C   UNL A   1      32.298  19.997  23.074  1.00  0.00     0.003 A 
ATOM     11  C   UNL A   1      33.232  19.987  24.111  1.00  0.00     0.014 A 
BRANCH   7  12
ATOM     12  N   UNL A   1      31.799  23.634  22.605  1.00  0.00    -0.325 N 
ATOM     13  O   UNL A   1      33.624  24.848  21.792  1.00  0.00    -0.273 OA
ATOM     14  C   UNL A   1      32.447  24.773  22.139  1.00  0.00     0.243 C 
ATOM     15  H   UNL A   1      30.818  23.678  22.682  1.00  0.00     0.169 HD
BRANCH  14  16
ATOM     16  C   UNL A   1      31.651  26.065  22.341  1.00  0.00     0.216 C 
BRANCH  16  17
ATOM     17  N   UNL A   1      31.703  26.580  23.694  1.00  0.00    -0.340 N 
ATOM     18  C   UNL A   1      31.108  27.699  24.227  1.00  0.00     0.287 C 
ATOM     19  H   UNL A   1      32.243  26.049  24.325  1.00  0.00     0.164 HD
ATOM     20  O   UNL A   1      31.422  27.986  25.380  1.00  0.00    -0.266 OA
BRANCH  18  21
ATOM     21  C   UNL A   1      30.195  28.485  23.424  1.00  0.00     0.191 A 
ATOM     22  C   UNL A   1      30.338  29.606  22.624  1.00  0.00     0.056 A 
ATOM     23  O   UNL A   1      28.888  28.071  23.373  1.00  0.00    -0.459 OA
ATOM     24  C   UNL A   1      29.057  29.908  22.098  1.00  0.00     0.043 A 
ATOM     25  C   UNL A   1      28.211  28.939  22.582  1.00  0.00     0.196 A 
ENDBRANCH  18  21
ENDBRANCH  16  17
ENDBRANCH  14  16
ENDBRANCH   7  12
ENDBRANCH   3   6
ENDBRANCH   1   2
BRANCH   1  26
ATOM     26  C   UNL A   1      37.963  19.583  24.989  1.00  0.00     0.042 C 
BRANCH  26  27
ATOM     27  C   UNL A   1      39.047  20.047  25.943  1.00  0.00     0.118 C 
BRANCH  27  28
ATOM     28  N   UNL A   1      40.213  19.175  25.950  1.00  0.00    -0.352 N 
ATOM     29  C   UNL A   1      41.554  19.440  26.068  1.00  0.00     0.251 C 
ATOM     30  H   UNL A   1      40.001  18.219  25.851  1.00  0.00     0.163 HD
ATOM     31  O   UNL A   1      42.361  18.537  25.856  1.00  0.00    -0.269 OA
BRANCH  29  32
ATOM     32  C   UNL A   1      42.057  20.790  26.422  1.00  0.00     0.039 A 
ATOM     33  C   UNL A   1      42.262  21.714  25.391  1.00  0.00     0.014 A 
ATOM     34  C   UNL A   1      42.379  21.144  27.732  1.00  0.00     0.014 A 
ATOM     35  C   UNL A   1      42.726  22.998  25.686  1.00  0.00     0.010 A 
ATOM     36  C   UNL A   1      42.728  22.459  28.039  1.00  0.00     0.010 A 
ATOM     37  C   UNL A   1      42.922  23.397  27.019  1.00  0.00    -0.014 A 
BRANCH  37  38
ATOM     38  C   UNL A   1      43.325  24.792  27.339  1.00  0.00     0.031 A 
ATOM     39  C   UNL A   1      44.717  25.282  27.043  1.00  0.00     0.074 A 
ATOM     40  C   UNL A   1      42.431  25.615  27.922  1.00  0.00     0.049 A 
ATOM     41  N   UNL A   1      45.224  26.479  27.211  1.00  0.00    -0.248 NA
ATOM     42  C   UNL A   1      45.675  24.299  26.515  1.00  0.00     0.031 C 
ATOM     43  C   UNL A   1      41.076  25.235  28.328  1.00  0.00     0.029 A 
ATOM     44  N   UNL A   1      42.519  26.939  28.265  1.00  0.00    -0.354 N 
ATOM     45  C   UNL A   1      46.553  26.387  26.815  1.00  0.00     0.074 A 
ATOM     46  C   UNL A   1      46.794  25.004  26.466  1.00  0.00     0.031 C 
ATOM     47  C   UNL A   1      40.442  26.313  28.812  1.00  0.00     0.029 A 
ATOM     48  C   UNL A   1      41.356  27.450  28.790  1.00  0.00     0.049 A 
ATOM     49  H   UNL A   1      43.337  27.474  28.146  1.00  0.00     0.167 HD
ATOM     50  C   UNL A   1      47.480  27.371  26.721  1.00  0.00     0.037 A 
ATOM     51  C   UNL A   1      41.058  28.696  29.199  1.00  0.00     0.037 A 
ATOM     52  C   UNL A   1      47.231  28.748  27.059  1.00  0.00     0.049 A 
ATOM     53  C   UNL A   1      42.101  29.773  29.073  1.00  0.00     0.074 A 
ATOM     54  C   UNL A   1      48.082  29.834  26.946  1.00  0.00     0.029 A 
ATOM     55  N   UNL A   1      46.040  29.229  27.585  1.00  0.00    -0.354 N 
ATOM     56  N   UNL A   1      43.326  29.691  28.613  1.00  0.00    -0.248 NA
ATOM     57  C   UNL A   1      41.713  31.119  29.513  1.00  0.00     0.031 C 
ATOM     58  C   UNL A   1      47.427  30.959  27.460  1.00  0.00     0.029 A 
ATOM     59  C   UNL A   1      46.144  30.591  27.829  1.00  0.00     0.049 A 
ATOM     60  H   UNL A   1      45.239  28.684  27.759  1.00  0.00     0.167 HD
ATOM     61  C   UNL A   1      43.847  30.976  28.684  1.00  0.00     0.074 A 
ATOM     62  C   UNL A   1      42.791  31.823  29.201  1.00  0.00     0.031 C 
ATOM     63  C   UNL A   1      45.087  31.417  28.356  1.00  0.00     0.037 A 
BRANCH  50  64
ATOM     64  C   UNL A   1      48.851  26.992  26.229  1.00  0.00     0.064 A 
ATOM     65  C   UNL A   1      49.193  27.059  24.869  1.00  0.00     0.173 A 
ATOM     66  C   UNL A   1      49.846  26.588  27.132  1.00  0.00     0.173 A 
ATOM     67  F   UNL A   1      48.278  27.429  23.960  1.00  0.00    -0.203 F 
ATOM     68  C   UNL A   1      50.467  26.706  24.429  1.00  0.00     0.198 A 
ATOM     69  C   UNL A   1      51.130  26.269  26.693  1.00  0.00     0.198 A 
ATOM     70  F   UNL A   1      49.580  26.510  28.444  1.00  0.00    -0.203 F 
ATOM     71  F   UNL A   1      50.750  26.726  23.119  1.00  0.00    -0.200 F 
ATOM     72  C   UNL A   1      51.436  26.320  25.341  1.00  0.00     0.200 A 
ATOM     73  F   UNL A   1      52.069  25.911  27.578  1.00  0.00    -0.200 F 
ATOM     74  F   UNL A   1      52.664  25.988  24.918  1.00  0.00    -0.200 F 
ENDBRANCH  50  64
BRANCH  51  75
ATOM     75  C   UNL A   1      39.702  29.003  29.729  1.00  0.00     0.064 A 
ATOM     76  C   UNL A   1      39.391  28.802  31.082  1.00  0.00     0.173 A 
ATOM     77  C   UNL A   1      38.688  29.499  28.896  1.00  0.00     0.173 A 
ATOM     78  F   UNL A   1      40.322  28.316  31.917  1.00  0.00    -0.203 F 
ATOM     79  C   UNL A   1      38.114  29.059  31.574  1.00  0.00     0.198 A 
ATOM     80  C   UNL A   1      37.421  29.788  29.397  1.00  0.00     0.198 A 
ATOM     81  F   UNL A   1      38.934  29.719  27.596  1.00  0.00    -0.203 F 
ATOM     82  F   UNL A   1      37.830  28.808  32.860  1.00  0.00    -0.200 F 
ATOM     83  C   UNL A   1      37.131  29.558  30.733  1.00  0.00     0.200 A 
ATOM     84  F   UNL A   1      36.481  30.291  28.585  1.00  0.00    -0.200 F 
ATOM     85  F   UNL A   1      35.904  29.812  31.207  1.00  0.00    -0.200 F 
ENDBRANCH  51  75
BRANCH  63  86
ATOM     86  C   UNL A   1      45.353  32.887  28.530  1.00  0.00     0.064 A 
ATOM     87  C   UNL A   1      45.907  33.404  29.711  1.00  0.00     0.173 A 
ATOM     88  C   UNL A   1      45.039  33.791  27.504  1.00  0.00     0.173 A 
ATOM     89  F   UNL A   1      46.214  32.584  30.728  1.00  0.00    -0.203 F 
ATOM     90  C   UNL A   1      46.085  34.774  29.880  1.00  0.00     0.198 A 
ATOM     91  C   UNL A   1      45.257  35.158  27.660  1.00  0.00     0.198 A 
ATOM     92  F   UNL A   1      44.517  33.353  26.349  1.00  0.00    -0.203 F 
ATOM     93  F   UNL A   1      46.541  35.250  31.048  1.00  0.00    -0.200 F 
ATOM     94  C   UNL A   1      45.765  35.650  28.853  1.00  0.00     0.200 A 
ATOM     95  F   UNL A   1      44.964  36.000  26.660  1.00  0.00    -0.200 F 
ATOM     96  F   UNL A   1      45.931  36.968  29.019  1.00  0.00    -0.200 F 
ENDBRANCH  63  86
ENDBRANCH  37  38
ENDBRANCH  29  32
ENDBRANCH  27  28
ENDBRANCH  26  27
ENDBRANCH   1  26
TORSDOF 14
ENDMDL
