MODEL 1
REMARK VINA RESULT:     -12.1      0.000      0.000
REMARK SMILES O=C(NCCCNC(=O)[C@H]1CSCN1C(=O)Nc1ccc(F)cc1F)c1ccc(-c2c3nc(c(-c4c(F)c(F)c(F)c(F)c4F)c4ccc([nH]4)c(-c4c(F)c(F)c(F)c(F)c4F)c4nc(c(-c5c(F)c(F)c(F)c(F)c5F)c5ccc2[nH]5)C=C4)C=C3)cc1
REMARK SMILES IDX 5 1 4 2 3 3 1 4 2 5 26 7 27 8 88 9 28 10 87 11 29 12 30 13
REMARK SMILES IDX 31 14 81 15 32 16 86 17 80 18 82 19 33 20 85 21 79 22 78 23
REMARK SMILES IDX 34 25 66 26 46 27 65 28 47 29 50 30 64 31 83 32 48 33 49 34
REMARK SMILES IDX 63 36 84 37 51 38 35 39 36 40 44 41 37 42 38 43 42 44 45 45
REMARK SMILES IDX 39 46 40 47 43 48 41 49 67 50 68 51 76 52 69 53 70 54 74 55
REMARK SMILES IDX 77 56 71 57 72 58 75 59 73 60 52 61 53 62 61 63 54 64 55 65
REMARK SMILES IDX 59 66 62 67 56 68 57 69 60 70 58 71 6 72 7 73 8 74 9 76
REMARK SMILES IDX 10 77 11 78 14 79 12 80 13 81 15 82 16 83 17 84 18 86 19 87
REMARK SMILES IDX 24 88 20 89 23 90 25 91 21 92 22 93
REMARK H PARENT 3 6 82 24 50 35 7 75 17 85
REMARK Flexibility Score: inf
ROOT
ATOM      1  C   UNL A   1      31.054  31.953  26.265  1.00  0.00     0.042 C 
ENDROOT
BRANCH   1   2
ATOM      2  C   UNL A   1      32.350  32.468  26.858  1.00  0.00     0.118 C 
BRANCH   2   3
ATOM      3  N   UNL A   1      32.255  33.829  27.368  1.00  0.00    -0.352 N 
ATOM      4  O   UNL A   1      32.629  35.608  28.692  1.00  0.00    -0.269 OA
ATOM      5  C   UNL A   1      32.988  34.500  28.323  1.00  0.00     0.251 C 
ATOM      6  H   UNL A   1      31.539  34.366  26.957  1.00  0.00     0.163 HD
BRANCH   5   7
ATOM      7  C   UNL A   1      34.186  33.877  28.934  1.00  0.00     0.039 A 
ATOM      8  C   UNL A   1      34.078  32.746  29.736  1.00  0.00     0.014 A 
ATOM      9  C   UNL A   1      35.449  34.420  28.675  1.00  0.00     0.014 A 
ATOM     10  C   UNL A   1      35.179  32.293  30.450  1.00  0.00     0.010 A 
ATOM     11  C   UNL A   1      36.586  33.873  29.285  1.00  0.00     0.010 A 
ATOM     12  C   UNL A   1      36.453  32.827  30.209  1.00  0.00    -0.014 A 
BRANCH  12  13
ATOM     13  C   UNL A   1      37.626  32.208  30.881  1.00  0.00     0.031 A 
ATOM     14  C   UNL A   1      38.008  32.575  32.287  1.00  0.00     0.074 A 
ATOM     15  C   UNL A   1      38.316  31.260  30.215  1.00  0.00     0.049 A 
ATOM     16  N   UNL A   1      38.994  32.114  33.016  1.00  0.00    -0.248 NA
ATOM     17  C   UNL A   1      37.190  33.592  32.966  1.00  0.00     0.031 C 
ATOM     18  C   UNL A   1      38.036  30.825  28.843  1.00  0.00     0.029 A 
ATOM     19  N   UNL A   1      39.367  30.468  30.602  1.00  0.00    -0.354 N 
ATOM     20  C   UNL A   1      38.928  32.796  34.224  1.00  0.00     0.074 A 
ATOM     21  C   UNL A   1      37.819  33.720  34.127  1.00  0.00     0.031 C 
ATOM     22  C   UNL A   1      38.842  29.803  28.530  1.00  0.00     0.029 A 
ATOM     23  C   UNL A   1      39.756  29.567  29.639  1.00  0.00     0.049 A 
ATOM     24  H   UNL A   1      39.801  30.538  31.482  1.00  0.00     0.167 HD
ATOM     25  C   UNL A   1      39.721  32.654  35.313  1.00  0.00     0.037 A 
ATOM     26  C   UNL A   1      40.754  28.664  29.635  1.00  0.00     0.037 A 
ATOM     27  C   UNL A   1      40.806  31.710  35.408  1.00  0.00     0.049 A 
ATOM     28  C   UNL A   1      41.631  28.550  30.848  1.00  0.00     0.074 A 
ATOM     29  C   UNL A   1      41.648  31.472  36.481  1.00  0.00     0.029 A 
ATOM     30  N   UNL A   1      41.198  30.847  34.395  1.00  0.00    -0.354 N 
ATOM     31  N   UNL A   1      41.549  29.196  31.984  1.00  0.00    -0.248 NA
ATOM     32  C   UNL A   1      42.743  27.596  30.773  1.00  0.00     0.031 C 
ATOM     33  C   UNL A   1      42.578  30.501  36.102  1.00  0.00     0.029 A 
ATOM     34  C   UNL A   1      42.284  30.094  34.811  1.00  0.00     0.049 A 
ATOM     35  H   UNL A   1      40.768  30.781  33.511  1.00  0.00     0.167 HD
ATOM     36  C   UNL A   1      42.591  28.721  32.766  1.00  0.00     0.074 A 
ATOM     37  C   UNL A   1      43.276  27.714  31.981  1.00  0.00     0.031 C 
ATOM     38  C   UNL A   1      42.952  29.093  34.018  1.00  0.00     0.037 A 
BRANCH  25  39
ATOM     39  C   UNL A   1      39.464  33.535  36.501  1.00  0.00     0.064 A 
ATOM     40  C   UNL A   1      40.101  34.780  36.610  1.00  0.00     0.173 A 
ATOM     41  C   UNL A   1      38.674  33.106  37.578  1.00  0.00     0.173 A 
ATOM     42  F   UNL A   1      40.874  35.234  35.612  1.00  0.00    -0.203 F 
ATOM     43  C   UNL A   1      39.974  35.554  37.761  1.00  0.00     0.198 A 
ATOM     44  C   UNL A   1      38.529  33.895  38.717  1.00  0.00     0.198 A 
ATOM     45  F   UNL A   1      38.035  31.929  37.519  1.00  0.00    -0.203 F 
ATOM     46  F   UNL A   1      40.625  36.722  37.858  1.00  0.00    -0.200 F 
ATOM     47  C   UNL A   1      39.188  35.110  38.813  1.00  0.00     0.200 A 
ATOM     48  F   UNL A   1      37.753  33.474  39.727  1.00  0.00    -0.200 F 
ATOM     49  F   UNL A   1      39.067  35.855  39.922  1.00  0.00    -0.200 F 
ENDBRANCH  25  39
BRANCH  26  50
ATOM     50  C   UNL A   1      40.972  27.817  28.434  1.00  0.00     0.064 A 
ATOM     51  C   UNL A   1      41.784  28.252  27.376  1.00  0.00     0.173 A 
ATOM     52  C   UNL A   1      40.343  26.573  28.303  1.00  0.00     0.173 A 
ATOM     53  F   UNL A   1      42.405  29.439  27.449  1.00  0.00    -0.203 F 
ATOM     54  C   UNL A   1      41.936  27.487  26.221  1.00  0.00     0.198 A 
ATOM     55  C   UNL A   1      40.522  25.793  27.162  1.00  0.00     0.198 A 
ATOM     56  F   UNL A   1      39.570  26.105  29.295  1.00  0.00    -0.203 F 
ATOM     57  F   UNL A   1      42.679  27.950  25.208  1.00  0.00    -0.200 F 
ATOM     58  C   UNL A   1      41.310  26.256  26.118  1.00  0.00     0.200 A 
ATOM     59  F   UNL A   1      39.935  24.592  27.076  1.00  0.00    -0.200 F 
ATOM     60  F   UNL A   1      41.467  25.514  25.014  1.00  0.00    -0.200 F 
ENDBRANCH  26  50
BRANCH  38  61
ATOM     61  C   UNL A   1      44.132  28.397  34.629  1.00  0.00     0.064 A 
ATOM     62  C   UNL A   1      43.957  27.214  35.361  1.00  0.00     0.173 A 
ATOM     63  C   UNL A   1      45.422  28.938  34.545  1.00  0.00     0.173 A 
ATOM     64  F   UNL A   1      42.740  26.662  35.476  1.00  0.00    -0.203 F 
ATOM     65  C   UNL A   1      45.033  26.605  36.000  1.00  0.00     0.198 A 
ATOM     66  C   UNL A   1      46.500  28.310  35.161  1.00  0.00     0.198 A 
ATOM     67  F   UNL A   1      45.639  30.060  33.843  1.00  0.00    -0.203 F 
ATOM     68  F   UNL A   1      44.838  25.493  36.723  1.00  0.00    -0.200 F 
ATOM     69  C   UNL A   1      46.303  27.150  35.897  1.00  0.00     0.200 A 
ATOM     70  F   UNL A   1      47.731  28.824  35.039  1.00  0.00    -0.200 F 
ATOM     71  F   UNL A   1      47.340  26.556  36.503  1.00  0.00    -0.200 F 
ENDBRANCH  38  61
ENDBRANCH  12  13
ENDBRANCH   5   7
ENDBRANCH   2   3
ENDBRANCH   1   2
BRANCH   1  72
ATOM     72  C   UNL A   1      31.181  30.679  25.456  1.00  0.00     0.117 C 
BRANCH  72  73
ATOM     73  N   UNL A   1      32.360  29.875  25.729  1.00  0.00    -0.354 N 
ATOM     74  C   UNL A   1      32.786  28.739  25.077  1.00  0.00     0.243 C 
ATOM     75  H   UNL A   1      32.925  30.180  26.473  1.00  0.00     0.163 HD
ATOM     76  O   UNL A   1      33.978  28.447  25.172  1.00  0.00    -0.273 OA
BRANCH  74  77
ATOM     77  C   UNL A   1      31.757  27.904  24.279  1.00  0.00     0.187 C 
ATOM     78  C   UNL A   1      32.125  27.959  22.780  1.00  0.00     0.106 C 
ATOM     79  N   UNL A   1      31.643  26.476  24.615  1.00  0.00    -0.302 N 
ATOM     80  S   UNL A   1      31.694  26.372  22.034  1.00  0.00    -0.138 SA
ATOM     81  C   UNL A   1      30.958  25.771  23.551  1.00  0.00     0.192 C 
BRANCH  79  82
ATOM     82  C   UNL A   1      31.509  26.056  25.921  1.00  0.00     0.323 C 
ATOM     83  O   UNL A   1      30.739  26.607  26.707  1.00  0.00    -0.248 OA
ATOM     84  N   UNL A   1      32.181  24.926  26.316  1.00  0.00    -0.305 N 
ATOM     85  H   UNL A   1      31.875  24.532  27.166  1.00  0.00     0.171 HD
BRANCH  84  86
ATOM     86  C   UNL A   1      33.242  24.246  25.688  1.00  0.00     0.079 A 
ATOM     87  C   UNL A   1      34.529  24.788  25.578  1.00  0.00     0.032 A 
ATOM     88  C   UNL A   1      32.943  23.054  25.015  1.00  0.00     0.149 A 
ATOM     89  C   UNL A   1      35.447  24.219  24.692  1.00  0.00     0.041 A 
ATOM     90  C   UNL A   1      33.845  22.496  24.117  1.00  0.00     0.080 A 
ATOM     91  F   UNL A   1      31.716  22.520  25.119  1.00  0.00    -0.205 F 
ATOM     92  C   UNL A   1      35.083  23.102  23.945  1.00  0.00     0.126 A 
ATOM     93  F   UNL A   1      35.930  22.620  23.027  1.00  0.00    -0.207 F 
ENDBRANCH  84  86
ENDBRANCH  79  82
ENDBRANCH  74  77
ENDBRANCH  72  73
ENDBRANCH   1  72
TORSDOF 12
ENDMDL
MODEL 2
REMARK VINA RESULT:     -12.1      5.274     10.659
REMARK SMILES O=C(NCCCNC(=O)[C@H]1CSCN1C(=O)Nc1ccc(F)cc1F)c1ccc(-c2c3nc(c(-c4c(F)c(F)c(F)c(F)c4F)c4ccc([nH]4)c(-c4c(F)c(F)c(F)c(F)c4F)c4nc(c(-c5c(F)c(F)c(F)c(F)c5F)c5ccc2[nH]5)C=C4)C=C3)cc1
REMARK SMILES IDX 5 1 4 2 3 3 1 4 2 5 26 7 27 8 88 9 28 10 87 11 29 12 30 13
REMARK SMILES IDX 31 14 81 15 32 16 86 17 80 18 82 19 33 20 85 21 79 22 78 23
REMARK SMILES IDX 34 25 66 26 46 27 65 28 47 29 50 30 64 31 83 32 48 33 49 34
REMARK SMILES IDX 63 36 84 37 51 38 35 39 36 40 44 41 37 42 38 43 42 44 45 45
REMARK SMILES IDX 39 46 40 47 43 48 41 49 67 50 68 51 76 52 69 53 70 54 74 55
REMARK SMILES IDX 77 56 71 57 72 58 75 59 73 60 52 61 53 62 61 63 54 64 55 65
REMARK SMILES IDX 59 66 62 67 56 68 57 69 60 70 58 71 6 72 7 73 8 74 9 76
REMARK SMILES IDX 10 77 11 78 14 79 12 80 13 81 15 82 16 83 17 84 18 86 19 87
REMARK SMILES IDX 24 88 20 89 23 90 25 91 21 92 22 93
REMARK H PARENT 3 6 82 24 50 35 7 75 17 85
REMARK Flexibility Score: inf
ROOT
ATOM      1  C   UNL A   1      37.853  19.675  24.811  1.00  0.00     0.042 C 
ENDROOT
BRANCH   1   2
ATOM      2  C   UNL A   1      38.935  20.145  25.763  1.00  0.00     0.118 C 
BRANCH   2   3
ATOM      3  N   UNL A   1      40.055  19.221  25.870  1.00  0.00    -0.352 N 
ATOM      4  O   UNL A   1      42.182  18.505  26.003  1.00  0.00    -0.269 OA
ATOM      5  C   UNL A   1      41.398  19.436  26.098  1.00  0.00     0.251 C 
ATOM      6  H   UNL A   1      39.810  18.274  25.761  1.00  0.00     0.163 HD
BRANCH   5   7
ATOM      7  C   UNL A   1      41.903  20.791  26.420  1.00  0.00     0.039 A 
ATOM      8  C   UNL A   1      42.122  21.184  27.736  1.00  0.00     0.014 A 
ATOM      9  C   UNL A   1      42.191  21.682  25.379  1.00  0.00     0.014 A 
ATOM     10  C   UNL A   1      42.410  22.510  28.028  1.00  0.00     0.010 A 
ATOM     11  C   UNL A   1      42.621  22.982  25.669  1.00  0.00     0.010 A 
ATOM     12  C   UNL A   1      42.697  23.419  26.999  1.00  0.00    -0.014 A 
BRANCH  12  13
ATOM     13  C   UNL A   1      43.151  24.788  27.362  1.00  0.00     0.031 A 
ATOM     14  C   UNL A   1      44.550  25.251  27.073  1.00  0.00     0.074 A 
ATOM     15  C   UNL A   1      42.255  25.632  27.912  1.00  0.00     0.049 A 
ATOM     16  N   UNL A   1      45.095  26.418  27.315  1.00  0.00    -0.248 NA
ATOM     17  C   UNL A   1      45.464  24.288  26.440  1.00  0.00     0.031 C 
ATOM     18  C   UNL A   1      40.868  25.289  28.240  1.00  0.00     0.029 A 
ATOM     19  N   UNL A   1      42.357  26.954  28.264  1.00  0.00    -0.354 N 
ATOM     20  C   UNL A   1      46.412  26.322  26.886  1.00  0.00     0.074 A 
ATOM     21  C   UNL A   1      46.597  24.977  26.387  1.00  0.00     0.031 C 
ATOM     22  C   UNL A   1      40.232  26.383  28.675  1.00  0.00     0.029 A 
ATOM     23  C   UNL A   1      41.184  27.484  28.746  1.00  0.00     0.049 A 
ATOM     24  H   UNL A   1      43.189  27.472  28.181  1.00  0.00     0.167 HD
ATOM     25  C   UNL A   1      47.372  27.278  26.904  1.00  0.00     0.037 A 
ATOM     26  C   UNL A   1      40.905  28.713  29.216  1.00  0.00     0.037 A 
ATOM     27  C   UNL A   1      47.168  28.624  27.378  1.00  0.00     0.049 A 
ATOM     28  C   UNL A   1      41.999  29.740  29.247  1.00  0.00     0.074 A 
ATOM     29  C   UNL A   1      48.073  29.671  27.409  1.00  0.00     0.029 A 
ATOM     30  N   UNL A   1      45.978  29.108  27.902  1.00  0.00    -0.354 N 
ATOM     31  N   UNL A   1      43.236  29.637  28.829  1.00  0.00    -0.248 NA
ATOM     32  C   UNL A   1      41.663  31.047  29.826  1.00  0.00     0.031 C 
ATOM     33  C   UNL A   1      47.446  30.774  27.995  1.00  0.00     0.029 A 
ATOM     34  C   UNL A   1      46.134  30.432  28.280  1.00  0.00     0.049 A 
ATOM     35  H   UNL A   1      45.147  28.588  27.991  1.00  0.00     0.167 HD
ATOM     36  C   UNL A   1      43.826  30.865  29.084  1.00  0.00     0.074 A 
ATOM     37  C   UNL A   1      42.803  31.707  29.670  1.00  0.00     0.031 C 
ATOM     38  C   UNL A   1      45.104  31.257  28.859  1.00  0.00     0.037 A 
BRANCH  25  39
ATOM     39  C   UNL A   1      48.741  26.920  26.404  1.00  0.00     0.064 A 
ATOM     40  C   UNL A   1      49.072  27.105  25.053  1.00  0.00     0.173 A 
ATOM     41  C   UNL A   1      49.687  26.297  27.232  1.00  0.00     0.173 A 
ATOM     42  F   UNL A   1      48.201  27.688  24.217  1.00  0.00    -0.203 F 
ATOM     43  C   UNL A   1      50.292  26.662  24.544  1.00  0.00     0.198 A 
ATOM     44  C   UNL A   1      50.916  25.879  26.724  1.00  0.00     0.198 A 
ATOM     45  F   UNL A   1      49.424  26.105  28.532  1.00  0.00    -0.203 F 
ATOM     46  F   UNL A   1      50.569  26.815  23.242  1.00  0.00    -0.200 F 
ATOM     47  C   UNL A   1      51.212  26.050  25.381  1.00  0.00     0.200 A 
ATOM     48  F   UNL A   1      51.813  25.304  27.539  1.00  0.00    -0.200 F 
ATOM     49  F   UNL A   1      52.385  25.623  24.891  1.00  0.00    -0.200 F 
ENDBRANCH  25  39
BRANCH  26  50
ATOM     50  C   UNL A   1      39.536  29.019  29.704  1.00  0.00     0.064 A 
ATOM     51  C   UNL A   1      39.177  28.806  31.044  1.00  0.00     0.173 A 
ATOM     52  C   UNL A   1      38.547  29.494  28.833  1.00  0.00     0.173 A 
ATOM     53  F   UNL A   1      40.085  28.346  31.918  1.00  0.00    -0.203 F 
ATOM     54  C   UNL A   1      37.875  29.030  31.487  1.00  0.00     0.198 A 
ATOM     55  C   UNL A   1      37.254  29.750  29.284  1.00  0.00     0.198 A 
ATOM     56  F   UNL A   1      38.845  29.731  27.546  1.00  0.00    -0.203 F 
ATOM     57  F   UNL A   1      37.550  28.772  32.760  1.00  0.00    -0.200 F 
ATOM     58  C   UNL A   1      36.916  29.508  30.608  1.00  0.00     0.200 A 
ATOM     59  F   UNL A   1      36.336  30.235  28.437  1.00  0.00    -0.200 F 
ATOM     60  F   UNL A   1      35.668  29.736  31.036  1.00  0.00    -0.200 F 
ENDBRANCH  26  50
BRANCH  38  61
ATOM     61  C   UNL A   1      45.468  32.663  29.231  1.00  0.00     0.064 A 
ATOM     62  C   UNL A   1      45.951  32.954  30.516  1.00  0.00     0.173 A 
ATOM     63  C   UNL A   1      45.276  33.727  28.340  1.00  0.00     0.173 A 
ATOM     64  F   UNL A   1      46.143  31.970  31.406  1.00  0.00    -0.203 F 
ATOM     65  C   UNL A   1      46.214  34.266  30.898  1.00  0.00     0.198 A 
ATOM     66  C   UNL A   1      45.569  35.035  28.717  1.00  0.00     0.198 A 
ATOM     67  F   UNL A   1      44.831  33.495  27.096  1.00  0.00    -0.203 F 
ATOM     68  F   UNL A   1      46.643  34.526  32.142  1.00  0.00    -0.200 F 
ATOM     69  C   UNL A   1      46.028  35.304  29.999  1.00  0.00     0.200 A 
ATOM     70  F   UNL A   1      45.413  36.034  27.838  1.00  0.00    -0.200 F 
ATOM     71  F   UNL A   1      46.294  36.565  30.364  1.00  0.00    -0.200 F 
ENDBRANCH  38  61
ENDBRANCH  12  13
ENDBRANCH   5   7
ENDBRANCH   2   3
ENDBRANCH   1   2
BRANCH   1  72
ATOM     72  C   UNL A   1      36.496  20.318  25.014  1.00  0.00     0.117 C 
BRANCH  72  73
ATOM     73  N   UNL A   1      36.514  21.734  25.341  1.00  0.00    -0.354 N 
ATOM     74  C   UNL A   1      35.443  22.572  25.555  1.00  0.00     0.243 C 
ATOM     75  H   UNL A   1      37.404  22.146  25.420  1.00  0.00     0.163 HD
ATOM     76  O   UNL A   1      35.648  23.596  26.208  1.00  0.00    -0.273 OA
BRANCH  74  77
ATOM     77  C   UNL A   1      34.064  22.188  24.968  1.00  0.00     0.187 C 
ATOM     78  C   UNL A   1      33.126  21.778  26.125  1.00  0.00     0.106 C 
ATOM     79  N   UNL A   1      33.343  23.224  24.211  1.00  0.00    -0.302 N 
ATOM     80  S   UNL A   1      31.448  22.294  25.702  1.00  0.00    -0.138 SA
ATOM     81  C   UNL A   1      31.948  22.857  24.078  1.00  0.00     0.192 C 
BRANCH  79  82
ATOM     82  C   UNL A   1      33.965  23.948  23.218  1.00  0.00     0.323 C 
ATOM     83  O   UNL A   1      34.625  23.406  22.332  1.00  0.00    -0.248 OA
ATOM     84  N   UNL A   1      33.750  25.303  23.165  1.00  0.00    -0.305 N 
ATOM     85  H   UNL A   1      34.010  25.736  22.320  1.00  0.00     0.171 HD
BRANCH  84  86
ATOM     86  C   UNL A   1      33.214  26.166  24.141  1.00  0.00     0.079 A 
ATOM     87  C   UNL A   1      33.907  26.516  25.306  1.00  0.00     0.032 A 
ATOM     88  C   UNL A   1      31.874  26.553  24.001  1.00  0.00     0.149 A 
ATOM     89  C   UNL A   1      33.223  27.114  26.367  1.00  0.00     0.041 A 
ATOM     90  C   UNL A   1      31.184  27.129  25.061  1.00  0.00     0.080 A 
ATOM     91  F   UNL A   1      31.201  26.231  22.886  1.00  0.00    -0.205 F 
ATOM     92  C   UNL A   1      31.862  27.381  26.246  1.00  0.00     0.126 A 
ATOM     93  F   UNL A   1      31.190  27.863  27.299  1.00  0.00    -0.207 F 
ENDBRANCH  84  86
ENDBRANCH  79  82
ENDBRANCH  74  77
ENDBRANCH  72  73
ENDBRANCH   1  72
TORSDOF 12
ENDMDL
MODEL 3
REMARK VINA RESULT:     -12.1      5.287     10.633
REMARK SMILES O=C(NCCCNC(=O)[C@H]1CSCN1C(=O)Nc1ccc(F)cc1F)c1ccc(-c2c3nc(c(-c4c(F)c(F)c(F)c(F)c4F)c4ccc([nH]4)c(-c4c(F)c(F)c(F)c(F)c4F)c4nc(c(-c5c(F)c(F)c(F)c(F)c5F)c5ccc2[nH]5)C=C4)C=C3)cc1
REMARK SMILES IDX 5 1 4 2 3 3 1 4 2 5 26 7 27 8 88 9 28 10 87 11 29 12 30 13
REMARK SMILES IDX 31 14 81 15 32 16 86 17 80 18 82 19 33 20 85 21 79 22 78 23
REMARK SMILES IDX 34 25 66 26 46 27 65 28 47 29 50 30 64 31 83 32 48 33 49 34
REMARK SMILES IDX 63 36 84 37 51 38 35 39 36 40 44 41 37 42 38 43 42 44 45 45
REMARK SMILES IDX 39 46 40 47 43 48 41 49 67 50 68 51 76 52 69 53 70 54 74 55
REMARK SMILES IDX 77 56 71 57 72 58 75 59 73 60 52 61 53 62 61 63 54 64 55 65
REMARK SMILES IDX 59 66 62 67 56 68 57 69 60 70 58 71 6 72 7 73 8 74 9 76
REMARK SMILES IDX 10 77 11 78 14 79 12 80 13 81 15 82 16 83 17 84 18 86 19 87
REMARK SMILES IDX 24 88 20 89 23 90 25 91 21 92 22 93
REMARK H PARENT 3 6 82 24 50 35 7 75 17 85
REMARK Flexibility Score: inf
ROOT
ATOM      1  C   UNL A   1      37.865  19.584  24.831  1.00  0.00     0.042 C 
ENDROOT
BRANCH   1   2
ATOM      2  C   UNL A   1      38.950  20.104  25.754  1.00  0.00     0.118 C 
BRANCH   2   3
ATOM      3  N   UNL A   1      40.081  19.197  25.888  1.00  0.00    -0.352 N 
ATOM      4  O   UNL A   1      42.217  18.513  26.054  1.00  0.00    -0.269 OA
ATOM      5  C   UNL A   1      41.419  19.434  26.126  1.00  0.00     0.251 C 
ATOM      6  H   UNL A   1      39.851  18.245  25.791  1.00  0.00     0.163 HD
BRANCH   5   7
ATOM      7  C   UNL A   1      41.902  20.802  26.432  1.00  0.00     0.039 A 
ATOM      8  C   UNL A   1      42.206  21.183  27.734  1.00  0.00     0.014 A 
ATOM      9  C   UNL A   1      42.080  21.715  25.387  1.00  0.00     0.014 A 
ATOM     10  C   UNL A   1      42.471  22.514  28.025  1.00  0.00     0.010 A 
ATOM     11  C   UNL A   1      42.489  23.026  25.665  1.00  0.00     0.010 A 
ATOM     12  C   UNL A   1      42.649  23.447  26.993  1.00  0.00    -0.014 A 
BRANCH  12  13
ATOM     13  C   UNL A   1      43.084  24.825  27.342  1.00  0.00     0.031 A 
ATOM     14  C   UNL A   1      44.478  25.304  27.053  1.00  0.00     0.074 A 
ATOM     15  C   UNL A   1      42.175  25.662  27.883  1.00  0.00     0.049 A 
ATOM     16  N   UNL A   1      45.005  26.481  27.284  1.00  0.00    -0.248 NA
ATOM     17  C   UNL A   1      45.406  24.347  26.431  1.00  0.00     0.031 C 
ATOM     18  C   UNL A   1      40.792  25.303  28.211  1.00  0.00     0.029 A 
ATOM     19  N   UNL A   1      42.259  26.989  28.222  1.00  0.00    -0.354 N 
ATOM     20  C   UNL A   1      46.324  26.399  26.859  1.00  0.00     0.074 A 
ATOM     21  C   UNL A   1      46.529  25.052  26.374  1.00  0.00     0.031 C 
ATOM     22  C   UNL A   1      40.141  26.393  28.634  1.00  0.00     0.029 A 
ATOM     23  C   UNL A   1      41.077  27.508  28.696  1.00  0.00     0.049 A 
ATOM     24  H   UNL A   1      43.084  27.518  28.135  1.00  0.00     0.167 HD
ATOM     25  C   UNL A   1      47.272  27.368  26.869  1.00  0.00     0.037 A 
ATOM     26  C   UNL A   1      40.781  28.737  29.153  1.00  0.00     0.037 A 
ATOM     27  C   UNL A   1      47.048  28.715  27.330  1.00  0.00     0.049 A 
ATOM     28  C   UNL A   1      41.860  29.780  29.177  1.00  0.00     0.074 A 
ATOM     29  C   UNL A   1      47.938  29.775  27.352  1.00  0.00     0.029 A 
ATOM     30  N   UNL A   1      45.851  29.189  27.846  1.00  0.00    -0.354 N 
ATOM     31  N   UNL A   1      43.100  29.689  28.762  1.00  0.00    -0.248 NA
ATOM     32  C   UNL A   1      41.506  31.088  29.741  1.00  0.00     0.031 C 
ATOM     33  C   UNL A   1      47.296  30.875  27.925  1.00  0.00     0.029 A 
ATOM     34  C   UNL A   1      45.988  30.519  28.211  1.00  0.00     0.049 A 
ATOM     35  H   UNL A   1      45.026  28.659  27.938  1.00  0.00     0.167 HD
ATOM     36  C   UNL A   1      43.673  30.928  29.006  1.00  0.00     0.074 A 
ATOM     37  C   UNL A   1      42.636  31.762  29.581  1.00  0.00     0.031 C 
ATOM     38  C   UNL A   1      44.945  31.335  28.780  1.00  0.00     0.037 A 
BRANCH  25  39
ATOM     39  C   UNL A   1      48.647  27.024  26.376  1.00  0.00     0.064 A 
ATOM     40  C   UNL A   1      48.959  27.137  25.012  1.00  0.00     0.173 A 
ATOM     41  C   UNL A   1      49.620  26.483  27.228  1.00  0.00     0.173 A 
ATOM     42  F   UNL A   1      48.061  27.641  24.153  1.00  0.00    -0.203 F 
ATOM     43  C   UNL A   1      50.187  26.703  24.517  1.00  0.00     0.198 A 
ATOM     44  C   UNL A   1      50.857  26.073  26.733  1.00  0.00     0.198 A 
ATOM     45  F   UNL A   1      49.376  26.362  28.541  1.00  0.00    -0.203 F 
ATOM     46  F   UNL A   1      50.446  26.785  23.204  1.00  0.00    -0.200 F 
ATOM     47  C   UNL A   1      51.134  26.172  25.378  1.00  0.00     0.200 A 
ATOM     48  F   UNL A   1      51.780  25.577  27.570  1.00  0.00    -0.200 F 
ATOM     49  F   UNL A   1      52.315  25.753  24.901  1.00  0.00    -0.200 F 
ENDBRANCH  25  39
BRANCH  26  50
ATOM     50  C   UNL A   1      39.406  29.030  29.635  1.00  0.00     0.064 A 
ATOM     51  C   UNL A   1      38.422  29.526  28.767  1.00  0.00     0.173 A 
ATOM     52  C   UNL A   1      39.060  28.857  30.982  1.00  0.00     0.173 A 
ATOM     53  F   UNL A   1      38.704  29.716  27.470  1.00  0.00    -0.203 F 
ATOM     54  C   UNL A   1      37.153  29.863  29.233  1.00  0.00     0.198 A 
ATOM     55  C   UNL A   1      37.781  29.163  31.440  1.00  0.00     0.198 A 
ATOM     56  F   UNL A   1      39.961  28.369  31.848  1.00  0.00    -0.203 F 
ATOM     57  F   UNL A   1      36.249  30.379  28.390  1.00  0.00    -0.200 F 
ATOM     58  C   UNL A   1      36.831  29.676  30.567  1.00  0.00     0.200 A 
ATOM     59  F   UNL A   1      37.465  28.958  32.726  1.00  0.00    -0.200 F 
ATOM     60  F   UNL A   1      35.607  29.987  31.013  1.00  0.00    -0.200 F 
ENDBRANCH  26  50
BRANCH  38  61
ATOM     61  C   UNL A   1      45.289  32.749  29.139  1.00  0.00     0.064 A 
ATOM     62  C   UNL A   1      45.767  33.060  30.421  1.00  0.00     0.173 A 
ATOM     63  C   UNL A   1      45.083  33.802  28.237  1.00  0.00     0.173 A 
ATOM     64  F   UNL A   1      45.973  32.086  31.320  1.00  0.00    -0.203 F 
ATOM     65  C   UNL A   1      46.012  34.379  30.791  1.00  0.00     0.198 A 
ATOM     66  C   UNL A   1      45.357  35.117  28.602  1.00  0.00     0.198 A 
ATOM     67  F   UNL A   1      44.642  33.552  26.996  1.00  0.00    -0.203 F 
ATOM     68  F   UNL A   1      46.436  34.656  32.032  1.00  0.00    -0.200 F 
ATOM     69  C   UNL A   1      45.811  35.405  29.881  1.00  0.00     0.200 A 
ATOM     70  F   UNL A   1      45.187  36.106  27.714  1.00  0.00    -0.200 F 
ATOM     71  F   UNL A   1      46.059  36.673  30.235  1.00  0.00    -0.200 F 
ENDBRANCH  38  61
ENDBRANCH  12  13
ENDBRANCH   5   7
ENDBRANCH   2   3
ENDBRANCH   1   2
BRANCH   1  72
ATOM     72  C   UNL A   1      36.510  20.237  25.003  1.00  0.00     0.117 C 
BRANCH  72  73
ATOM     73  N   UNL A   1      36.531  21.650  25.340  1.00  0.00    -0.354 N 
ATOM     74  C   UNL A   1      35.461  22.487  25.570  1.00  0.00     0.243 C 
ATOM     75  H   UNL A   1      37.421  22.062  25.413  1.00  0.00     0.163 HD
ATOM     76  O   UNL A   1      35.673  23.506  26.228  1.00  0.00    -0.273 OA
BRANCH  74  77
ATOM     77  C   UNL A   1      34.077  22.107  24.993  1.00  0.00     0.187 C 
ATOM     78  C   UNL A   1      33.147  21.698  26.157  1.00  0.00     0.106 C 
ATOM     79  N   UNL A   1      33.352  23.146  24.244  1.00  0.00    -0.302 N 
ATOM     80  S   UNL A   1      31.467  22.218  25.749  1.00  0.00    -0.138 SA
ATOM     81  C   UNL A   1      31.955  22.782  24.121  1.00  0.00     0.192 C 
BRANCH  79  82
ATOM     82  C   UNL A   1      33.968  23.870  23.246  1.00  0.00     0.323 C 
ATOM     83  O   UNL A   1      34.651  23.331  22.376  1.00  0.00    -0.248 OA
ATOM     84  N   UNL A   1      33.722  25.218  23.172  1.00  0.00    -0.305 N 
ATOM     85  H   UNL A   1      33.981  25.645  22.323  1.00  0.00     0.171 HD
BRANCH  84  86
ATOM     86  C   UNL A   1      33.154  26.083  24.128  1.00  0.00     0.079 A 
ATOM     87  C   UNL A   1      33.810  26.437  25.313  1.00  0.00     0.032 A 
ATOM     88  C   UNL A   1      31.818  26.467  23.946  1.00  0.00     0.149 A 
ATOM     89  C   UNL A   1      33.092  27.036  26.351  1.00  0.00     0.041 A 
ATOM     90  C   UNL A   1      31.094  27.044  24.983  1.00  0.00     0.080 A 
ATOM     91  F   UNL A   1      31.181  26.141  22.811  1.00  0.00    -0.205 F 
ATOM     92  C   UNL A   1      31.735  27.299  26.188  1.00  0.00     0.126 A 
ATOM     93  F   UNL A   1      31.030  27.782  27.218  1.00  0.00    -0.207 F 
ENDBRANCH  84  86
ENDBRANCH  79  82
ENDBRANCH  74  77
ENDBRANCH  72  73
ENDBRANCH   1  72
TORSDOF 12
ENDMDL
