MODEL 1
REMARK VINA RESULT:     -13.0      0.000      0.000
REMARK SMILES CC1=C2C(=O)N(C[C@H]3CCCO3)C(=O)N=C2S[C@@H]1C(=O)NCCCNC(=O)c1ccc(-c2c3nc(c(-c4c(F)c(F)c(F)c(F)c4F)c4ccc([nH]4)c(-c4c(F)c(F)c(F)c(F)c4F)c4nc(c(-c5c(F)c(F)c(F)c(F)c5F)c5ccc2[nH]5)C=C4)C=C3)cc1
REMARK SMILES IDX 23 1 22 2 21 3 19 4 20 5 18 7 1 8 2 9 3 10 4 11 16 12 17 13
REMARK SMILES IDX 5 14 6 15 15 16 13 17 14 18 7 19 8 20 9 21 12 22 10 23 11 24
REMARK SMILES IDX 24 25 25 26 26 27 27 29 28 30 29 31 90 32 30 33 89 34 31 35
REMARK SMILES IDX 32 36 33 37 83 38 34 39 88 40 82 41 84 42 35 43 87 44 81 45
REMARK SMILES IDX 80 46 36 48 68 49 48 50 67 51 49 52 52 53 66 54 85 55 50 56
REMARK SMILES IDX 51 57 65 59 86 60 53 61 37 62 38 63 46 64 39 65 40 66 44 67
REMARK SMILES IDX 47 68 41 69 42 70 45 71 43 72 69 73 70 74 78 75 71 76 72 77
REMARK SMILES IDX 76 78 79 79 73 80 74 81 77 82 75 83 54 84 55 85 63 86 56 87
REMARK SMILES IDX 57 88 61 89 64 90 58 91 59 92 62 93 60 94
REMARK H PARENT 21 6 25 28 84 47 52 58
REMARK Flexibility Score: inf
ROOT
ATOM      1  C   UNL A   1      31.367  32.436  26.504  1.00  0.00     0.042 C 
ENDROOT
BRANCH   1   2
ATOM      2  C   UNL A   1      31.377  30.920  26.375  1.00  0.00     0.117 C 
BRANCH   2   3
ATOM      3  N   UNL A   1      31.008  30.475  25.043  1.00  0.00    -0.355 N 
ATOM      4  C   UNL A   1      31.287  29.329  24.356  1.00  0.00     0.237 C 
ATOM      5  O   UNL A   1      30.815  29.236  23.218  1.00  0.00    -0.273 OA
ATOM      6  H   UNL A   1      30.455  31.118  24.543  1.00  0.00     0.163 HD
BRANCH   4   7
ATOM      7  C   UNL A   1      32.106  28.170  24.946  1.00  0.00     0.169 C 
ATOM      8  C   UNL A   1      34.087  28.387  23.309  1.00  0.00     0.042 C 
ATOM      9  C   UNL A   1      33.068  27.526  23.988  1.00  0.00    -0.035 C 
ATOM     10  C   UNL A   1      32.910  26.205  23.827  1.00  0.00     0.073 C 
ATOM     11  C   UNL A   1      33.557  25.290  22.897  1.00  0.00     0.264 C 
ATOM     12  C   UNL A   1      31.900  25.614  24.681  1.00  0.00     0.116 C 
ATOM     13  S   UNL A   1      31.008  26.831  25.540  1.00  0.00    -0.087 SA
ATOM     14  O   UNL A   1      33.909  25.672  21.791  1.00  0.00    -0.268 OA
ATOM     15  N   UNL A   1      33.587  24.001  23.367  1.00  0.00    -0.256 N 
ATOM     16  N   UNL A   1      31.680  24.357  24.792  1.00  0.00    -0.186 NA
ATOM     17  C   UNL A   1      32.540  23.488  24.151  1.00  0.00     0.351 C 
ATOM     18  O   UNL A   1      32.388  22.277  24.285  1.00  0.00    -0.246 OA
BRANCH  15  19
ATOM     19  C   UNL A   1      34.733  23.137  23.074  1.00  0.00     0.163 C 
BRANCH  19  20
ATOM     20  C   UNL A   1      36.022  23.260  23.914  1.00  0.00     0.138 C 
ATOM     21  C   UNL A   1      35.899  23.996  25.246  1.00  0.00     0.036 C 
ATOM     22  O   UNL A   1      36.403  21.908  24.287  1.00  0.00    -0.376 OA
ATOM     23  C   UNL A   1      35.461  22.929  26.209  1.00  0.00     0.031 C 
ATOM     24  C   UNL A   1      36.200  21.720  25.697  1.00  0.00     0.160 C 
ENDBRANCH  19  20
ENDBRANCH  15  19
ENDBRANCH   4   7
ENDBRANCH   2   3
ENDBRANCH   1   2
BRANCH   1  25
ATOM     25  C   UNL A   1      32.617  32.992  27.171  1.00  0.00     0.118 C 
BRANCH  25  26
ATOM     26  N   UNL A   1      32.422  34.347  27.671  1.00  0.00    -0.352 N 
ATOM     27  C   UNL A   1      33.025  34.999  28.715  1.00  0.00     0.251 C 
ATOM     28  H   UNL A   1      31.751  34.876  27.183  1.00  0.00     0.163 HD
ATOM     29  O   UNL A   1      32.582  36.081  29.089  1.00  0.00    -0.269 OA
BRANCH  27  30
ATOM     30  C   UNL A   1      34.195  34.409  29.399  1.00  0.00     0.039 A 
ATOM     31  C   UNL A   1      33.984  33.662  30.562  1.00  0.00     0.014 A 
ATOM     32  C   UNL A   1      35.495  34.621  28.929  1.00  0.00     0.014 A 
ATOM     33  C   UNL A   1      35.071  33.085  31.222  1.00  0.00     0.010 A 
ATOM     34  C   UNL A   1      36.568  33.984  29.545  1.00  0.00     0.010 A 
ATOM     35  C   UNL A   1      36.368  33.219  30.702  1.00  0.00    -0.014 A 
BRANCH  35  36
ATOM     36  C   UNL A   1      37.531  32.589  31.371  1.00  0.00     0.031 A 
ATOM     37  C   UNL A   1      38.272  31.471  30.693  1.00  0.00     0.074 A 
ATOM     38  C   UNL A   1      37.887  32.989  32.606  1.00  0.00     0.049 A 
ATOM     39  N   UNL A   1      39.258  30.737  31.144  1.00  0.00    -0.248 NA
ATOM     40  C   UNL A   1      37.829  31.111  29.337  1.00  0.00     0.031 C 
ATOM     41  C   UNL A   1      37.221  34.036  33.383  1.00  0.00     0.029 A 
ATOM     42  N   UNL A   1      38.895  32.554  33.430  1.00  0.00    -0.354 N 
ATOM     43  C   UNL A   1      39.543  29.827  30.134  1.00  0.00     0.074 A 
ATOM     44  C   UNL A   1      38.596  30.065  29.068  1.00  0.00     0.031 C 
ATOM     45  C   UNL A   1      37.851  34.177  34.561  1.00  0.00     0.029 A 
ATOM     46  C   UNL A   1      38.944  33.212  34.634  1.00  0.00     0.049 A 
ATOM     47  H   UNL A   1      39.524  31.839  33.181  1.00  0.00     0.167 HD
ATOM     48  C   UNL A   1      40.522  28.892  30.092  1.00  0.00     0.037 A 
ATOM     49  C   UNL A   1      39.776  33.049  35.679  1.00  0.00     0.037 A 
ATOM     50  C   UNL A   1      41.481  28.674  31.142  1.00  0.00     0.049 A 
ATOM     51  C   UNL A   1      40.864  32.015  35.597  1.00  0.00     0.074 A 
ATOM     52  C   UNL A   1      42.521  27.762  31.188  1.00  0.00     0.029 A 
ATOM     53  N   UNL A   1      41.523  29.389  32.329  1.00  0.00    -0.354 N 
ATOM     54  N   UNL A   1      41.141  31.181  34.625  1.00  0.00    -0.248 NA
ATOM     55  C   UNL A   1      41.760  31.904  36.757  1.00  0.00     0.031 C 
ATOM     56  C   UNL A   1      43.184  27.914  32.411  1.00  0.00     0.029 A 
ATOM     57  C   UNL A   1      42.573  28.941  33.113  1.00  0.00     0.049 A 
ATOM     58  H   UNL A   1      40.898  30.109  32.579  1.00  0.00     0.167 HD
ATOM     59  C   UNL A   1      42.257  30.468  35.042  1.00  0.00     0.074 A 
ATOM     60  C   UNL A   1      42.614  30.977  36.349  1.00  0.00     0.031 C 
ATOM     61  C   UNL A   1      42.923  29.477  34.402  1.00  0.00     0.037 A 
BRANCH  48  62
ATOM     62  C   UNL A   1      40.617  28.047  28.859  1.00  0.00     0.064 A 
ATOM     63  C   UNL A   1      39.884  26.857  28.735  1.00  0.00     0.173 A 
ATOM     64  C   UNL A   1      41.414  28.445  27.776  1.00  0.00     0.173 A 
ATOM     65  F   UNL A   1      39.120  26.427  29.750  1.00  0.00    -0.203 F 
ATOM     66  C   UNL A   1      39.959  26.088  27.578  1.00  0.00     0.198 A 
ATOM     67  C   UNL A   1      41.468  27.685  26.610  1.00  0.00     0.198 A 
ATOM     68  F   UNL A   1      42.133  29.576  27.844  1.00  0.00    -0.203 F 
ATOM     69  F   UNL A   1      39.278  24.936  27.496  1.00  0.00    -0.200 F 
ATOM     70  C   UNL A   1      40.744  26.506  26.514  1.00  0.00     0.200 A 
ATOM     71  F   UNL A   1      42.220  28.094  25.579  1.00  0.00    -0.200 F 
ATOM     72  F   UNL A   1      40.808  25.767  25.397  1.00  0.00    -0.200 F 
ENDBRANCH  48  62
BRANCH  49  73
ATOM     73  C   UNL A   1      39.636  33.905  36.884  1.00  0.00     0.064 A 
ATOM     74  C   UNL A   1      38.862  33.486  37.975  1.00  0.00     0.173 A 
ATOM     75  C   UNL A   1      40.253  35.161  36.963  1.00  0.00     0.173 A 
ATOM     76  F   UNL A   1      38.235  32.301  37.934  1.00  0.00    -0.203 F 
ATOM     77  C   UNL A   1      38.687  34.303  39.089  1.00  0.00     0.198 A 
ATOM     78  C   UNL A   1      40.098  35.967  38.089  1.00  0.00     0.198 A 
ATOM     79  F   UNL A   1      41.008  35.604  35.947  1.00  0.00    -0.203 F 
ATOM     80  F   UNL A   1      37.900  33.900  40.095  1.00  0.00    -0.200 F 
ATOM     81  C   UNL A   1      39.308  35.542  39.146  1.00  0.00     0.200 A 
ATOM     82  F   UNL A   1      40.706  37.160  38.145  1.00  0.00    -0.200 F 
ATOM     83  F   UNL A   1      39.135  36.330  40.216  1.00  0.00    -0.200 F 
ENDBRANCH  49  73
BRANCH  61  84
ATOM     84  C   UNL A   1      44.128  28.911  35.089  1.00  0.00     0.064 A 
ATOM     85  C   UNL A   1      44.027  27.815  35.958  1.00  0.00     0.173 A 
ATOM     86  C   UNL A   1      45.399  29.453  34.850  1.00  0.00     0.173 A 
ATOM     87  F   UNL A   1      42.829  27.276  36.228  1.00  0.00    -0.203 F 
ATOM     88  C   UNL A   1      45.157  27.297  36.585  1.00  0.00     0.198 A 
ATOM     89  C   UNL A   1      46.529  28.916  35.461  1.00  0.00     0.198 A 
ATOM     90  F   UNL A   1      45.545  30.498  34.023  1.00  0.00    -0.203 F 
ATOM     91  F   UNL A   1      45.034  26.277  37.445  1.00  0.00    -0.200 F 
ATOM     92  C   UNL A   1      46.406  27.844  36.332  1.00  0.00     0.200 A 
ATOM     93  F   UNL A   1      47.737  29.440  35.210  1.00  0.00    -0.200 F 
ATOM     94  F   UNL A   1      47.492  27.342  36.935  1.00  0.00    -0.200 F 
ENDBRANCH  61  84
ENDBRANCH  35  36
ENDBRANCH  27  30
ENDBRANCH  25  26
ENDBRANCH   1  25
TORSDOF 12
ENDMDL
MODEL 2
REMARK VINA RESULT:     -12.9      0.211      1.597
REMARK SMILES CC1=C2C(=O)N(C[C@H]3CCCO3)C(=O)N=C2S[C@@H]1C(=O)NCCCNC(=O)c1ccc(-c2c3nc(c(-c4c(F)c(F)c(F)c(F)c4F)c4ccc([nH]4)c(-c4c(F)c(F)c(F)c(F)c4F)c4nc(c(-c5c(F)c(F)c(F)c(F)c5F)c5ccc2[nH]5)C=C4)C=C3)cc1
REMARK SMILES IDX 23 1 22 2 21 3 19 4 20 5 18 7 1 8 2 9 3 10 4 11 16 12 17 13
REMARK SMILES IDX 5 14 6 15 15 16 13 17 14 18 7 19 8 20 9 21 12 22 10 23 11 24
REMARK SMILES IDX 24 25 25 26 26 27 27 29 28 30 29 31 90 32 30 33 89 34 31 35
REMARK SMILES IDX 32 36 33 37 83 38 34 39 88 40 82 41 84 42 35 43 87 44 81 45
REMARK SMILES IDX 80 46 36 48 68 49 48 50 67 51 49 52 52 53 66 54 85 55 50 56
REMARK SMILES IDX 51 57 65 59 86 60 53 61 37 62 38 63 46 64 39 65 40 66 44 67
REMARK SMILES IDX 47 68 41 69 42 70 45 71 43 72 69 73 70 74 78 75 71 76 72 77
REMARK SMILES IDX 76 78 79 79 73 80 74 81 77 82 75 83 54 84 55 85 63 86 56 87
REMARK SMILES IDX 57 88 61 89 64 90 58 91 59 92 62 93 60 94
REMARK H PARENT 21 6 25 28 84 47 52 58
REMARK Flexibility Score: inf
ROOT
ATOM      1  C   UNL A   1      31.408  32.436  26.498  1.00  0.00     0.042 C 
ENDROOT
BRANCH   1   2
ATOM      2  C   UNL A   1      31.414  30.921  26.363  1.00  0.00     0.117 C 
BRANCH   2   3
ATOM      3  N   UNL A   1      31.053  30.483  25.026  1.00  0.00    -0.355 N 
ATOM      4  C   UNL A   1      31.339  29.342  24.334  1.00  0.00     0.237 C 
ATOM      5  O   UNL A   1      30.874  29.255  23.192  1.00  0.00    -0.273 OA
ATOM      6  H   UNL A   1      30.502  31.127  24.527  1.00  0.00     0.163 HD
BRANCH   4   7
ATOM      7  C   UNL A   1      32.158  28.181  24.921  1.00  0.00     0.169 C 
ATOM      8  C   UNL A   1      34.114  28.367  23.251  1.00  0.00     0.042 C 
ATOM      9  C   UNL A   1      33.099  27.520  23.954  1.00  0.00    -0.035 C 
ATOM     10  C   UNL A   1      32.927  26.199  23.807  1.00  0.00     0.073 C 
ATOM     11  C   UNL A   1      33.552  25.270  22.875  1.00  0.00     0.264 C 
ATOM     12  C   UNL A   1      31.926  25.625  24.683  1.00  0.00     0.116 C 
ATOM     13  S   UNL A   1      31.059  26.857  25.545  1.00  0.00    -0.087 SA
ATOM     14  O   UNL A   1      33.889  25.640  21.761  1.00  0.00    -0.268 OA
ATOM     15  N   UNL A   1      33.578  23.985  23.358  1.00  0.00    -0.256 N 
ATOM     16  N   UNL A   1      31.697  24.371  24.809  1.00  0.00    -0.186 NA
ATOM     17  C   UNL A   1      32.540  23.489  24.163  1.00  0.00     0.351 C 
ATOM     18  O   UNL A   1      32.379  22.280  24.310  1.00  0.00    -0.246 OA
BRANCH  15  19
ATOM     19  C   UNL A   1      34.712  23.109  23.054  1.00  0.00     0.163 C 
BRANCH  19  20
ATOM     20  C   UNL A   1      36.014  23.227  23.875  1.00  0.00     0.138 C 
ATOM     21  C   UNL A   1      35.925  24.005  25.184  1.00  0.00     0.036 C 
ATOM     22  O   UNL A   1      36.367  21.878  24.285  1.00  0.00    -0.376 OA
ATOM     23  C   UNL A   1      35.474  22.979  26.185  1.00  0.00     0.031 C 
ATOM     24  C   UNL A   1      36.177  21.737  25.702  1.00  0.00     0.160 C 
ENDBRANCH  19  20
ENDBRANCH  15  19
ENDBRANCH   4   7
ENDBRANCH   2   3
ENDBRANCH   1   2
BRANCH   1  25
ATOM     25  C   UNL A   1      32.648  32.983  27.192  1.00  0.00     0.118 C 
BRANCH  25  26
ATOM     26  N   UNL A   1      32.461  34.348  27.666  1.00  0.00    -0.352 N 
ATOM     27  C   UNL A   1      33.056  35.012  28.708  1.00  0.00     0.251 C 
ATOM     28  H   UNL A   1      31.802  34.876  27.160  1.00  0.00     0.163 HD
ATOM     29  O   UNL A   1      32.618  36.105  29.057  1.00  0.00    -0.269 OA
BRANCH  27  30
ATOM     30  C   UNL A   1      34.209  34.422  29.419  1.00  0.00     0.039 A 
ATOM     31  C   UNL A   1      33.979  33.738  30.617  1.00  0.00     0.014 A 
ATOM     32  C   UNL A   1      35.513  34.572  28.939  1.00  0.00     0.014 A 
ATOM     33  C   UNL A   1      35.049  33.162  31.303  1.00  0.00     0.010 A 
ATOM     34  C   UNL A   1      36.569  33.935  29.584  1.00  0.00     0.010 A 
ATOM     35  C   UNL A   1      36.349  33.232  30.777  1.00  0.00    -0.014 A 
BRANCH  35  36
ATOM     36  C   UNL A   1      37.493  32.602  31.475  1.00  0.00     0.031 A 
ATOM     37  C   UNL A   1      38.237  31.468  30.825  1.00  0.00     0.074 A 
ATOM     38  C   UNL A   1      37.831  33.014  32.711  1.00  0.00     0.049 A 
ATOM     39  N   UNL A   1      39.209  30.732  31.303  1.00  0.00    -0.248 NA
ATOM     40  C   UNL A   1      37.815  31.094  29.466  1.00  0.00     0.031 C 
ATOM     41  C   UNL A   1      37.161  34.077  33.462  1.00  0.00     0.029 A 
ATOM     42  N   UNL A   1      38.820  32.582  33.558  1.00  0.00    -0.354 N 
ATOM     43  C   UNL A   1      39.503  29.806  30.311  1.00  0.00     0.074 A 
ATOM     44  C   UNL A   1      38.577  30.038  29.224  1.00  0.00     0.031 C 
ATOM     45  C   UNL A   1      37.771  34.229  34.648  1.00  0.00     0.029 A 
ATOM     46  C   UNL A   1      38.854  33.256  34.754  1.00  0.00     0.049 A 
ATOM     47  H   UNL A   1      39.448  31.858  33.330  1.00  0.00     0.167 HD
ATOM     48  C   UNL A   1      40.474  28.862  30.299  1.00  0.00     0.037 A 
ATOM     49  C   UNL A   1      39.666  33.100  35.816  1.00  0.00     0.037 A 
ATOM     50  C   UNL A   1      41.412  28.650  31.368  1.00  0.00     0.049 A 
ATOM     51  C   UNL A   1      40.746  32.055  35.767  1.00  0.00     0.074 A 
ATOM     52  C   UNL A   1      42.444  27.730  31.445  1.00  0.00     0.029 A 
ATOM     53  N   UNL A   1      41.440  29.380  32.546  1.00  0.00    -0.354 N 
ATOM     54  N   UNL A   1      41.033  31.206  34.811  1.00  0.00    -0.248 NA
ATOM     55  C   UNL A   1      41.621  31.952  36.944  1.00  0.00     0.031 C 
ATOM     56  C   UNL A   1      43.086  27.893  32.677  1.00  0.00     0.029 A 
ATOM     57  C   UNL A   1      42.472  28.934  33.354  1.00  0.00     0.049 A 
ATOM     58  H   UNL A   1      40.817  30.109  32.775  1.00  0.00     0.167 HD
ATOM     59  C   UNL A   1      42.135  30.489  35.257  1.00  0.00     0.074 A 
ATOM     60  C   UNL A   1      42.474  31.012  36.564  1.00  0.00     0.031 C 
ATOM     61  C   UNL A   1      42.803  29.484  34.642  1.00  0.00     0.037 A 
BRANCH  48  62
ATOM     62  C   UNL A   1      40.584  28.000  29.078  1.00  0.00     0.064 A 
ATOM     63  C   UNL A   1      39.815  26.834  28.941  1.00  0.00     0.173 A 
ATOM     64  C   UNL A   1      41.431  28.358  28.020  1.00  0.00     0.173 A 
ATOM     65  F   UNL A   1      39.003  26.442  29.933  1.00  0.00    -0.203 F 
ATOM     66  C   UNL A   1      39.905  26.049  27.795  1.00  0.00     0.198 A 
ATOM     67  C   UNL A   1      41.500  27.583  26.865  1.00  0.00     0.198 A 
ATOM     68  F   UNL A   1      42.185  29.465  28.102  1.00  0.00    -0.203 F 
ATOM     69  F   UNL A   1      39.189  24.920  27.701  1.00  0.00    -0.200 F 
ATOM     70  C   UNL A   1      40.741  26.428  26.755  1.00  0.00     0.200 A 
ATOM     71  F   UNL A   1      42.302  27.954  25.857  1.00  0.00    -0.200 F 
ATOM     72  F   UNL A   1      40.819  25.674  25.650  1.00  0.00    -0.200 F 
ENDBRANCH  48  62
BRANCH  49  73
ATOM     73  C   UNL A   1      39.512  33.973  37.007  1.00  0.00     0.064 A 
ATOM     74  C   UNL A   1      40.123  35.233  37.054  1.00  0.00     0.173 A 
ATOM     75  C   UNL A   1      38.773  33.561  38.124  1.00  0.00     0.173 A 
ATOM     76  F   UNL A   1      40.858  35.660  36.017  1.00  0.00    -0.203 F 
ATOM     77  C   UNL A   1      40.023  36.039  38.186  1.00  0.00     0.198 A 
ATOM     78  C   UNL A   1      38.653  34.378  39.246  1.00  0.00     0.198 A 
ATOM     79  F   UNL A   1      38.166  32.365  38.125  1.00  0.00    -0.203 F 
ATOM     80  F   UNL A   1      40.659  37.217  38.225  1.00  0.00    -0.200 F 
ATOM     81  C   UNL A   1      39.286  35.612  39.280  1.00  0.00     0.200 A 
ATOM     82  F   UNL A   1      37.933  33.965  40.298  1.00  0.00    -0.200 F 
ATOM     83  F   UNL A   1      39.194  36.384  40.371  1.00  0.00    -0.200 F 
ENDBRANCH  49  73
BRANCH  61  84
ATOM     84  C   UNL A   1      43.991  28.917  35.358  1.00  0.00     0.064 A 
ATOM     85  C   UNL A   1      45.283  29.416  35.143  1.00  0.00     0.173 A 
ATOM     86  C   UNL A   1      43.827  27.882  36.291  1.00  0.00     0.173 A 
ATOM     87  F   UNL A   1      45.488  30.394  34.248  1.00  0.00    -0.203 F 
ATOM     88  C   UNL A   1      46.375  28.882  35.821  1.00  0.00     0.198 A 
ATOM     89  C   UNL A   1      44.919  27.367  36.984  1.00  0.00     0.198 A 
ATOM     90  F   UNL A   1      42.609  27.376  36.533  1.00  0.00    -0.203 F 
ATOM     91  F   UNL A   1      47.607  29.344  35.570  1.00  0.00    -0.200 F 
ATOM     92  C   UNL A   1      46.192  27.863  36.743  1.00  0.00     0.200 A 
ATOM     93  F   UNL A   1      44.740  26.387  37.881  1.00  0.00    -0.200 F 
ATOM     94  F   UNL A   1      47.244  27.351  37.396  1.00  0.00    -0.200 F 
ENDBRANCH  61  84
ENDBRANCH  35  36
ENDBRANCH  27  30
ENDBRANCH  25  26
ENDBRANCH   1  25
TORSDOF 12
ENDMDL
MODEL 3
REMARK VINA RESULT:     -12.8      5.353     11.114
REMARK SMILES CC1=C2C(=O)N(C[C@H]3CCCO3)C(=O)N=C2S[C@@H]1C(=O)NCCCNC(=O)c1ccc(-c2c3nc(c(-c4c(F)c(F)c(F)c(F)c4F)c4ccc([nH]4)c(-c4c(F)c(F)c(F)c(F)c4F)c4nc(c(-c5c(F)c(F)c(F)c(F)c5F)c5ccc2[nH]5)C=C4)C=C3)cc1
REMARK SMILES IDX 23 1 22 2 21 3 19 4 20 5 18 7 1 8 2 9 3 10 4 11 16 12 17 13
REMARK SMILES IDX 5 14 6 15 15 16 13 17 14 18 7 19 8 20 9 21 12 22 10 23 11 24
REMARK SMILES IDX 24 25 25 26 26 27 27 29 28 30 29 31 90 32 30 33 89 34 31 35
REMARK SMILES IDX 32 36 33 37 83 38 34 39 88 40 82 41 84 42 35 43 87 44 81 45
REMARK SMILES IDX 80 46 36 48 68 49 48 50 67 51 49 52 52 53 66 54 85 55 50 56
REMARK SMILES IDX 51 57 65 59 86 60 53 61 37 62 38 63 46 64 39 65 40 66 44 67
REMARK SMILES IDX 47 68 41 69 42 70 45 71 43 72 69 73 70 74 78 75 71 76 72 77
REMARK SMILES IDX 76 78 79 79 73 80 74 81 77 82 75 83 54 84 55 85 63 86 56 87
REMARK SMILES IDX 57 88 61 89 64 90 58 91 59 92 62 93 60 94
REMARK H PARENT 21 6 25 28 84 47 52 58
REMARK Flexibility Score: inf
ROOT
ATOM      1  C   UNL A   1      38.201  19.299  25.026  1.00  0.00     0.042 C 
ENDROOT
BRANCH   1   2
ATOM      2  C   UNL A   1      37.203  20.378  24.631  1.00  0.00     0.117 C 
BRANCH   2   3
ATOM      3  N   UNL A   1      35.841  20.035  25.000  1.00  0.00    -0.355 N 
ATOM      4  C   UNL A   1      34.750  20.808  25.273  1.00  0.00     0.237 C 
ATOM      5  O   UNL A   1      33.706  20.212  25.556  1.00  0.00    -0.273 OA
ATOM      6  H   UNL A   1      35.673  19.067  25.065  1.00  0.00     0.163 HD
BRANCH   4   7
ATOM      7  C   UNL A   1      34.766  22.344  25.205  1.00  0.00     0.169 C 
ATOM      8  C   UNL A   1      34.044  22.725  27.651  1.00  0.00     0.042 C 
ATOM      9  C   UNL A   1      33.867  23.029  26.195  1.00  0.00    -0.035 C 
ATOM     10  C   UNL A   1      32.966  23.864  25.661  1.00  0.00     0.073 C 
ATOM     11  C   UNL A   1      31.865  24.583  26.291  1.00  0.00     0.264 C 
ATOM     12  C   UNL A   1      33.082  24.034  24.228  1.00  0.00     0.116 C 
ATOM     13  S   UNL A   1      34.237  22.928  23.552  1.00  0.00    -0.087 SA
ATOM     14  O   UNL A   1      31.280  24.106  27.251  1.00  0.00    -0.268 OA
ATOM     15  N   UNL A   1      31.529  25.725  25.607  1.00  0.00    -0.256 N 
ATOM     16  N   UNL A   1      32.418  24.883  23.536  1.00  0.00    -0.186 NA
ATOM     17  C   UNL A   1      31.625  25.790  24.208  1.00  0.00     0.351 C 
ATOM     18  O   UNL A   1      31.021  26.652  23.575  1.00  0.00    -0.246 OA
BRANCH  15  19
ATOM     19  C   UNL A   1      31.081  26.913  26.338  1.00  0.00     0.163 C 
BRANCH  19  20
ATOM     20  C   UNL A   1      32.121  27.863  26.969  1.00  0.00     0.138 C 
ATOM     21  C   UNL A   1      33.566  27.695  26.508  1.00  0.00     0.036 C 
ATOM     22  O   UNL A   1      31.765  29.206  26.544  1.00  0.00    -0.376 OA
ATOM     23  C   UNL A   1      33.651  28.543  25.270  1.00  0.00     0.031 C 
ATOM     24  C   UNL A   1      32.746  29.696  25.616  1.00  0.00     0.160 C 
ENDBRANCH  19  20
ENDBRANCH  15  19
ENDBRANCH   4   7
ENDBRANCH   2   3
ENDBRANCH   1   2
BRANCH   1  25
ATOM     25  C   UNL A   1      39.312  19.810  25.932  1.00  0.00     0.118 C 
BRANCH  25  26
ATOM     26  N   UNL A   1      40.445  18.896  25.989  1.00  0.00    -0.352 N 
ATOM     27  C   UNL A   1      41.787  19.156  26.100  1.00  0.00     0.251 C 
ATOM     28  H   UNL A   1      40.210  17.941  25.937  1.00  0.00     0.163 HD
ATOM     29  O   UNL A   1      42.595  18.246  25.940  1.00  0.00    -0.269 OA
BRANCH  27  30
ATOM     30  C   UNL A   1      42.268  20.521  26.398  1.00  0.00     0.039 A 
ATOM     31  C   UNL A   1      42.554  21.379  25.332  1.00  0.00     0.014 A 
ATOM     32  C   UNL A   1      42.480  20.945  27.713  1.00  0.00     0.014 A 
ATOM     33  C   UNL A   1      43.000  22.677  25.586  1.00  0.00     0.010 A 
ATOM     34  C   UNL A   1      42.854  22.262  27.967  1.00  0.00     0.010 A 
ATOM     35  C   UNL A   1      43.127  23.137  26.906  1.00  0.00    -0.014 A 
BRANCH  35  36
ATOM     36  C   UNL A   1      43.571  24.521  27.196  1.00  0.00     0.031 A 
ATOM     37  C   UNL A   1      42.591  25.526  27.735  1.00  0.00     0.074 A 
ATOM     38  C   UNL A   1      44.839  24.885  26.929  1.00  0.00     0.049 A 
ATOM     39  N   UNL A   1      42.760  26.802  27.975  1.00  0.00    -0.248 NA
ATOM     40  C   UNL A   1      41.232  25.038  28.017  1.00  0.00     0.031 C 
ATOM     41  C   UNL A   1      45.871  24.011  26.368  1.00  0.00     0.029 A 
ATOM     42  N   UNL A   1      45.474  26.091  27.087  1.00  0.00    -0.354 N 
ATOM     43  C   UNL A   1      41.531  27.267  28.423  1.00  0.00     0.074 A 
ATOM     44  C   UNL A   1      40.611  26.152  28.376  1.00  0.00     0.031 C 
ATOM     45  C   UNL A   1      47.015  24.704  26.249  1.00  0.00     0.029 A 
ATOM     46  C   UNL A   1      46.790  26.075  26.695  1.00  0.00     0.049 A 
ATOM     47  H   UNL A   1      45.029  26.892  27.447  1.00  0.00     0.167 HD
ATOM     48  C   UNL A   1      41.206  28.508  28.858  1.00  0.00     0.037 A 
ATOM     49  C   UNL A   1      47.707  27.060  26.693  1.00  0.00     0.037 A 
ATOM     50  C   UNL A   1      42.127  29.610  28.930  1.00  0.00     0.049 A 
ATOM     51  C   UNL A   1      47.321  28.423  27.197  1.00  0.00     0.074 A 
ATOM     52  C   UNL A   1      41.899  30.902  29.371  1.00  0.00     0.029 A 
ATOM     53  N   UNL A   1      43.462  29.542  28.563  1.00  0.00    -0.354 N 
ATOM     54  N   UNL A   1      46.164  28.842  27.646  1.00  0.00    -0.248 NA
ATOM     55  C   UNL A   1      48.374  29.449  27.200  1.00  0.00     0.031 C 
ATOM     56  C   UNL A   1      43.093  31.622  29.255  1.00  0.00     0.029 A 
ATOM     57  C   UNL A   1      44.071  30.769  28.770  1.00  0.00     0.049 A 
ATOM     58  H   UNL A   1      43.912  28.741  28.207  1.00  0.00     0.167 HD
ATOM     59  C   UNL A   1      46.355  30.169  28.010  1.00  0.00     0.074 A 
ATOM     60  C   UNL A   1      47.743  30.480  27.743  1.00  0.00     0.031 C 
ATOM     61  C   UNL A   1      45.459  31.050  28.516  1.00  0.00     0.037 A 
BRANCH  48  62
ATOM     62  C   UNL A   1      39.795  28.734  29.309  1.00  0.00     0.064 A 
ATOM     63  C   UNL A   1      39.411  28.504  30.639  1.00  0.00     0.173 A 
ATOM     64  C   UNL A   1      38.826  29.221  28.419  1.00  0.00     0.173 A 
ATOM     65  F   UNL A   1      40.298  28.024  31.522  1.00  0.00    -0.203 F 
ATOM     66  C   UNL A   1      38.105  28.738  31.057  1.00  0.00     0.198 A 
ATOM     67  C   UNL A   1      37.526  29.476  28.847  1.00  0.00     0.198 A 
ATOM     68  F   UNL A   1      39.143  29.459  27.137  1.00  0.00    -0.203 F 
ATOM     69  F   UNL A   1      37.751  28.477  32.323  1.00  0.00    -0.200 F 
ATOM     70  C   UNL A   1      37.165  29.231  30.163  1.00  0.00     0.200 A 
ATOM     71  F   UNL A   1      36.621  29.961  27.985  1.00  0.00    -0.200 F 
ATOM     72  F   UNL A   1      35.910  29.463  30.570  1.00  0.00    -0.200 F 
ENDBRANCH  48  62
BRANCH  49  73
ATOM     73  C   UNL A   1      49.091  26.789  26.228  1.00  0.00     0.064 A 
ATOM     74  C   UNL A   1      49.451  27.000  24.890  1.00  0.00     0.173 A 
ATOM     75  C   UNL A   1      50.071  26.298  27.101  1.00  0.00     0.173 A 
ATOM     76  F   UNL A   1      48.539  27.449  24.015  1.00  0.00    -0.203 F 
ATOM     77  C   UNL A   1      50.734  26.705  24.435  1.00  0.00     0.198 A 
ATOM     78  C   UNL A   1      51.362  26.026  26.650  1.00  0.00     0.198 A 
ATOM     79  F   UNL A   1      49.777  26.084  28.391  1.00  0.00    -0.203 F 
ATOM     80  F   UNL A   1      51.037  26.868  23.141  1.00  0.00    -0.200 F 
ATOM     81  C   UNL A   1      51.689  26.220  25.317  1.00  0.00     0.200 A 
ATOM     82  F   UNL A   1      52.284  25.566  27.506  1.00  0.00    -0.200 F 
ATOM     83  F   UNL A   1      52.921  25.931  24.878  1.00  0.00    -0.200 F 
ENDBRANCH  49  73
BRANCH  61  84
ATOM     84  C   UNL A   1      45.966  32.420  28.851  1.00  0.00     0.064 A 
ATOM     85  C   UNL A   1      45.938  33.461  27.912  1.00  0.00     0.173 A 
ATOM     86  C   UNL A   1      46.458  32.699  30.134  1.00  0.00     0.173 A 
ATOM     87  F   UNL A   1      45.491  33.234  26.668  1.00  0.00    -0.203 F 
ATOM     88  C   UNL A   1      46.407  34.729  28.240  1.00  0.00     0.198 A 
ATOM     89  C   UNL A   1      46.904  33.975  30.466  1.00  0.00     0.198 A 
ATOM     90  F   UNL A   1      46.500  31.736  31.067  1.00  0.00    -0.203 F 
ATOM     91  F   UNL A   1      46.410  35.699  27.316  1.00  0.00    -0.200 F 
ATOM     92  C   UNL A   1      46.884  34.986  29.517  1.00  0.00     0.200 A 
ATOM     93  F   UNL A   1      47.358  34.225  31.702  1.00  0.00    -0.200 F 
ATOM     94  F   UNL A   1      47.334  36.209  29.831  1.00  0.00    -0.200 F 
ENDBRANCH  61  84
ENDBRANCH  35  36
ENDBRANCH  27  30
ENDBRANCH  25  26
ENDBRANCH   1  25
TORSDOF 12
ENDMDL
