MODEL 1
REMARK VINA RESULT:     -14.2      0.000      0.000
REMARK SMILES Cc1cccc(NC(=O)[C@H]2C=C[C@@H]([NH3+])C2)c1C(=O)NCCCNC(=O)c1ccc(-c2c3nc(c(-c4c(F)c(F)c(F)c(F)c4F)c4ccc([nH]4)c(-c4c(F)c(F)c(F)c(F)c4F)c4nc(c(-c5c(F)c(F)c(F)c(F)c5F)c5ccc2[nH]5)C=C4)C=C3)cc1
REMARK SMILES IDX 20 1 19 2 17 3 18 4 16 6 1 7 2 8 3 9 4 10 6 11 5 12 7 13
REMARK SMILES IDX 8 14 9 16 10 17 11 18 15 19 12 20 13 21 14 22 21 26 22 27
REMARK SMILES IDX 23 28 24 29 25 31 26 32 27 33 88 34 28 35 87 36 29 37 30 38
REMARK SMILES IDX 31 39 81 40 32 41 86 42 80 43 82 44 33 45 85 46 79 47 78 48
REMARK SMILES IDX 34 50 66 51 46 52 65 53 47 54 50 55 64 56 83 57 48 58 49 59
REMARK SMILES IDX 63 61 84 62 51 63 35 64 36 65 44 66 37 67 38 68 42 69 45 70
REMARK SMILES IDX 39 71 40 72 43 73 41 74 67 75 68 76 76 77 69 78 70 79 74 80
REMARK SMILES IDX 77 81 71 82 72 83 75 84 73 85 52 86 53 87 61 88 54 89 55 90
REMARK SMILES IDX 59 91 62 92 56 93 57 94 60 95 58 96
REMARK H PARENT 19 5 7 15 14 23 14 24 14 25 23 30 82 49 50 60
REMARK Flexibility Score: inf
ROOT
ATOM      1  C   UNL A   1      33.975  29.514  27.111  1.00  0.00     0.118 C 
ENDROOT
BRANCH   1   2
ATOM      2  N   UNL A   1      32.806  28.838  27.652  1.00  0.00    -0.352 N 
ATOM      3  C   UNL A   1      31.689  28.179  27.212  1.00  0.00     0.253 C 
ATOM      4  O   UNL A   1      31.008  27.777  28.169  1.00  0.00    -0.269 OA
ATOM      5  H   UNL A   1      32.825  28.860  28.636  1.00  0.00     0.163 HD
BRANCH   3   6
ATOM      6  C   UNL A   1      31.184  27.874  25.805  1.00  0.00     0.066 A 
ATOM      7  C   UNL A   1      31.070  30.257  24.732  1.00  0.00     0.045 C 
ATOM      8  C   UNL A   1      31.024  28.771  24.711  1.00  0.00    -0.036 A 
ATOM      9  C   UNL A   1      30.602  28.306  23.449  1.00  0.00     0.004 A 
ATOM     10  C   UNL A   1      30.028  27.072  23.325  1.00  0.00     0.002 A 
ATOM     11  C   UNL A   1      30.723  26.529  25.578  1.00  0.00     0.054 A 
ATOM     12  C   UNL A   1      29.999  26.252  24.431  1.00  0.00     0.027 A 
BRANCH  11  13
ATOM     13  N   UNL A   1      30.967  25.469  26.484  1.00  0.00    -0.325 N 
ATOM     14  C   UNL A   1      31.838  24.428  26.590  1.00  0.00     0.231 C 
ATOM     15  H   UNL A   1      30.338  25.490  27.242  1.00  0.00     0.169 HD
ATOM     16  O   UNL A   1      31.667  23.714  27.598  1.00  0.00    -0.274 OA
BRANCH  14  17
ATOM     17  C   UNL A   1      32.958  23.972  25.620  1.00  0.00     0.107 C 
ATOM     18  C   UNL A   1      34.098  24.948  25.589  1.00  0.00    -0.012 C 
ATOM     19  C   UNL A   1      33.639  22.594  25.643  1.00  0.00     0.087 C 
ATOM     20  C   UNL A   1      35.282  24.338  25.469  1.00  0.00     0.033 C 
ATOM     21  C   UNL A   1      35.153  22.851  25.409  1.00  0.00     0.205 C 
BRANCH  21  22
ATOM     22  N   UNL A   1      36.030  22.218  26.387  1.00  0.00    -0.352 N 
ATOM     23  H   UNL A   1      36.999  22.311  26.086  1.00  0.00     0.345 HD
ATOM     24  H   UNL A   1      35.792  21.229  26.465  1.00  0.00     0.345 HD
ATOM     25  H   UNL A   1      35.910  22.670  27.294  1.00  0.00     0.345 HD
ENDBRANCH  21  22
ENDBRANCH  14  17
ENDBRANCH  11  13
ENDBRANCH   3   6
ENDBRANCH   1   2
BRANCH   1  26
ATOM     26  C   UNL A   1      34.036  30.972  27.558  1.00  0.00     0.042 C 
BRANCH  26  27
ATOM     27  C   UNL A   1      35.411  31.568  27.757  1.00  0.00     0.118 C 
BRANCH  27  28
ATOM     28  N   UNL A   1      35.699  31.885  29.159  1.00  0.00    -0.352 N 
ATOM     29  C   UNL A   1      36.343  31.093  30.099  1.00  0.00     0.251 C 
ATOM     30  H   UNL A   1      35.398  32.769  29.472  1.00  0.00     0.163 HD
ATOM     31  O   UNL A   1      36.553  31.473  31.232  1.00  0.00    -0.269 OA
BRANCH  29  32
ATOM     32  C   UNL A   1      36.878  29.805  29.608  1.00  0.00     0.039 A 
ATOM     33  C   UNL A   1      37.328  28.921  30.590  1.00  0.00     0.014 A 
ATOM     34  C   UNL A   1      37.349  29.745  28.300  1.00  0.00     0.014 A 
ATOM     35  C   UNL A   1      38.466  28.168  30.335  1.00  0.00     0.010 A 
ATOM     36  C   UNL A   1      38.537  29.073  28.081  1.00  0.00     0.010 A 
ATOM     37  C   UNL A   1      39.135  28.351  29.125  1.00  0.00    -0.014 A 
BRANCH  37  38
ATOM     38  C   UNL A   1      40.496  27.871  28.906  1.00  0.00     0.031 A 
ATOM     39  C   UNL A   1      40.706  26.459  28.538  1.00  0.00     0.074 A 
ATOM     40  C   UNL A   1      41.572  28.678  29.056  1.00  0.00     0.049 A 
ATOM     41  N   UNL A   1      41.763  25.784  28.838  1.00  0.00    -0.248 NA
ATOM     42  C   UNL A   1      39.699  25.678  27.835  1.00  0.00     0.031 C 
ATOM     43  C   UNL A   1      42.957  28.360  28.707  1.00  0.00     0.029 A 
ATOM     44  N   UNL A   1      41.664  29.892  29.758  1.00  0.00    -0.354 N 
ATOM     45  C   UNL A   1      41.698  24.586  28.170  1.00  0.00     0.074 A 
ATOM     46  C   UNL A   1      40.368  24.546  27.603  1.00  0.00     0.031 C 
ATOM     47  C   UNL A   1      43.775  29.125  29.444  1.00  0.00     0.029 A 
ATOM     48  C   UNL A   1      42.952  29.891  30.358  1.00  0.00     0.049 A 
ATOM     49  H   UNL A   1      40.979  30.597  29.820  1.00  0.00     0.167 HD
ATOM     50  C   UNL A   1      42.815  23.809  28.074  1.00  0.00     0.037 A 
ATOM     51  C   UNL A   1      43.107  29.954  31.711  1.00  0.00     0.037 A 
ATOM     52  C   UNL A   1      43.947  24.393  28.795  1.00  0.00     0.049 A 
ATOM     53  C   UNL A   1      43.766  28.741  32.326  1.00  0.00     0.074 A 
ATOM     54  C   UNL A   1      45.056  25.135  28.419  1.00  0.00     0.029 A 
ATOM     55  N   UNL A   1      43.880  24.491  30.175  1.00  0.00    -0.354 N 
ATOM     56  N   UNL A   1      44.208  27.715  31.652  1.00  0.00    -0.248 NA
ATOM     57  C   UNL A   1      43.859  28.540  33.773  1.00  0.00     0.031 C 
ATOM     58  C   UNL A   1      45.664  25.660  29.595  1.00  0.00     0.029 A 
ATOM     59  C   UNL A   1      44.925  25.239  30.684  1.00  0.00     0.049 A 
ATOM     60  H   UNL A   1      43.177  24.079  30.724  1.00  0.00     0.167 HD
ATOM     61  C   UNL A   1      44.562  26.720  32.526  1.00  0.00     0.074 A 
ATOM     62  C   UNL A   1      44.321  27.282  33.842  1.00  0.00     0.031 C 
ATOM     63  C   UNL A   1      44.977  25.486  32.116  1.00  0.00     0.037 A 
BRANCH  50  64
ATOM     64  C   UNL A   1      42.939  22.649  27.114  1.00  0.00     0.064 A 
ATOM     65  C   UNL A   1      42.210  21.459  27.319  1.00  0.00     0.173 A 
ATOM     66  C   UNL A   1      43.801  22.626  26.002  1.00  0.00     0.173 A 
ATOM     67  F   UNL A   1      41.255  21.374  28.253  1.00  0.00    -0.203 F 
ATOM     68  C   UNL A   1      42.438  20.303  26.568  1.00  0.00     0.198 A 
ATOM     69  C   UNL A   1      44.081  21.453  25.294  1.00  0.00     0.198 A 
ATOM     70  F   UNL A   1      44.352  23.749  25.526  1.00  0.00    -0.203 F 
ATOM     71  F   UNL A   1      41.719  19.199  26.814  1.00  0.00    -0.200 F 
ATOM     72  C   UNL A   1      43.409  20.285  25.588  1.00  0.00     0.200 A 
ATOM     73  F   UNL A   1      45.007  21.466  24.324  1.00  0.00    -0.200 F 
ATOM     74  F   UNL A   1      43.672  19.161  24.911  1.00  0.00    -0.200 F 
ENDBRANCH  50  64
BRANCH  51  75
ATOM     75  C   UNL A   1      42.051  30.781  32.351  1.00  0.00     0.064 A 
ATOM     76  C   UNL A   1      42.130  32.178  32.182  1.00  0.00     0.173 A 
ATOM     77  C   UNL A   1      40.811  30.232  32.692  1.00  0.00     0.173 A 
ATOM     78  F   UNL A   1      43.304  32.752  31.875  1.00  0.00    -0.203 F 
ATOM     79  C   UNL A   1      40.981  32.960  32.160  1.00  0.00     0.198 A 
ATOM     80  C   UNL A   1      39.669  31.029  32.708  1.00  0.00     0.198 A 
ATOM     81  F   UNL A   1      40.678  28.910  32.871  1.00  0.00    -0.203 F 
ATOM     82  F   UNL A   1      41.059  34.253  31.817  1.00  0.00    -0.200 F 
ATOM     83  C   UNL A   1      39.746  32.376  32.383  1.00  0.00     0.200 A 
ATOM     84  F   UNL A   1      38.474  30.466  32.935  1.00  0.00    -0.200 F 
ATOM     85  F   UNL A   1      38.628  33.099  32.233  1.00  0.00    -0.200 F 
ENDBRANCH  51  75
BRANCH  63  86
ATOM     86  C   UNL A   1      45.434  24.405  33.061  1.00  0.00     0.064 A 
ATOM     87  C   UNL A   1      44.598  23.346  33.455  1.00  0.00     0.173 A 
ATOM     88  C   UNL A   1      46.700  24.449  33.684  1.00  0.00     0.173 A 
ATOM     89  F   UNL A   1      43.332  23.267  33.020  1.00  0.00    -0.203 F 
ATOM     90  C   UNL A   1      45.035  22.347  34.329  1.00  0.00     0.198 A 
ATOM     91  C   UNL A   1      47.113  23.482  34.600  1.00  0.00     0.198 A 
ATOM     92  F   UNL A   1      47.586  25.415  33.410  1.00  0.00    -0.203 F 
ATOM     93  F   UNL A   1      44.228  21.315  34.614  1.00  0.00    -0.200 F 
ATOM     94  C   UNL A   1      46.290  22.417  34.904  1.00  0.00     0.200 A 
ATOM     95  F   UNL A   1      48.318  23.585  35.177  1.00  0.00    -0.200 F 
ATOM     96  F   UNL A   1      46.704  21.464  35.750  1.00  0.00    -0.200 F 
ENDBRANCH  63  86
ENDBRANCH  37  38
ENDBRANCH  29  32
ENDBRANCH  27  28
ENDBRANCH  26  27
ENDBRANCH   1  26
TORSDOF 13
ENDMDL
MODEL 2
REMARK VINA RESULT:     -13.9      3.645     10.143
REMARK SMILES Cc1cccc(NC(=O)[C@H]2C=C[C@@H]([NH3+])C2)c1C(=O)NCCCNC(=O)c1ccc(-c2c3nc(c(-c4c(F)c(F)c(F)c(F)c4F)c4ccc([nH]4)c(-c4c(F)c(F)c(F)c(F)c4F)c4nc(c(-c5c(F)c(F)c(F)c(F)c5F)c5ccc2[nH]5)C=C4)C=C3)cc1
REMARK SMILES IDX 20 1 19 2 17 3 18 4 16 6 1 7 2 8 3 9 4 10 6 11 5 12 7 13
REMARK SMILES IDX 8 14 9 16 10 17 11 18 15 19 12 20 13 21 14 22 21 26 22 27
REMARK SMILES IDX 23 28 24 29 25 31 26 32 27 33 88 34 28 35 87 36 29 37 30 38
REMARK SMILES IDX 31 39 81 40 32 41 86 42 80 43 82 44 33 45 85 46 79 47 78 48
REMARK SMILES IDX 34 50 66 51 46 52 65 53 47 54 50 55 64 56 83 57 48 58 49 59
REMARK SMILES IDX 63 61 84 62 51 63 35 64 36 65 44 66 37 67 38 68 42 69 45 70
REMARK SMILES IDX 39 71 40 72 43 73 41 74 67 75 68 76 76 77 69 78 70 79 74 80
REMARK SMILES IDX 77 81 71 82 72 83 75 84 73 85 52 86 53 87 61 88 54 89 55 90
REMARK SMILES IDX 59 91 62 92 56 93 57 94 60 95 58 96
REMARK H PARENT 19 5 7 15 14 23 14 24 14 25 23 30 82 49 50 60
REMARK Flexibility Score: inf
ROOT
ATOM      1  C   UNL A   1      37.725  23.229  25.780  1.00  0.00     0.118 C 
ENDROOT
BRANCH   1   2
ATOM      2  N   UNL A   1      37.388  23.190  24.365  1.00  0.00    -0.352 N 
ATOM      3  C   UNL A   1      36.344  22.832  23.555  1.00  0.00     0.253 C 
ATOM      4  O   UNL A   1      36.620  23.035  22.362  1.00  0.00    -0.269 OA
ATOM      5  H   UNL A   1      38.141  23.523  23.826  1.00  0.00     0.163 HD
BRANCH   3   6
ATOM      6  C   UNL A   1      34.966  22.260  23.875  1.00  0.00     0.066 A 
ATOM      7  C   UNL A   1      35.565  20.028  25.099  1.00  0.00     0.045 C 
ATOM      8  C   UNL A   1      34.646  21.102  24.638  1.00  0.00    -0.036 A 
ATOM      9  C   UNL A   1      33.306  20.749  24.893  1.00  0.00     0.004 A 
ATOM     10  C   UNL A   1      32.295  21.302  24.158  1.00  0.00     0.002 A 
ATOM     11  C   UNL A   1      33.848  22.922  23.253  1.00  0.00     0.054 A 
ATOM     12  C   UNL A   1      32.610  22.303  23.265  1.00  0.00     0.027 A 
BRANCH  11  13
ATOM     13  N   UNL A   1      33.957  24.180  22.613  1.00  0.00    -0.325 N 
ATOM     14  C   UNL A   1      33.546  25.457  22.848  1.00  0.00     0.231 C 
ATOM     15  H   UNL A   1      34.468  24.115  21.774  1.00  0.00     0.169 HD
ATOM     16  O   UNL A   1      33.881  26.275  21.968  1.00  0.00    -0.274 OA
BRANCH  14  17
ATOM     17  C   UNL A   1      32.682  26.022  24.003  1.00  0.00     0.107 C 
ATOM     18  C   UNL A   1      31.219  25.769  23.778  1.00  0.00    -0.012 C 
ATOM     19  C   UNL A   1      32.894  25.717  25.495  1.00  0.00     0.087 C 
ATOM     20  C   UNL A   1      30.572  25.496  24.917  1.00  0.00     0.033 C 
ATOM     21  C   UNL A   1      31.480  25.505  26.103  1.00  0.00     0.205 C 
BRANCH  21  22
ATOM     22  N   UNL A   1      31.333  24.275  26.872  1.00  0.00    -0.352 N 
ATOM     23  H   UNL A   1      30.773  24.459  27.704  1.00  0.00     0.345 HD
ATOM     24  H   UNL A   1      32.254  23.937  27.151  1.00  0.00     0.345 HD
ATOM     25  H   UNL A   1      30.870  23.569  26.299  1.00  0.00     0.345 HD
ENDBRANCH  21  22
ENDBRANCH  14  17
ENDBRANCH  11  13
ENDBRANCH   3   6
ENDBRANCH   1   2
BRANCH   1  26
ATOM     26  C   UNL A   1      38.947  22.368  26.088  1.00  0.00     0.042 C 
BRANCH  26  27
ATOM     27  C   UNL A   1      39.862  22.851  27.191  1.00  0.00     0.118 C 
BRANCH  27  28
ATOM     28  N   UNL A   1      41.175  23.275  26.699  1.00  0.00    -0.352 N 
ATOM     29  C   UNL A   1      41.588  24.556  26.362  1.00  0.00     0.251 C 
ATOM     30  H   UNL A   1      41.847  22.563  26.594  1.00  0.00     0.163 HD
ATOM     31  O   UNL A   1      42.718  24.797  25.990  1.00  0.00    -0.269 OA
BRANCH  29  32
ATOM     32  C   UNL A   1      40.612  25.640  26.606  1.00  0.00     0.039 A 
ATOM     33  C   UNL A   1      40.961  26.895  26.105  1.00  0.00     0.014 A 
ATOM     34  C   UNL A   1      39.726  25.499  27.670  1.00  0.00     0.014 A 
ATOM     35  C   UNL A   1      40.653  28.020  26.859  1.00  0.00     0.010 A 
ATOM     36  C   UNL A   1      39.506  26.606  28.468  1.00  0.00     0.010 A 
ATOM     37  C   UNL A   1      40.041  27.850  28.100  1.00  0.00    -0.014 A 
BRANCH  37  38
ATOM     38  C   UNL A   1      39.985  28.917  29.095  1.00  0.00     0.031 A 
ATOM     39  C   UNL A   1      38.932  29.943  28.984  1.00  0.00     0.074 A 
ATOM     40  C   UNL A   1      40.885  29.005  30.100  1.00  0.00     0.049 A 
ATOM     41  N   UNL A   1      39.064  31.159  29.393  1.00  0.00    -0.248 NA
ATOM     42  C   UNL A   1      37.650  29.681  28.346  1.00  0.00     0.031 C 
ATOM     43  C   UNL A   1      40.834  29.921  31.240  1.00  0.00     0.029 A 
ATOM     44  N   UNL A   1      42.159  28.417  30.189  1.00  0.00    -0.354 N 
ATOM     45  C   UNL A   1      37.833  31.763  29.312  1.00  0.00     0.074 A 
ATOM     46  C   UNL A   1      36.999  30.818  28.603  1.00  0.00     0.031 C 
ATOM     47  C   UNL A   1      42.078  30.098  31.709  1.00  0.00     0.029 A 
ATOM     48  C   UNL A   1      42.981  29.380  30.834  1.00  0.00     0.049 A 
ATOM     49  H   UNL A   1      42.426  27.524  29.871  1.00  0.00     0.167 HD
ATOM     50  C   UNL A   1      37.624  32.949  29.952  1.00  0.00     0.037 A 
ATOM     51  C   UNL A   1      44.082  29.901  30.220  1.00  0.00     0.037 A 
ATOM     52  C   UNL A   1      38.838  33.435  30.608  1.00  0.00     0.049 A 
ATOM     53  C   UNL A   1      44.017  31.391  29.970  1.00  0.00     0.074 A 
ATOM     54  C   UNL A   1      39.314  33.405  31.910  1.00  0.00     0.029 A 
ATOM     55  N   UNL A   1      39.915  33.811  29.824  1.00  0.00    -0.354 N 
ATOM     56  N   UNL A   1      43.031  32.161  30.336  1.00  0.00    -0.248 NA
ATOM     57  C   UNL A   1      45.014  32.102  29.169  1.00  0.00     0.031 C 
ATOM     58  C   UNL A   1      40.686  33.789  31.895  1.00  0.00     0.029 A 
ATOM     59  C   UNL A   1      41.043  34.051  30.586  1.00  0.00     0.049 A 
ATOM     60  H   UNL A   1      39.882  33.897  28.845  1.00  0.00     0.167 HD
ATOM     61  C   UNL A   1      43.201  33.405  29.784  1.00  0.00     0.074 A 
ATOM     62  C   UNL A   1      44.454  33.316  29.058  1.00  0.00     0.031 C 
ATOM     63  C   UNL A   1      42.281  34.406  29.912  1.00  0.00     0.037 A 
BRANCH  50  64
ATOM     64  C   UNL A   1      36.250  33.532  30.190  1.00  0.00     0.064 A 
ATOM     65  C   UNL A   1      35.484  34.039  29.120  1.00  0.00     0.173 A 
ATOM     66  C   UNL A   1      35.653  33.671  31.458  1.00  0.00     0.173 A 
ATOM     67  F   UNL A   1      35.856  33.862  27.846  1.00  0.00    -0.203 F 
ATOM     68  C   UNL A   1      34.300  34.754  29.319  1.00  0.00     0.198 A 
ATOM     69  C   UNL A   1      34.507  34.444  31.666  1.00  0.00     0.198 A 
ATOM     70  F   UNL A   1      36.125  33.013  32.524  1.00  0.00    -0.203 F 
ATOM     71  F   UNL A   1      33.619  35.218  28.263  1.00  0.00    -0.200 F 
ATOM     72  C   UNL A   1      33.838  34.999  30.596  1.00  0.00     0.200 A 
ATOM     73  F   UNL A   1      34.057  34.643  32.913  1.00  0.00    -0.200 F 
ATOM     74  F   UNL A   1      32.737  35.737  30.791  1.00  0.00    -0.200 F 
ENDBRANCH  50  64
BRANCH  51  75
ATOM     75  C   UNL A   1      44.748  28.906  29.340  1.00  0.00     0.064 A 
ATOM     76  C   UNL A   1      45.468  27.868  29.964  1.00  0.00     0.173 A 
ATOM     77  C   UNL A   1      44.324  28.709  28.022  1.00  0.00     0.173 A 
ATOM     78  F   UNL A   1      45.915  28.021  31.221  1.00  0.00    -0.203 F 
ATOM     79  C   UNL A   1      45.582  26.619  29.364  1.00  0.00     0.198 A 
ATOM     80  C   UNL A   1      44.477  27.466  27.412  1.00  0.00     0.198 A 
ATOM     81  F   UNL A   1      43.640  29.664  27.377  1.00  0.00    -0.203 F 
ATOM     82  F   UNL A   1      46.110  25.595  30.050  1.00  0.00    -0.200 F 
ATOM     83  C   UNL A   1      45.050  26.408  28.105  1.00  0.00     0.200 A 
ATOM     84  F   UNL A   1      43.972  27.265  26.187  1.00  0.00    -0.200 F 
ATOM     85  F   UNL A   1      45.041  25.175  27.580  1.00  0.00    -0.200 F 
ENDBRANCH  51  75
BRANCH  63  86
ATOM     86  C   UNL A   1      42.485  35.796  29.370  1.00  0.00     0.064 A 
ATOM     87  C   UNL A   1      41.937  36.216  28.145  1.00  0.00     0.173 A 
ATOM     88  C   UNL A   1      43.322  36.731  30.017  1.00  0.00     0.173 A 
ATOM     89  F   UNL A   1      41.222  35.373  27.385  1.00  0.00    -0.203 F 
ATOM     90  C   UNL A   1      42.129  37.510  27.655  1.00  0.00     0.198 A 
ATOM     91  C   UNL A   1      43.559  38.003  29.497  1.00  0.00     0.198 A 
ATOM     92  F   UNL A   1      43.920  36.452  31.183  1.00  0.00    -0.203 F 
ATOM     93  F   UNL A   1      41.522  37.888  26.521  1.00  0.00    -0.200 F 
ATOM     94  C   UNL A   1      42.942  38.402  28.329  1.00  0.00     0.200 A 
ATOM     95  F   UNL A   1      44.381  38.843  30.143  1.00  0.00    -0.200 F 
ATOM     96  F   UNL A   1      43.135  39.639  27.853  1.00  0.00    -0.200 F 
ENDBRANCH  63  86
ENDBRANCH  37  38
ENDBRANCH  29  32
ENDBRANCH  27  28
ENDBRANCH  26  27
ENDBRANCH   1  26
TORSDOF 13
ENDMDL
MODEL 3
REMARK VINA RESULT:     -13.7      2.212      3.632
REMARK SMILES Cc1cccc(NC(=O)[C@H]2C=C[C@@H]([NH3+])C2)c1C(=O)NCCCNC(=O)c1ccc(-c2c3nc(c(-c4c(F)c(F)c(F)c(F)c4F)c4ccc([nH]4)c(-c4c(F)c(F)c(F)c(F)c4F)c4nc(c(-c5c(F)c(F)c(F)c(F)c5F)c5ccc2[nH]5)C=C4)C=C3)cc1
REMARK SMILES IDX 20 1 19 2 17 3 18 4 16 6 1 7 2 8 3 9 4 10 6 11 5 12 7 13
REMARK SMILES IDX 8 14 9 16 10 17 11 18 15 19 12 20 13 21 14 22 21 26 22 27
REMARK SMILES IDX 23 28 24 29 25 31 26 32 27 33 88 34 28 35 87 36 29 37 30 38
REMARK SMILES IDX 31 39 81 40 32 41 86 42 80 43 82 44 33 45 85 46 79 47 78 48
REMARK SMILES IDX 34 50 66 51 46 52 65 53 47 54 50 55 64 56 83 57 48 58 49 59
REMARK SMILES IDX 63 61 84 62 51 63 35 64 36 65 44 66 37 67 38 68 42 69 45 70
REMARK SMILES IDX 39 71 40 72 43 73 41 74 67 75 68 76 76 77 69 78 70 79 74 80
REMARK SMILES IDX 77 81 71 82 72 83 75 84 73 85 52 86 53 87 61 88 54 89 55 90
REMARK SMILES IDX 59 91 62 92 56 93 57 94 60 95 58 96
REMARK H PARENT 19 5 7 15 14 23 14 24 14 25 23 30 82 49 50 60
REMARK Flexibility Score: inf
ROOT
ATOM      1  C   UNL A   1      34.380  28.825  26.753  1.00  0.00     0.118 C 
ENDROOT
BRANCH   1   2
ATOM      2  N   UNL A   1      33.150  28.445  27.431  1.00  0.00    -0.352 N 
ATOM      3  C   UNL A   1      31.891  27.999  27.130  1.00  0.00     0.253 C 
ATOM      4  O   UNL A   1      31.227  27.817  28.162  1.00  0.00    -0.269 OA
ATOM      5  H   UNL A   1      33.256  28.536  28.406  1.00  0.00     0.163 HD
BRANCH   3   6
ATOM      6  C   UNL A   1      31.218  27.700  25.793  1.00  0.00     0.066 A 
ATOM      7  C   UNL A   1      31.148  30.062  24.671  1.00  0.00     0.045 C 
ATOM      8  C   UNL A   1      31.002  28.583  24.697  1.00  0.00    -0.036 A 
ATOM      9  C   UNL A   1      30.416  28.122  23.501  1.00  0.00     0.004 A 
ATOM     10  C   UNL A   1      29.751  26.928  23.473  1.00  0.00     0.002 A 
ATOM     11  C   UNL A   1      30.646  26.386  25.654  1.00  0.00     0.054 A 
ATOM     12  C   UNL A   1      29.786  26.136  24.599  1.00  0.00     0.027 A 
BRANCH  11  13
ATOM     13  N   UNL A   1      30.915  25.330  26.559  1.00  0.00    -0.325 N 
ATOM     14  C   UNL A   1      31.807  24.307  26.661  1.00  0.00     0.231 C 
ATOM     15  H   UNL A   1      30.289  25.339  27.320  1.00  0.00     0.169 HD
ATOM     16  O   UNL A   1      31.654  23.589  27.669  1.00  0.00    -0.274 OA
BRANCH  14  17
ATOM     17  C   UNL A   1      32.930  23.873  25.685  1.00  0.00     0.107 C 
ATOM     18  C   UNL A   1      33.955  24.954  25.500  1.00  0.00    -0.012 C 
ATOM     19  C   UNL A   1      33.758  22.583  25.809  1.00  0.00     0.087 C 
ATOM     20  C   UNL A   1      35.193  24.463  25.381  1.00  0.00     0.033 C 
ATOM     21  C   UNL A   1      35.225  22.972  25.475  1.00  0.00     0.205 C 
BRANCH  21  22
ATOM     22  N   UNL A   1      36.204  22.540  26.465  1.00  0.00    -0.352 N 
ATOM     23  H   UNL A   1      36.778  23.334  26.744  1.00  0.00     0.345 HD
ATOM     24  H   UNL A   1      36.798  21.816  26.061  1.00  0.00     0.345 HD
ATOM     25  H   UNL A   1      35.719  22.166  27.281  1.00  0.00     0.345 HD
ENDBRANCH  21  22
ENDBRANCH  14  17
ENDBRANCH  11  13
ENDBRANCH   3   6
ENDBRANCH   1   2
BRANCH   1  26
ATOM     26  C   UNL A   1      35.420  29.357  27.736  1.00  0.00     0.042 C 
BRANCH  26  27
ATOM     27  C   UNL A   1      35.748  30.830  27.650  1.00  0.00     0.118 C 
BRANCH  27  28
ATOM     28  N   UNL A   1      34.615  31.690  28.006  1.00  0.00    -0.352 N 
ATOM     29  C   UNL A   1      34.530  32.602  29.048  1.00  0.00     0.251 C 
ATOM     30  H   UNL A   1      33.816  31.608  27.437  1.00  0.00     0.163 HD
ATOM     31  O   UNL A   1      33.544  33.285  29.232  1.00  0.00    -0.269 OA
BRANCH  29  32
ATOM     32  C   UNL A   1      35.759  32.794  29.848  1.00  0.00     0.039 A 
ATOM     33  C   UNL A   1      36.716  33.647  29.295  1.00  0.00     0.014 A 
ATOM     34  C   UNL A   1      36.102  31.811  30.770  1.00  0.00     0.014 A 
ATOM     35  C   UNL A   1      38.057  33.323  29.441  1.00  0.00     0.010 A 
ATOM     36  C   UNL A   1      37.430  31.432  30.832  1.00  0.00     0.010 A 
ATOM     37  C   UNL A   1      38.395  32.141  30.101  1.00  0.00    -0.014 A 
BRANCH  37  38
ATOM     38  C   UNL A   1      39.727  31.552  30.013  1.00  0.00     0.031 A 
ATOM     39  C   UNL A   1      39.883  30.226  29.388  1.00  0.00     0.074 A 
ATOM     40  C   UNL A   1      40.820  32.176  30.509  1.00  0.00     0.049 A 
ATOM     41  N   UNL A   1      40.805  29.381  29.707  1.00  0.00    -0.248 NA
ATOM     42  C   UNL A   1      38.963  29.727  28.376  1.00  0.00     0.031 C 
ATOM     43  C   UNL A   1      42.214  31.768  30.334  1.00  0.00     0.029 A 
ATOM     44  N   UNL A   1      40.881  33.208  31.462  1.00  0.00    -0.354 N 
ATOM     45  C   UNL A   1      40.765  28.355  28.794  1.00  0.00     0.074 A 
ATOM     46  C   UNL A   1      39.566  28.590  28.020  1.00  0.00     0.031 C 
ATOM     47  C   UNL A   1      42.941  32.267  31.345  1.00  0.00     0.029 A 
ATOM     48  C   UNL A   1      42.029  32.932  32.252  1.00  0.00     0.049 A 
ATOM     49  H   UNL A   1      40.259  33.965  31.561  1.00  0.00     0.167 HD
ATOM     50  C   UNL A   1      41.811  27.483  28.720  1.00  0.00     0.037 A 
ATOM     51  C   UNL A   1      41.932  32.708  33.594  1.00  0.00     0.037 A 
ATOM     52  C   UNL A   1      42.832  27.771  29.727  1.00  0.00     0.049 A 
ATOM     53  C   UNL A   1      42.360  31.326  34.033  1.00  0.00     0.074 A 
ATOM     54  C   UNL A   1      44.051  28.432  29.709  1.00  0.00     0.029 A 
ATOM     55  N   UNL A   1      42.517  27.602  31.064  1.00  0.00    -0.354 N 
ATOM     56  N   UNL A   1      42.833  30.407  33.237  1.00  0.00    -0.248 NA
ATOM     57  C   UNL A   1      42.163  30.834  35.397  1.00  0.00     0.031 C 
ATOM     58  C   UNL A   1      44.470  28.637  31.054  1.00  0.00     0.029 A 
ATOM     59  C   UNL A   1      43.507  28.102  31.890  1.00  0.00     0.049 A 
ATOM     60  H   UNL A   1      41.691  27.178  31.387  1.00  0.00     0.167 HD
ATOM     61  C   UNL A   1      42.931  29.224  33.921  1.00  0.00     0.074 A 
ATOM     62  C   UNL A   1      42.496  29.540  35.268  1.00  0.00     0.031 C 
ATOM     63  C   UNL A   1      43.310  28.054  33.328  1.00  0.00     0.037 A 
BRANCH  50  64
ATOM     64  C   UNL A   1      42.014  26.529  27.566  1.00  0.00     0.064 A 
ATOM     65  C   UNL A   1      41.291  25.321  27.489  1.00  0.00     0.173 A 
ATOM     66  C   UNL A   1      42.948  26.720  26.530  1.00  0.00     0.173 A 
ATOM     67  F   UNL A   1      40.277  25.057  28.323  1.00  0.00    -0.203 F 
ATOM     68  C   UNL A   1      41.583  24.330  26.548  1.00  0.00     0.198 A 
ATOM     69  C   UNL A   1      43.291  25.705  25.632  1.00  0.00     0.198 A 
ATOM     70  F   UNL A   1      43.513  27.915  26.316  1.00  0.00    -0.203 F 
ATOM     71  F   UNL A   1      40.865  23.199  26.530  1.00  0.00    -0.200 F 
ATOM     72  C   UNL A   1      42.618  24.502  25.651  1.00  0.00     0.200 A 
ATOM     73  F   UNL A   1      44.278  25.905  24.747  1.00  0.00    -0.200 F 
ATOM     74  F   UNL A   1      42.940  23.529  24.790  1.00  0.00    -0.200 F 
ENDBRANCH  50  64
BRANCH  51  75
ATOM     75  C   UNL A   1      40.849  33.514  34.213  1.00  0.00     0.064 A 
ATOM     76  C   UNL A   1      39.617  32.872  34.449  1.00  0.00     0.173 A 
ATOM     77  C   UNL A   1      41.137  34.668  34.948  1.00  0.00     0.173 A 
ATOM     78  F   UNL A   1      39.287  31.773  33.751  1.00  0.00    -0.203 F 
ATOM     79  C   UNL A   1      38.804  33.256  35.510  1.00  0.00     0.198 A 
ATOM     80  C   UNL A   1      40.297  35.071  35.985  1.00  0.00     0.198 A 
ATOM     81  F   UNL A   1      42.292  35.324  34.762  1.00  0.00    -0.203 F 
ATOM     82  F   UNL A   1      37.731  32.519  35.829  1.00  0.00    -0.200 F 
ATOM     83  C   UNL A   1      39.168  34.331  36.302  1.00  0.00     0.200 A 
ATOM     84  F   UNL A   1      40.643  36.119  36.745  1.00  0.00    -0.200 F 
ATOM     85  F   UNL A   1      38.458  34.620  37.402  1.00  0.00    -0.200 F 
ENDBRANCH  51  75
BRANCH  63  86
ATOM     86  C   UNL A   1      43.489  26.761  34.081  1.00  0.00     0.064 A 
ATOM     87  C   UNL A   1      44.734  26.117  34.189  1.00  0.00     0.173 A 
ATOM     88  C   UNL A   1      42.392  26.069  34.640  1.00  0.00     0.173 A 
ATOM     89  F   UNL A   1      45.825  26.622  33.594  1.00  0.00    -0.203 F 
ATOM     90  C   UNL A   1      44.888  24.920  34.893  1.00  0.00     0.198 A 
ATOM     91  C   UNL A   1      42.540  24.846  35.293  1.00  0.00     0.198 A 
ATOM     92  F   UNL A   1      41.149  26.564  34.592  1.00  0.00    -0.203 F 
ATOM     93  F   UNL A   1      46.109  24.385  35.035  1.00  0.00    -0.200 F 
ATOM     94  C   UNL A   1      43.791  24.283  35.442  1.00  0.00     0.200 A 
ATOM     95  F   UNL A   1      41.460  24.222  35.787  1.00  0.00    -0.200 F 
ATOM     96  F   UNL A   1      43.937  23.130  36.108  1.00  0.00    -0.200 F 
ENDBRANCH  63  86
ENDBRANCH  37  38
ENDBRANCH  29  32
ENDBRANCH  27  28
ENDBRANCH  26  27
ENDBRANCH   1  26
TORSDOF 13
ENDMDL
