MODEL 1
REMARK VINA RESULT:     -13.2      0.000      0.000
REMARK SMILES O=C(Cc1ccccc1-c1ccn(C(F)F)c(=O)c1)NCCCNC(=O)c1ccc(-c2c3nc(c(-c4c(F)c(F)c(F)c(F)c4F)c4ccc([nH]4)c(-c4c(F)c(F)c(F)c(F)c4F)c4nc(c(-c5c(F)c(F)c(F)c(F)c5F)c5ccc2[nH]5)C=C4)C=C3)cc1
REMARK SMILES IDX 21 1 20 2 1 3 2 4 3 6 4 7 5 8 9 9 6 10 8 11 7 12 10 13 11 14
REMARK SMILES IDX 19 15 12 16 17 17 13 18 18 19 14 20 15 21 16 22 22 23 23 24
REMARK SMILES IDX 24 25 25 26 26 28 27 29 28 30 89 31 29 32 88 33 30 34 31 35
REMARK SMILES IDX 32 36 82 37 33 38 87 39 81 40 83 41 34 42 86 43 80 44 79 45
REMARK SMILES IDX 35 47 67 48 47 49 66 50 48 51 51 52 65 53 84 54 49 55 50 56
REMARK SMILES IDX 64 58 85 59 52 60 36 61 37 62 45 63 38 64 39 65 43 66 46 67
REMARK SMILES IDX 40 68 41 69 44 70 42 71 68 72 69 73 77 74 70 75 71 76 75 77
REMARK SMILES IDX 78 78 72 79 73 80 76 81 74 82 53 83 54 84 62 85 55 86 56 87
REMARK SMILES IDX 60 88 63 89 57 90 58 91 61 92 59 93
REMARK H PARENT 20 5 24 27 83 46 51 57
REMARK Flexibility Score: inf
ROOT
ATOM      1  C   UNL A   1      31.757  30.613  26.508  1.00  0.00     0.117 C 
ENDROOT
BRANCH   1   2
ATOM      2  N   UNL A   1      31.360  30.153  25.194  1.00  0.00    -0.356 N 
ATOM      3  O   UNL A   1      32.941  28.507  25.021  1.00  0.00    -0.275 OA
ATOM      4  C   UNL A   1      31.967  29.091  24.554  1.00  0.00     0.224 C 
ATOM      5  H   UNL A   1      30.624  30.619  24.736  1.00  0.00     0.163 HD
BRANCH   4   6
ATOM      6  C   UNL A   1      31.390  28.735  23.186  1.00  0.00     0.136 C 
BRANCH   6   7
ATOM      7  C   UNL A   1      29.878  28.607  23.166  1.00  0.00    -0.031 A 
ATOM      8  C   UNL A   1      29.123  29.702  22.701  1.00  0.00     0.005 A 
ATOM      9  C   UNL A   1      29.202  27.454  23.626  1.00  0.00    -0.014 A 
ATOM     10  C   UNL A   1      27.730  29.674  22.726  1.00  0.00     0.000 A 
ATOM     11  C   UNL A   1      27.797  27.448  23.652  1.00  0.00     0.009 A 
ATOM     12  C   UNL A   1      27.066  28.552  23.210  1.00  0.00     0.001 A 
BRANCH   9  13
ATOM     13  C   UNL A   1      29.922  26.226  24.026  1.00  0.00    -0.011 A 
ATOM     14  C   UNL A   1      30.467  25.271  23.084  1.00  0.00     0.027 A 
ATOM     15  C   UNL A   1      30.015  25.967  25.343  1.00  0.00     0.080 A 
ATOM     16  C   UNL A   1      30.960  24.102  23.510  1.00  0.00     0.095 A 
ATOM     17  C   UNL A   1      30.621  24.700  25.834  1.00  0.00     0.255 A 
ATOM     18  N   UNL A   1      31.016  23.801  24.858  1.00  0.00    -0.258 N 
ATOM     19  O   UNL A   1      30.706  24.525  27.049  1.00  0.00    -0.269 OA
BRANCH  18  20
ATOM     20  C   UNL A   1      31.507  22.524  25.305  1.00  0.00     0.451 C 
ATOM     21  F   UNL A   1      30.534  21.821  25.935  1.00  0.00    -0.185 F 
ATOM     22  F   UNL A   1      31.953  21.781  24.263  1.00  0.00    -0.185 F 
ENDBRANCH  18  20
ENDBRANCH   9  13
ENDBRANCH   6   7
ENDBRANCH   4   6
ENDBRANCH   1   2
BRANCH   1  23
ATOM     23  C   UNL A   1      31.486  32.097  26.727  1.00  0.00     0.042 C 
BRANCH  23  24
ATOM     24  C   UNL A   1      32.722  32.940  27.037  1.00  0.00     0.118 C 
BRANCH  24  25
ATOM     25  N   UNL A   1      32.409  34.256  27.577  1.00  0.00    -0.352 N 
ATOM     26  C   UNL A   1      32.977  34.959  28.611  1.00  0.00     0.251 C 
ATOM     27  H   UNL A   1      31.668  34.720  27.124  1.00  0.00     0.163 HD
ATOM     28  O   UNL A   1      32.471  36.025  28.959  1.00  0.00    -0.269 OA
BRANCH  26  29
ATOM     29  C   UNL A   1      34.164  34.448  29.337  1.00  0.00     0.039 A 
ATOM     30  C   UNL A   1      33.962  33.789  30.554  1.00  0.00     0.014 A 
ATOM     31  C   UNL A   1      35.464  34.635  28.862  1.00  0.00     0.014 A 
ATOM     32  C   UNL A   1      35.050  33.254  31.251  1.00  0.00     0.010 A 
ATOM     33  C   UNL A   1      36.542  34.043  29.523  1.00  0.00     0.010 A 
ATOM     34  C   UNL A   1      36.346  33.339  30.719  1.00  0.00    -0.014 A 
BRANCH  34  35
ATOM     35  C   UNL A   1      37.490  32.665  31.390  1.00  0.00     0.031 A 
ATOM     36  C   UNL A   1      38.214  31.526  30.726  1.00  0.00     0.074 A 
ATOM     37  C   UNL A   1      37.844  33.045  32.633  1.00  0.00     0.049 A 
ATOM     38  N   UNL A   1      39.207  30.800  31.177  1.00  0.00    -0.248 NA
ATOM     39  C   UNL A   1      37.748  31.137  29.387  1.00  0.00     0.031 C 
ATOM     40  C   UNL A   1      37.189  34.099  33.411  1.00  0.00     0.029 A 
ATOM     41  N   UNL A   1      38.834  32.586  33.466  1.00  0.00    -0.354 N 
ATOM     42  C   UNL A   1      39.476  29.865  30.186  1.00  0.00     0.074 A 
ATOM     43  C   UNL A   1      38.510  30.083  29.130  1.00  0.00     0.031 C 
ATOM     44  C   UNL A   1      37.810  34.223  34.594  1.00  0.00     0.029 A 
ATOM     45  C   UNL A   1      38.882  33.236  34.676  1.00  0.00     0.049 A 
ATOM     46  H   UNL A   1      39.452  31.861  33.220  1.00  0.00     0.167 HD
ATOM     47  C   UNL A   1      40.452  28.925  30.151  1.00  0.00     0.037 A 
ATOM     48  C   UNL A   1      39.695  33.055  35.734  1.00  0.00     0.037 A 
ATOM     49  C   UNL A   1      41.424  28.721  31.194  1.00  0.00     0.049 A 
ATOM     50  C   UNL A   1      40.771  32.007  35.667  1.00  0.00     0.074 A 
ATOM     51  C   UNL A   1      42.487  27.832  31.221  1.00  0.00     0.029 A 
ATOM     52  N   UNL A   1      41.453  29.411  32.397  1.00  0.00    -0.354 N 
ATOM     53  N   UNL A   1      41.061  31.179  34.693  1.00  0.00    -0.248 NA
ATOM     54  C   UNL A   1      41.642  31.877  36.843  1.00  0.00     0.031 C 
ATOM     55  C   UNL A   1      43.130  27.953  32.459  1.00  0.00     0.029 A 
ATOM     56  C   UNL A   1      42.501  28.953  33.182  1.00  0.00     0.049 A 
ATOM     57  H   UNL A   1      40.822  30.121  32.655  1.00  0.00     0.167 HD
ATOM     58  C   UNL A   1      42.160  30.450  35.127  1.00  0.00     0.074 A 
ATOM     59  C   UNL A   1      42.497  30.947  36.445  1.00  0.00     0.031 C 
ATOM     60  C   UNL A   1      42.830  29.458  34.490  1.00  0.00     0.037 A 
BRANCH  47  61
ATOM     61  C   UNL A   1      40.522  28.042  28.938  1.00  0.00     0.064 A 
ATOM     62  C   UNL A   1      39.777  26.856  28.848  1.00  0.00     0.173 A 
ATOM     63  C   UNL A   1      41.307  28.408  27.833  1.00  0.00     0.173 A 
ATOM     64  F   UNL A   1      39.018  26.454  29.879  1.00  0.00    -0.203 F 
ATOM     65  C   UNL A   1      39.838  26.054  27.710  1.00  0.00     0.198 A 
ATOM     66  C   UNL A   1      41.341  27.620  26.685  1.00  0.00     0.198 A 
ATOM     67  F   UNL A   1      42.033  29.535  27.863  1.00  0.00    -0.203 F 
ATOM     68  F   UNL A   1      39.156  24.902  27.666  1.00  0.00    -0.200 F 
ATOM     69  C   UNL A   1      40.614  26.441  26.627  1.00  0.00     0.200 A 
ATOM     70  F   UNL A   1      42.081  28.002  25.635  1.00  0.00    -0.200 F 
ATOM     71  F   UNL A   1      40.665  25.673  25.530  1.00  0.00    -0.200 F 
ENDBRANCH  47  61
BRANCH  48  72
ATOM     72  C   UNL A   1      39.542  33.910  36.941  1.00  0.00     0.064 A 
ATOM     73  C   UNL A   1      38.780  33.478  38.035  1.00  0.00     0.173 A 
ATOM     74  C   UNL A   1      40.146  35.172  37.022  1.00  0.00     0.173 A 
ATOM     75  F   UNL A   1      38.164  32.287  37.994  1.00  0.00    -0.203 F 
ATOM     76  C   UNL A   1      38.610  34.287  39.157  1.00  0.00     0.198 A 
ATOM     77  C   UNL A   1      40.001  35.967  38.158  1.00  0.00     0.198 A 
ATOM     78  F   UNL A   1      40.889  35.628  36.004  1.00  0.00    -0.203 F 
ATOM     79  F   UNL A   1      37.838  33.869  40.170  1.00  0.00    -0.200 F 
ATOM     80  C   UNL A   1      39.226  35.527  39.219  1.00  0.00     0.200 A 
ATOM     81  F   UNL A   1      40.608  37.159  38.220  1.00  0.00    -0.200 F 
ATOM     82  F   UNL A   1      39.066  36.303  40.301  1.00  0.00    -0.200 F 
ENDBRANCH  48  72
BRANCH  60  83
ATOM     83  C   UNL A   1      44.018  28.869  35.196  1.00  0.00     0.064 A 
ATOM     84  C   UNL A   1      45.313  29.374  35.010  1.00  0.00     0.173 A 
ATOM     85  C   UNL A   1      43.854  27.796  36.085  1.00  0.00     0.173 A 
ATOM     86  F   UNL A   1      45.526  30.388  34.158  1.00  0.00    -0.203 F 
ATOM     87  C   UNL A   1      46.404  28.805  35.662  1.00  0.00     0.198 A 
ATOM     88  C   UNL A   1      44.942  27.251  36.760  1.00  0.00     0.198 A 
ATOM     89  F   UNL A   1      42.635  27.279  36.305  1.00  0.00    -0.203 F 
ATOM     90  F   UNL A   1      47.639  29.268  35.425  1.00  0.00    -0.200 F 
ATOM     91  C   UNL A   1      46.217  27.748  36.541  1.00  0.00     0.200 A 
ATOM     92  F   UNL A   1      44.757  26.238  37.618  1.00  0.00    -0.200 F 
ATOM     93  F   UNL A   1      47.268  27.203  37.168  1.00  0.00    -0.200 F 
ENDBRANCH  60  83
ENDBRANCH  34  35
ENDBRANCH  26  29
ENDBRANCH  24  25
ENDBRANCH  23  24
ENDBRANCH   1  23
TORSDOF 13
ENDMDL
MODEL 2
REMARK VINA RESULT:     -13.0      0.550      7.492
REMARK SMILES O=C(Cc1ccccc1-c1ccn(C(F)F)c(=O)c1)NCCCNC(=O)c1ccc(-c2c3nc(c(-c4c(F)c(F)c(F)c(F)c4F)c4ccc([nH]4)c(-c4c(F)c(F)c(F)c(F)c4F)c4nc(c(-c5c(F)c(F)c(F)c(F)c5F)c5ccc2[nH]5)C=C4)C=C3)cc1
REMARK SMILES IDX 21 1 20 2 1 3 2 4 3 6 4 7 5 8 9 9 6 10 8 11 7 12 10 13 11 14
REMARK SMILES IDX 19 15 12 16 17 17 13 18 18 19 14 20 15 21 16 22 22 23 23 24
REMARK SMILES IDX 24 25 25 26 26 28 27 29 28 30 89 31 29 32 88 33 30 34 31 35
REMARK SMILES IDX 32 36 82 37 33 38 87 39 81 40 83 41 34 42 86 43 80 44 79 45
REMARK SMILES IDX 35 47 67 48 47 49 66 50 48 51 51 52 65 53 84 54 49 55 50 56
REMARK SMILES IDX 64 58 85 59 52 60 36 61 37 62 45 63 38 64 39 65 43 66 46 67
REMARK SMILES IDX 40 68 41 69 44 70 42 71 68 72 69 73 77 74 70 75 71 76 75 77
REMARK SMILES IDX 78 78 72 79 73 80 76 81 74 82 53 83 54 84 62 85 55 86 56 87
REMARK SMILES IDX 60 88 63 89 57 90 58 91 61 92 59 93
REMARK H PARENT 20 5 24 27 83 46 51 57
REMARK Flexibility Score: inf
ROOT
ATOM      1  C   UNL A   1      31.763  30.598  26.514  1.00  0.00     0.117 C 
ENDROOT
BRANCH   1   2
ATOM      2  N   UNL A   1      31.406  30.103  25.200  1.00  0.00    -0.356 N 
ATOM      3  O   UNL A   1      33.240  28.760  24.935  1.00  0.00    -0.275 OA
ATOM      4  C   UNL A   1      32.163  29.176  24.514  1.00  0.00     0.224 C 
ATOM      5  H   UNL A   1      30.585  30.444  24.778  1.00  0.00     0.163 HD
BRANCH   4   6
ATOM      6  C   UNL A   1      31.610  28.754  23.156  1.00  0.00     0.136 C 
BRANCH   6   7
ATOM      7  C   UNL A   1      30.096  28.654  23.109  1.00  0.00    -0.031 A 
ATOM      8  C   UNL A   1      29.370  29.753  22.608  1.00  0.00     0.005 A 
ATOM      9  C   UNL A   1      29.390  27.524  23.579  1.00  0.00    -0.014 A 
ATOM     10  C   UNL A   1      27.977  29.752  22.606  1.00  0.00     0.000 A 
ATOM     11  C   UNL A   1      27.984  27.544  23.578  1.00  0.00     0.009 A 
ATOM     12  C   UNL A   1      27.283  28.653  23.099  1.00  0.00     0.001 A 
BRANCH   9  13
ATOM     13  C   UNL A   1      30.078  26.291  24.018  1.00  0.00    -0.011 A 
ATOM     14  C   UNL A   1      30.489  25.235  23.115  1.00  0.00     0.027 A 
ATOM     15  C   UNL A   1      30.274  26.130  25.339  1.00  0.00     0.080 A 
ATOM     16  C   UNL A   1      30.957  24.076  23.594  1.00  0.00     0.095 A 
ATOM     17  C   UNL A   1      30.855  24.872  25.881  1.00  0.00     0.255 A 
ATOM     18  N   UNL A   1      31.116  23.879  24.953  1.00  0.00    -0.258 N 
ATOM     19  O   UNL A   1      31.038  24.788  27.095  1.00  0.00    -0.269 OA
BRANCH  18  20
ATOM     20  C   UNL A   1      31.579  22.614  25.461  1.00  0.00     0.451 C 
ATOM     21  F   UNL A   1      30.541  21.842  25.865  1.00  0.00    -0.185 F 
ATOM     22  F   UNL A   1      32.268  21.930  24.515  1.00  0.00    -0.185 F 
ENDBRANCH  18  20
ENDBRANCH   9  13
ENDBRANCH   6   7
ENDBRANCH   4   6
ENDBRANCH   1   2
BRANCH   1  23
ATOM     23  C   UNL A   1      31.497  32.089  26.682  1.00  0.00     0.042 C 
BRANCH  23  24
ATOM     24  C   UNL A   1      32.733  32.938  26.973  1.00  0.00     0.118 C 
BRANCH  24  25
ATOM     25  N   UNL A   1      32.429  34.214  27.604  1.00  0.00    -0.352 N 
ATOM     26  C   UNL A   1      33.013  34.847  28.674  1.00  0.00     0.251 C 
ATOM     27  H   UNL A   1      31.682  34.707  27.194  1.00  0.00     0.163 HD
ATOM     28  O   UNL A   1      32.512  35.887  29.100  1.00  0.00    -0.269 OA
BRANCH  26  29
ATOM     29  C   UNL A   1      34.209  34.289  29.347  1.00  0.00     0.039 A 
ATOM     30  C   UNL A   1      34.021  33.506  30.490  1.00  0.00     0.014 A 
ATOM     31  C   UNL A   1      35.505  34.551  28.896  1.00  0.00     0.014 A 
ATOM     32  C   UNL A   1      35.120  32.925  31.132  1.00  0.00     0.010 A 
ATOM     33  C   UNL A   1      36.596  33.916  29.495  1.00  0.00     0.010 A 
ATOM     34  C   UNL A   1      36.415  33.090  30.614  1.00  0.00    -0.014 A 
BRANCH  34  35
ATOM     35  C   UNL A   1      37.572  32.375  31.214  1.00  0.00     0.031 A 
ATOM     36  C   UNL A   1      38.089  32.748  32.577  1.00  0.00     0.074 A 
ATOM     37  C   UNL A   1      38.200  31.419  30.502  1.00  0.00     0.049 A 
ATOM     38  N   UNL A   1      39.107  32.257  33.239  1.00  0.00    -0.248 NA
ATOM     39  C   UNL A   1      37.382  33.828  33.280  1.00  0.00     0.031 C 
ATOM     40  C   UNL A   1      37.833  30.999  29.148  1.00  0.00     0.029 A 
ATOM     41  N   UNL A   1      39.281  30.631  30.811  1.00  0.00    -0.354 N 
ATOM     42  C   UNL A   1      39.169  32.974  34.427  1.00  0.00     0.074 A 
ATOM     43  C   UNL A   1      38.117  33.966  34.374  1.00  0.00     0.031 C 
ATOM     44  C   UNL A   1      38.658  30.017  28.753  1.00  0.00     0.029 A 
ATOM     45  C   UNL A   1      39.632  29.759  29.809  1.00  0.00     0.049 A 
ATOM     46  H   UNL A   1      39.759  30.685  31.670  1.00  0.00     0.167 HD
ATOM     47  C   UNL A   1      40.014  32.806  35.474  1.00  0.00     0.037 A 
ATOM     48  C   UNL A   1      40.629  28.857  29.745  1.00  0.00     0.037 A 
ATOM     49  C   UNL A   1      41.049  31.806  35.535  1.00  0.00     0.049 A 
ATOM     50  C   UNL A   1      41.549  28.689  30.923  1.00  0.00     0.074 A 
ATOM     51  C   UNL A   1      41.914  31.521  36.578  1.00  0.00     0.029 A 
ATOM     52  N   UNL A   1      41.363  30.928  34.507  1.00  0.00    -0.354 N 
ATOM     53  N   UNL A   1      41.551  29.324  32.069  1.00  0.00    -0.248 NA
ATOM     54  C   UNL A   1      42.601  27.669  30.801  1.00  0.00     0.031 C 
ATOM     55  C   UNL A   1      42.782  30.503  36.165  1.00  0.00     0.029 A 
ATOM     56  C   UNL A   1      42.423  30.116  34.884  1.00  0.00     0.049 A 
ATOM     57  H   UNL A   1      40.901  30.888  33.639  1.00  0.00     0.167 HD
ATOM     58  C   UNL A   1      42.580  28.764  32.814  1.00  0.00     0.074 A 
ATOM     59  C   UNL A   1      43.171  27.725  31.995  1.00  0.00     0.031 C 
ATOM     60  C   UNL A   1      42.999  29.083  34.063  1.00  0.00     0.037 A 
BRANCH  47  61
ATOM     61  C   UNL A   1      39.851  33.725  36.652  1.00  0.00     0.064 A 
ATOM     62  C   UNL A   1      40.542  34.943  36.734  1.00  0.00     0.173 A 
ATOM     63  C   UNL A   1      38.959  33.406  37.688  1.00  0.00     0.173 A 
ATOM     64  F   UNL A   1      41.413  35.292  35.776  1.00  0.00    -0.203 F 
ATOM     65  C   UNL A   1      40.369  35.794  37.823  1.00  0.00     0.198 A 
ATOM     66  C   UNL A   1      38.766  34.273  38.760  1.00  0.00     0.198 A 
ATOM     67  F   UNL A   1      38.268  32.257  37.656  1.00  0.00    -0.203 F 
ATOM     68  F   UNL A   1      41.076  36.930  37.904  1.00  0.00    -0.200 F 
ATOM     69  C   UNL A   1      39.476  35.462  38.831  1.00  0.00     0.200 A 
ATOM     70  F   UNL A   1      37.893  33.957  39.727  1.00  0.00    -0.200 F 
ATOM     71  F   UNL A   1      39.305  36.285  39.874  1.00  0.00    -0.200 F 
ENDBRANCH  47  61
BRANCH  48  72
ATOM     72  C   UNL A   1      40.792  28.017  28.529  1.00  0.00     0.064 A 
ATOM     73  C   UNL A   1      41.568  28.459  27.448  1.00  0.00     0.173 A 
ATOM     74  C   UNL A   1      40.173  26.764  28.420  1.00  0.00     0.173 A 
ATOM     75  F   UNL A   1      42.161  29.661  27.498  1.00  0.00    -0.203 F 
ATOM     76  C   UNL A   1      41.701  27.688  26.296  1.00  0.00     0.198 A 
ATOM     77  C   UNL A   1      40.332  25.980  27.278  1.00  0.00     0.198 A 
ATOM     78  F   UNL A   1      39.425  26.294  29.428  1.00  0.00    -0.203 F 
ATOM     79  F   UNL A   1      42.410  28.156  25.259  1.00  0.00    -0.200 F 
ATOM     80  C   UNL A   1      41.088  26.447  26.214  1.00  0.00     0.200 A 
ATOM     81  F   UNL A   1      39.749  24.776  27.209  1.00  0.00    -0.200 F 
ATOM     82  F   UNL A   1      41.220  25.704  25.107  1.00  0.00    -0.200 F 
ENDBRANCH  48  72
BRANCH  60  83
ATOM     83  C   UNL A   1      44.128  28.274  34.635  1.00  0.00     0.064 A 
ATOM     84  C   UNL A   1      43.901  27.076  35.329  1.00  0.00     0.173 A 
ATOM     85  C   UNL A   1      45.457  28.695  34.471  1.00  0.00     0.173 A 
ATOM     86  F   UNL A   1      42.649  26.637  35.528  1.00  0.00    -0.203 F 
ATOM     87  C   UNL A   1      44.960  26.347  35.866  1.00  0.00     0.198 A 
ATOM     88  C   UNL A   1      46.514  27.948  34.981  1.00  0.00     0.198 A 
ATOM     89  F   UNL A   1      45.730  29.831  33.810  1.00  0.00    -0.203 F 
ATOM     90  F   UNL A   1      44.715  25.236  36.572  1.00  0.00    -0.200 F 
ATOM     91  C   UNL A   1      46.266  26.780  35.686  1.00  0.00     0.200 A 
ATOM     92  F   UNL A   1      47.776  28.362  34.795  1.00  0.00    -0.200 F 
ATOM     93  F   UNL A   1      47.283  26.077  36.202  1.00  0.00    -0.200 F 
ENDBRANCH  60  83
ENDBRANCH  34  35
ENDBRANCH  26  29
ENDBRANCH  24  25
ENDBRANCH  23  24
ENDBRANCH   1  23
TORSDOF 13
ENDMDL
MODEL 3
REMARK VINA RESULT:     -13.0      1.953      3.243
REMARK SMILES O=C(Cc1ccccc1-c1ccn(C(F)F)c(=O)c1)NCCCNC(=O)c1ccc(-c2c3nc(c(-c4c(F)c(F)c(F)c(F)c4F)c4ccc([nH]4)c(-c4c(F)c(F)c(F)c(F)c4F)c4nc(c(-c5c(F)c(F)c(F)c(F)c5F)c5ccc2[nH]5)C=C4)C=C3)cc1
REMARK SMILES IDX 21 1 20 2 1 3 2 4 3 6 4 7 5 8 9 9 6 10 8 11 7 12 10 13 11 14
REMARK SMILES IDX 19 15 12 16 17 17 13 18 18 19 14 20 15 21 16 22 22 23 23 24
REMARK SMILES IDX 24 25 25 26 26 28 27 29 28 30 89 31 29 32 88 33 30 34 31 35
REMARK SMILES IDX 32 36 82 37 33 38 87 39 81 40 83 41 34 42 86 43 80 44 79 45
REMARK SMILES IDX 35 47 67 48 47 49 66 50 48 51 51 52 65 53 84 54 49 55 50 56
REMARK SMILES IDX 64 58 85 59 52 60 36 61 37 62 45 63 38 64 39 65 43 66 46 67
REMARK SMILES IDX 40 68 41 69 44 70 42 71 68 72 69 73 77 74 70 75 71 76 75 77
REMARK SMILES IDX 78 78 72 79 73 80 76 81 74 82 53 83 54 84 62 85 55 86 56 87
REMARK SMILES IDX 60 88 63 89 57 90 58 91 61 92 59 93
REMARK H PARENT 20 5 24 27 83 46 51 57
REMARK Flexibility Score: inf
ROOT
ATOM      1  C   UNL A   1      31.450  30.707  26.512  1.00  0.00     0.117 C 
ENDROOT
BRANCH   1   2
ATOM      2  N   UNL A   1      31.853  30.203  25.215  1.00  0.00    -0.356 N 
ATOM      3  O   UNL A   1      33.761  29.167  25.936  1.00  0.00    -0.275 OA
ATOM      4  C   UNL A   1      32.976  29.424  25.027  1.00  0.00     0.224 C 
ATOM      5  H   UNL A   1      31.300  30.427  24.432  1.00  0.00     0.163 HD
BRANCH   4   6
ATOM      6  C   UNL A   1      33.220  28.963  23.593  1.00  0.00     0.136 C 
BRANCH   6   7
ATOM      7  C   UNL A   1      32.820  27.523  23.329  1.00  0.00    -0.031 A 
ATOM      8  C   UNL A   1      33.760  26.509  23.602  1.00  0.00     0.005 A 
ATOM      9  C   UNL A   1      31.564  27.166  22.788  1.00  0.00    -0.014 A 
ATOM     10  C   UNL A   1      33.480  25.175  23.313  1.00  0.00     0.000 A 
ATOM     11  C   UNL A   1      31.303  25.816  22.494  1.00  0.00     0.009 A 
ATOM     12  C   UNL A   1      32.257  24.829  22.750  1.00  0.00     0.001 A 
BRANCH   9  13
ATOM     13  C   UNL A   1      30.487  28.156  22.575  1.00  0.00    -0.011 A 
ATOM     14  C   UNL A   1      30.689  29.438  21.933  1.00  0.00     0.027 A 
ATOM     15  C   UNL A   1      29.269  27.857  23.064  1.00  0.00     0.080 A 
ATOM     16  C   UNL A   1      29.712  30.353  21.921  1.00  0.00     0.095 A 
ATOM     17  C   UNL A   1      28.154  28.840  22.998  1.00  0.00     0.255 A 
ATOM     18  N   UNL A   1      28.471  30.077  22.464  1.00  0.00    -0.258 N 
ATOM     19  O   UNL A   1      27.054  28.505  23.435  1.00  0.00    -0.269 OA
BRANCH  18  20
ATOM     20  C   UNL A   1      27.440  31.082  22.485  1.00  0.00     0.451 C 
ATOM     21  F   UNL A   1      27.283  31.593  23.731  1.00  0.00    -0.185 F 
ATOM     22  F   UNL A   1      27.738  32.104  21.646  1.00  0.00    -0.185 F 
ENDBRANCH  18  20
ENDBRANCH   9  13
ENDBRANCH   6   7
ENDBRANCH   4   6
ENDBRANCH   1   2
BRANCH   1  23
ATOM     23  C   UNL A   1      31.388  32.230  26.566  1.00  0.00     0.042 C 
BRANCH  23  24
ATOM     24  C   UNL A   1      32.623  32.906  27.159  1.00  0.00     0.118 C 
BRANCH  24  25
ATOM     25  N   UNL A   1      32.374  34.258  27.638  1.00  0.00    -0.352 N 
ATOM     26  C   UNL A   1      32.994  34.990  28.621  1.00  0.00     0.251 C 
ATOM     27  H   UNL A   1      31.639  34.727  27.180  1.00  0.00     0.163 HD
ATOM     28  O   UNL A   1      32.537  36.091  28.925  1.00  0.00    -0.269 OA
BRANCH  26  29
ATOM     29  C   UNL A   1      34.178  34.470  29.344  1.00  0.00     0.039 A 
ATOM     30  C   UNL A   1      33.978  33.845  30.579  1.00  0.00     0.014 A 
ATOM     31  C   UNL A   1      35.476  34.617  28.848  1.00  0.00     0.014 A 
ATOM     32  C   UNL A   1      35.063  33.303  31.275  1.00  0.00     0.010 A 
ATOM     33  C   UNL A   1      36.550  34.017  29.509  1.00  0.00     0.010 A 
ATOM     34  C   UNL A   1      36.354  33.346  30.725  1.00  0.00    -0.014 A 
BRANCH  34  35
ATOM     35  C   UNL A   1      37.492  32.663  31.397  1.00  0.00     0.031 A 
ATOM     36  C   UNL A   1      38.194  31.505  30.743  1.00  0.00     0.074 A 
ATOM     37  C   UNL A   1      37.859  33.054  32.633  1.00  0.00     0.049 A 
ATOM     38  N   UNL A   1      39.178  30.770  31.198  1.00  0.00    -0.248 NA
ATOM     39  C   UNL A   1      37.713  31.105  29.413  1.00  0.00     0.031 C 
ATOM     40  C   UNL A   1      37.226  34.128  33.401  1.00  0.00     0.029 A 
ATOM     41  N   UNL A   1      38.848  32.591  33.466  1.00  0.00    -0.354 N 
ATOM     42  C   UNL A   1      39.426  29.818  30.218  1.00  0.00     0.074 A 
ATOM     43  C   UNL A   1      38.457  30.037  29.165  1.00  0.00     0.031 C 
ATOM     44  C   UNL A   1      37.856  34.258  34.579  1.00  0.00     0.029 A 
ATOM     45  C   UNL A   1      38.914  33.256  34.666  1.00  0.00     0.049 A 
ATOM     46  H   UNL A   1      39.453  31.853  33.225  1.00  0.00     0.167 HD
ATOM     47  C   UNL A   1      40.387  28.862  30.189  1.00  0.00     0.037 A 
ATOM     48  C   UNL A   1      39.731  33.076  35.722  1.00  0.00     0.037 A 
ATOM     49  C   UNL A   1      41.363  28.656  31.228  1.00  0.00     0.049 A 
ATOM     50  C   UNL A   1      40.790  32.011  35.661  1.00  0.00     0.074 A 
ATOM     51  C   UNL A   1      42.412  27.752  31.260  1.00  0.00     0.029 A 
ATOM     52  N   UNL A   1      41.410  29.362  32.422  1.00  0.00    -0.354 N 
ATOM     53  N   UNL A   1      41.060  31.165  34.697  1.00  0.00    -0.248 NA
ATOM     54  C   UNL A   1      41.667  31.882  36.834  1.00  0.00     0.031 C 
ATOM     55  C   UNL A   1      43.065  27.879  32.492  1.00  0.00     0.029 A 
ATOM     56  C   UNL A   1      42.456  28.898  33.206  1.00  0.00     0.049 A 
ATOM     57  H   UNL A   1      40.792  30.084  32.674  1.00  0.00     0.167 HD
ATOM     58  C   UNL A   1      42.151  30.425  35.133  1.00  0.00     0.074 A 
ATOM     59  C   UNL A   1      42.504  30.934  36.443  1.00  0.00     0.031 C 
ATOM     60  C   UNL A   1      42.801  29.415  34.505  1.00  0.00     0.037 A 
BRANCH  47  61
ATOM     61  C   UNL A   1      40.436  27.962  28.987  1.00  0.00     0.064 A 
ATOM     62  C   UNL A   1      41.232  28.266  27.872  1.00  0.00     0.173 A 
ATOM     63  C   UNL A   1      39.713  26.758  28.967  1.00  0.00     0.173 A 
ATOM     64  F   UNL A   1      41.934  29.409  27.835  1.00  0.00    -0.203 F 
ATOM     65  C   UNL A   1      41.281  27.415  26.771  1.00  0.00     0.198 A 
ATOM     66  C   UNL A   1      39.789  25.895  27.878  1.00  0.00     0.198 A 
ATOM     67  F   UNL A   1      38.943  26.415  30.010  1.00  0.00    -0.203 F 
ATOM     68  F   UNL A   1      42.010  27.750  25.698  1.00  0.00    -0.200 F 
ATOM     69  C   UNL A   1      40.565  26.226  26.778  1.00  0.00     0.200 A 
ATOM     70  F   UNL A   1      39.107  24.741  27.892  1.00  0.00    -0.200 F 
ATOM     71  F   UNL A   1      40.620  25.404  25.721  1.00  0.00    -0.200 F 
ENDBRANCH  47  61
BRANCH  48  72
ATOM     72  C   UNL A   1      39.598  33.948  36.918  1.00  0.00     0.064 A 
ATOM     73  C   UNL A   1      40.241  35.193  36.975  1.00  0.00     0.173 A 
ATOM     74  C   UNL A   1      38.835  33.556  38.026  1.00  0.00     0.173 A 
ATOM     75  F   UNL A   1      41.001  35.601  35.947  1.00  0.00    -0.203 F 
ATOM     76  C   UNL A   1      40.143  36.003  38.104  1.00  0.00     0.198 A 
ATOM     77  C   UNL A   1      38.712  34.381  39.143  1.00  0.00     0.198 A 
ATOM     78  F   UNL A   1      38.196  32.377  38.019  1.00  0.00    -0.203 F 
ATOM     79  F   UNL A   1      40.806  37.166  38.151  1.00  0.00    -0.200 F 
ATOM     80  C   UNL A   1      39.373  35.598  39.184  1.00  0.00     0.200 A 
ATOM     81  F   UNL A   1      37.957  33.993  40.180  1.00  0.00    -0.200 F 
ATOM     82  F   UNL A   1      39.275  36.380  40.269  1.00  0.00    -0.200 F 
ENDBRANCH  48  72
BRANCH  60  83
ATOM     83  C   UNL A   1      43.984  28.816  35.212  1.00  0.00     0.064 A 
ATOM     84  C   UNL A   1      45.282  29.320  35.036  1.00  0.00     0.173 A 
ATOM     85  C   UNL A   1      43.814  27.735  36.090  1.00  0.00     0.173 A 
ATOM     86  F   UNL A   1      45.501  30.342  34.195  1.00  0.00    -0.203 F 
ATOM     87  C   UNL A   1      46.369  28.743  35.688  1.00  0.00     0.198 A 
ATOM     88  C   UNL A   1      44.897  27.181  36.765  1.00  0.00     0.198 A 
ATOM     89  F   UNL A   1      42.593  27.219  36.299  1.00  0.00    -0.203 F 
ATOM     90  F   UNL A   1      47.605  29.205  35.462  1.00  0.00    -0.200 F 
ATOM     91  C   UNL A   1      46.175  27.678  36.556  1.00  0.00     0.200 A 
ATOM     92  F   UNL A   1      44.707  26.161  37.612  1.00  0.00    -0.200 F 
ATOM     93  F   UNL A   1      47.222  27.125  37.184  1.00  0.00    -0.200 F 
ENDBRANCH  60  83
ENDBRANCH  34  35
ENDBRANCH  26  29
ENDBRANCH  24  25
ENDBRANCH  23  24
ENDBRANCH   1  23
TORSDOF 13
ENDMDL
