MODEL 1
REMARK VINA RESULT:     -12.7      0.000      0.000
REMARK SMILES C/C(=C/c1cccc(OCC(=O)NCCCNC(=O)c2ccc(-c3c4nc(c(-c5c(F)c(F)c(F)c(F)c5F)c5ccc([nH]5)c(-c5c(F)c(F)c(F)c(F)c5F)c5nc(c(-c6c(F)c(F)c(F)c(F)c6F)c6ccc3[nH]6)C=C5)C=C4)cc2)c1)c1nc2sccc2c(=O)[nH]1
REMARK SMILES IDX 14 1 13 2 11 3 12 4 10 6 9 7 8 8 4 9 5 10 83 11 6 12 7 13
REMARK SMILES IDX 3 14 1 15 2 16 84 17 85 18 93 19 86 20 91 21 87 23 90 24
REMARK SMILES IDX 92 25 88 26 89 27 15 28 16 29 17 30 18 31 19 33 20 34 21 35
REMARK SMILES IDX 82 36 22 37 81 38 23 39 24 40 25 41 75 42 26 43 80 44 74 45
REMARK SMILES IDX 76 46 27 47 79 48 73 49 72 50 28 52 60 53 40 54 59 55 41 56
REMARK SMILES IDX 44 57 58 58 77 59 42 60 43 61 57 63 78 64 45 65 29 66 30 67
REMARK SMILES IDX 38 68 31 69 32 70 36 71 39 72 33 73 34 74 37 75 35 76 61 77
REMARK SMILES IDX 62 78 70 79 63 80 64 81 68 82 71 83 65 84 66 85 69 86 67 87
REMARK SMILES IDX 46 88 47 89 55 90 48 91 49 92 53 93 56 94 50 95 51 96 54 97
REMARK SMILES IDX 52 98
REMARK H PARENT 13 5 93 22 17 32 76 51 44 62
REMARK Flexibility Score: inf
ROOT
ATOM      1  C   UNL A   1      32.060  30.652  26.891  1.00  0.00     0.117 C 
ENDROOT
BRANCH   1   2
ATOM      2  N   UNL A   1      33.254  30.315  27.641  1.00  0.00    -0.353 N 
ATOM      3  C   UNL A   1      34.145  29.308  27.387  1.00  0.00     0.257 C 
ATOM      4  O   UNL A   1      35.248  29.336  27.931  1.00  0.00    -0.271 OA
ATOM      5  H   UNL A   1      33.447  30.878  28.427  1.00  0.00     0.163 HD
BRANCH   3   6
ATOM      6  C   UNL A   1      33.789  28.195  26.402  1.00  0.00     0.329 C 
BRANCH   6   7
ATOM      7  O   UNL A   1      32.665  27.399  26.737  1.00  0.00    -0.484 OA
BRANCH   7   8
ATOM      8  C   UNL A   1      31.872  26.929  25.727  1.00  0.00     0.120 A 
ATOM      9  C   UNL A   1      31.281  26.307  23.452  1.00  0.00    -0.022 A 
ATOM     10  C   UNL A   1      30.022  25.892  23.897  1.00  0.00     0.008 A 
ATOM     11  C   UNL A   1      32.202  26.838  24.372  1.00  0.00     0.054 A 
ATOM     12  C   UNL A   1      29.689  25.983  25.247  1.00  0.00     0.004 A 
ATOM     13  C   UNL A   1      30.613  26.497  26.153  1.00  0.00     0.046 A 
BRANCH   9  14
ATOM     14  C   UNL A   1      31.588  26.219  22.017  1.00  0.00     0.015 C 
ATOM     15  C   UNL A   1      32.717  25.373  19.951  1.00  0.00     0.048 C 
ATOM     16  C   UNL A   1      32.396  25.326  21.414  1.00  0.00    -0.008 C 
BRANCH  16  17
ATOM     17  C   UNL A   1      33.075  24.243  22.176  1.00  0.00     0.137 A 
ATOM     18  N   UNL A   1      34.277  24.384  22.642  1.00  0.00    -0.219 NA
ATOM     19  N   UNL A   1      32.321  23.096  22.312  1.00  0.00    -0.306 N 
ATOM     20  C   UNL A   1      34.730  23.326  23.366  1.00  0.00     0.131 A 
ATOM     21  C   UNL A   1      32.743  21.990  23.016  1.00  0.00     0.259 A 
ATOM     22  H   UNL A   1      31.435  23.067  21.885  1.00  0.00     0.171 HD
ATOM     23  S   UNL A   1      36.252  23.339  24.140  1.00  0.00    -0.124 S 
ATOM     24  C   UNL A   1      34.056  22.146  23.601  1.00  0.00     0.077 A 
ATOM     25  O   UNL A   1      32.054  20.988  23.147  1.00  0.00    -0.269 OA
ATOM     26  C   UNL A   1      35.990  21.793  24.830  1.00  0.00     0.068 A 
ATOM     27  C   UNL A   1      34.787  21.249  24.434  1.00  0.00     0.028 A 
ENDBRANCH  16  17
ENDBRANCH   9  14
ENDBRANCH   7   8
ENDBRANCH   6   7
ENDBRANCH   3   6
ENDBRANCH   1   2
BRANCH   1  28
ATOM     28  C   UNL A   1      31.702  32.135  26.895  1.00  0.00     0.042 C 
BRANCH  28  29
ATOM     29  C   UNL A   1      32.860  33.112  27.082  1.00  0.00     0.118 C 
BRANCH  29  30
ATOM     30  N   UNL A   1      32.486  34.372  27.708  1.00  0.00    -0.352 N 
ATOM     31  C   UNL A   1      33.022  35.040  28.781  1.00  0.00     0.251 C 
ATOM     32  H   UNL A   1      31.716  34.822  27.290  1.00  0.00     0.163 HD
ATOM     33  O   UNL A   1      32.479  36.069  29.176  1.00  0.00    -0.269 OA
BRANCH  31  34
ATOM     34  C   UNL A   1      34.214  34.532  29.496  1.00  0.00     0.039 A 
ATOM     35  C   UNL A   1      34.017  33.818  30.686  1.00  0.00     0.014 A 
ATOM     36  C   UNL A   1      35.514  34.774  29.044  1.00  0.00     0.014 A 
ATOM     37  C   UNL A   1      35.109  33.280  31.372  1.00  0.00     0.010 A 
ATOM     38  C   UNL A   1      36.601  34.190  29.700  1.00  0.00     0.010 A 
ATOM     39  C   UNL A   1      36.408  33.425  30.861  1.00  0.00    -0.014 A 
BRANCH  39  40
ATOM     40  C   UNL A   1      37.563  32.743  31.503  1.00  0.00     0.031 A 
ATOM     41  C   UNL A   1      38.231  31.570  30.844  1.00  0.00     0.074 A 
ATOM     42  C   UNL A   1      37.970  33.143  32.724  1.00  0.00     0.049 A 
ATOM     43  N   UNL A   1      39.214  30.822  31.283  1.00  0.00    -0.248 NA
ATOM     44  C   UNL A   1      37.716  31.173  29.525  1.00  0.00     0.031 C 
ATOM     45  C   UNL A   1      37.385  34.246  33.488  1.00  0.00     0.029 A 
ATOM     46  N   UNL A   1      38.965  32.664  33.541  1.00  0.00    -0.354 N 
ATOM     47  C   UNL A   1      39.424  29.860  30.305  1.00  0.00     0.074 A 
ATOM     48  C   UNL A   1      38.443  30.095  29.266  1.00  0.00     0.031 C 
ATOM     49  C   UNL A   1      38.043  34.372  34.651  1.00  0.00     0.029 A 
ATOM     50  C   UNL A   1      39.070  33.338  34.734  1.00  0.00     0.049 A 
ATOM     51  H   UNL A   1      39.547  31.910  33.295  1.00  0.00     0.167 HD
ATOM     52  C   UNL A   1      40.358  28.877  30.272  1.00  0.00     0.037 A 
ATOM     53  C   UNL A   1      39.894  33.140  35.780  1.00  0.00     0.037 A 
ATOM     54  C   UNL A   1      41.347  28.656  31.296  1.00  0.00     0.049 A 
ATOM     55  C   UNL A   1      40.904  32.027  35.726  1.00  0.00     0.074 A 
ATOM     56  C   UNL A   1      42.381  27.736  31.312  1.00  0.00     0.029 A 
ATOM     57  N   UNL A   1      41.418  29.356  32.492  1.00  0.00    -0.354 N 
ATOM     58  N   UNL A   1      41.146  31.174  34.763  1.00  0.00    -0.248 NA
ATOM     59  C   UNL A   1      41.761  31.855  36.909  1.00  0.00     0.031 C 
ATOM     60  C   UNL A   1      43.045  27.842  32.539  1.00  0.00     0.029 A 
ATOM     61  C   UNL A   1      42.458  28.865  33.266  1.00  0.00     0.049 A 
ATOM     62  H   UNL A   1      40.819  30.091  32.753  1.00  0.00     0.167 HD
ATOM     63  C   UNL A   1      42.198  30.385  35.205  1.00  0.00     0.074 A 
ATOM     64  C   UNL A   1      42.557  30.868  36.522  1.00  0.00     0.031 C 
ATOM     65  C   UNL A   1      42.813  29.355  34.574  1.00  0.00     0.037 A 
BRANCH  52  66
ATOM     66  C   UNL A   1      40.351  27.953  29.089  1.00  0.00     0.064 A 
ATOM     67  C   UNL A   1      41.110  28.219  27.939  1.00  0.00     0.173 A 
ATOM     68  C   UNL A   1      39.608  26.763  29.122  1.00  0.00     0.173 A 
ATOM     69  F   UNL A   1      41.833  29.346  27.853  1.00  0.00    -0.203 F 
ATOM     70  C   UNL A   1      41.100  27.344  26.855  1.00  0.00     0.198 A 
ATOM     71  C   UNL A   1      39.624  25.876  28.048  1.00  0.00     0.198 A 
ATOM     72  F   UNL A   1      38.873  26.453  30.201  1.00  0.00    -0.203 F 
ATOM     73  F   UNL A   1      41.795  27.643  25.749  1.00  0.00    -0.200 F 
ATOM     74  C   UNL A   1      40.363  26.172  26.913  1.00  0.00     0.200 A 
ATOM     75  F   UNL A   1      38.923  24.736  28.112  1.00  0.00    -0.200 F 
ATOM     76  F   UNL A   1      40.360  25.328  25.871  1.00  0.00    -0.200 F 
ENDBRANCH  52  66
BRANCH  53  77
ATOM     77  C   UNL A   1      39.818  34.037  36.963  1.00  0.00     0.064 A 
ATOM     78  C   UNL A   1      40.553  35.229  37.004  1.00  0.00     0.173 A 
ATOM     79  C   UNL A   1      39.023  33.720  38.074  1.00  0.00     0.173 A 
ATOM     80  F   UNL A   1      41.346  35.562  35.975  1.00  0.00    -0.203 F 
ATOM     81  C   UNL A   1      40.508  36.064  38.117  1.00  0.00     0.198 A 
ATOM     82  C   UNL A   1      38.957  34.570  39.176  1.00  0.00     0.198 A 
ATOM     83  F   UNL A   1      38.300  32.591  38.084  1.00  0.00    -0.203 F 
ATOM     84  F   UNL A   1      41.253  37.177  38.148  1.00  0.00    -0.200 F 
ATOM     85  C   UNL A   1      39.705  35.738  39.199  1.00  0.00     0.200 A 
ATOM     86  F   UNL A   1      38.171  34.257  40.215  1.00  0.00    -0.200 F 
ATOM     87  F   UNL A   1      39.659  36.543  40.270  1.00  0.00    -0.200 F 
ENDBRANCH  53  77
BRANCH  65  88
ATOM     88  C   UNL A   1      43.966  28.703  35.282  1.00  0.00     0.064 A 
ATOM     89  C   UNL A   1      45.280  29.169  35.138  1.00  0.00     0.173 A 
ATOM     90  C   UNL A   1      43.746  27.615  36.142  1.00  0.00     0.173 A 
ATOM     91  F   UNL A   1      45.546  30.195  34.313  1.00  0.00    -0.203 F 
ATOM     92  C   UNL A   1      46.335  28.557  35.809  1.00  0.00     0.198 A 
ATOM     93  C   UNL A   1      44.799  27.025  36.835  1.00  0.00     0.198 A 
ATOM     94  F   UNL A   1      42.507  27.132  36.319  1.00  0.00    -0.203 F 
ATOM     95  F   UNL A   1      47.589  28.991  35.620  1.00  0.00    -0.200 F 
ATOM     96  C   UNL A   1      46.093  27.491  36.663  1.00  0.00     0.200 A 
ATOM     97  F   UNL A   1      44.561  26.003  37.669  1.00  0.00    -0.200 F 
ATOM     98  F   UNL A   1      47.108  26.908  37.314  1.00  0.00    -0.200 F 
ENDBRANCH  65  88
ENDBRANCH  39  40
ENDBRANCH  31  34
ENDBRANCH  29  30
ENDBRANCH  28  29
ENDBRANCH   1  28
TORSDOF 14
ENDMDL
MODEL 2
REMARK VINA RESULT:     -12.7      1.124      2.277
REMARK SMILES C/C(=C/c1cccc(OCC(=O)NCCCNC(=O)c2ccc(-c3c4nc(c(-c5c(F)c(F)c(F)c(F)c5F)c5ccc([nH]5)c(-c5c(F)c(F)c(F)c(F)c5F)c5nc(c(-c6c(F)c(F)c(F)c(F)c6F)c6ccc3[nH]6)C=C5)C=C4)cc2)c1)c1nc2sccc2c(=O)[nH]1
REMARK SMILES IDX 14 1 13 2 11 3 12 4 10 6 9 7 8 8 4 9 5 10 83 11 6 12 7 13
REMARK SMILES IDX 3 14 1 15 2 16 84 17 85 18 93 19 86 20 91 21 87 23 90 24
REMARK SMILES IDX 92 25 88 26 89 27 15 28 16 29 17 30 18 31 19 33 20 34 21 35
REMARK SMILES IDX 82 36 22 37 81 38 23 39 24 40 25 41 75 42 26 43 80 44 74 45
REMARK SMILES IDX 76 46 27 47 79 48 73 49 72 50 28 52 60 53 40 54 59 55 41 56
REMARK SMILES IDX 44 57 58 58 77 59 42 60 43 61 57 63 78 64 45 65 29 66 30 67
REMARK SMILES IDX 38 68 31 69 32 70 36 71 39 72 33 73 34 74 37 75 35 76 61 77
REMARK SMILES IDX 62 78 70 79 63 80 64 81 68 82 71 83 65 84 66 85 69 86 67 87
REMARK SMILES IDX 46 88 47 89 55 90 48 91 49 92 53 93 56 94 50 95 51 96 54 97
REMARK SMILES IDX 52 98
REMARK H PARENT 13 5 93 22 17 32 76 51 44 62
REMARK Flexibility Score: inf
ROOT
ATOM      1  C   UNL A   1      31.522  30.747  25.842  1.00  0.00     0.117 C 
ENDROOT
BRANCH   1   2
ATOM      2  N   UNL A   1      32.519  29.922  26.496  1.00  0.00    -0.353 N 
ATOM      3  C   UNL A   1      33.575  29.271  25.919  1.00  0.00     0.257 C 
ATOM      4  O   UNL A   1      34.487  28.861  26.636  1.00  0.00    -0.271 OA
ATOM      5  H   UNL A   1      32.424  29.817  27.471  1.00  0.00     0.163 HD
BRANCH   3   6
ATOM      6  C   UNL A   1      33.640  29.102  24.401  1.00  0.00     0.329 C 
BRANCH   6   7
ATOM      7  O   UNL A   1      33.982  27.811  23.929  1.00  0.00    -0.484 OA
BRANCH   7   8
ATOM      8  C   UNL A   1      32.994  26.873  23.815  1.00  0.00     0.120 A 
ATOM      9  C   UNL A   1      31.239  25.369  24.571  1.00  0.00    -0.022 A 
ATOM     10  C   UNL A   1      31.008  24.980  23.247  1.00  0.00     0.008 A 
ATOM     11  C   UNL A   1      32.245  26.310  24.851  1.00  0.00     0.054 A 
ATOM     12  C   UNL A   1      31.753  25.539  22.211  1.00  0.00     0.004 A 
ATOM     13  C   UNL A   1      32.738  26.481  22.497  1.00  0.00     0.046 A 
BRANCH   9  14
ATOM     14  C   UNL A   1      30.450  24.740  25.640  1.00  0.00     0.015 C 
ATOM     15  C   UNL A   1      29.768  22.953  27.251  1.00  0.00     0.048 C 
ATOM     16  C   UNL A   1      30.684  23.551  26.227  1.00  0.00    -0.008 C 
BRANCH  16  17
ATOM     17  C   UNL A   1      31.858  22.713  25.862  1.00  0.00     0.137 A 
ATOM     18  N   UNL A   1      33.073  23.155  25.966  1.00  0.00    -0.219 NA
ATOM     19  N   UNL A   1      31.528  21.458  25.394  1.00  0.00    -0.306 N 
ATOM     20  C   UNL A   1      34.033  22.246  25.650  1.00  0.00     0.131 A 
ATOM     21  C   UNL A   1      32.462  20.510  25.040  1.00  0.00     0.259 A 
ATOM     22  H   UNL A   1      30.574  21.228  25.308  1.00  0.00     0.171 HD
ATOM     23  S   UNL A   1      35.698  22.595  25.800  1.00  0.00    -0.124 S 
ATOM     24  C   UNL A   1      33.827  20.957  25.207  1.00  0.00     0.077 A 
ATOM     25  O   UNL A   1      32.154  19.394  24.647  1.00  0.00    -0.269 OA
ATOM     26  C   UNL A   1      36.142  21.009  25.324  1.00  0.00     0.068 A 
ATOM     27  C   UNL A   1      35.044  20.242  25.002  1.00  0.00     0.028 A 
ENDBRANCH  16  17
ENDBRANCH   9  14
ENDBRANCH   7   8
ENDBRANCH   6   7
ENDBRANCH   3   6
ENDBRANCH   1   2
BRANCH   1  28
ATOM     28  C   UNL A   1      31.280  32.100  26.504  1.00  0.00     0.042 C 
BRANCH  28  29
ATOM     29  C   UNL A   1      32.474  32.730  27.216  1.00  0.00     0.118 C 
BRANCH  29  30
ATOM     30  N   UNL A   1      32.267  34.111  27.625  1.00  0.00    -0.352 N 
ATOM     31  C   UNL A   1      32.941  34.895  28.530  1.00  0.00     0.251 C 
ATOM     32  H   UNL A   1      31.515  34.561  27.178  1.00  0.00     0.163 HD
ATOM     33  O   UNL A   1      32.528  36.028  28.764  1.00  0.00    -0.269 OA
BRANCH  31  34
ATOM     34  C   UNL A   1      34.130  34.394  29.258  1.00  0.00     0.039 A 
ATOM     35  C   UNL A   1      33.930  33.750  30.485  1.00  0.00     0.014 A 
ATOM     36  C   UNL A   1      35.429  34.578  28.778  1.00  0.00     0.014 A 
ATOM     37  C   UNL A   1      35.017  33.221  31.187  1.00  0.00     0.010 A 
ATOM     38  C   UNL A   1      36.509  34.002  29.451  1.00  0.00     0.010 A 
ATOM     39  C   UNL A   1      36.312  33.305  30.654  1.00  0.00    -0.014 A 
BRANCH  39  40
ATOM     40  C   UNL A   1      37.458  32.628  31.318  1.00  0.00     0.031 A 
ATOM     41  C   UNL A   1      38.164  31.478  30.658  1.00  0.00     0.074 A 
ATOM     42  C   UNL A   1      37.822  33.012  32.558  1.00  0.00     0.049 A 
ATOM     43  N   UNL A   1      39.145  30.737  31.112  1.00  0.00    -0.248 NA
ATOM     44  C   UNL A   1      37.696  31.099  29.317  1.00  0.00     0.031 C 
ATOM     45  C   UNL A   1      37.197  34.091  33.324  1.00  0.00     0.029 A 
ATOM     46  N   UNL A   1      38.799  32.532  33.396  1.00  0.00    -0.354 N 
ATOM     47  C   UNL A   1      39.400  29.797  30.124  1.00  0.00     0.074 A 
ATOM     48  C   UNL A   1      38.447  30.038  29.059  1.00  0.00     0.031 C 
ATOM     49  C   UNL A   1      37.817  34.205  34.509  1.00  0.00     0.029 A 
ATOM     50  C   UNL A   1      38.857  33.184  34.603  1.00  0.00     0.049 A 
ATOM     51  H   UNL A   1      39.400  31.792  33.153  1.00  0.00     0.167 HD
ATOM     52  C   UNL A   1      40.349  28.830  30.100  1.00  0.00     0.037 A 
ATOM     53  C   UNL A   1      39.653  32.980  35.671  1.00  0.00     0.037 A 
ATOM     54  C   UNL A   1      41.310  28.604  31.150  1.00  0.00     0.049 A 
ATOM     55  C   UNL A   1      40.681  31.883  35.626  1.00  0.00     0.074 A 
ATOM     56  C   UNL A   1      42.358  27.699  31.180  1.00  0.00     0.029 A 
ATOM     57  N   UNL A   1      41.334  29.281  32.360  1.00  0.00    -0.354 N 
ATOM     58  N   UNL A   1      40.965  31.052  34.655  1.00  0.00    -0.248 NA
ATOM     59  C   UNL A   1      41.505  31.701  36.831  1.00  0.00     0.031 C 
ATOM     60  C   UNL A   1      42.983  27.792  32.429  1.00  0.00     0.029 A 
ATOM     61  C   UNL A   1      42.358  28.792  33.157  1.00  0.00     0.049 A 
ATOM     62  H   UNL A   1      40.716  30.003  32.616  1.00  0.00     0.167 HD
ATOM     63  C   UNL A   1      42.016  30.271  35.114  1.00  0.00     0.074 A 
ATOM     64  C   UNL A   1      42.328  30.734  36.451  1.00  0.00     0.031 C 
ATOM     65  C   UNL A   1      42.666  29.263  34.483  1.00  0.00     0.037 A 
BRANCH  52  66
ATOM     66  C   UNL A   1      40.392  27.928  28.901  1.00  0.00     0.064 A 
ATOM     67  C   UNL A   1      39.653  26.736  28.846  1.00  0.00     0.173 A 
ATOM     68  C   UNL A   1      41.149  28.282  27.773  1.00  0.00     0.173 A 
ATOM     69  F   UNL A   1      38.919  26.348  29.899  1.00  0.00    -0.203 F 
ATOM     70  C   UNL A   1      39.697  25.917  27.720  1.00  0.00     0.198 A 
ATOM     71  C   UNL A   1      41.166  27.475  26.638  1.00  0.00     0.198 A 
ATOM     72  F   UNL A   1      41.865  29.416  27.767  1.00  0.00    -0.203 F 
ATOM     73  F   UNL A   1      39.021  24.760  27.709  1.00  0.00    -0.200 F 
ATOM     74  C   UNL A   1      40.447  26.290  26.616  1.00  0.00     0.200 A 
ATOM     75  F   UNL A   1      41.879  27.845  25.566  1.00  0.00    -0.200 F 
ATOM     76  F   UNL A   1      40.482  25.504  25.530  1.00  0.00    -0.200 F 
ENDBRANCH  52  66
BRANCH  53  77
ATOM     77  C   UNL A   1      39.527  33.852  36.867  1.00  0.00     0.064 A 
ATOM     78  C   UNL A   1      38.744  33.457  37.960  1.00  0.00     0.173 A 
ATOM     79  C   UNL A   1      40.175  35.093  36.941  1.00  0.00     0.173 A 
ATOM     80  F   UNL A   1      38.086  32.290  37.924  1.00  0.00    -0.203 F 
ATOM     81  C   UNL A   1      38.600  34.278  39.076  1.00  0.00     0.198 A 
ATOM     82  C   UNL A   1      40.053  35.901  38.069  1.00  0.00     0.198 A 
ATOM     83  F   UNL A   1      40.937  35.516  35.922  1.00  0.00    -0.203 F 
ATOM     84  F   UNL A   1      37.811  33.895  40.088  1.00  0.00    -0.200 F 
ATOM     85  C   UNL A   1      39.260  35.496  39.133  1.00  0.00     0.200 A 
ATOM     86  F   UNL A   1      40.701  37.072  38.126  1.00  0.00    -0.200 F 
ATOM     87  F   UNL A   1      39.125  36.284  40.208  1.00  0.00    -0.200 F 
ENDBRANCH  53  77
BRANCH  65  88
ATOM     88  C   UNL A   1      43.806  28.614  35.214  1.00  0.00     0.064 A 
ATOM     89  C   UNL A   1      45.117  29.106  35.121  1.00  0.00     0.173 A 
ATOM     90  C   UNL A   1      43.579  27.505  36.044  1.00  0.00     0.173 A 
ATOM     91  F   UNL A   1      45.391  30.153  34.328  1.00  0.00    -0.203 F 
ATOM     92  C   UNL A   1      46.161  28.497  35.813  1.00  0.00     0.198 A 
ATOM     93  C   UNL A   1      44.619  26.917  36.758  1.00  0.00     0.198 A 
ATOM     94  F   UNL A   1      42.343  26.998  36.170  1.00  0.00    -0.203 F 
ATOM     95  F   UNL A   1      47.412  28.955  35.673  1.00  0.00    -0.200 F 
ATOM     96  C   UNL A   1      45.910  27.409  36.637  1.00  0.00     0.200 A 
ATOM     97  F   UNL A   1      44.373  25.874  37.562  1.00  0.00    -0.200 F 
ATOM     98  F   UNL A   1      46.914  26.828  37.307  1.00  0.00    -0.200 F 
ENDBRANCH  65  88
ENDBRANCH  39  40
ENDBRANCH  31  34
ENDBRANCH  29  30
ENDBRANCH  28  29
ENDBRANCH   1  28
TORSDOF 14
ENDMDL
MODEL 3
REMARK VINA RESULT:     -12.6      1.240      7.260
REMARK SMILES C/C(=C/c1cccc(OCC(=O)NCCCNC(=O)c2ccc(-c3c4nc(c(-c5c(F)c(F)c(F)c(F)c5F)c5ccc([nH]5)c(-c5c(F)c(F)c(F)c(F)c5F)c5nc(c(-c6c(F)c(F)c(F)c(F)c6F)c6ccc3[nH]6)C=C5)C=C4)cc2)c1)c1nc2sccc2c(=O)[nH]1
REMARK SMILES IDX 14 1 13 2 11 3 12 4 10 6 9 7 8 8 4 9 5 10 83 11 6 12 7 13
REMARK SMILES IDX 3 14 1 15 2 16 84 17 85 18 93 19 86 20 91 21 87 23 90 24
REMARK SMILES IDX 92 25 88 26 89 27 15 28 16 29 17 30 18 31 19 33 20 34 21 35
REMARK SMILES IDX 82 36 22 37 81 38 23 39 24 40 25 41 75 42 26 43 80 44 74 45
REMARK SMILES IDX 76 46 27 47 79 48 73 49 72 50 28 52 60 53 40 54 59 55 41 56
REMARK SMILES IDX 44 57 58 58 77 59 42 60 43 61 57 63 78 64 45 65 29 66 30 67
REMARK SMILES IDX 38 68 31 69 32 70 36 71 39 72 33 73 34 74 37 75 35 76 61 77
REMARK SMILES IDX 62 78 70 79 63 80 64 81 68 82 71 83 65 84 66 85 69 86 67 87
REMARK SMILES IDX 46 88 47 89 55 90 48 91 49 92 53 93 56 94 50 95 51 96 54 97
REMARK SMILES IDX 52 98
REMARK H PARENT 13 5 93 22 17 32 76 51 44 62
REMARK Flexibility Score: inf
ROOT
ATOM      1  C   UNL A   1      31.389  30.826  25.961  1.00  0.00     0.117 C 
ENDROOT
BRANCH   1   2
ATOM      2  N   UNL A   1      32.421  30.048  26.617  1.00  0.00    -0.353 N 
ATOM      3  C   UNL A   1      33.438  29.346  26.032  1.00  0.00     0.257 C 
ATOM      4  O   UNL A   1      34.392  28.988  26.722  1.00  0.00    -0.271 OA
ATOM      5  H   UNL A   1      32.386  30.022  27.602  1.00  0.00     0.163 HD
BRANCH   3   6
ATOM      6  C   UNL A   1      33.410  29.056  24.531  1.00  0.00     0.329 C 
BRANCH   6   7
ATOM      7  O   UNL A   1      33.759  27.739  24.141  1.00  0.00    -0.484 OA
BRANCH   7   8
ATOM      8  C   UNL A   1      32.763  26.812  24.007  1.00  0.00     0.120 A 
ATOM      9  C   UNL A   1      31.027  25.272  24.736  1.00  0.00    -0.022 A 
ATOM     10  C   UNL A   1      30.752  24.958  23.401  1.00  0.00     0.008 A 
ATOM     11  C   UNL A   1      32.046  26.194  25.035  1.00  0.00     0.054 A 
ATOM     12  C   UNL A   1      31.466  25.572  22.373  1.00  0.00     0.004 A 
ATOM     13  C   UNL A   1      32.463  26.494  22.679  1.00  0.00     0.046 A 
BRANCH   9  14
ATOM     14  C   UNL A   1      30.271  24.587  25.794  1.00  0.00     0.015 C 
ATOM     15  C   UNL A   1      29.668  22.735  27.362  1.00  0.00     0.048 C 
ATOM     16  C   UNL A   1      30.553  23.393  26.348  1.00  0.00    -0.008 C 
BRANCH  16  17
ATOM     17  C   UNL A   1      31.755  22.608  25.952  1.00  0.00     0.137 A 
ATOM     18  N   UNL A   1      32.954  23.087  26.073  1.00  0.00    -0.219 NA
ATOM     19  N   UNL A   1      31.466  21.362  25.439  1.00  0.00    -0.306 N 
ATOM     20  C   UNL A   1      33.944  22.223  25.724  1.00  0.00     0.131 A 
ATOM     21  C   UNL A   1      32.431  20.459  25.051  1.00  0.00     0.259 A 
ATOM     22  H   UNL A   1      30.521  21.103  25.344  1.00  0.00     0.171 HD
ATOM     23  S   UNL A   1      35.597  22.622  25.887  1.00  0.00    -0.124 S 
ATOM     24  C   UNL A   1      33.781  20.945  25.235  1.00  0.00     0.077 A 
ATOM     25  O   UNL A   1      32.160  19.348  24.617  1.00  0.00    -0.269 OA
ATOM     26  C   UNL A   1      36.092  21.071  25.354  1.00  0.00     0.068 A 
ATOM     27  C   UNL A   1      35.020  20.279  25.004  1.00  0.00     0.028 A 
ENDBRANCH  16  17
ENDBRANCH   9  14
ENDBRANCH   7   8
ENDBRANCH   6   7
ENDBRANCH   3   6
ENDBRANCH   1   2
BRANCH   1  28
ATOM     28  C   UNL A   1      31.299  32.279  26.416  1.00  0.00     0.042 C 
BRANCH  28  29
ATOM     29  C   UNL A   1      32.524  32.843  27.130  1.00  0.00     0.118 C 
BRANCH  29  30
ATOM     30  N   UNL A   1      32.356  34.201  27.626  1.00  0.00    -0.352 N 
ATOM     31  C   UNL A   1      33.043  34.902  28.587  1.00  0.00     0.251 C 
ATOM     32  H   UNL A   1      31.624  34.704  27.201  1.00  0.00     0.163 HD
ATOM     33  O   UNL A   1      32.663  36.031  28.890  1.00  0.00    -0.269 OA
BRANCH  31  34
ATOM     34  C   UNL A   1      34.206  34.317  29.292  1.00  0.00     0.039 A 
ATOM     35  C   UNL A   1      33.965  33.541  30.433  1.00  0.00     0.014 A 
ATOM     36  C   UNL A   1      35.521  34.547  28.879  1.00  0.00     0.014 A 
ATOM     37  C   UNL A   1      35.028  32.931  31.106  1.00  0.00     0.010 A 
ATOM     38  C   UNL A   1      36.577  33.894  29.519  1.00  0.00     0.010 A 
ATOM     39  C   UNL A   1      36.340  33.068  30.629  1.00  0.00    -0.014 A 
BRANCH  39  40
ATOM     40  C   UNL A   1      37.461  32.315  31.250  1.00  0.00     0.031 A 
ATOM     41  C   UNL A   1      37.963  32.667  32.622  1.00  0.00     0.074 A 
ATOM     42  C   UNL A   1      38.077  31.346  30.543  1.00  0.00     0.049 A 
ATOM     43  N   UNL A   1      38.964  32.155  33.296  1.00  0.00    -0.248 NA
ATOM     44  C   UNL A   1      37.259  33.752  33.323  1.00  0.00     0.031 C 
ATOM     45  C   UNL A   1      37.711  30.928  29.189  1.00  0.00     0.029 A 
ATOM     46  N   UNL A   1      39.146  30.544  30.861  1.00  0.00    -0.354 N 
ATOM     47  C   UNL A   1      39.019  32.862  34.489  1.00  0.00     0.074 A 
ATOM     48  C   UNL A   1      37.975  33.864  34.432  1.00  0.00     0.031 C 
ATOM     49  C   UNL A   1      38.526  29.935  28.800  1.00  0.00     0.029 A 
ATOM     50  C   UNL A   1      39.496  29.671  29.860  1.00  0.00     0.049 A 
ATOM     51  H   UNL A   1      39.616  30.589  31.725  1.00  0.00     0.167 HD
ATOM     52  C   UNL A   1      39.857  32.683  35.540  1.00  0.00     0.037 A 
ATOM     53  C   UNL A   1      40.490  28.765  29.796  1.00  0.00     0.037 A 
ATOM     54  C   UNL A   1      40.882  31.672  35.603  1.00  0.00     0.049 A 
ATOM     55  C   UNL A   1      41.420  28.605  30.968  1.00  0.00     0.074 A 
ATOM     56  C   UNL A   1      41.726  31.366  36.657  1.00  0.00     0.029 A 
ATOM     57  N   UNL A   1      41.210  30.811  34.567  1.00  0.00    -0.354 N 
ATOM     58  N   UNL A   1      41.414  29.225  32.121  1.00  0.00    -0.248 NA
ATOM     59  C   UNL A   1      42.495  27.612  30.827  1.00  0.00     0.031 C 
ATOM     60  C   UNL A   1      42.600  30.355  36.241  1.00  0.00     0.029 A 
ATOM     61  C   UNL A   1      42.265  29.995  34.945  1.00  0.00     0.049 A 
ATOM     62  H   UNL A   1      40.760  30.782  33.692  1.00  0.00     0.167 HD
ATOM     63  C   UNL A   1      42.458  28.680  32.855  1.00  0.00     0.074 A 
ATOM     64  C   UNL A   1      43.072  27.669  32.019  1.00  0.00     0.031 C 
ATOM     65  C   UNL A   1      42.867  28.987  34.110  1.00  0.00     0.037 A 
BRANCH  52  66
ATOM     66  C   UNL A   1      39.709  33.611  36.711  1.00  0.00     0.064 A 
ATOM     67  C   UNL A   1      40.377  34.844  36.766  1.00  0.00     0.173 A 
ATOM     68  C   UNL A   1      38.854  33.281  37.774  1.00  0.00     0.173 A 
ATOM     69  F   UNL A   1      41.211  35.204  35.778  1.00  0.00    -0.203 F 
ATOM     70  C   UNL A   1      40.219  35.697  37.855  1.00  0.00     0.198 A 
ATOM     71  C   UNL A   1      38.675  34.151  38.847  1.00  0.00     0.198 A 
ATOM     72  F   UNL A   1      38.182  32.120  37.767  1.00  0.00    -0.203 F 
ATOM     73  F   UNL A   1      40.904  36.847  37.908  1.00  0.00    -0.200 F 
ATOM     74  C   UNL A   1      39.364  35.353  38.891  1.00  0.00     0.200 A 
ATOM     75  F   UNL A   1      37.837  33.823  39.840  1.00  0.00    -0.200 F 
ATOM     76  F   UNL A   1      39.208  36.178  39.936  1.00  0.00    -0.200 F 
ENDBRANCH  52  66
BRANCH  53  77
ATOM     77  C   UNL A   1      40.644  27.916  28.587  1.00  0.00     0.064 A 
ATOM     78  C   UNL A   1      41.448  28.334  27.518  1.00  0.00     0.173 A 
ATOM     79  C   UNL A   1      39.990  26.681  28.469  1.00  0.00     0.173 A 
ATOM     80  F   UNL A   1      42.074  29.519  27.575  1.00  0.00    -0.203 F 
ATOM     81  C   UNL A   1      41.580  27.557  26.370  1.00  0.00     0.198 A 
ATOM     82  C   UNL A   1      40.144  25.892  27.332  1.00  0.00     0.198 A 
ATOM     83  F   UNL A   1      39.210  26.236  29.465  1.00  0.00    -0.203 F 
ATOM     84  F   UNL A   1      42.320  28.000  25.345  1.00  0.00    -0.200 F 
ATOM     85  C   UNL A   1      40.934  26.334  26.280  1.00  0.00     0.200 A 
ATOM     86  F   UNL A   1      39.527  24.705  27.253  1.00  0.00    -0.200 F 
ATOM     87  F   UNL A   1      41.063  25.584  25.177  1.00  0.00    -0.200 F 
ENDBRANCH  53  77
BRANCH  65  88
ATOM     88  C   UNL A   1      44.012  28.196  34.674  1.00  0.00     0.064 A 
ATOM     89  C   UNL A   1      45.333  28.663  34.613  1.00  0.00     0.173 A 
ATOM     90  C   UNL A   1      43.779  26.969  35.315  1.00  0.00     0.173 A 
ATOM     91  F   UNL A   1      45.611  29.822  33.996  1.00  0.00    -0.203 F 
ATOM     92  C   UNL A   1      46.381  27.920  35.150  1.00  0.00     0.198 A 
ATOM     93  C   UNL A   1      44.825  26.242  35.877  1.00  0.00     0.198 A 
ATOM     94  F   UNL A   1      42.533  26.478  35.404  1.00  0.00    -0.203 F 
ATOM     95  F   UNL A   1      47.641  28.364  35.038  1.00  0.00    -0.200 F 
ATOM     96  C   UNL A   1      46.125  26.715  35.788  1.00  0.00     0.200 A 
ATOM     97  F   UNL A   1      44.575  25.085  36.503  1.00  0.00    -0.200 F 
ATOM     98  F   UNL A   1      47.134  26.005  36.310  1.00  0.00    -0.200 F 
ENDBRANCH  65  88
ENDBRANCH  39  40
ENDBRANCH  31  34
ENDBRANCH  29  30
ENDBRANCH  28  29
ENDBRANCH   1  28
TORSDOF 14
ENDMDL
