MODEL 1
REMARK VINA RESULT:     -12.4      0.000      0.000
REMARK SMILES Cc1cc2c(c(C)c1Cl)C=C(C(=O)NCCCNC(=O)c1ccc(-c3c4nc(c(-c5c(F)c(F)c(F)c(F)c5F)c5ccc([nH]5)c(-c5c(F)c(F)c(F)c(F)c5F)c5nc(c(-c6c(F)c(F)c(F)c(F)c6F)c6ccc3[nH]6)C=C5)C=C4)cc1)[C@@H](C(F)(F)F)O2
REMARK SMILES IDX 16 1 15 2 14 3 12 4 13 5 11 7 1 8 2 9 3 10 8 11 4 12 6 13
REMARK SMILES IDX 9 14 5 15 89 16 7 17 10 18 84 19 85 20 86 21 87 22 88 23
REMARK SMILES IDX 17 24 18 25 19 26 20 28 21 29 22 30 83 31 23 32 82 33 24 34
REMARK SMILES IDX 25 35 26 36 76 37 27 38 81 39 75 40 77 41 28 42 80 43 74 44
REMARK SMILES IDX 73 45 29 47 61 48 41 49 60 50 42 51 45 52 59 53 78 54 43 55
REMARK SMILES IDX 44 56 58 58 79 59 46 60 30 61 31 62 39 63 32 64 33 65 37 66
REMARK SMILES IDX 40 67 34 68 35 69 38 70 36 71 62 72 63 73 71 74 64 75 65 76
REMARK SMILES IDX 69 77 72 78 66 79 67 80 70 81 68 82 47 83 48 84 56 85 49 86
REMARK SMILES IDX 50 87 54 88 57 89 51 90 52 91 55 92 53 93
REMARK H PARENT 14 6 18 27 77 46 45 57
REMARK Flexibility Score: inf
ROOT
ATOM      1  C   UNL A   1      34.055  28.198  24.715  1.00  0.00     0.042 C 
ENDROOT
BRANCH   1   2
ATOM      2  C   UNL A   1      33.076  27.136  24.244  1.00  0.00     0.118 C 
BRANCH   2   3
ATOM      3  N   UNL A   1      32.280  26.612  25.343  1.00  0.00    -0.352 N 
ATOM      4  C   UNL A   1      32.125  25.430  25.983  1.00  0.00     0.251 C 
ATOM      5  O   UNL A   1      31.293  25.434  26.896  1.00  0.00    -0.270 OA
ATOM      6  H   UNL A   1      31.695  27.306  25.725  1.00  0.00     0.163 HD
BRANCH   4   7
ATOM      7  C   UNL A   1      32.868  24.179  25.661  1.00  0.00     0.067 C 
ATOM      8  C   UNL A   1      37.033  19.262  24.812  1.00  0.00     0.046 C 
ATOM      9  C   UNL A   1      36.365  20.566  25.154  1.00  0.00    -0.028 A 
ATOM     10  C   UNL A   1      34.974  20.629  25.047  1.00  0.00     0.052 A 
ATOM     11  C   UNL A   1      37.072  21.733  25.512  1.00  0.00     0.047 A 
ATOM     12  C   UNL A   1      34.298  21.814  25.305  1.00  0.00     0.128 A 
ATOM     13  C   UNL A   1      36.392  22.943  25.803  1.00  0.00    -0.021 A 
ATOM     14  Cl  UNL A   1      38.807  21.659  25.584  1.00  0.00    -0.084 Cl
ATOM     15  C   UNL A   1      34.980  22.971  25.694  1.00  0.00     0.022 A 
ATOM     16  O   UNL A   1      32.940  21.743  25.191  1.00  0.00    -0.475 OA
ATOM     17  C   UNL A   1      37.128  24.194  26.220  1.00  0.00     0.047 C 
ATOM     18  C   UNL A   1      34.171  24.157  25.999  1.00  0.00     0.026 C 
ATOM     19  C   UNL A   1      32.251  22.998  24.977  1.00  0.00     0.314 C 
BRANCH  19  20
ATOM     20  C   UNL A   1      32.040  23.223  23.467  1.00  0.00     0.429 C 
ATOM     21  F   UNL A   1      30.771  23.641  23.227  1.00  0.00    -0.167 F 
ATOM     22  F   UNL A   1      32.857  24.179  22.964  1.00  0.00    -0.167 F 
ATOM     23  F   UNL A   1      32.247  22.106  22.736  1.00  0.00    -0.167 F 
ENDBRANCH  19  20
ENDBRANCH   4   7
ENDBRANCH   2   3
ENDBRANCH   1   2
BRANCH   1  24
ATOM     24  C   UNL A   1      33.991  28.401  26.222  1.00  0.00     0.118 C 
BRANCH  24  25
ATOM     25  N   UNL A   1      33.780  29.806  26.569  1.00  0.00    -0.352 N 
ATOM     26  C   UNL A   1      34.433  30.600  27.474  1.00  0.00     0.251 C 
ATOM     27  H   UNL A   1      33.055  30.251  26.073  1.00  0.00     0.163 HD
ATOM     28  O   UNL A   1      33.929  31.662  27.836  1.00  0.00    -0.269 OA
BRANCH  26  29
ATOM     29  C   UNL A   1      35.739  30.183  28.013  1.00  0.00     0.039 A 
ATOM     30  C   UNL A   1      35.821  29.696  29.320  1.00  0.00     0.014 A 
ATOM     31  C   UNL A   1      36.891  30.303  27.232  1.00  0.00     0.014 A 
ATOM     32  C   UNL A   1      37.053  29.271  29.817  1.00  0.00     0.010 A 
ATOM     33  C   UNL A   1      38.091  29.780  27.687  1.00  0.00     0.010 A 
ATOM     34  C   UNL A   1      38.190  29.280  28.992  1.00  0.00    -0.014 A 
BRANCH  34  35
ATOM     35  C   UNL A   1      39.506  28.814  29.482  1.00  0.00     0.031 A 
ATOM     36  C   UNL A   1      40.256  29.638  30.492  1.00  0.00     0.074 A 
ATOM     37  C   UNL A   1      40.045  27.688  28.979  1.00  0.00     0.049 A 
ATOM     38  N   UNL A   1      41.448  29.445  30.996  1.00  0.00    -0.248 NA
ATOM     39  C   UNL A   1      39.591  30.860  30.978  1.00  0.00     0.031 C 
ATOM     40  C   UNL A   1      39.424  26.835  27.965  1.00  0.00     0.029 A 
ATOM     41  N   UNL A   1      41.238  27.069  29.251  1.00  0.00    -0.354 N 
ATOM     42  C   UNL A   1      41.673  30.518  31.847  1.00  0.00     0.074 A 
ATOM     43  C   UNL A   1      40.531  31.398  31.738  1.00  0.00     0.031 C 
ATOM     44  C   UNL A   1      40.223  25.781  27.731  1.00  0.00     0.029 A 
ATOM     45  C   UNL A   1      41.429  25.908  28.543  1.00  0.00     0.049 A 
ATOM     46  H   UNL A   1      41.896  27.423  29.892  1.00  0.00     0.167 HD
ATOM     47  C   UNL A   1      42.721  30.729  32.676  1.00  0.00     0.037 A 
ATOM     48  C   UNL A   1      42.463  25.045  28.551  1.00  0.00     0.037 A 
ATOM     49  C   UNL A   1      43.837  29.832  32.799  1.00  0.00     0.049 A 
ATOM     50  C   UNL A   1      43.630  25.318  29.460  1.00  0.00     0.074 A 
ATOM     51  C   UNL A   1      44.930  29.928  33.640  1.00  0.00     0.029 A 
ATOM     52  N   UNL A   1      44.000  28.670  32.058  1.00  0.00    -0.354 N 
ATOM     53  N   UNL A   1      43.808  26.307  30.303  1.00  0.00    -0.248 NA
ATOM     54  C   UNL A   1      44.741  24.357  29.421  1.00  0.00     0.031 C 
ATOM     55  C   UNL A   1      45.779  28.850  33.376  1.00  0.00     0.029 A 
ATOM     56  C   UNL A   1      45.188  28.052  32.407  1.00  0.00     0.049 A 
ATOM     57  H   UNL A   1      43.364  28.334  31.386  1.00  0.00     0.167 HD
ATOM     58  C   UNL A   1      45.035  26.076  30.910  1.00  0.00     0.074 A 
ATOM     59  C   UNL A   1      45.550  24.843  30.351  1.00  0.00     0.031 C 
ATOM     60  C   UNL A   1      45.680  26.821  31.842  1.00  0.00     0.037 A 
BRANCH  47  61
ATOM     61  C   UNL A   1      42.699  31.963  33.530  1.00  0.00     0.064 A 
ATOM     62  C   UNL A   1      43.233  33.179  33.073  1.00  0.00     0.173 A 
ATOM     63  C   UNL A   1      42.093  31.947  34.795  1.00  0.00     0.173 A 
ATOM     64  F   UNL A   1      43.838  33.244  31.878  1.00  0.00    -0.203 F 
ATOM     65  C   UNL A   1      43.178  34.326  33.859  1.00  0.00     0.198 A 
ATOM     66  C   UNL A   1      42.011  33.105  35.564  1.00  0.00     0.198 A 
ATOM     67  F   UNL A   1      41.565  30.812  35.279  1.00  0.00    -0.203 F 
ATOM     68  F   UNL A   1      43.733  35.464  33.420  1.00  0.00    -0.200 F 
ATOM     69  C   UNL A   1      42.558  34.291  35.099  1.00  0.00     0.200 A 
ATOM     70  F   UNL A   1      41.399  33.073  36.756  1.00  0.00    -0.200 F 
ATOM     71  F   UNL A   1      42.491  35.401  35.848  1.00  0.00    -0.200 F 
ENDBRANCH  47  61
BRANCH  48  72
ATOM     72  C   UNL A   1      42.414  23.825  27.703  1.00  0.00     0.064 A 
ATOM     73  C   UNL A   1      42.860  23.859  26.375  1.00  0.00     0.173 A 
ATOM     74  C   UNL A   1      41.952  22.599  28.204  1.00  0.00     0.173 A 
ATOM     75  F   UNL A   1      43.294  25.013  25.845  1.00  0.00    -0.203 F 
ATOM     76  C   UNL A   1      42.834  22.718  25.576  1.00  0.00     0.198 A 
ATOM     77  C   UNL A   1      41.954  21.452  27.413  1.00  0.00     0.198 A 
ATOM     78  F   UNL A   1      41.522  22.511  29.471  1.00  0.00    -0.203 F 
ATOM     79  F   UNL A   1      43.235  22.787  24.300  1.00  0.00    -0.200 F 
ATOM     80  C   UNL A   1      42.390  21.513  26.098  1.00  0.00     0.200 A 
ATOM     81  F   UNL A   1      41.542  20.286  27.928  1.00  0.00    -0.200 F 
ATOM     82  F   UNL A   1      42.380  20.412  25.335  1.00  0.00    -0.200 F 
ENDBRANCH  48  72
BRANCH  60  83
ATOM     83  C   UNL A   1      47.008  26.323  32.331  1.00  0.00     0.064 A 
ATOM     84  C   UNL A   1      47.103  25.439  33.414  1.00  0.00     0.173 A 
ATOM     85  C   UNL A   1      48.189  26.666  31.653  1.00  0.00     0.173 A 
ATOM     86  F   UNL A   1      46.005  25.092  34.101  1.00  0.00    -0.203 F 
ATOM     87  C   UNL A   1      48.335  24.924  33.810  1.00  0.00     0.198 A 
ATOM     88  C   UNL A   1      49.413  26.124  32.031  1.00  0.00     0.198 A 
ATOM     89  F   UNL A   1      48.149  27.500  30.603  1.00  0.00    -0.203 F 
ATOM     90  F   UNL A   1      48.407  24.107  34.869  1.00  0.00    -0.200 F 
ATOM     91  C   UNL A   1      49.486  25.257  33.112  1.00  0.00     0.200 A 
ATOM     92  F   UNL A   1      50.521  26.431  31.343  1.00  0.00    -0.200 F 
ATOM     93  F   UNL A   1      50.667  24.743  33.481  1.00  0.00    -0.200 F 
ENDBRANCH  60  83
ENDBRANCH  34  35
ENDBRANCH  26  29
ENDBRANCH  24  25
ENDBRANCH   1  24
TORSDOF 11
ENDMDL
MODEL 2
REMARK VINA RESULT:     -12.4      4.235      7.788
REMARK SMILES Cc1cc2c(c(C)c1Cl)C=C(C(=O)NCCCNC(=O)c1ccc(-c3c4nc(c(-c5c(F)c(F)c(F)c(F)c5F)c5ccc([nH]5)c(-c5c(F)c(F)c(F)c(F)c5F)c5nc(c(-c6c(F)c(F)c(F)c(F)c6F)c6ccc3[nH]6)C=C5)C=C4)cc1)[C@@H](C(F)(F)F)O2
REMARK SMILES IDX 16 1 15 2 14 3 12 4 13 5 11 7 1 8 2 9 3 10 8 11 4 12 6 13
REMARK SMILES IDX 9 14 5 15 89 16 7 17 10 18 84 19 85 20 86 21 87 22 88 23
REMARK SMILES IDX 17 24 18 25 19 26 20 28 21 29 22 30 83 31 23 32 82 33 24 34
REMARK SMILES IDX 25 35 26 36 76 37 27 38 81 39 75 40 77 41 28 42 80 43 74 44
REMARK SMILES IDX 73 45 29 47 61 48 41 49 60 50 42 51 45 52 59 53 78 54 43 55
REMARK SMILES IDX 44 56 58 58 79 59 46 60 30 61 31 62 39 63 32 64 33 65 37 66
REMARK SMILES IDX 40 67 34 68 35 69 38 70 36 71 62 72 63 73 71 74 64 75 65 76
REMARK SMILES IDX 69 77 72 78 66 79 67 80 70 81 68 82 47 83 48 84 56 85 49 86
REMARK SMILES IDX 50 87 54 88 57 89 51 90 52 91 55 92 53 93
REMARK H PARENT 14 6 18 27 77 46 45 57
REMARK Flexibility Score: inf
ROOT
ATOM      1  C   UNL A   1      37.758  19.773  24.843  1.00  0.00     0.042 C 
ENDROOT
BRANCH   1   2
ATOM      2  C   UNL A   1      36.438  20.498  25.054  1.00  0.00     0.118 C 
BRANCH   2   3
ATOM      3  N   UNL A   1      35.305  19.592  24.959  1.00  0.00    -0.352 N 
ATOM      4  C   UNL A   1      33.956  19.687  24.931  1.00  0.00     0.251 C 
ATOM      5  O   UNL A   1      33.356  18.610  24.849  1.00  0.00    -0.270 OA
ATOM      6  H   UNL A   1      35.600  18.654  24.899  1.00  0.00     0.163 HD
BRANCH   4   7
ATOM      7  C   UNL A   1      33.186  20.961  24.992  1.00  0.00     0.067 C 
ATOM      8  C   UNL A   1      30.028  26.566  24.067  1.00  0.00     0.046 C 
ATOM      9  C   UNL A   1      30.836  25.305  23.922  1.00  0.00    -0.028 A 
ATOM     10  C   UNL A   1      30.830  24.406  24.990  1.00  0.00     0.052 A 
ATOM     11  C   UNL A   1      31.639  25.020  22.798  1.00  0.00     0.047 A 
ATOM     12  C   UNL A   1      31.588  23.243  24.939  1.00  0.00     0.128 A 
ATOM     13  C   UNL A   1      32.398  23.825  22.723  1.00  0.00    -0.021 A 
ATOM     14  Cl  UNL A   1      31.684  26.175  21.500  1.00  0.00    -0.084 Cl
ATOM     15  C   UNL A   1      32.364  22.929  23.819  1.00  0.00     0.022 A 
ATOM     16  O   UNL A   1      31.480  22.434  26.033  1.00  0.00    -0.475 OA
ATOM     17  C   UNL A   1      33.240  23.486  21.515  1.00  0.00     0.047 C 
ATOM     18  C   UNL A   1      33.085  21.650  23.839  1.00  0.00     0.026 C 
ATOM     19  C   UNL A   1      32.566  21.500  26.244  1.00  0.00     0.314 C 
BRANCH  19  20
ATOM     20  C   UNL A   1      33.600  22.116  27.207  1.00  0.00     0.429 C 
ATOM     21  F   UNL A   1      32.973  22.684  28.268  1.00  0.00    -0.167 F 
ATOM     22  F   UNL A   1      34.451  21.193  27.717  1.00  0.00    -0.167 F 
ATOM     23  F   UNL A   1      34.359  23.068  26.624  1.00  0.00    -0.167 F 
ENDBRANCH  19  20
ENDBRANCH   4   7
ENDBRANCH   2   3
ENDBRANCH   1   2
BRANCH   1  24
ATOM     24  C   UNL A   1      38.858  20.327  25.737  1.00  0.00     0.118 C 
BRANCH  24  25
ATOM     25  N   UNL A   1      39.909  19.338  25.974  1.00  0.00    -0.352 N 
ATOM     26  C   UNL A   1      41.259  19.504  26.132  1.00  0.00     0.251 C 
ATOM     27  H   UNL A   1      39.596  18.406  26.030  1.00  0.00     0.163 HD
ATOM     28  O   UNL A   1      42.013  18.537  26.029  1.00  0.00    -0.269 OA
BRANCH  26  29
ATOM     29  C   UNL A   1      41.808  20.838  26.426  1.00  0.00     0.039 A 
ATOM     30  C   UNL A   1      41.997  21.751  25.385  1.00  0.00     0.014 A 
ATOM     31  C   UNL A   1      42.164  21.178  27.734  1.00  0.00     0.014 A 
ATOM     32  C   UNL A   1      42.486  23.025  25.669  1.00  0.00     0.010 A 
ATOM     33  C   UNL A   1      42.546  22.477  28.029  1.00  0.00     0.010 A 
ATOM     34  C   UNL A   1      42.732  23.407  26.999  1.00  0.00    -0.014 A 
BRANCH  34  35
ATOM     35  C   UNL A   1      43.230  24.759  27.336  1.00  0.00     0.031 A 
ATOM     36  C   UNL A   1      42.293  25.764  27.947  1.00  0.00     0.074 A 
ATOM     37  C   UNL A   1      44.500  25.095  27.043  1.00  0.00     0.049 A 
ATOM     38  N   UNL A   1      42.510  27.018  28.252  1.00  0.00    -0.248 NA
ATOM     39  C   UNL A   1      40.920  25.310  28.224  1.00  0.00     0.031 C 
ATOM     40  C   UNL A   1      45.483  24.213  26.412  1.00  0.00     0.029 A 
ATOM     41  N   UNL A   1      45.182  26.270  27.235  1.00  0.00    -0.354 N 
ATOM     42  C   UNL A   1      41.304  27.496  28.746  1.00  0.00     0.074 A 
ATOM     43  C   UNL A   1      40.340  26.426  28.633  1.00  0.00     0.031 C 
ATOM     44  C   UNL A   1      46.652  24.864  26.307  1.00  0.00     0.029 A 
ATOM     45  C   UNL A   1      46.490  26.220  26.821  1.00  0.00     0.049 A 
ATOM     46  H   UNL A   1      44.772  27.072  27.632  1.00  0.00     0.167 HD
ATOM     47  C   UNL A   1      41.038  28.709  29.284  1.00  0.00     0.037 A 
ATOM     48  C   UNL A   1      47.448  27.165  26.854  1.00  0.00     0.037 A 
ATOM     49  C   UNL A   1      42.013  29.757  29.420  1.00  0.00     0.049 A 
ATOM     50  C   UNL A   1      47.118  28.515  27.430  1.00  0.00     0.074 A 
ATOM     51  C   UNL A   1      41.859  31.006  29.990  1.00  0.00     0.029 A 
ATOM     52  N   UNL A   1      43.326  29.672  28.981  1.00  0.00    -0.354 N 
ATOM     53  N   UNL A   1      45.990  28.940  27.948  1.00  0.00    -0.248 NA
ATOM     54  C   UNL A   1      48.192  29.518  27.429  1.00  0.00     0.031 C 
ATOM     55  C   UNL A   1      43.065  31.698  29.854  1.00  0.00     0.029 A 
ATOM     56  C   UNL A   1      43.988  30.859  29.246  1.00  0.00     0.049 A 
ATOM     57  H   UNL A   1      43.728  28.886  28.546  1.00  0.00     0.167 HD
ATOM     58  C   UNL A   1      46.223  30.247  28.353  1.00  0.00     0.074 A 
ATOM     59  C   UNL A   1      47.607  30.539  28.039  1.00  0.00     0.031 C 
ATOM     60  C   UNL A   1      45.368  31.127  28.929  1.00  0.00     0.037 A 
BRANCH  47  61
ATOM     61  C   UNL A   1      39.646  28.959  29.787  1.00  0.00     0.064 A 
ATOM     62  C   UNL A   1      39.270  28.624  31.098  1.00  0.00     0.173 A 
ATOM     63  C   UNL A   1      38.693  29.589  28.973  1.00  0.00     0.173 A 
ATOM     64  F   UNL A   1      40.139  28.006  31.912  1.00  0.00    -0.203 F 
ATOM     65  C   UNL A   1      37.987  28.891  31.566  1.00  0.00     0.198 A 
ATOM     66  C   UNL A   1      37.420  29.884  29.456  1.00  0.00     0.198 A 
ATOM     67  F   UNL A   1      39.000  29.932  27.713  1.00  0.00    -0.203 F 
ATOM     68  F   UNL A   1      37.639  28.522  32.807  1.00  0.00    -0.200 F 
ATOM     69  C   UNL A   1      37.067  29.530  30.749  1.00  0.00     0.200 A 
ATOM     70  F   UNL A   1      36.537  30.514  28.670  1.00  0.00    -0.200 F 
ATOM     71  F   UNL A   1      35.837  29.802  31.208  1.00  0.00    -0.200 F 
ENDBRANCH  47  61
BRANCH  48  72
ATOM     72  C   UNL A   1      48.817  26.848  26.367  1.00  0.00     0.064 A 
ATOM     73  C   UNL A   1      49.774  26.300  27.232  1.00  0.00     0.173 A 
ATOM     74  C   UNL A   1      49.189  27.055  25.031  1.00  0.00     0.173 A 
ATOM     75  F   UNL A   1      49.472  26.100  28.524  1.00  0.00    -0.203 F 
ATOM     76  C   UNL A   1      51.054  25.983  26.783  1.00  0.00     0.198 A 
ATOM     77  C   UNL A   1      50.460  26.710  24.576  1.00  0.00     0.198 A 
ATOM     78  F   UNL A   1      48.308  27.570  24.161  1.00  0.00    -0.203 F 
ATOM     79  F   UNL A   1      51.959  25.491  27.639  1.00  0.00    -0.200 F 
ATOM     80  C   UNL A   1      51.393  26.179  25.453  1.00  0.00     0.200 A 
ATOM     81  F   UNL A   1      50.777  26.885  23.286  1.00  0.00    -0.200 F 
ATOM     82  F   UNL A   1      52.620  25.860  25.017  1.00  0.00    -0.200 F 
ENDBRANCH  48  72
BRANCH  60  83
ATOM     83  C   UNL A   1      45.898  32.488  29.272  1.00  0.00     0.064 A 
ATOM     84  C   UNL A   1      46.545  32.735  30.491  1.00  0.00     0.173 A 
ATOM     85  C   UNL A   1      45.837  33.532  28.334  1.00  0.00     0.173 A 
ATOM     86  F   UNL A   1      46.618  31.774  31.423  1.00  0.00    -0.203 F 
ATOM     87  C   UNL A   1      47.101  33.982  30.764  1.00  0.00     0.198 A 
ATOM     88  C   UNL A   1      46.421  34.766  28.599  1.00  0.00     0.198 A 
ATOM     89  F   UNL A   1      45.238  33.342  27.148  1.00  0.00    -0.203 F 
ATOM     90  F   UNL A   1      47.684  34.206  31.949  1.00  0.00    -0.200 F 
ATOM     91  C   UNL A   1      47.049  34.991  29.815  1.00  0.00     0.200 A 
ATOM     92  F   UNL A   1      46.388  35.734  27.672  1.00  0.00    -0.200 F 
ATOM     93  F   UNL A   1      47.604  36.183  30.072  1.00  0.00    -0.200 F 
ENDBRANCH  60  83
ENDBRANCH  34  35
ENDBRANCH  26  29
ENDBRANCH  24  25
ENDBRANCH   1  24
TORSDOF 11
ENDMDL
MODEL 3
REMARK VINA RESULT:     -12.4      4.397      7.887
REMARK SMILES Cc1cc2c(c(C)c1Cl)C=C(C(=O)NCCCNC(=O)c1ccc(-c3c4nc(c(-c5c(F)c(F)c(F)c(F)c5F)c5ccc([nH]5)c(-c5c(F)c(F)c(F)c(F)c5F)c5nc(c(-c6c(F)c(F)c(F)c(F)c6F)c6ccc3[nH]6)C=C5)C=C4)cc1)[C@@H](C(F)(F)F)O2
REMARK SMILES IDX 16 1 15 2 14 3 12 4 13 5 11 7 1 8 2 9 3 10 8 11 4 12 6 13
REMARK SMILES IDX 9 14 5 15 89 16 7 17 10 18 84 19 85 20 86 21 87 22 88 23
REMARK SMILES IDX 17 24 18 25 19 26 20 28 21 29 22 30 83 31 23 32 82 33 24 34
REMARK SMILES IDX 25 35 26 36 76 37 27 38 81 39 75 40 77 41 28 42 80 43 74 44
REMARK SMILES IDX 73 45 29 47 61 48 41 49 60 50 42 51 45 52 59 53 78 54 43 55
REMARK SMILES IDX 44 56 58 58 79 59 46 60 30 61 31 62 39 63 32 64 33 65 37 66
REMARK SMILES IDX 40 67 34 68 35 69 38 70 36 71 62 72 63 73 71 74 64 75 65 76
REMARK SMILES IDX 69 77 72 78 66 79 67 80 70 81 68 82 47 83 48 84 56 85 49 86
REMARK SMILES IDX 50 87 54 88 57 89 51 90 52 91 55 92 53 93
REMARK H PARENT 14 6 18 27 77 46 45 57
REMARK Flexibility Score: inf
ROOT
ATOM      1  C   UNL A   1      37.857  19.599  24.891  1.00  0.00     0.042 C 
ENDROOT
BRANCH   1   2
ATOM      2  C   UNL A   1      36.552  20.361  25.056  1.00  0.00     0.118 C 
BRANCH   2   3
ATOM      3  N   UNL A   1      35.400  19.476  24.995  1.00  0.00    -0.352 N 
ATOM      4  C   UNL A   1      34.053  19.598  24.990  1.00  0.00     0.251 C 
ATOM      5  O   UNL A   1      33.431  18.532  24.934  1.00  0.00    -0.270 OA
ATOM      6  H   UNL A   1      35.675  18.533  24.942  1.00  0.00     0.163 HD
BRANCH   4   7
ATOM      7  C   UNL A   1      33.309  20.888  25.048  1.00  0.00     0.067 C 
ATOM      8  C   UNL A   1      30.222  26.529  24.103  1.00  0.00     0.046 C 
ATOM      9  C   UNL A   1      31.001  25.249  23.959  1.00  0.00    -0.028 A 
ATOM     10  C   UNL A   1      31.018  24.376  25.049  1.00  0.00     0.052 A 
ATOM     11  C   UNL A   1      31.755  24.922  22.814  1.00  0.00     0.047 A 
ATOM     12  C   UNL A   1      31.752  23.198  24.999  1.00  0.00     0.128 A 
ATOM     13  C   UNL A   1      32.490  23.711  22.740  1.00  0.00    -0.021 A 
ATOM     14  Cl  UNL A   1      31.774  26.045  21.487  1.00  0.00    -0.084 Cl
ATOM     15  C   UNL A   1      32.480  22.843  23.859  1.00  0.00     0.022 A 
ATOM     16  O   UNL A   1      31.671  22.417  26.115  1.00  0.00    -0.475 OA
ATOM     17  C   UNL A   1      33.279  23.327  21.511  1.00  0.00     0.047 C 
ATOM     18  C   UNL A   1      33.177  21.551  23.884  1.00  0.00     0.026 C 
ATOM     19  C   UNL A   1      32.746  21.468  26.309  1.00  0.00     0.314 C 
BRANCH  19  20
ATOM     20  C   UNL A   1      33.826  22.086  27.218  1.00  0.00     0.429 C 
ATOM     21  F   UNL A   1      34.476  21.113  27.905  1.00  0.00    -0.167 F 
ATOM     22  F   UNL A   1      34.774  22.756  26.519  1.00  0.00    -0.167 F 
ATOM     23  F   UNL A   1      33.319  22.954  28.120  1.00  0.00    -0.167 F 
ENDBRANCH  19  20
ENDBRANCH   4   7
ENDBRANCH   2   3
ENDBRANCH   1   2
BRANCH   1  24
ATOM     24  C   UNL A   1      38.967  20.180  25.755  1.00  0.00     0.118 C 
BRANCH  24  25
ATOM     25  N   UNL A   1      40.025  19.202  26.003  1.00  0.00    -0.352 N 
ATOM     26  C   UNL A   1      41.378  19.376  26.128  1.00  0.00     0.251 C 
ATOM     27  H   UNL A   1      39.716  18.272  26.097  1.00  0.00     0.163 HD
ATOM     28  O   UNL A   1      42.133  18.409  26.042  1.00  0.00    -0.269 OA
BRANCH  26  29
ATOM     29  C   UNL A   1      41.929  20.722  26.366  1.00  0.00     0.039 A 
ATOM     30  C   UNL A   1      42.163  21.572  25.282  1.00  0.00     0.014 A 
ATOM     31  C   UNL A   1      42.241  21.132  27.664  1.00  0.00     0.014 A 
ATOM     32  C   UNL A   1      42.653  22.857  25.512  1.00  0.00     0.010 A 
ATOM     33  C   UNL A   1      42.625  22.443  27.900  1.00  0.00     0.010 A 
ATOM     34  C   UNL A   1      42.856  23.312  26.826  1.00  0.00    -0.014 A 
BRANCH  34  35
ATOM     35  C   UNL A   1      43.354  24.677  27.105  1.00  0.00     0.031 A 
ATOM     36  C   UNL A   1      42.419  25.706  27.677  1.00  0.00     0.074 A 
ATOM     37  C   UNL A   1      44.623  25.002  26.792  1.00  0.00     0.049 A 
ATOM     38  N   UNL A   1      42.636  26.972  27.929  1.00  0.00    -0.248 NA
ATOM     39  C   UNL A   1      41.047  25.263  27.979  1.00  0.00     0.031 C 
ATOM     40  C   UNL A   1      45.603  24.094  26.194  1.00  0.00     0.029 A 
ATOM     41  N   UNL A   1      45.304  26.183  26.931  1.00  0.00    -0.354 N 
ATOM     42  C   UNL A   1      41.432  27.469  28.408  1.00  0.00     0.074 A 
ATOM     43  C   UNL A   1      40.468  26.395  28.345  1.00  0.00     0.031 C 
ATOM     44  C   UNL A   1      46.772  24.741  26.056  1.00  0.00     0.029 A 
ATOM     45  C   UNL A   1      46.611  26.118  26.514  1.00  0.00     0.049 A 
ATOM     46  H   UNL A   1      44.896  27.002  27.297  1.00  0.00     0.167 HD
ATOM     47  C   UNL A   1      41.167  28.703  28.896  1.00  0.00     0.037 A 
ATOM     48  C   UNL A   1      47.568  27.064  26.504  1.00  0.00     0.037 A 
ATOM     49  C   UNL A   1      42.142  29.756  28.984  1.00  0.00     0.049 A 
ATOM     50  C   UNL A   1      47.239  28.437  27.024  1.00  0.00     0.074 A 
ATOM     51  C   UNL A   1      41.990  31.028  29.502  1.00  0.00     0.029 A 
ATOM     52  N   UNL A   1      43.453  29.655  28.543  1.00  0.00    -0.354 N 
ATOM     53  N   UNL A   1      46.113  28.882  27.529  1.00  0.00    -0.248 NA
ATOM     54  C   UNL A   1      48.312  29.439  26.976  1.00  0.00     0.031 C 
ATOM     55  C   UNL A   1      43.195  31.715  29.332  1.00  0.00     0.029 A 
ATOM     56  C   UNL A   1      44.115  30.852  28.755  1.00  0.00     0.049 A 
ATOM     57  H   UNL A   1      43.854  28.851  28.139  1.00  0.00     0.167 HD
ATOM     58  C   UNL A   1      46.347  30.204  27.878  1.00  0.00     0.074 A 
ATOM     59  C   UNL A   1      47.729  30.484  27.546  1.00  0.00     0.031 C 
ATOM     60  C   UNL A   1      45.494  31.107  28.421  1.00  0.00     0.037 A 
BRANCH  47  61
ATOM     61  C   UNL A   1      39.778  28.973  29.395  1.00  0.00     0.064 A 
ATOM     62  C   UNL A   1      38.768  29.432  28.534  1.00  0.00     0.173 A 
ATOM     63  C   UNL A   1      39.436  28.723  30.732  1.00  0.00     0.173 A 
ATOM     64  F   UNL A   1      39.046  29.702  27.250  1.00  0.00    -0.203 F 
ATOM     65  C   UNL A   1      37.473  29.648  28.998  1.00  0.00     0.198 A 
ATOM     66  C   UNL A   1      38.131  28.909  31.185  1.00  0.00     0.198 A 
ATOM     67  F   UNL A   1      40.362  28.282  31.597  1.00  0.00    -0.203 F 
ATOM     68  F   UNL A   1      36.537  30.127  28.168  1.00  0.00    -0.200 F 
ATOM     69  C   UNL A   1      37.154  29.376  30.320  1.00  0.00     0.200 A 
ATOM     70  F   UNL A   1      37.821  28.632  32.459  1.00  0.00    -0.200 F 
ATOM     71  F   UNL A   1      35.903  29.568  30.761  1.00  0.00    -0.200 F 
ENDBRANCH  47  61
BRANCH  48  72
ATOM     72  C   UNL A   1      48.934  26.728  26.024  1.00  0.00     0.064 A 
ATOM     73  C   UNL A   1      49.315  26.998  24.702  1.00  0.00     0.173 A 
ATOM     74  C   UNL A   1      49.894  26.160  26.874  1.00  0.00     0.173 A 
ATOM     75  F   UNL A   1      48.427  27.524  23.845  1.00  0.00    -0.203 F 
ATOM     76  C   UNL A   1      50.598  26.703  24.246  1.00  0.00     0.198 A 
ATOM     77  C   UNL A   1      51.186  25.892  26.426  1.00  0.00     0.198 A 
ATOM     78  F   UNL A   1      49.584  25.889  28.151  1.00  0.00    -0.203 F 
ATOM     79  F   UNL A   1      50.924  26.941  22.969  1.00  0.00    -0.200 F 
ATOM     80  C   UNL A   1      51.535  26.159  25.110  1.00  0.00     0.200 A 
ATOM     81  F   UNL A   1      52.094  25.384  27.269  1.00  0.00    -0.200 F 
ATOM     82  F   UNL A   1      52.774  25.889  24.676  1.00  0.00    -0.200 F 
ENDBRANCH  48  72
BRANCH  60  83
ATOM     83  C   UNL A   1      46.024  32.482  28.704  1.00  0.00     0.064 A 
ATOM     84  C   UNL A   1      45.911  33.517  27.766  1.00  0.00     0.173 A 
ATOM     85  C   UNL A   1      46.570  32.788  29.961  1.00  0.00     0.173 A 
ATOM     86  F   UNL A   1      45.408  33.271  26.547  1.00  0.00    -0.203 F 
ATOM     87  C   UNL A   1      46.337  34.807  28.070  1.00  0.00     0.198 A 
ATOM     88  C   UNL A   1      46.966  34.085  30.272  1.00  0.00     0.198 A 
ATOM     89  F   UNL A   1      46.690  31.834  30.898  1.00  0.00    -0.203 F 
ATOM     90  F   UNL A   1      46.251  35.773  27.146  1.00  0.00    -0.200 F 
ATOM     91  C   UNL A   1      46.852  35.092  29.326  1.00  0.00     0.200 A 
ATOM     92  F   UNL A   1      47.444  34.363  31.493  1.00  0.00    -0.200 F 
ATOM     93  F   UNL A   1      47.242  36.339  29.624  1.00  0.00    -0.200 F 
ENDBRANCH  60  83
ENDBRANCH  34  35
ENDBRANCH  26  29
ENDBRANCH  24  25
ENDBRANCH   1  24
TORSDOF 11
ENDMDL
