MODEL 1
REMARK VINA RESULT:     -11.4      0.000      0.000
REMARK SMILES CC1C[NH+]([C@H]2COC[C@@H]2C(=O)NCCCNC(=O)c2ccc(-c3c4nc(c(-c5c(F)c(F)c(F)c(F)c5F)c5ccc([nH]5)c(-c5c(F)c(F)c(F)c(F)c5F)c5nc(c(-c6c(F)c(F)c(F)c(F)c6F)c6ccc3[nH]6)C=C5)C=C4)cc2)C1
REMARK SMILES IDX 14 1 13 2 12 3 10 4 11 5 9 7 5 8 6 9 7 10 8 11 4 12 1 13
REMARK SMILES IDX 2 14 3 15 82 16 15 18 16 19 17 20 18 22 19 23 20 24 81 25
REMARK SMILES IDX 21 26 80 27 22 28 23 29 24 30 74 31 25 32 79 33 73 34 75 35
REMARK SMILES IDX 26 36 78 37 72 38 71 39 27 41 59 42 39 43 58 44 40 45 43 46
REMARK SMILES IDX 57 47 76 48 41 49 42 50 56 52 77 53 44 54 28 55 29 56 37 57
REMARK SMILES IDX 30 58 31 59 35 60 38 61 32 62 33 63 36 64 34 65 60 66 61 67
REMARK SMILES IDX 69 68 62 69 63 70 67 71 70 72 64 73 65 74 68 75 66 76 45 77
REMARK SMILES IDX 46 78 54 79 47 80 48 81 52 82 55 83 49 84 50 85 53 86 51 87
REMARK H PARENT 12 6 4 17 16 21 75 40 43 51
REMARK Flexibility Score: inf
ROOT
ATOM      1  C   UNL A   1      35.190  33.481  28.056  1.00  0.00     0.042 C 
ENDROOT
BRANCH   1   2
ATOM      2  C   UNL A   1      35.312  34.913  28.576  1.00  0.00     0.117 C 
BRANCH   2   3
ATOM      3  N   UNL A   1      34.014  35.554  28.716  1.00  0.00    -0.356 N 
ATOM      4  C   UNL A   1      33.309  36.053  29.757  1.00  0.00     0.231 C 
ATOM      5  O   UNL A   1      32.183  36.477  29.462  1.00  0.00    -0.274 OA
ATOM      6  H   UNL A   1      33.541  35.644  27.857  1.00  0.00     0.163 HD
BRANCH   4   7
ATOM      7  C   UNL A   1      33.791  36.210  31.199  1.00  0.00     0.164 C 
ATOM      8  C   UNL A   1      33.121  35.155  32.084  1.00  0.00     0.225 C 
ATOM      9  C   UNL A   1      31.874  35.928  32.532  1.00  0.00     0.226 C 
ATOM     10  O   UNL A   1      32.247  37.317  32.626  1.00  0.00    -0.374 OA
ATOM     11  C   UNL A   1      33.503  37.491  31.942  1.00  0.00     0.180 C 
BRANCH   8  12
ATOM     12  N   UNL A   1      34.061  34.667  33.122  1.00  0.00    -0.329 N 
ATOM     13  C   UNL A   1      36.196  31.991  32.843  1.00  0.00     0.020 C 
ATOM     14  C   UNL A   1      35.535  33.204  33.464  1.00  0.00     0.096 C 
ATOM     15  C   UNL A   1      35.427  34.472  32.583  1.00  0.00     0.271 C 
ATOM     16  C   UNL A   1      33.991  33.222  33.441  1.00  0.00     0.271 C 
ATOM     17  H   UNL A   1      33.853  35.341  33.859  1.00  0.00     0.348 HD
ENDBRANCH   8  12
ENDBRANCH   4   7
ENDBRANCH   2   3
ENDBRANCH   1   2
BRANCH   1  18
ATOM     18  C   UNL A   1      34.619  32.504  29.082  1.00  0.00     0.118 C 
BRANCH  18  19
ATOM     19  N   UNL A   1      34.018  31.337  28.450  1.00  0.00    -0.352 N 
ATOM     20  C   UNL A   1      34.587  30.178  27.989  1.00  0.00     0.251 C 
ATOM     21  H   UNL A   1      33.041  31.387  28.336  1.00  0.00     0.163 HD
ATOM     22  O   UNL A   1      33.916  29.412  27.298  1.00  0.00    -0.269 OA
BRANCH  20  23
ATOM     23  C   UNL A   1      35.991  29.831  28.300  1.00  0.00     0.039 A 
ATOM     24  C   UNL A   1      36.289  29.319  29.567  1.00  0.00     0.014 A 
ATOM     25  C   UNL A   1      37.024  30.075  27.389  1.00  0.00     0.014 A 
ATOM     26  C   UNL A   1      37.610  29.009  29.905  1.00  0.00     0.010 A 
ATOM     27  C   UNL A   1      38.332  29.711  27.705  1.00  0.00     0.010 A 
ATOM     28  C   UNL A   1      38.638  29.181  28.969  1.00  0.00    -0.014 A 
BRANCH  28  29
ATOM     29  C   UNL A   1      40.042  28.820  29.292  1.00  0.00     0.031 A 
ATOM     30  C   UNL A   1      40.911  29.773  30.063  1.00  0.00     0.074 A 
ATOM     31  C   UNL A   1      40.554  27.665  28.828  1.00  0.00     0.049 A 
ATOM     32  N   UNL A   1      42.183  29.679  30.361  1.00  0.00    -0.248 NA
ATOM     33  C   UNL A   1      40.273  31.009  30.543  1.00  0.00     0.031 C 
ATOM     34  C   UNL A   1      39.825  26.677  28.031  1.00  0.00     0.029 A 
ATOM     35  N   UNL A   1      41.814  27.132  28.945  1.00  0.00    -0.354 N 
ATOM     36  C   UNL A   1      42.502  30.851  31.034  1.00  0.00     0.074 A 
ATOM     37  C   UNL A   1      41.299  31.656  31.075  1.00  0.00     0.031 C 
ATOM     38  C   UNL A   1      40.646  25.658  27.735  1.00  0.00     0.029 A 
ATOM     39  C   UNL A   1      41.967  25.933  28.295  1.00  0.00     0.049 A 
ATOM     40  H   UNL A   1      42.539  27.570  29.446  1.00  0.00     0.167 HD
ATOM     41  C   UNL A   1      43.687  31.215  31.580  1.00  0.00     0.037 A 
ATOM     42  C   UNL A   1      43.052  25.149  28.155  1.00  0.00     0.037 A 
ATOM     43  C   UNL A   1      44.869  30.395  31.577  1.00  0.00     0.049 A 
ATOM     44  C   UNL A   1      44.347  25.564  28.797  1.00  0.00     0.074 A 
ATOM     45  C   UNL A   1      46.092  30.640  32.175  1.00  0.00     0.029 A 
ATOM     46  N   UNL A   1      44.973  29.165  30.942  1.00  0.00    -0.354 N 
ATOM     47  N   UNL A   1      44.618  26.643  29.490  1.00  0.00    -0.248 NA
ATOM     48  C   UNL A   1      45.487  24.649  28.642  1.00  0.00     0.031 C 
ATOM     49  C   UNL A   1      46.949  29.575  31.873  1.00  0.00     0.029 A 
ATOM     50  C   UNL A   1      46.247  28.649  31.119  1.00  0.00     0.049 A 
ATOM     51  H   UNL A   1      44.250  28.726  30.440  1.00  0.00     0.167 HD
ATOM     52  C   UNL A   1      45.947  26.526  29.874  1.00  0.00     0.074 A 
ATOM     53  C   UNL A   1      46.425  25.265  29.347  1.00  0.00     0.031 C 
ATOM     54  C   UNL A   1      46.702  27.388  30.596  1.00  0.00     0.037 A 
BRANCH  41  55
ATOM     55  C   UNL A   1      43.768  32.563  32.234  1.00  0.00     0.064 A 
ATOM     56  C   UNL A   1      43.484  32.738  33.596  1.00  0.00     0.173 A 
ATOM     57  C   UNL A   1      44.178  33.685  31.497  1.00  0.00     0.173 A 
ATOM     58  F   UNL A   1      43.078  31.699  34.341  1.00  0.00    -0.203 F 
ATOM     59  C   UNL A   1      43.586  33.993  34.193  1.00  0.00     0.198 A 
ATOM     60  C   UNL A   1      44.304  34.932  32.104  1.00  0.00     0.198 A 
ATOM     61  F   UNL A   1      44.466  33.570  30.192  1.00  0.00    -0.203 F 
ATOM     62  F   UNL A   1      43.272  34.144  35.487  1.00  0.00    -0.200 F 
ATOM     63  C   UNL A   1      44.002  35.087  33.448  1.00  0.00     0.200 A 
ATOM     64  F   UNL A   1      44.715  35.987  31.385  1.00  0.00    -0.200 F 
ATOM     65  F   UNL A   1      44.106  36.292  34.026  1.00  0.00    -0.200 F 
ENDBRANCH  41  55
BRANCH  42  66
ATOM     66  C   UNL A   1      42.954  23.880  27.391  1.00  0.00     0.064 A 
ATOM     67  C   UNL A   1      42.509  22.703  28.008  1.00  0.00     0.173 A 
ATOM     68  C   UNL A   1      43.305  23.816  26.035  1.00  0.00     0.173 A 
ATOM     69  F   UNL A   1      42.183  22.712  29.309  1.00  0.00    -0.203 F 
ATOM     70  C   UNL A   1      42.434  21.505  27.302  1.00  0.00     0.198 A 
ATOM     71  C   UNL A   1      43.205  22.623  25.323  1.00  0.00     0.198 A 
ATOM     72  F   UNL A   1      43.732  24.916  25.399  1.00  0.00    -0.203 F 
ATOM     73  F   UNL A   1      42.043  20.386  27.926  1.00  0.00    -0.200 F 
ATOM     74  C   UNL A   1      42.777  21.466  25.959  1.00  0.00     0.200 A 
ATOM     75  F   UNL A   1      43.526  22.592  24.023  1.00  0.00    -0.200 F 
ATOM     76  F   UNL A   1      42.702  20.314  25.278  1.00  0.00    -0.200 F 
ENDBRANCH  42  66
BRANCH  54  77
ATOM     77  C   UNL A   1      48.116  26.981  30.887  1.00  0.00     0.064 A 
ATOM     78  C   UNL A   1      48.433  26.167  31.985  1.00  0.00     0.173 A 
ATOM     79  C   UNL A   1      49.159  27.379  30.037  1.00  0.00     0.173 A 
ATOM     80  F   UNL A   1      47.471  25.775  32.834  1.00  0.00    -0.203 F 
ATOM     81  C   UNL A   1      49.748  25.783  32.232  1.00  0.00     0.198 A 
ATOM     82  C   UNL A   1      50.469  26.973  30.275  1.00  0.00     0.198 A 
ATOM     83  F   UNL A   1      48.904  28.154  28.973  1.00  0.00    -0.203 F 
ATOM     84  F   UNL A   1      50.035  25.040  33.308  1.00  0.00    -0.200 F 
ATOM     85  C   UNL A   1      50.763  26.180  31.374  1.00  0.00     0.200 A 
ATOM     86  F   UNL A   1      51.446  27.350  29.439  1.00  0.00    -0.200 F 
ATOM     87  F   UNL A   1      52.027  25.806  31.611  1.00  0.00    -0.200 F 
ENDBRANCH  54  77
ENDBRANCH  28  29
ENDBRANCH  20  23
ENDBRANCH  18  19
ENDBRANCH   1  18
TORSDOF 11
ENDMDL
MODEL 2
REMARK VINA RESULT:     -11.3      0.108      2.035
REMARK SMILES CC1C[NH+]([C@H]2COC[C@@H]2C(=O)NCCCNC(=O)c2ccc(-c3c4nc(c(-c5c(F)c(F)c(F)c(F)c5F)c5ccc([nH]5)c(-c5c(F)c(F)c(F)c(F)c5F)c5nc(c(-c6c(F)c(F)c(F)c(F)c6F)c6ccc3[nH]6)C=C5)C=C4)cc2)C1
REMARK SMILES IDX 14 1 13 2 12 3 10 4 11 5 9 7 5 8 6 9 7 10 8 11 4 12 1 13
REMARK SMILES IDX 2 14 3 15 82 16 15 18 16 19 17 20 18 22 19 23 20 24 81 25
REMARK SMILES IDX 21 26 80 27 22 28 23 29 24 30 74 31 25 32 79 33 73 34 75 35
REMARK SMILES IDX 26 36 78 37 72 38 71 39 27 41 59 42 39 43 58 44 40 45 43 46
REMARK SMILES IDX 57 47 76 48 41 49 42 50 56 52 77 53 44 54 28 55 29 56 37 57
REMARK SMILES IDX 30 58 31 59 35 60 38 61 32 62 33 63 36 64 34 65 60 66 61 67
REMARK SMILES IDX 69 68 62 69 63 70 67 71 70 72 64 73 65 74 68 75 66 76 45 77
REMARK SMILES IDX 46 78 54 79 47 80 48 81 52 82 55 83 49 84 50 85 53 86 51 87
REMARK H PARENT 12 6 4 17 16 21 75 40 43 51
REMARK Flexibility Score: inf
ROOT
ATOM      1  C   UNL A   1      35.162  33.487  28.042  1.00  0.00     0.042 C 
ENDROOT
BRANCH   1   2
ATOM      2  C   UNL A   1      35.291  34.916  28.570  1.00  0.00     0.117 C 
BRANCH   2   3
ATOM      3  N   UNL A   1      33.996  35.562  28.712  1.00  0.00    -0.356 N 
ATOM      4  C   UNL A   1      33.294  36.062  29.756  1.00  0.00     0.231 C 
ATOM      5  O   UNL A   1      32.169  36.492  29.461  1.00  0.00    -0.274 OA
ATOM      6  H   UNL A   1      33.524  35.658  27.854  1.00  0.00     0.163 HD
BRANCH   4   7
ATOM      7  C   UNL A   1      33.776  36.211  31.198  1.00  0.00     0.164 C 
ATOM      8  C   UNL A   1      33.096  35.161  32.080  1.00  0.00     0.225 C 
ATOM      9  C   UNL A   1      31.857  35.944  32.530  1.00  0.00     0.226 C 
ATOM     10  O   UNL A   1      32.242  37.330  32.626  1.00  0.00    -0.374 OA
ATOM     11  C   UNL A   1      33.500  37.493  31.943  1.00  0.00     0.180 C 
BRANCH   8  12
ATOM     12  N   UNL A   1      34.031  34.662  33.118  1.00  0.00    -0.329 N 
ATOM     13  C   UNL A   1      36.230  32.044  32.791  1.00  0.00     0.020 C 
ATOM     14  C   UNL A   1      35.533  33.222  33.438  1.00  0.00     0.096 C 
ATOM     15  C   UNL A   1      35.410  34.514  32.595  1.00  0.00     0.271 C 
ATOM     16  C   UNL A   1      33.989  33.207  33.391  1.00  0.00     0.271 C 
ATOM     17  H   UNL A   1      33.797  35.308  33.871  1.00  0.00     0.348 HD
ENDBRANCH   8  12
ENDBRANCH   4   7
ENDBRANCH   2   3
ENDBRANCH   1   2
BRANCH   1  18
ATOM     18  C   UNL A   1      34.639  32.496  29.081  1.00  0.00     0.118 C 
BRANCH  18  19
ATOM     19  N   UNL A   1      34.043  31.319  28.462  1.00  0.00    -0.352 N 
ATOM     20  C   UNL A   1      34.618  30.159  28.012  1.00  0.00     0.251 C 
ATOM     21  H   UNL A   1      33.066  31.363  28.349  1.00  0.00     0.163 HD
ATOM     22  O   UNL A   1      33.949  29.382  27.330  1.00  0.00    -0.269 OA
BRANCH  20  23
ATOM     23  C   UNL A   1      36.024  29.823  28.324  1.00  0.00     0.039 A 
ATOM     24  C   UNL A   1      36.324  29.306  29.589  1.00  0.00     0.014 A 
ATOM     25  C   UNL A   1      37.057  30.081  27.417  1.00  0.00     0.014 A 
ATOM     26  C   UNL A   1      37.646  29.006  29.928  1.00  0.00     0.010 A 
ATOM     27  C   UNL A   1      38.367  29.727  27.734  1.00  0.00     0.010 A 
ATOM     28  C   UNL A   1      38.675  29.192  28.995  1.00  0.00    -0.014 A 
BRANCH  28  29
ATOM     29  C   UNL A   1      40.081  28.842  29.320  1.00  0.00     0.031 A 
ATOM     30  C   UNL A   1      40.943  29.802  30.090  1.00  0.00     0.074 A 
ATOM     31  C   UNL A   1      40.601  27.689  28.858  1.00  0.00     0.049 A 
ATOM     32  N   UNL A   1      42.216  29.718  30.388  1.00  0.00    -0.248 NA
ATOM     33  C   UNL A   1      40.296  31.035  30.567  1.00  0.00     0.031 C 
ATOM     34  C   UNL A   1      39.880  26.695  28.063  1.00  0.00     0.029 A 
ATOM     35  N   UNL A   1      41.865  27.166  28.977  1.00  0.00    -0.354 N 
ATOM     36  C   UNL A   1      42.526  30.894  31.059  1.00  0.00     0.074 A 
ATOM     37  C   UNL A   1      41.318  31.689  31.098  1.00  0.00     0.031 C 
ATOM     38  C   UNL A   1      40.708  25.681  27.770  1.00  0.00     0.029 A 
ATOM     39  C   UNL A   1      42.027  25.966  28.329  1.00  0.00     0.049 A 
ATOM     40  H   UNL A   1      42.587  27.610  29.478  1.00  0.00     0.167 HD
ATOM     41  C   UNL A   1      43.709  31.266  31.605  1.00  0.00     0.037 A 
ATOM     42  C   UNL A   1      43.118  25.189  28.192  1.00  0.00     0.037 A 
ATOM     43  C   UNL A   1      44.896  30.455  31.604  1.00  0.00     0.049 A 
ATOM     44  C   UNL A   1      44.410  25.615  28.832  1.00  0.00     0.074 A 
ATOM     45  C   UNL A   1      46.117  30.709  32.202  1.00  0.00     0.029 A 
ATOM     46  N   UNL A   1      45.010  29.225  30.971  1.00  0.00    -0.354 N 
ATOM     47  N   UNL A   1      44.673  26.697  29.524  1.00  0.00    -0.248 NA
ATOM     48  C   UNL A   1      45.556  24.708  28.680  1.00  0.00     0.031 C 
ATOM     49  C   UNL A   1      46.982  29.651  31.903  1.00  0.00     0.029 A 
ATOM     50  C   UNL A   1      46.287  28.718  31.150  1.00  0.00     0.049 A 
ATOM     51  H   UNL A   1      44.289  28.779  30.470  1.00  0.00     0.167 HD
ATOM     52  C   UNL A   1      46.002  26.591  29.908  1.00  0.00     0.074 A 
ATOM     53  C   UNL A   1      46.490  25.332  29.384  1.00  0.00     0.031 C 
ATOM     54  C   UNL A   1      46.751  27.459  30.630  1.00  0.00     0.037 A 
BRANCH  41  55
ATOM     55  C   UNL A   1      43.779  32.616  32.256  1.00  0.00     0.064 A 
ATOM     56  C   UNL A   1      44.169  33.758  31.541  1.00  0.00     0.173 A 
ATOM     57  C   UNL A   1      43.408  32.776  33.601  1.00  0.00     0.173 A 
ATOM     58  F   UNL A   1      44.543  33.656  30.257  1.00  0.00    -0.203 F 
ATOM     59  C   UNL A   1      44.207  35.008  32.155  1.00  0.00     0.198 A 
ATOM     60  C   UNL A   1      43.423  34.031  34.203  1.00  0.00     0.198 A 
ATOM     61  F   UNL A   1      43.022  31.716  34.327  1.00  0.00    -0.203 F 
ATOM     62  F   UNL A   1      44.621  36.079  31.464  1.00  0.00    -0.200 F 
ATOM     63  C   UNL A   1      43.828  35.145  33.482  1.00  0.00     0.200 A 
ATOM     64  F   UNL A   1      43.046  34.164  35.483  1.00  0.00    -0.200 F 
ATOM     65  F   UNL A   1      43.859  36.350  34.068  1.00  0.00    -0.200 F 
ENDBRANCH  41  55
BRANCH  42  66
ATOM     66  C   UNL A   1      43.029  23.918  27.430  1.00  0.00     0.064 A 
ATOM     67  C   UNL A   1      43.414  23.860  26.083  1.00  0.00     0.173 A 
ATOM     68  C   UNL A   1      42.560  22.741  28.028  1.00  0.00     0.173 A 
ATOM     69  F   UNL A   1      43.850  24.967  25.464  1.00  0.00    -0.203 F 
ATOM     70  C   UNL A   1      43.314  22.676  25.358  1.00  0.00     0.198 A 
ATOM     71  C   UNL A   1      42.485  21.550  27.309  1.00  0.00     0.198 A 
ATOM     72  F   UNL A   1      42.185  22.744  29.315  1.00  0.00    -0.203 F 
ATOM     73  F   UNL A   1      43.650  22.657  24.061  1.00  0.00    -0.200 F 
ATOM     74  C   UNL A   1      42.855  21.520  25.971  1.00  0.00     0.200 A 
ATOM     75  F   UNL A   1      42.051  20.433  27.908  1.00  0.00    -0.200 F 
ATOM     76  F   UNL A   1      42.762  20.380  25.274  1.00  0.00    -0.200 F 
ENDBRANCH  42  66
BRANCH  54  77
ATOM     77  C   UNL A   1      48.168  27.063  30.921  1.00  0.00     0.064 A 
ATOM     78  C   UNL A   1      49.231  27.497  30.115  1.00  0.00     0.173 A 
ATOM     79  C   UNL A   1      48.468  26.272  32.040  1.00  0.00     0.173 A 
ATOM     80  F   UNL A   1      48.990  28.242  29.025  1.00  0.00    -0.203 F 
ATOM     81  C   UNL A   1      50.542  27.136  30.408  1.00  0.00     0.198 A 
ATOM     82  C   UNL A   1      49.784  25.933  32.344  1.00  0.00     0.198 A 
ATOM     83  F   UNL A   1      47.486  25.837  32.843  1.00  0.00    -0.203 F 
ATOM     84  F   UNL A   1      51.538  27.526  29.602  1.00  0.00    -0.200 F 
ATOM     85  C   UNL A   1      50.818  26.361  31.525  1.00  0.00     0.200 A 
ATOM     86  F   UNL A   1      50.050  25.193  33.428  1.00  0.00    -0.200 F 
ATOM     87  F   UNL A   1      52.083  26.018  31.808  1.00  0.00    -0.200 F 
ENDBRANCH  54  77
ENDBRANCH  28  29
ENDBRANCH  20  23
ENDBRANCH  18  19
ENDBRANCH   1  18
TORSDOF 11
ENDMDL
MODEL 3
REMARK VINA RESULT:     -11.1      4.102     11.905
REMARK SMILES CC1C[NH+]([C@H]2COC[C@@H]2C(=O)NCCCNC(=O)c2ccc(-c3c4nc(c(-c5c(F)c(F)c(F)c(F)c5F)c5ccc([nH]5)c(-c5c(F)c(F)c(F)c(F)c5F)c5nc(c(-c6c(F)c(F)c(F)c(F)c6F)c6ccc3[nH]6)C=C5)C=C4)cc2)C1
REMARK SMILES IDX 14 1 13 2 12 3 10 4 11 5 9 7 5 8 6 9 7 10 8 11 4 12 1 13
REMARK SMILES IDX 2 14 3 15 82 16 15 18 16 19 17 20 18 22 19 23 20 24 81 25
REMARK SMILES IDX 21 26 80 27 22 28 23 29 24 30 74 31 25 32 79 33 73 34 75 35
REMARK SMILES IDX 26 36 78 37 72 38 71 39 27 41 59 42 39 43 58 44 40 45 43 46
REMARK SMILES IDX 57 47 76 48 41 49 42 50 56 52 77 53 44 54 28 55 29 56 37 57
REMARK SMILES IDX 30 58 31 59 35 60 38 61 32 62 33 63 36 64 34 65 60 66 61 67
REMARK SMILES IDX 69 68 62 69 63 70 67 71 70 72 64 73 65 74 68 75 66 76 45 77
REMARK SMILES IDX 46 78 54 79 47 80 48 81 52 82 55 83 49 84 50 85 53 86 51 87
REMARK H PARENT 12 6 4 17 16 21 75 40 43 51
REMARK Flexibility Score: inf
ROOT
ATOM      1  C   UNL A   1      40.916  21.102  27.467  1.00  0.00     0.042 C 
ENDROOT
BRANCH   1   2
ATOM      2  C   UNL A   1      42.239  20.386  27.742  1.00  0.00     0.117 C 
BRANCH   2   3
ATOM      3  N   UNL A   1      42.410  19.215  26.897  1.00  0.00    -0.356 N 
ATOM      4  C   UNL A   1      43.336  18.826  25.990  1.00  0.00     0.231 C 
ATOM      5  O   UNL A   1      43.085  17.751  25.426  1.00  0.00    -0.274 OA
ATOM      6  H   UNL A   1      41.687  18.556  27.011  1.00  0.00     0.163 HD
BRANCH   4   7
ATOM      7  C   UNL A   1      44.656  19.526  25.669  1.00  0.00     0.164 C 
ATOM      8  C   UNL A   1      44.506  20.343  24.384  1.00  0.00     0.225 C 
ATOM      9  C   UNL A   1      44.935  19.298  23.346  1.00  0.00     0.226 C 
ATOM     10  O   UNL A   1      45.932  18.465  23.969  1.00  0.00    -0.374 OA
ATOM     11  C   UNL A   1      45.885  18.699  25.390  1.00  0.00     0.180 C 
BRANCH   8  12
ATOM     12  N   UNL A   1      45.275  21.609  24.472  1.00  0.00    -0.329 N 
ATOM     13  C   UNL A   1      44.025  24.703  25.283  1.00  0.00     0.020 C 
ATOM     14  C   UNL A   1      45.056  23.650  24.934  1.00  0.00     0.096 C 
ATOM     15  C   UNL A   1      45.010  22.329  25.739  1.00  0.00     0.271 C 
ATOM     16  C   UNL A   1      44.732  22.759  23.715  1.00  0.00     0.271 C 
ATOM     17  H   UNL A   1      46.200  21.253  24.226  1.00  0.00     0.348 HD
ENDBRANCH   8  12
ENDBRANCH   4   7
ENDBRANCH   2   3
ENDBRANCH   1   2
BRANCH   1  18
ATOM     18  C   UNL A   1      40.998  22.123  26.333  1.00  0.00     0.118 C 
BRANCH  18  19
ATOM     19  N   UNL A   1      39.686  22.431  25.780  1.00  0.00    -0.352 N 
ATOM     20  C   UNL A   1      38.835  23.477  26.028  1.00  0.00     0.251 C 
ATOM     21  H   UNL A   1      39.355  21.782  25.117  1.00  0.00     0.163 HD
ATOM     22  O   UNL A   1      37.681  23.426  25.602  1.00  0.00    -0.269 OA
BRANCH  20  23
ATOM     23  C   UNL A   1      39.271  24.661  26.800  1.00  0.00     0.039 A 
ATOM     24  C   UNL A   1      40.059  25.623  26.161  1.00  0.00     0.014 A 
ATOM     25  C   UNL A   1      38.978  24.795  28.161  1.00  0.00     0.014 A 
ATOM     26  C   UNL A   1      40.514  26.739  26.869  1.00  0.00     0.010 A 
ATOM     27  C   UNL A   1      39.383  25.937  28.850  1.00  0.00     0.010 A 
ATOM     28  C   UNL A   1      40.161  26.916  28.213  1.00  0.00    -0.014 A 
BRANCH  28  29
ATOM     29  C   UNL A   1      40.599  28.114  28.973  1.00  0.00     0.031 A 
ATOM     30  C   UNL A   1      41.994  28.193  29.526  1.00  0.00     0.074 A 
ATOM     31  C   UNL A   1      39.716  29.099  29.225  1.00  0.00     0.049 A 
ATOM     32  N   UNL A   1      42.532  29.109  30.292  1.00  0.00    -0.248 NA
ATOM     33  C   UNL A   1      42.899  27.081  29.196  1.00  0.00     0.031 C 
ATOM     34  C   UNL A   1      38.322  29.120  28.781  1.00  0.00     0.029 A 
ATOM     35  N   UNL A   1      39.856  30.267  29.934  1.00  0.00    -0.354 N 
ATOM     36  C   UNL A   1      43.823  28.671  30.557  1.00  0.00     0.074 A 
ATOM     37  C   UNL A   1      43.979  27.392  29.897  1.00  0.00     0.031 C 
ATOM     38  C   UNL A   1      37.737  30.244  29.221  1.00  0.00     0.029 A 
ATOM     39  C   UNL A   1      38.703  31.010  30.003  1.00  0.00     0.049 A 
ATOM     40  H   UNL A   1      40.703  30.545  30.352  1.00  0.00     0.167 HD
ATOM     41  C   UNL A   1      44.792  29.288  31.274  1.00  0.00     0.037 A 
ATOM     42  C   UNL A   1      38.451  32.171  30.636  1.00  0.00     0.037 A 
ATOM     43  C   UNL A   1      44.649  30.579  31.891  1.00  0.00     0.049 A 
ATOM     44  C   UNL A   1      39.555  32.847  31.401  1.00  0.00     0.074 A 
ATOM     45  C   UNL A   1      45.599  31.324  32.568  1.00  0.00     0.029 A 
ATOM     46  N   UNL A   1      43.477  31.321  31.906  1.00  0.00    -0.354 N 
ATOM     47  N   UNL A   1      40.792  32.456  31.587  1.00  0.00    -0.248 NA
ATOM     48  C   UNL A   1      39.230  34.131  32.039  1.00  0.00     0.031 C 
ATOM     49  C   UNL A   1      44.993  32.500  33.023  1.00  0.00     0.029 A 
ATOM     50  C   UNL A   1      43.675  32.506  32.596  1.00  0.00     0.049 A 
ATOM     51  H   UNL A   1      42.629  31.045  31.488  1.00  0.00     0.167 HD
ATOM     52  C   UNL A   1      41.398  33.452  32.340  1.00  0.00     0.074 A 
ATOM     53  C   UNL A   1      40.396  34.474  32.566  1.00  0.00     0.031 C 
ATOM     54  C   UNL A   1      42.669  33.515  32.803  1.00  0.00     0.037 A 
BRANCH  41  55
ATOM     55  C   UNL A   1      46.103  28.574  31.430  1.00  0.00     0.064 A 
ATOM     56  C   UNL A   1      46.343  27.703  32.502  1.00  0.00     0.173 A 
ATOM     57  C   UNL A   1      47.114  28.730  30.469  1.00  0.00     0.173 A 
ATOM     58  F   UNL A   1      45.412  27.529  33.452  1.00  0.00    -0.203 F 
ATOM     59  C   UNL A   1      47.558  27.031  32.619  1.00  0.00     0.198 A 
ATOM     60  C   UNL A   1      48.316  28.036  30.576  1.00  0.00     0.198 A 
ATOM     61  F   UNL A   1      46.932  29.548  29.421  1.00  0.00    -0.203 F 
ATOM     62  F   UNL A   1      47.780  26.233  33.673  1.00  0.00    -0.200 F 
ATOM     63  C   UNL A   1      48.540  27.192  31.653  1.00  0.00     0.200 A 
ATOM     64  F   UNL A   1      49.261  28.185  29.636  1.00  0.00    -0.200 F 
ATOM     65  F   UNL A   1      49.705  26.538  31.765  1.00  0.00    -0.200 F 
ENDBRANCH  41  55
BRANCH  42  66
ATOM     66  C   UNL A   1      37.099  32.778  30.555  1.00  0.00     0.064 A 
ATOM     67  C   UNL A   1      36.737  33.584  29.467  1.00  0.00     0.173 A 
ATOM     68  C   UNL A   1      36.144  32.569  31.561  1.00  0.00     0.173 A 
ATOM     69  F   UNL A   1      37.625  33.829  28.492  1.00  0.00    -0.203 F 
ATOM     70  C   UNL A   1      35.477  34.172  29.396  1.00  0.00     0.198 A 
ATOM     71  C   UNL A   1      34.875  33.137  31.476  1.00  0.00     0.198 A 
ATOM     72  F   UNL A   1      36.441  31.802  32.620  1.00  0.00    -0.203 F 
ATOM     73  F   UNL A   1      35.171  34.971  28.365  1.00  0.00    -0.200 F 
ATOM     74  C   UNL A   1      34.545  33.945  30.397  1.00  0.00     0.200 A 
ATOM     75  F   UNL A   1      33.974  32.906  32.439  1.00  0.00    -0.200 F 
ATOM     76  F   UNL A   1      33.331  34.509  30.327  1.00  0.00    -0.200 F 
ENDBRANCH  42  66
BRANCH  54  77
ATOM     77  C   UNL A   1      43.059  34.741  33.573  1.00  0.00     0.064 A 
ATOM     78  C   UNL A   1      43.457  35.919  32.922  1.00  0.00     0.173 A 
ATOM     79  C   UNL A   1      42.997  34.749  34.974  1.00  0.00     0.173 A 
ATOM     80  F   UNL A   1      43.547  35.953  31.584  1.00  0.00    -0.203 F 
ATOM     81  C   UNL A   1      43.799  37.054  33.650  1.00  0.00     0.198 A 
ATOM     82  C   UNL A   1      43.317  35.895  35.697  1.00  0.00     0.198 A 
ATOM     83  F   UNL A   1      42.618  33.648  35.640  1.00  0.00    -0.203 F 
ATOM     84  F   UNL A   1      44.217  38.156  33.012  1.00  0.00    -0.200 F 
ATOM     85  C   UNL A   1      43.722  37.044  35.035  1.00  0.00     0.200 A 
ATOM     86  F   UNL A   1      43.232  35.886  37.034  1.00  0.00    -0.200 F 
ATOM     87  F   UNL A   1      44.047  38.140  35.734  1.00  0.00    -0.200 F 
ENDBRANCH  54  77
ENDBRANCH  28  29
ENDBRANCH  20  23
ENDBRANCH  18  19
ENDBRANCH   1  18
TORSDOF 11
ENDMDL
