MODEL 1
REMARK VINA RESULT:     -12.1      0.000      0.000
REMARK SMILES CN(C)S(=O)(=O)c1c[nH]c(C(=O)NCCCNC(=O)c2ccc(-c3c4nc(c(-c5c(F)c(F)c(F)c(F)c5F)c5ccc([nH]5)c(-c5c(F)c(F)c(F)c(F)c5F)c5nc(c(-c6c(F)c(F)c(F)c(F)c6F)c6ccc3[nH]6)C=C5)C=C4)cc2)c1
REMARK SMILES IDX 15 1 14 2 13 3 11 4 12 5 10 7 7 8 8 9 83 10 9 11 4 13 5 14
REMARK SMILES IDX 6 15 2 16 1 17 3 18 16 19 17 20 18 21 19 23 20 24 21 25
REMARK SMILES IDX 82 26 22 27 81 28 23 29 24 30 25 31 75 32 26 33 80 34 74 35
REMARK SMILES IDX 76 36 27 37 79 38 73 39 72 40 28 42 60 43 40 44 59 45 41 46
REMARK SMILES IDX 44 47 58 48 77 49 42 50 43 51 57 53 78 54 45 55 29 56 30 57
REMARK SMILES IDX 38 58 31 59 32 60 36 61 39 62 33 63 34 64 37 65 35 66 61 67
REMARK SMILES IDX 62 68 70 69 63 70 64 71 68 72 71 73 65 74 66 75 69 76 67 77
REMARK SMILES IDX 46 78 47 79 55 80 48 81 49 82 53 83 56 84 50 85 51 86 54 87
REMARK SMILES IDX 52 88
REMARK H PARENT 13 6 9 12 17 22 76 41 44 52
REMARK Flexibility Score: inf
ROOT
ATOM      1  C   UNL A   1      33.214  28.924  27.045  1.00  0.00     0.042 C 
ENDROOT
BRANCH   1   2
ATOM      2  C   UNL A   1      32.616  27.583  26.606  1.00  0.00     0.118 C 
BRANCH   2   3
ATOM      3  N   UNL A   1      33.120  27.166  25.312  1.00  0.00    -0.351 N 
ATOM      4  C   UNL A   1      32.633  27.365  24.046  1.00  0.00     0.267 C 
ATOM      5  O   UNL A   1      33.341  26.992  23.111  1.00  0.00    -0.268 OA
ATOM      6  H   UNL A   1      33.958  26.650  25.349  1.00  0.00     0.163 HD
BRANCH   4   7
ATOM      7  C   UNL A   1      31.367  28.024  23.811  1.00  0.00     0.105 A 
ATOM      8  C   UNL A   1      29.578  29.393  23.490  1.00  0.00     0.100 A 
ATOM      9  C   UNL A   1      29.201  28.115  23.137  1.00  0.00     0.104 A 
ATOM     10  C   UNL A   1      30.913  29.323  23.962  1.00  0.00     0.055 A 
ATOM     11  N   UNL A   1      30.274  27.295  23.369  1.00  0.00    -0.356 N 
ATOM     12  H   UNL A   1      30.269  26.319  23.238  1.00  0.00     0.166 HD
BRANCH   8  13
ATOM     13  S   UNL A   1      28.630  30.835  23.391  1.00  0.00     0.244 S 
ATOM     14  O   UNL A   1      29.314  31.772  24.273  1.00  0.00    -0.207 OA
ATOM     15  O   UNL A   1      27.285  30.399  23.644  1.00  0.00    -0.207 OA
BRANCH  13  16
ATOM     16  N   UNL A   1      28.725  31.461  21.804  1.00  0.00    -0.204 NA
ATOM     17  C   UNL A   1      28.010  30.610  20.825  1.00  0.00     0.124 C 
ATOM     18  C   UNL A   1      28.333  32.881  21.668  1.00  0.00     0.124 C 
ENDBRANCH  13  16
ENDBRANCH   8  13
ENDBRANCH   4   7
ENDBRANCH   2   3
ENDBRANCH   1   2
BRANCH   1  19
ATOM     19  C   UNL A   1      34.722  28.984  26.789  1.00  0.00     0.118 C 
BRANCH  19  20
ATOM     20  N   UNL A   1      35.246  30.297  27.141  1.00  0.00    -0.352 N 
ATOM     21  C   UNL A   1      36.359  30.685  27.835  1.00  0.00     0.251 C 
ATOM     22  H   UNL A   1      34.696  31.046  26.817  1.00  0.00     0.163 HD
ATOM     23  O   UNL A   1      36.410  31.849  28.230  1.00  0.00    -0.269 OA
BRANCH  21  24
ATOM     24  C   UNL A   1      37.479  29.772  28.151  1.00  0.00     0.039 A 
ATOM     25  C   UNL A   1      38.523  29.701  27.215  1.00  0.00     0.014 A 
ATOM     26  C   UNL A   1      37.498  28.935  29.271  1.00  0.00     0.014 A 
ATOM     27  C   UNL A   1      39.603  28.852  27.427  1.00  0.00     0.010 A 
ATOM     28  C   UNL A   1      38.590  28.101  29.504  1.00  0.00     0.010 A 
ATOM     29  C   UNL A   1      39.653  28.080  28.593  1.00  0.00    -0.014 A 
BRANCH  29  30
ATOM     30  C   UNL A   1      40.941  27.444  28.957  1.00  0.00     0.031 A 
ATOM     31  C   UNL A   1      41.023  25.999  28.408  1.00  0.00     0.074 A 
ATOM     32  C   UNL A   1      41.821  28.187  29.695  1.00  0.00     0.049 A 
ATOM     33  N   UNL A   1      41.755  24.995  28.786  1.00  0.00    -0.248 NA
ATOM     34  C   UNL A   1      40.119  25.596  27.291  1.00  0.00     0.031 C 
ATOM     35  C   UNL A   1      41.601  29.594  30.095  1.00  0.00     0.029 A 
ATOM     36  N   UNL A   1      43.060  27.938  30.261  1.00  0.00    -0.354 N 
ATOM     37  C   UNL A   1      41.562  23.946  27.854  1.00  0.00     0.074 A 
ATOM     38  C   UNL A   1      40.461  24.332  27.031  1.00  0.00     0.031 C 
ATOM     39  C   UNL A   1      42.604  30.039  30.884  1.00  0.00     0.029 A 
ATOM     40  C   UNL A   1      43.587  28.988  31.067  1.00  0.00     0.049 A 
ATOM     41  H   UNL A   1      43.544  27.093  30.116  1.00  0.00     0.167 HD
ATOM     42  C   UNL A   1      42.421  22.889  27.729  1.00  0.00     0.037 A 
ATOM     43  C   UNL A   1      44.712  28.997  31.854  1.00  0.00     0.037 A 
ATOM     44  C   UNL A   1      43.432  22.975  28.723  1.00  0.00     0.049 A 
ATOM     45  C   UNL A   1      45.411  27.751  31.523  1.00  0.00     0.074 A 
ATOM     46  C   UNL A   1      43.406  22.786  30.078  1.00  0.00     0.029 A 
ATOM     47  N   UNL A   1      44.582  23.639  28.377  1.00  0.00    -0.354 N 
ATOM     48  N   UNL A   1      46.077  27.555  30.425  1.00  0.00    -0.248 NA
ATOM     49  C   UNL A   1      45.317  26.618  32.450  1.00  0.00     0.031 C 
ATOM     50  C   UNL A   1      44.301  23.763  30.555  1.00  0.00     0.029 A 
ATOM     51  C   UNL A   1      44.987  24.342  29.481  1.00  0.00     0.049 A 
ATOM     52  H   UNL A   1      45.030  23.615  27.501  1.00  0.00     0.167 HD
ATOM     53  C   UNL A   1      46.174  26.186  30.396  1.00  0.00     0.074 A 
ATOM     54  C   UNL A   1      46.023  25.728  31.760  1.00  0.00     0.031 C 
ATOM     55  C   UNL A   1      45.787  25.524  29.277  1.00  0.00     0.037 A 
BRANCH  42  56
ATOM     56  C   UNL A   1      42.637  21.869  26.641  1.00  0.00     0.064 A 
ATOM     57  C   UNL A   1      42.164  20.548  26.865  1.00  0.00     0.173 A 
ATOM     58  C   UNL A   1      43.587  22.017  25.625  1.00  0.00     0.173 A 
ATOM     59  F   UNL A   1      41.212  20.305  27.781  1.00  0.00    -0.203 F 
ATOM     60  C   UNL A   1      42.726  19.442  26.232  1.00  0.00     0.198 A 
ATOM     61  C   UNL A   1      44.110  20.907  24.952  1.00  0.00     0.198 A 
ATOM     62  F   UNL A   1      44.108  23.215  25.332  1.00  0.00    -0.203 F 
ATOM     63  F   UNL A   1      42.360  18.205  26.596  1.00  0.00    -0.200 F 
ATOM     64  C   UNL A   1      43.717  19.622  25.290  1.00  0.00     0.200 A 
ATOM     65  F   UNL A   1      45.065  21.084  24.028  1.00  0.00    -0.200 F 
ATOM     66  F   UNL A   1      44.318  18.561  24.734  1.00  0.00    -0.200 F 
ENDBRANCH  42  56
BRANCH  43  67
ATOM     67  C   UNL A   1      45.374  29.850  32.923  1.00  0.00     0.064 A 
ATOM     68  C   UNL A   1      46.595  30.525  32.809  1.00  0.00     0.173 A 
ATOM     69  C   UNL A   1      44.700  30.090  34.161  1.00  0.00     0.173 A 
ATOM     70  F   UNL A   1      47.407  30.310  31.770  1.00  0.00    -0.203 F 
ATOM     71  C   UNL A   1      47.036  31.443  33.785  1.00  0.00     0.198 A 
ATOM     72  C   UNL A   1      45.108  31.038  35.100  1.00  0.00     0.198 A 
ATOM     73  F   UNL A   1      43.603  29.410  34.517  1.00  0.00    -0.203 F 
ATOM     74  F   UNL A   1      48.212  32.067  33.625  1.00  0.00    -0.200 F 
ATOM     75  C   UNL A   1      46.273  31.731  34.905  1.00  0.00     0.200 A 
ATOM     76  F   UNL A   1      44.346  31.274  36.178  1.00  0.00    -0.200 F 
ATOM     77  F   UNL A   1      46.664  32.656  35.792  1.00  0.00    -0.200 F 
ENDBRANCH  43  67
BRANCH  55  78
ATOM     78  C   UNL A   1      45.883  26.350  28.007  1.00  0.00     0.064 A 
ATOM     79  C   UNL A   1      47.141  26.759  27.534  1.00  0.00     0.173 A 
ATOM     80  C   UNL A   1      44.773  26.858  27.312  1.00  0.00     0.173 A 
ATOM     81  F   UNL A   1      48.255  26.306  28.126  1.00  0.00    -0.203 F 
ATOM     82  C   UNL A   1      47.272  27.635  26.452  1.00  0.00     0.198 A 
ATOM     83  C   UNL A   1      44.899  27.730  26.227  1.00  0.00     0.198 A 
ATOM     84  F   UNL A   1      43.537  26.517  27.665  1.00  0.00    -0.203 F 
ATOM     85  F   UNL A   1      48.492  28.003  26.036  1.00  0.00    -0.200 F 
ATOM     86  C   UNL A   1      46.152  28.124  25.800  1.00  0.00     0.200 A 
ATOM     87  F   UNL A   1      43.803  28.180  25.596  1.00  0.00    -0.200 F 
ATOM     88  F   UNL A   1      46.279  28.955  24.757  1.00  0.00    -0.200 F 
ENDBRANCH  55  78
ENDBRANCH  29  30
ENDBRANCH  21  24
ENDBRANCH  19  20
ENDBRANCH   1  19
TORSDOF 12
ENDMDL
MODEL 2
REMARK VINA RESULT:     -12.0      2.044      3.183
REMARK SMILES CN(C)S(=O)(=O)c1c[nH]c(C(=O)NCCCNC(=O)c2ccc(-c3c4nc(c(-c5c(F)c(F)c(F)c(F)c5F)c5ccc([nH]5)c(-c5c(F)c(F)c(F)c(F)c5F)c5nc(c(-c6c(F)c(F)c(F)c(F)c6F)c6ccc3[nH]6)C=C5)C=C4)cc2)c1
REMARK SMILES IDX 15 1 14 2 13 3 11 4 12 5 10 7 7 8 8 9 83 10 9 11 4 13 5 14
REMARK SMILES IDX 6 15 2 16 1 17 3 18 16 19 17 20 18 21 19 23 20 24 21 25
REMARK SMILES IDX 82 26 22 27 81 28 23 29 24 30 25 31 75 32 26 33 80 34 74 35
REMARK SMILES IDX 76 36 27 37 79 38 73 39 72 40 28 42 60 43 40 44 59 45 41 46
REMARK SMILES IDX 44 47 58 48 77 49 42 50 43 51 57 53 78 54 45 55 29 56 30 57
REMARK SMILES IDX 38 58 31 59 32 60 36 61 39 62 33 63 34 64 37 65 35 66 61 67
REMARK SMILES IDX 62 68 70 69 63 70 64 71 68 72 71 73 65 74 66 75 69 76 67 77
REMARK SMILES IDX 46 78 47 79 55 80 48 81 49 82 53 83 56 84 50 85 51 86 54 87
REMARK SMILES IDX 52 88
REMARK H PARENT 13 6 9 12 17 22 76 41 44 52
REMARK Flexibility Score: inf
ROOT
ATOM      1  C   UNL A   1      33.292  29.071  27.128  1.00  0.00     0.042 C 
ENDROOT
BRANCH   1   2
ATOM      2  C   UNL A   1      32.562  29.511  25.854  1.00  0.00     0.118 C 
BRANCH   2   3
ATOM      3  N   UNL A   1      33.369  29.293  24.668  1.00  0.00    -0.351 N 
ATOM      4  C   UNL A   1      33.510  28.193  23.863  1.00  0.00     0.267 C 
ATOM      5  O   UNL A   1      34.185  28.331  22.843  1.00  0.00    -0.268 OA
ATOM      6  H   UNL A   1      33.908  30.070  24.394  1.00  0.00     0.163 HD
BRANCH   4   7
ATOM      7  C   UNL A   1      32.862  26.936  24.168  1.00  0.00     0.105 A 
ATOM      8  C   UNL A   1      32.026  24.988  24.995  1.00  0.00     0.100 A 
ATOM      9  C   UNL A   1      31.351  25.275  23.828  1.00  0.00     0.104 A 
ATOM     10  C   UNL A   1      33.005  25.997  25.176  1.00  0.00     0.055 A 
ATOM     11  N   UNL A   1      31.888  26.429  23.321  1.00  0.00    -0.356 N 
ATOM     12  H   UNL A   1      31.618  26.844  22.470  1.00  0.00     0.166 HD
BRANCH   8  13
ATOM     13  S   UNL A   1      31.758  23.657  26.065  1.00  0.00     0.244 S 
ATOM     14  O   UNL A   1      30.954  22.727  25.282  1.00  0.00    -0.207 OA
ATOM     15  O   UNL A   1      31.260  24.260  27.269  1.00  0.00    -0.207 OA
BRANCH  13  16
ATOM     16  N   UNL A   1      33.249  22.893  26.397  1.00  0.00    -0.204 NA
ATOM     17  C   UNL A   1      33.285  22.309  27.758  1.00  0.00     0.124 C 
ATOM     18  C   UNL A   1      33.689  21.912  25.381  1.00  0.00     0.124 C 
ENDBRANCH  13  16
ENDBRANCH   8  13
ENDBRANCH   4   7
ENDBRANCH   2   3
ENDBRANCH   1   2
BRANCH   1  19
ATOM     19  C   UNL A   1      34.811  29.087  26.947  1.00  0.00     0.118 C 
BRANCH  19  20
ATOM     20  N   UNL A   1      35.354  30.390  27.304  1.00  0.00    -0.352 N 
ATOM     21  C   UNL A   1      36.478  30.760  27.990  1.00  0.00     0.251 C 
ATOM     22  H   UNL A   1      34.809  31.148  26.993  1.00  0.00     0.163 HD
ATOM     23  O   UNL A   1      36.547  31.920  28.395  1.00  0.00    -0.269 OA
BRANCH  21  24
ATOM     24  C   UNL A   1      37.592  29.832  28.286  1.00  0.00     0.039 A 
ATOM     25  C   UNL A   1      38.617  29.746  27.331  1.00  0.00     0.014 A 
ATOM     26  C   UNL A   1      37.620  28.996  29.407  1.00  0.00     0.014 A 
ATOM     27  C   UNL A   1      39.689  28.882  27.523  1.00  0.00     0.010 A 
ATOM     28  C   UNL A   1      38.705  28.147  29.620  1.00  0.00     0.010 A 
ATOM     29  C   UNL A   1      39.750  28.111  28.689  1.00  0.00    -0.014 A 
BRANCH  29  30
ATOM     30  C   UNL A   1      41.036  27.457  29.030  1.00  0.00     0.031 A 
ATOM     31  C   UNL A   1      41.092  26.014  28.473  1.00  0.00     0.074 A 
ATOM     32  C   UNL A   1      41.936  28.186  29.758  1.00  0.00     0.049 A 
ATOM     33  N   UNL A   1      41.817  24.999  28.834  1.00  0.00    -0.248 NA
ATOM     34  C   UNL A   1      40.165  25.628  27.367  1.00  0.00     0.031 C 
ATOM     35  C   UNL A   1      41.739  29.594  30.168  1.00  0.00     0.029 A 
ATOM     36  N   UNL A   1      43.181  27.919  30.303  1.00  0.00    -0.354 N 
ATOM     37  C   UNL A   1      41.597  23.958  27.900  1.00  0.00     0.074 A 
ATOM     38  C   UNL A   1      40.488  24.361  27.096  1.00  0.00     0.031 C 
ATOM     39  C   UNL A   1      42.760  30.022  30.943  1.00  0.00     0.029 A 
ATOM     40  C   UNL A   1      43.733  28.958  31.106  1.00  0.00     0.049 A 
ATOM     41  H   UNL A   1      43.652  27.069  30.146  1.00  0.00     0.167 HD
ATOM     42  C   UNL A   1      42.441  22.892  27.756  1.00  0.00     0.037 A 
ATOM     43  C   UNL A   1      44.870  28.950  31.874  1.00  0.00     0.037 A 
ATOM     44  C   UNL A   1      43.468  22.960  28.735  1.00  0.00     0.049 A 
ATOM     45  C   UNL A   1      45.549  27.697  31.526  1.00  0.00     0.074 A 
ATOM     46  C   UNL A   1      43.462  22.764  30.089  1.00  0.00     0.029 A 
ATOM     47  N   UNL A   1      44.621  23.611  28.374  1.00  0.00    -0.354 N 
ATOM     48  N   UNL A   1      46.195  27.498  30.417  1.00  0.00    -0.248 NA
ATOM     49  C   UNL A   1      45.455  26.561  32.450  1.00  0.00     0.031 C 
ATOM     50  C   UNL A   1      44.375  23.727  30.556  1.00  0.00     0.029 A 
ATOM     51  C   UNL A   1      45.052  24.304  29.474  1.00  0.00     0.049 A 
ATOM     52  H   UNL A   1      45.055  23.587  27.491  1.00  0.00     0.167 HD
ATOM     53  C   UNL A   1      46.275  26.129  30.380  1.00  0.00     0.074 A 
ATOM     54  C   UNL A   1      46.140  25.665  31.744  1.00  0.00     0.031 C 
ATOM     55  C   UNL A   1      45.863  25.478  29.264  1.00  0.00     0.037 A 
BRANCH  42  56
ATOM     56  C   UNL A   1      42.627  21.874  26.660  1.00  0.00     0.064 A 
ATOM     57  C   UNL A   1      42.148  20.556  26.888  1.00  0.00     0.173 A 
ATOM     58  C   UNL A   1      43.558  22.019  25.626  1.00  0.00     0.173 A 
ATOM     59  F   UNL A   1      41.212  20.317  27.820  1.00  0.00    -0.203 F 
ATOM     60  C   UNL A   1      42.688  19.448  26.239  1.00  0.00     0.198 A 
ATOM     61  C   UNL A   1      44.060  20.908  24.939  1.00  0.00     0.198 A 
ATOM     62  F   UNL A   1      44.084  23.214  25.328  1.00  0.00    -0.203 F 
ATOM     63  F   UNL A   1      42.319  18.213  26.605  1.00  0.00    -0.200 F 
ATOM     64  C   UNL A   1      43.662  19.624  25.278  1.00  0.00     0.200 A 
ATOM     65  F   UNL A   1      44.998  21.081  23.997  1.00  0.00    -0.200 F 
ATOM     66  F   UNL A   1      44.244  18.561  24.706  1.00  0.00    -0.200 F 
ENDBRANCH  42  56
BRANCH  43  67
ATOM     67  C   UNL A   1      45.559  29.789  32.937  1.00  0.00     0.064 A 
ATOM     68  C   UNL A   1      45.187  29.898  34.281  1.00  0.00     0.173 A 
ATOM     69  C   UNL A   1      46.759  30.500  32.617  1.00  0.00     0.173 A 
ATOM     70  F   UNL A   1      44.026  29.398  34.718  1.00  0.00    -0.203 F 
ATOM     71  C   UNL A   1      45.999  30.551  35.233  1.00  0.00     0.198 A 
ATOM     72  C   UNL A   1      47.588  31.098  33.565  1.00  0.00     0.198 A 
ATOM     73  F   UNL A   1      47.182  30.645  31.354  1.00  0.00    -0.203 F 
ATOM     74  F   UNL A   1      45.597  30.622  36.510  1.00  0.00    -0.200 F 
ATOM     75  C   UNL A   1      47.216  31.109  34.883  1.00  0.00     0.200 A 
ATOM     76  F   UNL A   1      48.753  31.640  33.179  1.00  0.00    -0.200 F 
ATOM     77  F   UNL A   1      48.016  31.665  35.804  1.00  0.00    -0.200 F 
ENDBRANCH  43  67
BRANCH  55  78
ATOM     78  C   UNL A   1      45.949  26.309  27.996  1.00  0.00     0.064 A 
ATOM     79  C   UNL A   1      47.203  26.709  27.508  1.00  0.00     0.173 A 
ATOM     80  C   UNL A   1      44.834  26.830  27.319  1.00  0.00     0.173 A 
ATOM     81  F   UNL A   1      48.322  26.243  28.083  1.00  0.00    -0.203 F 
ATOM     82  C   UNL A   1      47.328  27.589  26.429  1.00  0.00     0.198 A 
ATOM     83  C   UNL A   1      44.953  27.706  26.237  1.00  0.00     0.198 A 
ATOM     84  F   UNL A   1      43.600  26.498  27.688  1.00  0.00    -0.203 F 
ATOM     85  F   UNL A   1      48.546  27.947  25.998  1.00  0.00    -0.200 F 
ATOM     86  C   UNL A   1      46.203  28.091  25.795  1.00  0.00     0.200 A 
ATOM     87  F   UNL A   1      43.853  28.169  25.623  1.00  0.00    -0.200 F 
ATOM     88  F   UNL A   1      46.324  28.926  24.754  1.00  0.00    -0.200 F 
ENDBRANCH  55  78
ENDBRANCH  29  30
ENDBRANCH  21  24
ENDBRANCH  19  20
ENDBRANCH   1  19
TORSDOF 12
ENDMDL
MODEL 3
REMARK VINA RESULT:     -11.7      4.797      9.586
REMARK SMILES CN(C)S(=O)(=O)c1c[nH]c(C(=O)NCCCNC(=O)c2ccc(-c3c4nc(c(-c5c(F)c(F)c(F)c(F)c5F)c5ccc([nH]5)c(-c5c(F)c(F)c(F)c(F)c5F)c5nc(c(-c6c(F)c(F)c(F)c(F)c6F)c6ccc3[nH]6)C=C5)C=C4)cc2)c1
REMARK SMILES IDX 15 1 14 2 13 3 11 4 12 5 10 7 7 8 8 9 83 10 9 11 4 13 5 14
REMARK SMILES IDX 6 15 2 16 1 17 3 18 16 19 17 20 18 21 19 23 20 24 21 25
REMARK SMILES IDX 82 26 22 27 81 28 23 29 24 30 25 31 75 32 26 33 80 34 74 35
REMARK SMILES IDX 76 36 27 37 79 38 73 39 72 40 28 42 60 43 40 44 59 45 41 46
REMARK SMILES IDX 44 47 58 48 77 49 42 50 43 51 57 53 78 54 45 55 29 56 30 57
REMARK SMILES IDX 38 58 31 59 32 60 36 61 39 62 33 63 34 64 37 65 35 66 61 67
REMARK SMILES IDX 62 68 70 69 63 70 64 71 68 72 71 73 65 74 66 75 69 76 67 77
REMARK SMILES IDX 46 78 47 79 55 80 48 81 49 82 53 83 56 84 50 85 51 86 54 87
REMARK SMILES IDX 52 88
REMARK H PARENT 13 6 9 12 17 22 76 41 44 52
REMARK Flexibility Score: inf
ROOT
ATOM      1  C   UNL A   1      37.190  23.287  24.921  1.00  0.00     0.042 C 
ENDROOT
BRANCH   1   2
ATOM      2  C   UNL A   1      35.734  22.826  24.797  1.00  0.00     0.118 C 
BRANCH   2   3
ATOM      3  N   UNL A   1      35.152  22.525  26.091  1.00  0.00    -0.351 N 
ATOM      4  C   UNL A   1      34.097  23.091  26.759  1.00  0.00     0.267 C 
ATOM      5  O   UNL A   1      33.746  22.549  27.808  1.00  0.00    -0.268 OA
ATOM      6  H   UNL A   1      35.591  21.787  26.573  1.00  0.00     0.163 HD
BRANCH   4   7
ATOM      7  C   UNL A   1      33.396  24.245  26.241  1.00  0.00     0.105 A 
ATOM      8  C   UNL A   1      32.641  26.162  25.275  1.00  0.00     0.100 A 
ATOM      9  C   UNL A   1      31.544  25.443  25.701  1.00  0.00     0.104 A 
ATOM     10  C   UNL A   1      33.796  25.437  25.662  1.00  0.00     0.055 A 
ATOM     11  N   UNL A   1      32.013  24.310  26.312  1.00  0.00    -0.356 N 
ATOM     12  H   UNL A   1      31.443  23.633  26.744  1.00  0.00     0.166 HD
BRANCH   8  13
ATOM     13  S   UNL A   1      32.647  27.667  24.425  1.00  0.00     0.244 S 
ATOM     14  O   UNL A   1      33.992  28.187  24.631  1.00  0.00    -0.207 OA
ATOM     15  O   UNL A   1      31.485  28.358  24.909  1.00  0.00    -0.207 OA
BRANCH  13  16
ATOM     16  N   UNL A   1      32.463  27.369  22.753  1.00  0.00    -0.204 NA
ATOM     17  C   UNL A   1      33.346  26.276  22.281  1.00  0.00     0.124 C 
ATOM     18  C   UNL A   1      31.069  27.164  22.304  1.00  0.00     0.124 C 
ENDBRANCH  13  16
ENDBRANCH   8  13
ENDBRANCH   4   7
ENDBRANCH   2   3
ENDBRANCH   1   2
BRANCH   1  19
ATOM     19  C   UNL A   1      37.446  24.015  26.243  1.00  0.00     0.118 C 
BRANCH  19  20
ATOM     20  N   UNL A   1      38.639  23.489  26.892  1.00  0.00    -0.352 N 
ATOM     21  C   UNL A   1      39.693  24.102  27.513  1.00  0.00     0.251 C 
ATOM     22  H   UNL A   1      38.698  22.507  26.883  1.00  0.00     0.163 HD
ATOM     23  O   UNL A   1      40.703  23.432  27.722  1.00  0.00    -0.269 OA
BRANCH  21  24
ATOM     24  C   UNL A   1      39.682  25.525  27.916  1.00  0.00     0.039 A 
ATOM     25  C   UNL A   1      39.193  25.818  29.199  1.00  0.00     0.014 A 
ATOM     26  C   UNL A   1      40.046  26.570  27.062  1.00  0.00     0.014 A 
ATOM     27  C   UNL A   1      39.131  27.132  29.648  1.00  0.00     0.010 A 
ATOM     28  C   UNL A   1      40.011  27.890  27.513  1.00  0.00     0.010 A 
ATOM     29  C   UNL A   1      39.577  28.165  28.816  1.00  0.00    -0.014 A 
BRANCH  29  30
ATOM     30  C   UNL A   1      39.810  29.498  29.418  1.00  0.00     0.031 A 
ATOM     31  C   UNL A   1      38.581  30.420  29.223  1.00  0.00     0.074 A 
ATOM     32  C   UNL A   1      41.020  29.712  30.020  1.00  0.00     0.049 A 
ATOM     33  N   UNL A   1      38.487  31.715  29.246  1.00  0.00    -0.248 NA
ATOM     34  C   UNL A   1      37.256  29.804  28.914  1.00  0.00     0.031 C 
ATOM     35  C   UNL A   1      42.076  28.686  30.165  1.00  0.00     0.029 A 
ATOM     36  N   UNL A   1      41.619  30.803  30.627  1.00  0.00    -0.354 N 
ATOM     37  C   UNL A   1      37.114  32.049  29.168  1.00  0.00     0.074 A 
ATOM     38  C   UNL A   1      36.420  30.842  28.849  1.00  0.00     0.031 C 
ATOM     39  C   UNL A   1      43.187  29.210  30.730  1.00  0.00     0.029 A 
ATOM     40  C   UNL A   1      42.972  30.613  31.029  1.00  0.00     0.049 A 
ATOM     41  H   UNL A   1      41.142  31.653  30.769  1.00  0.00     0.167 HD
ATOM     42  C   UNL A   1      36.622  33.275  29.519  1.00  0.00     0.037 A 
ATOM     43  C   UNL A   1      43.865  31.527  31.531  1.00  0.00     0.037 A 
ATOM     44  C   UNL A   1      37.695  34.142  29.858  1.00  0.00     0.049 A 
ATOM     45  C   UNL A   1      43.065  32.729  31.789  1.00  0.00     0.074 A 
ATOM     46  C   UNL A   1      38.657  34.752  29.099  1.00  0.00     0.029 A 
ATOM     47  N   UNL A   1      38.064  34.180  31.178  1.00  0.00    -0.354 N 
ATOM     48  N   UNL A   1      42.240  32.861  32.784  1.00  0.00    -0.248 NA
ATOM     49  C   UNL A   1      43.142  33.846  30.841  1.00  0.00     0.031 C 
ATOM     50  C   UNL A   1      39.794  34.707  29.928  1.00  0.00     0.029 A 
ATOM     51  C   UNL A   1      39.429  34.284  31.212  1.00  0.00     0.049 A 
ATOM     52  H   UNL A   1      37.461  34.140  31.956  1.00  0.00     0.167 HD
ATOM     53  C   UNL A   1      41.471  33.920  32.373  1.00  0.00     0.074 A 
ATOM     54  C   UNL A   1      42.259  34.661  31.412  1.00  0.00     0.031 C 
ATOM     55  C   UNL A   1      40.121  33.790  32.377  1.00  0.00     0.037 A 
BRANCH  42  56
ATOM     56  C   UNL A   1      35.236  33.765  29.853  1.00  0.00     0.064 A 
ATOM     57  C   UNL A   1      34.583  34.603  28.909  1.00  0.00     0.173 A 
ATOM     58  C   UNL A   1      34.717  33.781  31.152  1.00  0.00     0.173 A 
ATOM     59  F   UNL A   1      34.968  34.620  27.623  1.00  0.00    -0.203 F 
ATOM     60  C   UNL A   1      33.594  35.511  29.283  1.00  0.00     0.198 A 
ATOM     61  C   UNL A   1      33.686  34.657  31.511  1.00  0.00     0.198 A 
ATOM     62  F   UNL A   1      35.258  33.038  32.124  1.00  0.00    -0.203 F 
ATOM     63  F   UNL A   1      33.124  36.393  28.390  1.00  0.00    -0.200 F 
ATOM     64  C   UNL A   1      33.161  35.552  30.592  1.00  0.00     0.200 A 
ATOM     65  F   UNL A   1      33.258  34.688  32.781  1.00  0.00    -0.200 F 
ATOM     66  F   UNL A   1      32.269  36.474  30.978  1.00  0.00    -0.200 F 
ENDBRANCH  42  56
BRANCH  43  67
ATOM     67  C   UNL A   1      45.347  31.654  31.839  1.00  0.00     0.064 A 
ATOM     68  C   UNL A   1      46.385  31.747  30.905  1.00  0.00     0.173 A 
ATOM     69  C   UNL A   1      45.786  31.773  33.195  1.00  0.00     0.173 A 
ATOM     70  F   UNL A   1      46.164  31.532  29.604  1.00  0.00    -0.203 F 
ATOM     71  C   UNL A   1      47.709  32.053  31.285  1.00  0.00     0.198 A 
ATOM     72  C   UNL A   1      47.082  32.128  33.568  1.00  0.00     0.198 A 
ATOM     73  F   UNL A   1      44.965  31.549  34.229  1.00  0.00    -0.203 F 
ATOM     74  F   UNL A   1      48.665  32.136  30.348  1.00  0.00    -0.200 F 
ATOM     75  C   UNL A   1      48.046  32.286  32.607  1.00  0.00     0.200 A 
ATOM     76  F   UNL A   1      47.368  32.329  34.862  1.00  0.00    -0.200 F 
ATOM     77  F   UNL A   1      49.290  32.645  32.954  1.00  0.00    -0.200 F 
ENDBRANCH  43  67
BRANCH  55  78
ATOM     78  C   UNL A   1      39.601  32.779  33.383  1.00  0.00     0.064 A 
ATOM     79  C   UNL A   1      39.764  33.015  34.757  1.00  0.00     0.173 A 
ATOM     80  C   UNL A   1      39.062  31.529  33.036  1.00  0.00     0.173 A 
ATOM     81  F   UNL A   1      40.252  34.191  35.178  1.00  0.00    -0.203 F 
ATOM     82  C   UNL A   1      39.429  32.052  35.715  1.00  0.00     0.198 A 
ATOM     83  C   UNL A   1      38.722  30.565  33.989  1.00  0.00     0.198 A 
ATOM     84  F   UNL A   1      38.848  31.212  31.761  1.00  0.00    -0.203 F 
ATOM     85  F   UNL A   1      39.605  32.319  37.017  1.00  0.00    -0.200 F 
ATOM     86  C   UNL A   1      38.912  30.826  35.332  1.00  0.00     0.200 A 
ATOM     87  F   UNL A   1      38.205  29.389  33.601  1.00  0.00    -0.200 F 
ATOM     88  F   UNL A   1      38.582  29.908  36.251  1.00  0.00    -0.200 F 
ENDBRANCH  55  78
ENDBRANCH  29  30
ENDBRANCH  21  24
ENDBRANCH  19  20
ENDBRANCH   1  19
TORSDOF 12
ENDMDL
