MODEL 1
REMARK VINA RESULT:     -11.3      0.000      0.000
REMARK SMILES COC[C@@H](C)Nc1ccc([N+](=O)[O-])c(C(=O)NCCCNC(=O)c2ccc(-c3c4nc(c(-c5c(F)c(F)c(F)c(F)c5F)c5ccc([nH]5)c(-c5c(F)c(F)c(F)c(F)c5F)c5nc(c(-c6c(F)c(F)c(F)c(F)c6F)c6ccc3[nH]6)C=C5)C=C4)cc2)c1
REMARK SMILES IDX 18 1 17 2 15 3 16 4 14 6 7 7 8 8 87 9 9 10 10 11 6 12 4 14
REMARK SMILES IDX 5 15 3 16 2 17 1 18 11 19 12 20 13 21 19 22 20 23 21 24
REMARK SMILES IDX 22 25 23 27 24 28 25 29 86 30 26 31 85 32 27 33 28 34 29 35
REMARK SMILES IDX 79 36 30 37 84 38 78 39 80 40 31 41 83 42 77 43 76 44 32 46
REMARK SMILES IDX 64 47 44 48 63 49 45 50 48 51 62 52 81 53 46 54 47 55 61 57
REMARK SMILES IDX 82 58 49 59 33 60 34 61 42 62 35 63 36 64 40 65 43 66 37 67
REMARK SMILES IDX 38 68 41 69 39 70 65 71 66 72 74 73 67 74 68 75 72 76 75 77
REMARK SMILES IDX 69 78 70 79 73 80 71 81 50 82 51 83 59 84 52 85 53 86 57 87
REMARK SMILES IDX 60 88 54 89 55 90 58 91 56 92
REMARK H PARENT 17 5 6 13 21 26 80 45 48 56
REMARK Flexibility Score: inf
ROOT
ATOM      1  C   UNL A   1      31.130  31.053  26.314  1.00  0.00     0.118 C 
ENDROOT
BRANCH   1   2
ATOM      2  N   UNL A   1      32.102  30.453  25.406  1.00  0.00    -0.352 N 
ATOM      3  C   UNL A   1      32.257  29.229  24.796  1.00  0.00     0.258 C 
ATOM      4  O   UNL A   1      33.338  29.048  24.241  1.00  0.00    -0.269 OA
ATOM      5  H   UNL A   1      32.826  31.078  25.172  1.00  0.00     0.163 HD
BRANCH   3   6
ATOM      6  C   UNL A   1      31.265  28.116  24.866  1.00  0.00     0.119 A 
ATOM      7  C   UNL A   1      30.715  25.912  25.799  1.00  0.00     0.036 A 
ATOM      8  C   UNL A   1      29.868  25.680  24.713  1.00  0.00     0.033 A 
ATOM      9  C   UNL A   1      31.290  27.182  25.902  1.00  0.00     0.046 A 
ATOM     10  C   UNL A   1      29.619  26.684  23.774  1.00  0.00     0.088 A 
ATOM     11  C   UNL A   1      30.325  27.894  23.859  1.00  0.00     0.282 A 
BRANCH   7  12
ATOM     12  N   UNL A   1      30.916  24.922  26.742  1.00  0.00    -0.380 N 
ATOM     13  H   UNL A   1      31.148  25.208  27.655  1.00  0.00     0.160 HD
BRANCH  12  14
ATOM     14  C   UNL A   1      30.812  23.475  26.494  1.00  0.00     0.102 C 
ATOM     15  C   UNL A   1      29.603  22.915  27.251  1.00  0.00     0.033 C 
BRANCH  14  16
ATOM     16  C   UNL A   1      32.135  22.795  26.908  1.00  0.00     0.184 C 
BRANCH  16  17
ATOM     17  O   UNL A   1      32.718  21.996  25.877  1.00  0.00    -0.383 OA
ATOM     18  C   UNL A   1      32.218  22.254  24.575  1.00  0.00     0.194 C 
ENDBRANCH  16  17
ENDBRANCH  14  16
ENDBRANCH  12  14
ENDBRANCH   7  12
BRANCH  11  19
ATOM     19  N   UNL A   1      29.898  28.961  22.972  1.00  0.00     0.063 N 
ATOM     20  O   UNL A   1      29.936  28.729  21.756  1.00  0.00    -0.258 OA
ATOM     21  O   UNL A   1      29.386  29.957  23.504  1.00  0.00    -0.258 OA
ENDBRANCH  11  19
ENDBRANCH   3   6
ENDBRANCH   1   2
BRANCH   1  22
ATOM     22  C   UNL A   1      31.327  32.547  26.500  1.00  0.00     0.042 C 
BRANCH  22  23
ATOM     23  C   UNL A   1      32.621  32.909  27.204  1.00  0.00     0.118 C 
BRANCH  23  24
ATOM     24  N   UNL A   1      32.615  34.278  27.706  1.00  0.00    -0.352 N 
ATOM     25  C   UNL A   1      33.294  34.852  28.753  1.00  0.00     0.251 C 
ATOM     26  H   UNL A   1      32.028  34.894  27.211  1.00  0.00     0.163 HD
ATOM     27  O   UNL A   1      32.961  35.962  29.155  1.00  0.00    -0.269 OA
BRANCH  25  28
ATOM     28  C   UNL A   1      34.411  34.137  29.408  1.00  0.00     0.039 A 
ATOM     29  C   UNL A   1      34.127  33.143  30.349  1.00  0.00     0.014 A 
ATOM     30  C   UNL A   1      35.736  34.469  29.127  1.00  0.00     0.014 A 
ATOM     31  C   UNL A   1      35.174  32.444  30.956  1.00  0.00     0.010 A 
ATOM     32  C   UNL A   1      36.770  33.697  29.639  1.00  0.00     0.010 A 
ATOM     33  C   UNL A   1      36.502  32.692  30.578  1.00  0.00    -0.014 A 
BRANCH  33  34
ATOM     34  C   UNL A   1      37.640  31.953  31.181  1.00  0.00     0.031 A 
ATOM     35  C   UNL A   1      38.104  32.304  32.570  1.00  0.00     0.074 A 
ATOM     36  C   UNL A   1      38.300  31.029  30.458  1.00  0.00     0.049 A 
ATOM     37  N   UNL A   1      39.138  31.859  33.237  1.00  0.00    -0.248 NA
ATOM     38  C   UNL A   1      37.322  33.323  33.291  1.00  0.00     0.031 C 
ATOM     39  C   UNL A   1      37.978  30.639  29.084  1.00  0.00     0.029 A 
ATOM     40  N   UNL A   1      39.390  30.258  30.773  1.00  0.00    -0.354 N 
ATOM     41  C   UNL A   1      39.142  32.558  34.438  1.00  0.00     0.074 A 
ATOM     42  C   UNL A   1      38.050  33.504  34.382  1.00  0.00     0.031 C 
ATOM     43  C   UNL A   1      38.833  29.686  28.685  1.00  0.00     0.029 A 
ATOM     44  C   UNL A   1      39.791  29.427  29.756  1.00  0.00     0.049 A 
ATOM     45  H   UNL A   1      39.843  30.297  31.647  1.00  0.00     0.167 HD
ATOM     46  C   UNL A   1      39.964  32.406  35.503  1.00  0.00     0.037 A 
ATOM     47  C   UNL A   1      40.820  28.561  29.693  1.00  0.00     0.037 A 
ATOM     48  C   UNL A   1      41.026  31.438  35.564  1.00  0.00     0.049 A 
ATOM     49  C   UNL A   1      41.715  28.405  30.894  1.00  0.00     0.074 A 
ATOM     50  C   UNL A   1      41.879  31.158  36.617  1.00  0.00     0.029 A 
ATOM     51  N   UNL A   1      41.379  30.589  34.525  1.00  0.00    -0.354 N 
ATOM     52  N   UNL A   1      41.669  29.025  32.048  1.00  0.00    -0.248 NA
ATOM     53  C   UNL A   1      42.800  27.421  30.785  1.00  0.00     0.031 C 
ATOM     54  C   UNL A   1      42.780  30.175  36.198  1.00  0.00     0.029 A 
ATOM     55  C   UNL A   1      42.449  29.797  34.906  1.00  0.00     0.049 A 
ATOM     56  H   UNL A   1      40.934  30.555  33.648  1.00  0.00     0.167 HD
ATOM     57  C   UNL A   1      42.690  28.481  32.816  1.00  0.00     0.074 A 
ATOM     58  C   UNL A   1      43.332  27.472  31.998  1.00  0.00     0.031 C 
ATOM     59  C   UNL A   1      43.063  28.785  34.082  1.00  0.00     0.037 A 
BRANCH  46  60
ATOM     60  C   UNL A   1      39.740  33.302  36.689  1.00  0.00     0.064 A 
ATOM     61  C   UNL A   1      40.420  34.523  36.831  1.00  0.00     0.173 A 
ATOM     62  C   UNL A   1      38.816  32.949  37.683  1.00  0.00     0.173 A 
ATOM     63  F   UNL A   1      41.325  34.903  35.916  1.00  0.00    -0.203 F 
ATOM     64  C   UNL A   1      40.208  35.337  37.941  1.00  0.00     0.198 A 
ATOM     65  C   UNL A   1      38.580  33.784  38.773  1.00  0.00     0.198 A 
ATOM     66  F   UNL A   1      38.135  31.797  37.596  1.00  0.00    -0.203 F 
ATOM     67  F   UNL A   1      40.912  36.468  38.082  1.00  0.00    -0.200 F 
ATOM     68  C   UNL A   1      39.283  34.971  38.905  1.00  0.00     0.200 A 
ATOM     69  F   UNL A   1      37.674  33.436  39.698  1.00  0.00    -0.200 F 
ATOM     70  F   UNL A   1      39.074  35.761  39.969  1.00  0.00    -0.200 F 
ENDBRANCH  46  60
BRANCH  47  71
ATOM     71  C   UNL A   1      41.039  27.752  28.465  1.00  0.00     0.064 A 
ATOM     72  C   UNL A   1      41.927  28.182  27.470  1.00  0.00     0.173 A 
ATOM     73  C   UNL A   1      40.365  26.539  28.258  1.00  0.00     0.173 A 
ATOM     74  F   UNL A   1      42.582  29.343  27.613  1.00  0.00    -0.203 F 
ATOM     75  C   UNL A   1      42.113  27.445  26.302  1.00  0.00     0.198 A 
ATOM     76  C   UNL A   1      40.577  25.786  27.104  1.00  0.00     0.198 A 
ATOM     77  F   UNL A   1      39.513  26.076  29.184  1.00  0.00    -0.203 F 
ATOM     78  F   UNL A   1      42.930  27.905  25.344  1.00  0.00    -0.200 F 
ATOM     79  C   UNL A   1      41.441  26.245  26.123  1.00  0.00     0.200 A 
ATOM     80  F   UNL A   1      39.940  24.619  26.944  1.00  0.00    -0.200 F 
ATOM     81  F   UNL A   1      41.624  25.534  25.002  1.00  0.00    -0.200 F 
ENDBRANCH  47  71
BRANCH  59  82
ATOM     82  C   UNL A   1      44.180  27.983  34.686  1.00  0.00     0.064 A 
ATOM     83  C   UNL A   1      43.945  26.774  35.358  1.00  0.00     0.173 A 
ATOM     84  C   UNL A   1      45.508  28.414  34.554  1.00  0.00     0.173 A 
ATOM     85  F   UNL A   1      42.691  26.326  35.523  1.00  0.00    -0.203 F 
ATOM     86  C   UNL A   1      44.997  26.042  35.901  1.00  0.00     0.198 A 
ATOM     87  C   UNL A   1      46.561  27.663  35.068  1.00  0.00     0.198 A 
ATOM     88  F   UNL A   1      45.787  29.559  33.912  1.00  0.00    -0.203 F 
ATOM     89  F   UNL A   1      44.746  24.919  36.587  1.00  0.00    -0.200 F 
ATOM     90  C   UNL A   1      46.304  26.482  35.749  1.00  0.00     0.200 A 
ATOM     91  F   UNL A   1      47.823  28.080  34.904  1.00  0.00    -0.200 F 
ATOM     92  F   UNL A   1      47.316  25.772  36.265  1.00  0.00    -0.200 F 
ENDBRANCH  59  82
ENDBRANCH  33  34
ENDBRANCH  25  28
ENDBRANCH  23  24
ENDBRANCH  22  23
ENDBRANCH   1  22
TORSDOF 15
ENDMDL
MODEL 2
REMARK VINA RESULT:     -11.3      1.588      8.116
REMARK SMILES COC[C@@H](C)Nc1ccc([N+](=O)[O-])c(C(=O)NCCCNC(=O)c2ccc(-c3c4nc(c(-c5c(F)c(F)c(F)c(F)c5F)c5ccc([nH]5)c(-c5c(F)c(F)c(F)c(F)c5F)c5nc(c(-c6c(F)c(F)c(F)c(F)c6F)c6ccc3[nH]6)C=C5)C=C4)cc2)c1
REMARK SMILES IDX 18 1 17 2 15 3 16 4 14 6 7 7 8 8 87 9 9 10 10 11 6 12 4 14
REMARK SMILES IDX 5 15 3 16 2 17 1 18 11 19 12 20 13 21 19 22 20 23 21 24
REMARK SMILES IDX 22 25 23 27 24 28 25 29 86 30 26 31 85 32 27 33 28 34 29 35
REMARK SMILES IDX 79 36 30 37 84 38 78 39 80 40 31 41 83 42 77 43 76 44 32 46
REMARK SMILES IDX 64 47 44 48 63 49 45 50 48 51 62 52 81 53 46 54 47 55 61 57
REMARK SMILES IDX 82 58 49 59 33 60 34 61 42 62 35 63 36 64 40 65 43 66 37 67
REMARK SMILES IDX 38 68 41 69 39 70 65 71 66 72 74 73 67 74 68 75 72 76 75 77
REMARK SMILES IDX 69 78 70 79 73 80 71 81 50 82 51 83 59 84 52 85 53 86 57 87
REMARK SMILES IDX 60 88 54 89 55 90 58 91 56 92
REMARK H PARENT 17 5 6 13 21 26 80 45 48 56
REMARK Flexibility Score: inf
ROOT
ATOM      1  C   UNL A   1      33.769  30.406  26.882  1.00  0.00     0.118 C 
ENDROOT
BRANCH   1   2
ATOM      2  N   UNL A   1      32.863  29.484  27.558  1.00  0.00    -0.352 N 
ATOM      3  C   UNL A   1      31.825  28.664  27.178  1.00  0.00     0.258 C 
ATOM      4  O   UNL A   1      31.171  28.178  28.096  1.00  0.00    -0.269 OA
ATOM      5  H   UNL A   1      33.036  29.437  28.527  1.00  0.00     0.163 HD
BRANCH   3   6
ATOM      6  C   UNL A   1      31.402  28.433  25.765  1.00  0.00     0.119 A 
ATOM      7  C   UNL A   1      30.324  29.368  23.766  1.00  0.00     0.036 A 
ATOM      8  C   UNL A   1      30.011  28.073  23.348  1.00  0.00     0.033 A 
ATOM      9  C   UNL A   1      31.125  29.496  24.905  1.00  0.00     0.046 A 
ATOM     10  C   UNL A   1      30.480  26.961  24.052  1.00  0.00     0.088 A 
ATOM     11  C   UNL A   1      31.170  27.155  25.259  1.00  0.00     0.282 A 
BRANCH   7  12
ATOM     12  N   UNL A   1      29.888  30.456  23.033  1.00  0.00    -0.380 N 
ATOM     13  H   UNL A   1      30.276  30.581  22.137  1.00  0.00     0.160 HD
BRANCH  12  14
ATOM     14  C   UNL A   1      28.891  31.440  23.482  1.00  0.00     0.102 C 
ATOM     15  C   UNL A   1      27.523  30.762  23.603  1.00  0.00     0.033 C 
BRANCH  14  16
ATOM     16  C   UNL A   1      28.875  32.629  22.495  1.00  0.00     0.184 C 
BRANCH  16  17
ATOM     17  O   UNL A   1      27.693  32.696  21.695  1.00  0.00    -0.383 OA
ATOM     18  C   UNL A   1      27.919  32.589  20.299  1.00  0.00     0.194 C 
ENDBRANCH  16  17
ENDBRANCH  14  16
ENDBRANCH  12  14
ENDBRANCH   7  12
BRANCH  11  19
ATOM     19  N   UNL A   1      31.789  25.981  25.850  1.00  0.00     0.063 N 
ATOM     20  O   UNL A   1      33.011  25.852  25.694  1.00  0.00    -0.258 OA
ATOM     21  O   UNL A   1      31.075  25.288  26.590  1.00  0.00    -0.258 OA
ENDBRANCH  11  19
ENDBRANCH   3   6
ENDBRANCH   1   2
BRANCH   1  22
ATOM     22  C   UNL A   1      33.701  31.821  27.428  1.00  0.00     0.042 C 
BRANCH  22  23
ATOM     23  C   UNL A   1      32.324  32.449  27.325  1.00  0.00     0.118 C 
BRANCH  23  24
ATOM     24  N   UNL A   1      32.343  33.878  27.617  1.00  0.00    -0.352 N 
ATOM     25  C   UNL A   1      33.098  34.600  28.508  1.00  0.00     0.251 C 
ATOM     26  H   UNL A   1      31.711  34.413  27.086  1.00  0.00     0.163 HD
ATOM     27  O   UNL A   1      32.787  35.758  28.767  1.00  0.00    -0.269 OA
BRANCH  25  28
ATOM     28  C   UNL A   1      34.273  33.990  29.168  1.00  0.00     0.039 A 
ATOM     29  C   UNL A   1      35.555  34.307  28.711  1.00  0.00     0.014 A 
ATOM     30  C   UNL A   1      34.114  33.076  30.210  1.00  0.00     0.014 A 
ATOM     31  C   UNL A   1      36.673  33.756  29.344  1.00  0.00     0.010 A 
ATOM     32  C   UNL A   1      35.222  32.623  30.913  1.00  0.00     0.010 A 
ATOM     33  C   UNL A   1      36.514  32.937  30.472  1.00  0.00    -0.014 A 
BRANCH  33  34
ATOM     34  C   UNL A   1      37.678  32.353  31.186  1.00  0.00     0.031 A 
ATOM     35  C   UNL A   1      38.451  31.227  30.553  1.00  0.00     0.074 A 
ATOM     36  C   UNL A   1      37.987  32.777  32.426  1.00  0.00     0.049 A 
ATOM     37  N   UNL A   1      39.427  30.509  31.048  1.00  0.00    -0.248 NA
ATOM     38  C   UNL A   1      38.047  30.828  29.194  1.00  0.00     0.031 C 
ATOM     39  C   UNL A   1      37.280  33.825  33.164  1.00  0.00     0.029 A 
ATOM     40  N   UNL A   1      38.971  32.369  33.290  1.00  0.00    -0.354 N 
ATOM     41  C   UNL A   1      39.732  29.565  30.075  1.00  0.00     0.074 A 
ATOM     42  C   UNL A   1      38.796  29.757  28.989  1.00  0.00     0.031 C 
ATOM     43  C   UNL A   1      37.868  33.995  34.358  1.00  0.00     0.029 A 
ATOM     44  C   UNL A   1      38.964  33.040  34.489  1.00  0.00     0.049 A 
ATOM     45  H   UNL A   1      39.620  31.662  33.073  1.00  0.00     0.167 HD
ATOM     46  C   UNL A   1      40.721  28.641  30.074  1.00  0.00     0.037 A 
ATOM     47  C   UNL A   1      39.750  32.894  35.572  1.00  0.00     0.037 A 
ATOM     48  C   UNL A   1      41.670  28.480  31.143  1.00  0.00     0.049 A 
ATOM     49  C   UNL A   1      40.848  31.864  35.543  1.00  0.00     0.074 A 
ATOM     50  C   UNL A   1      42.748  27.616  31.218  1.00  0.00     0.029 A 
ATOM     51  N   UNL A   1      41.652  29.203  32.327  1.00  0.00    -0.354 N 
ATOM     52  N   UNL A   1      41.169  31.022  34.591  1.00  0.00    -0.248 NA
ATOM     53  C   UNL A   1      41.699  31.771  36.737  1.00  0.00     0.031 C 
ATOM     54  C   UNL A   1      43.353  27.782  32.467  1.00  0.00     0.029 A 
ATOM     55  C   UNL A   1      42.690  28.792  33.146  1.00  0.00     0.049 A 
ATOM     56  H   UNL A   1      40.998  29.904  32.551  1.00  0.00     0.167 HD
ATOM     57  C   UNL A   1      42.280  30.328  35.052  1.00  0.00     0.074 A 
ATOM     58  C   UNL A   1      42.583  30.856  36.367  1.00  0.00     0.031 C 
ATOM     59  C   UNL A   1      42.986  29.343  34.445  1.00  0.00     0.037 A 
BRANCH  46  60
ATOM     60  C   UNL A   1      40.829  27.738  28.877  1.00  0.00     0.064 A 
ATOM     61  C   UNL A   1      41.749  27.986  27.845  1.00  0.00     0.173 A 
ATOM     62  C   UNL A   1      40.021  26.596  28.771  1.00  0.00     0.173 A 
ATOM     63  F   UNL A   1      42.537  29.072  27.889  1.00  0.00    -0.203 F 
ATOM     64  C   UNL A   1      41.830  27.145  26.738  1.00  0.00     0.198 A 
ATOM     65  C   UNL A   1      40.131  25.737  27.680  1.00  0.00     0.198 A 
ATOM     66  F   UNL A   1      39.128  26.308  29.729  1.00  0.00    -0.203 F 
ATOM     67  F   UNL A   1      42.675  27.436  25.740  1.00  0.00    -0.200 F 
ATOM     68  C   UNL A   1      41.028  26.018  26.661  1.00  0.00     0.200 A 
ATOM     69  F   UNL A   1      39.364  24.640  27.614  1.00  0.00    -0.200 F 
ATOM     70  F   UNL A   1      41.113  25.205  25.598  1.00  0.00    -0.200 F 
ENDBRANCH  46  60
BRANCH  47  71
ATOM     71  C   UNL A   1      39.551  33.765  36.760  1.00  0.00     0.064 A 
ATOM     72  C   UNL A   1      38.781  33.332  37.849  1.00  0.00     0.173 A 
ATOM     73  C   UNL A   1      40.117  35.047  36.832  1.00  0.00     0.173 A 
ATOM     74  F   UNL A   1      38.205  32.121  37.821  1.00  0.00    -0.203 F 
ATOM     75  C   UNL A   1      38.564  34.156  38.952  1.00  0.00     0.198 A 
ATOM     76  C   UNL A   1      39.925  35.858  37.949  1.00  0.00     0.198 A 
ATOM     77  F   UNL A   1      40.870  35.507  35.822  1.00  0.00    -0.203 F 
ATOM     78  F   UNL A   1      37.783  33.734  39.956  1.00  0.00    -0.200 F 
ATOM     79  C   UNL A   1      39.140  35.416  39.003  1.00  0.00     0.200 A 
ATOM     80  F   UNL A   1      40.499  37.067  38.003  1.00  0.00    -0.200 F 
ATOM     81  F   UNL A   1      38.935  36.206  40.065  1.00  0.00    -0.200 F 
ENDBRANCH  47  71
BRANCH  59  82
ATOM     82  C   UNL A   1      44.191  28.811  35.167  1.00  0.00     0.064 A 
ATOM     83  C   UNL A   1      45.459  29.390  35.018  1.00  0.00     0.173 A 
ATOM     84  C   UNL A   1      44.061  27.730  36.051  1.00  0.00     0.173 A 
ATOM     85  F   UNL A   1      45.639  30.418  34.174  1.00  0.00    -0.203 F 
ATOM     86  C   UNL A   1      46.561  28.885  35.705  1.00  0.00     0.198 A 
ATOM     87  C   UNL A   1      45.156  27.249  36.762  1.00  0.00     0.198 A 
ATOM     88  F   UNL A   1      42.867  27.146  36.236  1.00  0.00    -0.203 F 
ATOM     89  F   UNL A   1      47.774  29.417  35.506  1.00  0.00    -0.200 F 
ATOM     90  C   UNL A   1      46.407  27.821  36.582  1.00  0.00     0.200 A 
ATOM     91  F   UNL A   1      45.002  26.234  37.622  1.00  0.00    -0.200 F 
ATOM     92  F   UNL A   1      47.466  27.342  37.248  1.00  0.00    -0.200 F 
ENDBRANCH  59  82
ENDBRANCH  33  34
ENDBRANCH  25  28
ENDBRANCH  23  24
ENDBRANCH  22  23
ENDBRANCH   1  22
TORSDOF 15
ENDMDL
MODEL 3
REMARK VINA RESULT:     -11.3      5.708     11.108
REMARK SMILES COC[C@@H](C)Nc1ccc([N+](=O)[O-])c(C(=O)NCCCNC(=O)c2ccc(-c3c4nc(c(-c5c(F)c(F)c(F)c(F)c5F)c5ccc([nH]5)c(-c5c(F)c(F)c(F)c(F)c5F)c5nc(c(-c6c(F)c(F)c(F)c(F)c6F)c6ccc3[nH]6)C=C5)C=C4)cc2)c1
REMARK SMILES IDX 18 1 17 2 15 3 16 4 14 6 7 7 8 8 87 9 9 10 10 11 6 12 4 14
REMARK SMILES IDX 5 15 3 16 2 17 1 18 11 19 12 20 13 21 19 22 20 23 21 24
REMARK SMILES IDX 22 25 23 27 24 28 25 29 86 30 26 31 85 32 27 33 28 34 29 35
REMARK SMILES IDX 79 36 30 37 84 38 78 39 80 40 31 41 83 42 77 43 76 44 32 46
REMARK SMILES IDX 64 47 44 48 63 49 45 50 48 51 62 52 81 53 46 54 47 55 61 57
REMARK SMILES IDX 82 58 49 59 33 60 34 61 42 62 35 63 36 64 40 65 43 66 37 67
REMARK SMILES IDX 38 68 41 69 39 70 65 71 66 72 74 73 67 74 68 75 72 76 75 77
REMARK SMILES IDX 69 78 70 79 73 80 71 81 50 82 51 83 59 84 52 85 53 86 57 87
REMARK SMILES IDX 60 88 54 89 55 90 58 91 56 92
REMARK H PARENT 17 5 6 13 21 26 80 45 48 56
REMARK Flexibility Score: inf
ROOT
ATOM      1  C   UNL A   1      38.357  21.805  25.620  1.00  0.00     0.118 C 
ENDROOT
BRANCH   1   2
ATOM      2  N   UNL A   1      37.779  22.445  24.443  1.00  0.00    -0.352 N 
ATOM      3  C   UNL A   1      36.527  22.521  23.877  1.00  0.00     0.258 C 
ATOM      4  O   UNL A   1      36.484  23.011  22.751  1.00  0.00    -0.269 OA
ATOM      5  H   UNL A   1      38.451  22.947  23.926  1.00  0.00     0.163 HD
BRANCH   3   6
ATOM      6  C   UNL A   1      35.286  21.960  24.487  1.00  0.00     0.119 A 
ATOM      7  C   UNL A   1      33.996  19.942  25.030  1.00  0.00     0.036 A 
ATOM      8  C   UNL A   1      32.828  20.708  25.034  1.00  0.00     0.033 A 
ATOM      9  C   UNL A   1      35.207  20.624  24.881  1.00  0.00     0.046 A 
ATOM     10  C   UNL A   1      32.883  22.096  24.886  1.00  0.00     0.088 A 
ATOM     11  C   UNL A   1      34.115  22.708  24.611  1.00  0.00     0.282 A 
BRANCH   7  12
ATOM     12  N   UNL A   1      33.926  18.575  25.220  1.00  0.00    -0.380 N 
ATOM     13  H   UNL A   1      33.554  18.256  26.075  1.00  0.00     0.160 HD
BRANCH  12  14
ATOM     14  C   UNL A   1      34.361  17.557  24.251  1.00  0.00     0.102 C 
ATOM     15  C   UNL A   1      33.370  17.509  23.083  1.00  0.00     0.033 C 
BRANCH  14  16
ATOM     16  C   UNL A   1      34.491  16.196  24.971  1.00  0.00     0.184 C 
BRANCH  16  17
ATOM     17  O   UNL A   1      33.428  15.287  24.679  1.00  0.00    -0.383 OA
ATOM     18  C   UNL A   1      32.522  15.074  25.749  1.00  0.00     0.194 C 
ENDBRANCH  16  17
ENDBRANCH  14  16
ENDBRANCH  12  14
ENDBRANCH   7  12
BRANCH  11  19
ATOM     19  N   UNL A   1      34.144  24.160  24.648  1.00  0.00     0.063 N 
ATOM     20  O   UNL A   1      33.756  24.755  23.633  1.00  0.00    -0.258 OA
ATOM     21  O   UNL A   1      34.405  24.685  25.741  1.00  0.00    -0.258 OA
ENDBRANCH  11  19
ENDBRANCH   3   6
ENDBRANCH   1   2
BRANCH   1  22
ATOM     22  C   UNL A   1      38.961  20.443  25.325  1.00  0.00     0.042 C 
BRANCH  22  23
ATOM     23  C   UNL A   1      39.651  19.811  26.518  1.00  0.00     0.118 C 
BRANCH  23  24
ATOM     24  N   UNL A   1      40.873  19.107  26.142  1.00  0.00    -0.352 N 
ATOM     25  C   UNL A   1      42.125  19.585  25.842  1.00  0.00     0.251 C 
ATOM     26  H   UNL A   1      40.785  18.128  26.099  1.00  0.00     0.163 HD
ATOM     27  O   UNL A   1      42.947  18.841  25.316  1.00  0.00    -0.269 OA
BRANCH  25  28
ATOM     28  C   UNL A   1      42.485  20.990  26.132  1.00  0.00     0.039 A 
ATOM     29  C   UNL A   1      42.594  21.899  25.077  1.00  0.00     0.014 A 
ATOM     30  C   UNL A   1      42.753  21.405  27.437  1.00  0.00     0.014 A 
ATOM     31  C   UNL A   1      42.909  23.235  25.342  1.00  0.00     0.010 A 
ATOM     32  C   UNL A   1      42.948  22.751  27.712  1.00  0.00     0.010 A 
ATOM     33  C   UNL A   1      43.054  23.677  26.666  1.00  0.00    -0.014 A 
BRANCH  33  34
ATOM     34  C   UNL A   1      43.363  25.093  26.989  1.00  0.00     0.031 A 
ATOM     35  C   UNL A   1      44.744  25.632  26.725  1.00  0.00     0.074 A 
ATOM     36  C   UNL A   1      42.436  25.864  27.587  1.00  0.00     0.049 A 
ATOM     37  N   UNL A   1      45.252  26.799  27.030  1.00  0.00    -0.248 NA
ATOM     38  C   UNL A   1      45.695  24.722  26.065  1.00  0.00     0.031 C 
ATOM     39  C   UNL A   1      41.080  25.439  27.940  1.00  0.00     0.029 A 
ATOM     40  N   UNL A   1      42.497  27.165  28.017  1.00  0.00    -0.354 N 
ATOM     41  C   UNL A   1      46.579  26.751  26.622  1.00  0.00     0.074 A 
ATOM     42  C   UNL A   1      46.819  25.420  26.110  1.00  0.00     0.031 C 
ATOM     43  C   UNL A   1      40.430  26.467  28.508  1.00  0.00     0.029 A 
ATOM     44  C   UNL A   1      41.335  27.609  28.599  1.00  0.00     0.049 A 
ATOM     45  H   UNL A   1      43.299  27.729  27.917  1.00  0.00     0.167 HD
ATOM     46  C   UNL A   1      47.507  27.737  26.645  1.00  0.00     0.037 A 
ATOM     47  C   UNL A   1      41.038  28.800  29.152  1.00  0.00     0.037 A 
ATOM     48  C   UNL A   1      47.251  29.069  27.124  1.00  0.00     0.049 A 
ATOM     49  C   UNL A   1      42.086  29.882  29.158  1.00  0.00     0.074 A 
ATOM     50  C   UNL A   1      48.102  30.160  27.136  1.00  0.00     0.029 A 
ATOM     51  N   UNL A   1      46.050  29.490  27.675  1.00  0.00    -0.354 N 
ATOM     52  N   UNL A   1      43.317  29.846  28.710  1.00  0.00    -0.248 NA
ATOM     53  C   UNL A   1      41.697  31.174  29.741  1.00  0.00     0.031 C 
ATOM     54  C   UNL A   1      47.431  31.227  27.741  1.00  0.00     0.029 A 
ATOM     55  C   UNL A   1      46.142  30.820  28.048  1.00  0.00     0.049 A 
ATOM     56  H   UNL A   1      45.250  28.926  27.785  1.00  0.00     0.167 HD
ATOM     57  C   UNL A   1      43.837  31.116  28.919  1.00  0.00     0.074 A 
ATOM     58  C   UNL A   1      42.783  31.903  29.525  1.00  0.00     0.031 C 
ATOM     59  C   UNL A   1      45.075  31.591  28.634  1.00  0.00     0.037 A 
BRANCH  46  60
ATOM     60  C   UNL A   1      48.882  27.411  26.132  1.00  0.00     0.064 A 
ATOM     61  C   UNL A   1      49.923  27.032  26.996  1.00  0.00     0.173 A 
ATOM     62  C   UNL A   1      49.157  27.452  24.757  1.00  0.00     0.173 A 
ATOM     63  F   UNL A   1      49.719  26.989  28.321  1.00  0.00    -0.203 F 
ATOM     64  C   UNL A   1      51.193  26.742  26.505  1.00  0.00     0.198 A 
ATOM     65  C   UNL A   1      50.419  27.126  24.267  1.00  0.00     0.198 A 
ATOM     66  F   UNL A   1      48.200  27.803  23.886  1.00  0.00    -0.203 F 
ATOM     67  F   UNL A   1      52.184  26.440  27.355  1.00  0.00    -0.200 F 
ATOM     68  C   UNL A   1      51.438  26.781  25.141  1.00  0.00     0.200 A 
ATOM     69  F   UNL A   1      50.650  27.150  22.947  1.00  0.00    -0.200 F 
ATOM     70  F   UNL A   1      52.660  26.493  24.670  1.00  0.00    -0.200 F 
ENDBRANCH  46  60
BRANCH  47  71
ATOM     71  C   UNL A   1      39.683  29.044  29.713  1.00  0.00     0.064 A 
ATOM     72  C   UNL A   1      38.643  29.516  28.900  1.00  0.00     0.173 A 
ATOM     73  C   UNL A   1      39.401  28.819  31.068  1.00  0.00     0.173 A 
ATOM     74  F   UNL A   1      38.867  29.763  27.601  1.00  0.00    -0.203 F 
ATOM     75  C   UNL A   1      37.379  29.778  29.426  1.00  0.00     0.198 A 
ATOM     76  C   UNL A   1      38.128  29.051  31.586  1.00  0.00     0.198 A 
ATOM     77  F   UNL A   1      40.358  28.358  31.887  1.00  0.00    -0.203 F 
ATOM     78  F   UNL A   1      36.417  30.276  28.637  1.00  0.00    -0.200 F 
ATOM     79  C   UNL A   1      37.121  29.540  30.768  1.00  0.00     0.200 A 
ATOM     80  F   UNL A   1      37.878  28.802  32.879  1.00  0.00    -0.200 F 
ATOM     81  F   UNL A   1      35.905  29.787  31.272  1.00  0.00    -0.200 F 
ENDBRANCH  47  71
BRANCH  59  82
ATOM     82  C   UNL A   1      45.341  33.041  28.921  1.00  0.00     0.064 A 
ATOM     83  C   UNL A   1      45.907  33.465  30.132  1.00  0.00     0.173 A 
ATOM     84  C   UNL A   1      45.061  34.014  27.950  1.00  0.00     0.173 A 
ATOM     85  F   UNL A   1      46.181  32.575  31.098  1.00  0.00    -0.203 F 
ATOM     86  C   UNL A   1      46.153  34.815  30.372  1.00  0.00     0.198 A 
ATOM     87  C   UNL A   1      45.341  35.358  28.178  1.00  0.00     0.198 A 
ATOM     88  F   UNL A   1      44.527  33.659  26.771  1.00  0.00    -0.203 F 
ATOM     89  F   UNL A   1      46.643  35.204  31.557  1.00  0.00    -0.200 F 
ATOM     90  C   UNL A   1      45.878  35.758  29.393  1.00  0.00     0.200 A 
ATOM     91  F   UNL A   1      45.091  36.265  27.225  1.00  0.00    -0.200 F 
ATOM     92  F   UNL A   1      46.124  37.055  29.622  1.00  0.00    -0.200 F 
ENDBRANCH  59  82
ENDBRANCH  33  34
ENDBRANCH  25  28
ENDBRANCH  23  24
ENDBRANCH  22  23
ENDBRANCH   1  22
TORSDOF 15
ENDMDL
