MODEL 1
REMARK VINA RESULT:     -13.2      0.000      0.000
REMARK SMILES O=C(C[NH+]1CCC(C(=O)NCCCNC(=O)c2ccc(-c3c4nc(c(-c5c(F)c(F)c(F)c(F)c5F)c5ccc([nH]5)c(-c5c(F)c(F)c(F)c(F)c5F)c5nc(c(-c6c(F)c(F)c(F)c(F)c6F)c6ccc3[nH]6)C=C5)C=C4)cc2)CC1)Nc1ccccc1Oc1ccccc1
REMARK SMILES IDX 8 1 9 2 10 3 7 5 4 6 5 7 81 8 6 10 80 11 3 12 2 13 1 14
REMARK SMILES IDX 82 15 83 17 84 18 88 19 85 20 87 21 86 22 89 23 90 24 91 25
REMARK SMILES IDX 95 26 92 27 94 28 93 29 11 30 12 31 13 32 14 33 15 34 16 36
REMARK SMILES IDX 17 37 18 38 79 39 19 40 78 41 20 42 21 43 22 44 72 45 23 46
REMARK SMILES IDX 77 47 71 48 73 49 24 50 76 51 70 52 69 53 25 55 57 56 37 57
REMARK SMILES IDX 56 58 38 59 41 60 55 61 74 62 39 63 40 64 54 66 75 67 42 68
REMARK SMILES IDX 26 69 27 70 35 71 28 72 29 73 33 74 36 75 30 76 31 77 34 78
REMARK SMILES IDX 32 79 58 80 59 81 67 82 60 83 61 84 65 85 68 86 62 87 63 88
REMARK SMILES IDX 66 89 64 90 43 91 44 92 52 93 45 94 46 95 50 96 53 97 47 98
REMARK SMILES IDX 48 99 51 100 49 101
REMARK H PARENT 10 4 4 9 82 16 14 35 73 54 41 65
REMARK Flexibility Score: inf
ROOT
ATOM      1  C   UNL A   1      31.787  28.474  27.002  1.00  0.00     0.223 C 
ATOM      2  O   UNL A   1      31.609  27.768  27.996  1.00  0.00    -0.275 OA
ATOM      3  N   UNL A   1      31.554  29.813  27.111  1.00  0.00    -0.356 N 
ATOM      4  H   UNL A   1      31.236  30.104  27.997  1.00  0.00     0.163 HD
ENDROOT
BRANCH   1   5
ATOM      5  C   UNL A   1      32.228  27.862  25.684  1.00  0.00     0.089 C 
ATOM      6  N   UNL A   1      31.799  25.326  24.372  1.00  0.00    -0.327 N 
ATOM      7  C   UNL A   1      33.147  25.644  24.834  1.00  0.00     0.263 C 
ATOM      8  C   UNL A   1      31.176  26.507  23.764  1.00  0.00     0.263 C 
ATOM      9  H   UNL A   1      31.310  25.039  25.221  1.00  0.00     0.348 HD
ATOM     10  C   UNL A   1      33.098  26.637  25.974  1.00  0.00     0.075 C 
ATOM     11  C   UNL A   1      31.030  27.663  24.744  1.00  0.00     0.075 C 
BRANCH   6  12
ATOM     12  C   UNL A   1      31.671  24.165  23.453  1.00  0.00     0.363 C 
BRANCH  12  13
ATOM     13  C   UNL A   1      31.736  22.782  24.098  1.00  0.00     0.279 C 
ATOM     14  O   UNL A   1      31.106  22.491  25.111  1.00  0.00    -0.268 OA
ATOM     15  N   UNL A   1      32.585  21.929  23.407  1.00  0.00    -0.318 N 
ATOM     16  H   UNL A   1      33.094  22.294  22.648  1.00  0.00     0.170 HD
BRANCH  15  17
ATOM     17  C   UNL A   1      32.754  20.580  23.729  1.00  0.00     0.084 A 
ATOM     18  C   UNL A   1      32.152  19.661  22.857  1.00  0.00     0.030 A 
ATOM     19  C   UNL A   1      33.449  20.133  24.863  1.00  0.00     0.150 A 
ATOM     20  C   UNL A   1      32.326  18.292  23.048  1.00  0.00     0.002 A 
ATOM     21  C   UNL A   1      33.614  18.752  25.039  1.00  0.00     0.049 A 
ATOM     22  C   UNL A   1      33.068  17.838  24.133  1.00  0.00     0.004 A 
BRANCH  19  23
ATOM     23  O   UNL A   1      34.006  20.892  25.873  1.00  0.00    -0.455 OA
BRANCH  23  24
ATOM     24  C   UNL A   1      35.158  21.612  25.665  1.00  0.00     0.127 A 
ATOM     25  C   UNL A   1      35.162  22.924  26.144  1.00  0.00     0.047 A 
ATOM     26  C   UNL A   1      36.279  21.110  24.998  1.00  0.00     0.047 A 
ATOM     27  C   UNL A   1      36.310  23.708  26.039  1.00  0.00     0.004 A 
ATOM     28  C   UNL A   1      37.434  21.893  24.900  1.00  0.00     0.004 A 
ATOM     29  C   UNL A   1      37.452  23.188  25.428  1.00  0.00     0.000 A 
ENDBRANCH  23  24
ENDBRANCH  19  23
ENDBRANCH  15  17
ENDBRANCH  12  13
ENDBRANCH   6  12
ENDBRANCH   1   5
BRANCH   3  30
ATOM     30  C   UNL A   1      31.697  30.886  26.135  1.00  0.00     0.117 C 
BRANCH  30  31
ATOM     31  C   UNL A   1      31.454  32.270  26.717  1.00  0.00     0.042 C 
BRANCH  31  32
ATOM     32  C   UNL A   1      32.704  32.932  27.261  1.00  0.00     0.118 C 
BRANCH  32  33
ATOM     33  N   UNL A   1      32.467  34.307  27.675  1.00  0.00    -0.352 N 
ATOM     34  C   UNL A   1      33.002  35.004  28.727  1.00  0.00     0.251 C 
ATOM     35  H   UNL A   1      31.830  34.811  27.118  1.00  0.00     0.163 HD
ATOM     36  O   UNL A   1      32.526  36.090  29.051  1.00  0.00    -0.269 OA
BRANCH  34  37
ATOM     37  C   UNL A   1      34.140  34.440  29.481  1.00  0.00     0.039 A 
ATOM     38  C   UNL A   1      33.894  33.779  30.687  1.00  0.00     0.014 A 
ATOM     39  C   UNL A   1      35.445  34.561  28.999  1.00  0.00     0.014 A 
ATOM     40  C   UNL A   1      34.955  33.192  31.378  1.00  0.00     0.010 A 
ATOM     41  C   UNL A   1      36.479  33.882  29.628  1.00  0.00     0.010 A 
ATOM     42  C   UNL A   1      36.250  33.209  30.835  1.00  0.00    -0.014 A 
BRANCH  42  43
ATOM     43  C   UNL A   1      37.390  32.562  31.530  1.00  0.00     0.031 A 
ATOM     44  C   UNL A   1      38.104  31.409  30.881  1.00  0.00     0.074 A 
ATOM     45  C   UNL A   1      37.740  32.970  32.765  1.00  0.00     0.049 A 
ATOM     46  N   UNL A   1      39.077  30.667  31.347  1.00  0.00    -0.248 NA
ATOM     47  C   UNL A   1      37.639  31.015  29.541  1.00  0.00     0.031 C 
ATOM     48  C   UNL A   1      37.094  34.047  33.515  1.00  0.00     0.029 A 
ATOM     49  N   UNL A   1      38.724  32.520  33.607  1.00  0.00    -0.354 N 
ATOM     50  C   UNL A   1      39.328  29.717  30.366  1.00  0.00     0.074 A 
ATOM     51  C   UNL A   1      38.357  29.927  29.314  1.00  0.00     0.031 C 
ATOM     52  C   UNL A   1      37.723  34.202  34.691  1.00  0.00     0.029 A 
ATOM     53  C   UNL A   1      38.785  33.206  34.796  1.00  0.00     0.049 A 
ATOM     54  H   UNL A   1      39.331  31.778  33.382  1.00  0.00     0.167 HD
ATOM     55  C   UNL A   1      40.300  28.775  30.329  1.00  0.00     0.037 A 
ATOM     56  C   UNL A   1      39.604  33.044  35.852  1.00  0.00     0.037 A 
ATOM     57  C   UNL A   1      41.270  28.580  31.373  1.00  0.00     0.049 A 
ATOM     58  C   UNL A   1      40.656  31.969  35.802  1.00  0.00     0.074 A 
ATOM     59  C   UNL A   1      42.323  27.685  31.418  1.00  0.00     0.029 A 
ATOM     60  N   UNL A   1      41.299  29.294  32.563  1.00  0.00    -0.354 N 
ATOM     61  N   UNL A   1      40.928  31.119  34.843  1.00  0.00    -0.248 NA
ATOM     62  C   UNL A   1      41.519  31.837  36.983  1.00  0.00     0.031 C 
ATOM     63  C   UNL A   1      42.955  27.818  32.659  1.00  0.00     0.029 A 
ATOM     64  C   UNL A   1      42.337  28.840  33.362  1.00  0.00     0.049 A 
ATOM     65  H   UNL A   1      40.674  30.014  32.805  1.00  0.00     0.167 HD
ATOM     66  C   UNL A   1      42.015  30.375  35.286  1.00  0.00     0.074 A 
ATOM     67  C   UNL A   1      42.357  30.885  36.598  1.00  0.00     0.031 C 
ATOM     68  C   UNL A   1      42.671  29.366  34.663  1.00  0.00     0.037 A 
BRANCH  55  69
ATOM     69  C   UNL A   1      40.350  27.884  29.117  1.00  0.00     0.064 A 
ATOM     70  C   UNL A   1      41.112  28.219  27.986  1.00  0.00     0.173 A 
ATOM     71  C   UNL A   1      39.629  26.681  29.085  1.00  0.00     0.173 A 
ATOM     72  F   UNL A   1      41.813  29.363  27.957  1.00  0.00    -0.203 F 
ATOM     73  C   UNL A   1      41.112  27.409  26.853  1.00  0.00     0.198 A 
ATOM     74  C   UNL A   1      39.662  25.854  27.965  1.00  0.00     0.198 A 
ATOM     75  F   UNL A   1      38.888  26.308  30.139  1.00  0.00    -0.203 F 
ATOM     76  F   UNL A   1      41.789  27.787  25.761  1.00  0.00    -0.200 F 
ATOM     77  C   UNL A   1      40.391  26.224  26.846  1.00  0.00     0.200 A 
ATOM     78  F   UNL A   1      38.978  24.702  27.966  1.00  0.00    -0.200 F 
ATOM     79  F   UNL A   1      40.392  25.445  25.756  1.00  0.00    -0.200 F 
ENDBRANCH  55  69
BRANCH  56  80
ATOM     80  C   UNL A   1      39.489  33.949  37.024  1.00  0.00     0.064 A 
ATOM     81  C   UNL A   1      40.142  35.190  37.038  1.00  0.00     0.173 A 
ATOM     82  C   UNL A   1      38.726  33.601  38.148  1.00  0.00     0.173 A 
ATOM     83  F   UNL A   1      40.899  35.559  35.995  1.00  0.00    -0.203 F 
ATOM     84  C   UNL A   1      40.050  36.040  38.138  1.00  0.00     0.198 A 
ATOM     85  C   UNL A   1      38.612  34.466  39.236  1.00  0.00     0.198 A 
ATOM     86  F   UNL A   1      38.078  32.428  38.184  1.00  0.00    -0.203 F 
ATOM     87  F   UNL A   1      40.722  37.200  38.143  1.00  0.00    -0.200 F 
ATOM     88  C   UNL A   1      39.281  35.680  39.233  1.00  0.00     0.200 A 
ATOM     89  F   UNL A   1      37.853  34.121  40.286  1.00  0.00    -0.200 F 
ATOM     90  F   UNL A   1      39.188  36.501  40.289  1.00  0.00    -0.200 F 
ENDBRANCH  56  80
BRANCH  68  91
ATOM     91  C   UNL A   1      43.858  28.776  35.369  1.00  0.00     0.064 A 
ATOM     92  C   UNL A   1      45.139  29.337  35.262  1.00  0.00     0.173 A 
ATOM     93  C   UNL A   1      43.701  27.652  36.196  1.00  0.00     0.173 A 
ATOM     94  F   UNL A   1      45.347  30.402  34.474  1.00  0.00    -0.203 F 
ATOM     95  C   UNL A   1      46.224  28.778  35.934  1.00  0.00     0.198 A 
ATOM     96  C   UNL A   1      44.780  27.119  36.895  1.00  0.00     0.198 A 
ATOM     97  F   UNL A   1      42.496  27.081  36.341  1.00  0.00    -0.203 F 
ATOM     98  F   UNL A   1      47.449  29.298  35.774  1.00  0.00    -0.200 F 
ATOM     99  C   UNL A   1      46.042  27.676  36.756  1.00  0.00     0.200 A 
ATOM    100  F   UNL A   1      44.598  26.064  37.702  1.00  0.00    -0.200 F 
ATOM    101  F   UNL A   1      47.085  27.145  37.408  1.00  0.00    -0.200 F 
ENDBRANCH  68  91
ENDBRANCH  42  43
ENDBRANCH  34  37
ENDBRANCH  32  33
ENDBRANCH  31  32
ENDBRANCH  30  31
ENDBRANCH   3  30
TORSDOF 15
ENDMDL
MODEL 2
REMARK VINA RESULT:     -13.2      0.743      1.980
REMARK SMILES O=C(C[NH+]1CCC(C(=O)NCCCNC(=O)c2ccc(-c3c4nc(c(-c5c(F)c(F)c(F)c(F)c5F)c5ccc([nH]5)c(-c5c(F)c(F)c(F)c(F)c5F)c5nc(c(-c6c(F)c(F)c(F)c(F)c6F)c6ccc3[nH]6)C=C5)C=C4)cc2)CC1)Nc1ccccc1Oc1ccccc1
REMARK SMILES IDX 8 1 9 2 10 3 7 5 4 6 5 7 81 8 6 10 80 11 3 12 2 13 1 14
REMARK SMILES IDX 82 15 83 17 84 18 88 19 85 20 87 21 86 22 89 23 90 24 91 25
REMARK SMILES IDX 95 26 92 27 94 28 93 29 11 30 12 31 13 32 14 33 15 34 16 36
REMARK SMILES IDX 17 37 18 38 79 39 19 40 78 41 20 42 21 43 22 44 72 45 23 46
REMARK SMILES IDX 77 47 71 48 73 49 24 50 76 51 70 52 69 53 25 55 57 56 37 57
REMARK SMILES IDX 56 58 38 59 41 60 55 61 74 62 39 63 40 64 54 66 75 67 42 68
REMARK SMILES IDX 26 69 27 70 35 71 28 72 29 73 33 74 36 75 30 76 31 77 34 78
REMARK SMILES IDX 32 79 58 80 59 81 67 82 60 83 61 84 65 85 68 86 62 87 63 88
REMARK SMILES IDX 66 89 64 90 43 91 44 92 52 93 45 94 46 95 50 96 53 97 47 98
REMARK SMILES IDX 48 99 51 100 49 101
REMARK H PARENT 10 4 4 9 82 16 14 35 73 54 41 65
REMARK Flexibility Score: inf
ROOT
ATOM      1  C   UNL A   1      32.144  28.555  26.694  1.00  0.00     0.223 C 
ATOM      2  O   UNL A   1      32.746  27.916  27.559  1.00  0.00    -0.275 OA
ATOM      3  N   UNL A   1      32.181  29.916  26.754  1.00  0.00    -0.356 N 
ATOM      4  H   UNL A   1      32.686  30.280  27.517  1.00  0.00     0.163 HD
ENDROOT
BRANCH   1   5
ATOM      5  C   UNL A   1      31.359  27.841  25.607  1.00  0.00     0.089 C 
ATOM      6  N   UNL A   1      31.630  25.325  24.218  1.00  0.00    -0.327 N 
ATOM      7  C   UNL A   1      31.828  26.557  23.459  1.00  0.00     0.263 C 
ATOM      8  C   UNL A   1      30.490  25.466  25.130  1.00  0.00     0.263 C 
ATOM      9  H   UNL A   1      32.506  25.208  24.728  1.00  0.00     0.348 HD
ATOM     10  C   UNL A   1      32.252  27.683  24.375  1.00  0.00     0.075 C 
ATOM     11  C   UNL A   1      30.691  26.572  26.156  1.00  0.00     0.075 C 
BRANCH   6  12
ATOM     12  C   UNL A   1      31.485  24.076  23.426  1.00  0.00     0.363 C 
BRANCH  12  13
ATOM     13  C   UNL A   1      32.745  23.226  23.268  1.00  0.00     0.279 C 
ATOM     14  O   UNL A   1      33.001  22.601  22.242  1.00  0.00    -0.268 OA
ATOM     15  N   UNL A   1      33.532  23.252  24.410  1.00  0.00    -0.318 N 
ATOM     16  H   UNL A   1      33.190  23.730  25.200  1.00  0.00     0.170 HD
BRANCH  15  17
ATOM     17  C   UNL A   1      34.782  22.636  24.501  1.00  0.00     0.084 A 
ATOM     18  C   UNL A   1      35.876  23.403  24.072  1.00  0.00     0.030 A 
ATOM     19  C   UNL A   1      34.971  21.323  24.957  1.00  0.00     0.150 A 
ATOM     20  C   UNL A   1      37.172  22.908  24.192  1.00  0.00     0.002 A 
ATOM     21  C   UNL A   1      36.283  20.842  25.070  1.00  0.00     0.049 A 
ATOM     22  C   UNL A   1      37.377  21.631  24.703  1.00  0.00     0.004 A 
BRANCH  19  23
ATOM     23  O   UNL A   1      34.008  20.399  25.312  1.00  0.00    -0.455 OA
BRANCH  23  24
ATOM     24  C   UNL A   1      33.713  19.335  24.494  1.00  0.00     0.127 A 
ATOM     25  C   UNL A   1      32.589  19.477  23.677  1.00  0.00     0.047 A 
ATOM     26  C   UNL A   1      34.453  18.149  24.462  1.00  0.00     0.047 A 
ATOM     27  C   UNL A   1      32.252  18.477  22.765  1.00  0.00     0.004 A 
ATOM     28  C   UNL A   1      34.119  17.150  23.542  1.00  0.00     0.004 A 
ATOM     29  C   UNL A   1      33.025  17.318  22.688  1.00  0.00     0.000 A 
ENDBRANCH  23  24
ENDBRANCH  19  23
ENDBRANCH  15  17
ENDBRANCH  12  13
ENDBRANCH   6  12
ENDBRANCH   1   5
BRANCH   3  30
ATOM     30  C   UNL A   1      31.598  30.924  25.876  1.00  0.00     0.117 C 
BRANCH  30  31
ATOM     31  C   UNL A   1      31.325  32.248  26.572  1.00  0.00     0.042 C 
BRANCH  31  32
ATOM     32  C   UNL A   1      32.522  32.805  27.315  1.00  0.00     0.118 C 
BRANCH  32  33
ATOM     33  N   UNL A   1      32.381  34.224  27.610  1.00  0.00    -0.352 N 
ATOM     34  C   UNL A   1      33.010  34.982  28.562  1.00  0.00     0.251 C 
ATOM     35  H   UNL A   1      31.739  34.709  27.043  1.00  0.00     0.163 HD
ATOM     36  O   UNL A   1      32.610  36.119  28.807  1.00  0.00    -0.269 OA
BRANCH  34  37
ATOM     37  C   UNL A   1      34.160  34.427  29.304  1.00  0.00     0.039 A 
ATOM     38  C   UNL A   1      33.932  33.770  30.516  1.00  0.00     0.014 A 
ATOM     39  C   UNL A   1      35.458  34.552  28.806  1.00  0.00     0.014 A 
ATOM     40  C   UNL A   1      35.004  33.190  31.196  1.00  0.00     0.010 A 
ATOM     41  C   UNL A   1      36.504  33.880  29.425  1.00  0.00     0.010 A 
ATOM     42  C   UNL A   1      36.293  33.212  30.637  1.00  0.00    -0.014 A 
BRANCH  42  43
ATOM     43  C   UNL A   1      37.443  32.572  31.321  1.00  0.00     0.031 A 
ATOM     44  C   UNL A   1      38.186  31.452  30.646  1.00  0.00     0.074 A 
ATOM     45  C   UNL A   1      37.780  32.956  32.567  1.00  0.00     0.049 A 
ATOM     46  N   UNL A   1      39.173  30.721  31.097  1.00  0.00    -0.248 NA
ATOM     47  C   UNL A   1      37.735  31.082  29.295  1.00  0.00     0.031 C 
ATOM     48  C   UNL A   1      37.106  33.999  33.341  1.00  0.00     0.029 A 
ATOM     49  N   UNL A   1      38.770  32.507  33.402  1.00  0.00    -0.354 N 
ATOM     50  C   UNL A   1      39.449  29.801  30.094  1.00  0.00     0.074 A 
ATOM     51  C   UNL A   1      38.478  30.016  29.043  1.00  0.00     0.031 C 
ATOM     52  C   UNL A   1      37.727  34.138  34.524  1.00  0.00     0.029 A 
ATOM     53  C   UNL A   1      38.811  33.164  34.608  1.00  0.00     0.049 A 
ATOM     54  H   UNL A   1      39.394  31.785  33.161  1.00  0.00     0.167 HD
ATOM     55  C   UNL A   1      40.442  28.882  30.037  1.00  0.00     0.037 A 
ATOM     56  C   UNL A   1      39.629  32.994  35.663  1.00  0.00     0.037 A 
ATOM     57  C   UNL A   1      41.412  28.683  31.080  1.00  0.00     0.049 A 
ATOM     58  C   UNL A   1      40.705  31.944  35.591  1.00  0.00     0.074 A 
ATOM     59  C   UNL A   1      42.485  27.811  31.108  1.00  0.00     0.029 A 
ATOM     60  N   UNL A   1      41.421  29.367  32.289  1.00  0.00    -0.354 N 
ATOM     61  N   UNL A   1      41.000  31.124  34.612  1.00  0.00    -0.248 NA
ATOM     62  C   UNL A   1      41.566  31.801  36.772  1.00  0.00     0.031 C 
ATOM     63  C   UNL A   1      43.109  27.926  32.355  1.00  0.00     0.029 A 
ATOM     64  C   UNL A   1      42.465  28.916  33.080  1.00  0.00     0.049 A 
ATOM     65  H   UNL A   1      40.778  30.067  32.546  1.00  0.00     0.167 HD
ATOM     66  C   UNL A   1      42.101  30.394  35.041  1.00  0.00     0.074 A 
ATOM     67  C   UNL A   1      42.427  30.878  36.368  1.00  0.00     0.031 C 
ATOM     68  C   UNL A   1      42.782  29.415  34.395  1.00  0.00     0.037 A 
BRANCH  55  69
ATOM     69  C   UNL A   1      40.517  28.025  28.804  1.00  0.00     0.064 A 
ATOM     70  C   UNL A   1      41.260  28.414  27.678  1.00  0.00     0.173 A 
ATOM     71  C   UNL A   1      39.839  26.798  28.746  1.00  0.00     0.173 A 
ATOM     72  F   UNL A   1      41.919  29.583  27.673  1.00  0.00    -0.203 F 
ATOM     73  C   UNL A   1      41.282  27.632  26.525  1.00  0.00     0.198 A 
ATOM     74  C   UNL A   1      39.895  26.000  27.605  1.00  0.00     0.198 A 
ATOM     75  F   UNL A   1      39.118  26.372  29.794  1.00  0.00    -0.203 F 
ATOM     76  F   UNL A   1      41.939  28.061  25.439  1.00  0.00    -0.200 F 
ATOM     77  C   UNL A   1      40.604  26.423  26.492  1.00  0.00     0.200 A 
ATOM     78  F   UNL A   1      39.252  24.824  27.581  1.00  0.00    -0.200 F 
ATOM     79  F   UNL A   1      40.626  25.672  25.383  1.00  0.00    -0.200 F 
ENDBRANCH  55  69
BRANCH  56  80
ATOM     80  C   UNL A   1      39.490  33.865  36.858  1.00  0.00     0.064 A 
ATOM     81  C   UNL A   1      40.108  35.123  36.903  1.00  0.00     0.173 A 
ATOM     82  C   UNL A   1      38.735  33.469  37.972  1.00  0.00     0.173 A 
ATOM     83  F   UNL A   1      40.856  35.538  35.870  1.00  0.00    -0.203 F 
ATOM     84  C   UNL A   1      39.993  35.943  38.024  1.00  0.00     0.198 A 
ATOM     85  C   UNL A   1      38.597  34.303  39.081  1.00  0.00     0.198 A 
ATOM     86  F   UNL A   1      38.120  32.278  37.978  1.00  0.00    -0.203 F 
ATOM     87  F   UNL A   1      40.633  37.119  38.058  1.00  0.00    -0.200 F 
ATOM     88  C   UNL A   1      39.233  35.535  39.109  1.00  0.00     0.200 A 
ATOM     89  F   UNL A   1      37.848  33.912  40.121  1.00  0.00    -0.200 F 
ATOM     90  F   UNL A   1      39.118  36.326  40.185  1.00  0.00    -0.200 F 
ENDBRANCH  56  80
BRANCH  68  91
ATOM     91  C   UNL A   1      43.979  28.834  35.091  1.00  0.00     0.064 A 
ATOM     92  C   UNL A   1      45.256  29.404  34.972  1.00  0.00     0.173 A 
ATOM     93  C   UNL A   1      43.837  27.712  35.923  1.00  0.00     0.173 A 
ATOM     94  F   UNL A   1      45.449  30.468  34.180  1.00  0.00    -0.203 F 
ATOM     95  C   UNL A   1      46.350  28.853  35.636  1.00  0.00     0.198 A 
ATOM     96  C   UNL A   1      44.926  27.186  36.613  1.00  0.00     0.198 A 
ATOM     97  F   UNL A   1      42.637  27.133  36.079  1.00  0.00    -0.203 F 
ATOM     98  F   UNL A   1      47.570  29.380  35.463  1.00  0.00    -0.200 F 
ATOM     99  C   UNL A   1      46.183  27.751  36.461  1.00  0.00     0.200 A 
ATOM    100  F   UNL A   1      44.758  26.132  37.423  1.00  0.00    -0.200 F 
ATOM    101  F   UNL A   1      47.235  27.228  37.105  1.00  0.00    -0.200 F 
ENDBRANCH  68  91
ENDBRANCH  42  43
ENDBRANCH  34  37
ENDBRANCH  32  33
ENDBRANCH  31  32
ENDBRANCH  30  31
ENDBRANCH   3  30
TORSDOF 15
ENDMDL
MODEL 3
REMARK VINA RESULT:     -13.1      1.041      7.543
REMARK SMILES O=C(C[NH+]1CCC(C(=O)NCCCNC(=O)c2ccc(-c3c4nc(c(-c5c(F)c(F)c(F)c(F)c5F)c5ccc([nH]5)c(-c5c(F)c(F)c(F)c(F)c5F)c5nc(c(-c6c(F)c(F)c(F)c(F)c6F)c6ccc3[nH]6)C=C5)C=C4)cc2)CC1)Nc1ccccc1Oc1ccccc1
REMARK SMILES IDX 8 1 9 2 10 3 7 5 4 6 5 7 81 8 6 10 80 11 3 12 2 13 1 14
REMARK SMILES IDX 82 15 83 17 84 18 88 19 85 20 87 21 86 22 89 23 90 24 91 25
REMARK SMILES IDX 95 26 92 27 94 28 93 29 11 30 12 31 13 32 14 33 15 34 16 36
REMARK SMILES IDX 17 37 18 38 79 39 19 40 78 41 20 42 21 43 22 44 72 45 23 46
REMARK SMILES IDX 77 47 71 48 73 49 24 50 76 51 70 52 69 53 25 55 57 56 37 57
REMARK SMILES IDX 56 58 38 59 41 60 55 61 74 62 39 63 40 64 54 66 75 67 42 68
REMARK SMILES IDX 26 69 27 70 35 71 28 72 29 73 33 74 36 75 30 76 31 77 34 78
REMARK SMILES IDX 32 79 58 80 59 81 67 82 60 83 61 84 65 85 68 86 62 87 63 88
REMARK SMILES IDX 66 89 64 90 43 91 44 92 52 93 45 94 46 95 50 96 53 97 47 98
REMARK SMILES IDX 48 99 51 100 49 101
REMARK H PARENT 10 4 4 9 82 16 14 35 73 54 41 65
REMARK Flexibility Score: inf
ROOT
ATOM      1  C   UNL A   1      32.033  28.558  26.667  1.00  0.00     0.223 C 
ATOM      2  O   UNL A   1      32.677  27.929  27.509  1.00  0.00    -0.275 OA
ATOM      3  N   UNL A   1      32.032  29.920  26.739  1.00  0.00    -0.356 N 
ATOM      4  H   UNL A   1      32.545  30.291  27.493  1.00  0.00     0.163 HD
ENDROOT
BRANCH   1   5
ATOM      5  C   UNL A   1      31.241  27.832  25.594  1.00  0.00     0.089 C 
ATOM      6  N   UNL A   1      31.585  25.371  24.124  1.00  0.00    -0.327 N 
ATOM      7  C   UNL A   1      31.685  26.631  23.392  1.00  0.00     0.263 C 
ATOM      8  C   UNL A   1      30.479  25.426  25.086  1.00  0.00     0.263 C 
ATOM      9  H   UNL A   1      32.487  25.288  24.594  1.00  0.00     0.348 HD
ATOM     10  C   UNL A   1      32.087  27.754  24.321  1.00  0.00     0.075 C 
ATOM     11  C   UNL A   1      30.665  26.515  26.134  1.00  0.00     0.075 C 
BRANCH   6  12
ATOM     12  C   UNL A   1      31.472  24.136  23.304  1.00  0.00     0.363 C 
BRANCH  12  13
ATOM     13  C   UNL A   1      32.717  23.254  23.237  1.00  0.00     0.279 C 
ATOM     14  O   UNL A   1      32.958  22.515  22.286  1.00  0.00    -0.268 OA
ATOM     15  N   UNL A   1      33.509  23.392  24.367  1.00  0.00    -0.318 N 
ATOM     16  H   UNL A   1      33.179  23.960  25.100  1.00  0.00     0.170 HD
BRANCH  15  17
ATOM     17  C   UNL A   1      34.751  22.770  24.522  1.00  0.00     0.084 A 
ATOM     18  C   UNL A   1      35.867  23.522  24.128  1.00  0.00     0.030 A 
ATOM     19  C   UNL A   1      34.909  21.463  25.007  1.00  0.00     0.150 A 
ATOM     20  C   UNL A   1      37.154  23.020  24.312  1.00  0.00     0.002 A 
ATOM     21  C   UNL A   1      36.212  20.974  25.185  1.00  0.00     0.049 A 
ATOM     22  C   UNL A   1      37.326  21.750  24.852  1.00  0.00     0.004 A 
BRANCH  19  23
ATOM     23  O   UNL A   1      33.925  20.552  25.335  1.00  0.00    -0.455 OA
BRANCH  23  24
ATOM     24  C   UNL A   1      33.690  19.450  24.547  1.00  0.00     0.127 A 
ATOM     25  C   UNL A   1      32.561  19.508  23.726  1.00  0.00     0.047 A 
ATOM     26  C   UNL A   1      34.493  18.307  24.548  1.00  0.00     0.047 A 
ATOM     27  C   UNL A   1      32.279  18.467  22.843  1.00  0.00     0.004 A 
ATOM     28  C   UNL A   1      34.215  17.265  23.656  1.00  0.00     0.004 A 
ATOM     29  C   UNL A   1      33.114  17.350  22.798  1.00  0.00     0.000 A 
ENDBRANCH  23  24
ENDBRANCH  19  23
ENDBRANCH  15  17
ENDBRANCH  12  13
ENDBRANCH   6  12
ENDBRANCH   1   5
BRANCH   3  30
ATOM     30  C   UNL A   1      31.396  30.918  25.887  1.00  0.00     0.117 C 
BRANCH  30  31
ATOM     31  C   UNL A   1      31.249  32.277  26.554  1.00  0.00     0.042 C 
BRANCH  31  32
ATOM     32  C   UNL A   1      32.527  32.788  27.187  1.00  0.00     0.118 C 
BRANCH  32  33
ATOM     33  N   UNL A   1      32.416  34.173  27.619  1.00  0.00    -0.352 N 
ATOM     34  C   UNL A   1      33.080  34.828  28.623  1.00  0.00     0.251 C 
ATOM     35  H   UNL A   1      31.770  34.720  27.116  1.00  0.00     0.163 HD
ATOM     36  O   UNL A   1      32.705  35.942  28.985  1.00  0.00    -0.269 OA
BRANCH  34  37
ATOM     37  C   UNL A   1      34.236  34.188  29.281  1.00  0.00     0.039 A 
ATOM     38  C   UNL A   1      34.015  33.339  30.369  1.00  0.00     0.014 A 
ATOM     39  C   UNL A   1      35.536  34.421  28.825  1.00  0.00     0.014 A 
ATOM     40  C   UNL A   1      35.095  32.683  30.961  1.00  0.00     0.010 A 
ATOM     41  C   UNL A   1      36.592  33.683  29.341  1.00  0.00     0.010 A 
ATOM     42  C   UNL A   1      36.387  32.824  30.428  1.00  0.00    -0.014 A 
BRANCH  42  43
ATOM     43  C   UNL A   1      37.548  32.109  31.015  1.00  0.00     0.031 A 
ATOM     44  C   UNL A   1      38.024  32.465  32.397  1.00  0.00     0.074 A 
ATOM     45  C   UNL A   1      38.206  31.189  30.286  1.00  0.00     0.049 A 
ATOM     46  N   UNL A   1      39.054  32.007  33.063  1.00  0.00    -0.248 NA
ATOM     47  C   UNL A   1      37.259  33.499  33.112  1.00  0.00     0.031 C 
ATOM     48  C   UNL A   1      37.866  30.792  28.919  1.00  0.00     0.029 A 
ATOM     49  N   UNL A   1      39.303  30.425  30.592  1.00  0.00    -0.354 N 
ATOM     50  C   UNL A   1      39.065  32.705  34.263  1.00  0.00     0.074 A 
ATOM     51  C   UNL A   1      37.987  33.669  34.204  1.00  0.00     0.031 C 
ATOM     52  C   UNL A   1      38.713  29.830  28.518  1.00  0.00     0.029 A 
ATOM     53  C   UNL A   1      39.681  29.576  29.581  1.00  0.00     0.049 A 
ATOM     54  H   UNL A   1      39.774  30.479  31.455  1.00  0.00     0.167 HD
ATOM     55  C   UNL A   1      39.878  32.537  35.332  1.00  0.00     0.037 A 
ATOM     56  C   UNL A   1      40.698  28.696  29.519  1.00  0.00     0.037 A 
ATOM     57  C   UNL A   1      40.940  31.568  35.389  1.00  0.00     0.049 A 
ATOM     58  C   UNL A   1      41.609  28.549  30.707  1.00  0.00     0.074 A 
ATOM     59  C   UNL A   1      41.796  31.283  36.438  1.00  0.00     0.029 A 
ATOM     60  N   UNL A   1      41.294  30.725  34.344  1.00  0.00    -0.354 N 
ATOM     61  N   UNL A   1      41.572  29.166  31.863  1.00  0.00    -0.248 NA
ATOM     62  C   UNL A   1      42.702  27.576  30.582  1.00  0.00     0.031 C 
ATOM     63  C   UNL A   1      42.704  30.310  36.008  1.00  0.00     0.029 A 
ATOM     64  C   UNL A   1      42.373  29.939  34.714  1.00  0.00     0.049 A 
ATOM     65  H   UNL A   1      40.845  30.693  33.468  1.00  0.00     0.167 HD
ATOM     66  C   UNL A   1      42.610  28.633  32.616  1.00  0.00     0.074 A 
ATOM     67  C   UNL A   1      43.252  27.633  31.787  1.00  0.00     0.031 C 
ATOM     68  C   UNL A   1      42.995  28.941  33.879  1.00  0.00     0.037 A 
BRANCH  55  69
ATOM     69  C   UNL A   1      39.647  33.429  36.521  1.00  0.00     0.064 A 
ATOM     70  C   UNL A   1      38.751  33.078  37.544  1.00  0.00     0.173 A 
ATOM     71  C   UNL A   1      40.328  34.649  36.642  1.00  0.00     0.173 A 
ATOM     72  F   UNL A   1      38.063  31.927  37.476  1.00  0.00    -0.203 F 
ATOM     73  C   UNL A   1      38.510  33.935  38.615  1.00  0.00     0.198 A 
ATOM     74  C   UNL A   1      40.114  35.486  37.734  1.00  0.00     0.198 A 
ATOM     75  F   UNL A   1      41.201  35.034  35.698  1.00  0.00    -0.203 F 
ATOM     76  F   UNL A   1      37.597  33.609  39.540  1.00  0.00    -0.200 F 
ATOM     77  C   UNL A   1      39.197  35.136  38.712  1.00  0.00     0.200 A 
ATOM     78  F   UNL A   1      40.790  36.639  37.834  1.00  0.00    -0.200 F 
ATOM     79  F   UNL A   1      38.965  35.959  39.743  1.00  0.00    -0.200 F 
ENDBRANCH  55  69
BRANCH  56  80
ATOM     80  C   UNL A   1      40.879  27.858  28.307  1.00  0.00     0.064 A 
ATOM     81  C   UNL A   1      40.204  26.636  28.173  1.00  0.00     0.173 A 
ATOM     82  C   UNL A   1      41.721  28.255  27.257  1.00  0.00     0.173 A 
ATOM     83  F   UNL A   1      39.403  26.203  29.158  1.00  0.00    -0.203 F 
ATOM     84  C   UNL A   1      40.377  25.836  27.045  1.00  0.00     0.198 A 
ATOM     85  C   UNL A   1      41.870  27.468  26.117  1.00  0.00     0.198 A 
ATOM     86  F   UNL A   1      42.386  29.417  27.333  1.00  0.00    -0.203 F 
ATOM     87  F   UNL A   1      39.755  24.652  26.965  1.00  0.00    -0.200 F 
ATOM     88  C   UNL A   1      41.205  26.256  26.016  1.00  0.00     0.200 A 
ATOM     89  F   UNL A   1      42.659  27.885  25.117  1.00  0.00    -0.200 F 
ATOM     90  F   UNL A   1      41.367  25.489  24.928  1.00  0.00    -0.200 F 
ENDBRANCH  56  80
BRANCH  68  91
ATOM     91  C   UNL A   1      44.133  28.154  34.464  1.00  0.00     0.064 A 
ATOM     92  C   UNL A   1      43.928  26.936  35.130  1.00  0.00     0.173 A 
ATOM     93  C   UNL A   1      45.453  28.609  34.321  1.00  0.00     0.173 A 
ATOM     94  F   UNL A   1      42.686  26.463  35.306  1.00  0.00    -0.203 F 
ATOM     95  C   UNL A   1      45.001  26.219  35.655  1.00  0.00     0.198 A 
ATOM     96  C   UNL A   1      46.525  27.872  34.815  1.00  0.00     0.198 A 
ATOM     97  F   UNL A   1      45.707  29.764  33.686  1.00  0.00    -0.203 F 
ATOM     98  F   UNL A   1      44.777  25.086  36.335  1.00  0.00    -0.200 F 
ATOM     99  C   UNL A   1      46.297  26.682  35.491  1.00  0.00     0.200 A 
ATOM    100  F   UNL A   1      47.779  28.314  34.640  1.00  0.00    -0.200 F 
ATOM    101  F   UNL A   1      47.328  25.987  35.990  1.00  0.00    -0.200 F 
ENDBRANCH  68  91
ENDBRANCH  42  43
ENDBRANCH  34  37
ENDBRANCH  32  33
ENDBRANCH  31  32
ENDBRANCH  30  31
ENDBRANCH   3  30
TORSDOF 15
ENDMDL
