MODEL 1
REMARK VINA RESULT:     -13.4      0.000      0.000
REMARK SMILES CC[C@@H](C(=O)Nc1ccc(OC(C)=O)cc1C(=O)NCCCNC(=O)c1ccc(-c2c3nc(c(-c4c(F)c(F)c(F)c(F)c4F)c4ccc([nH]4)c(-c4c(F)c(F)c(F)c(F)c4F)c4nc(c(-c5c(F)c(F)c(F)c(F)c5F)c5ccc2[nH]5)C=C4)C=C3)cc1)c1ccccc1
REMARK SMILES IDX 20 1 19 2 17 3 18 4 16 6 7 7 8 8 9 9 15 10 10 11 6 12 4 13
REMARK SMILES IDX 5 14 3 16 2 17 1 18 89 19 90 20 94 21 91 22 93 23 92 24
REMARK SMILES IDX 11 25 12 26 13 27 14 28 21 29 22 30 23 31 24 32 25 34 26 35
REMARK SMILES IDX 27 36 88 37 28 38 87 39 29 40 30 41 31 42 81 43 32 44 86 45
REMARK SMILES IDX 80 46 82 47 33 48 85 49 79 50 78 51 34 53 66 54 46 55 65 56
REMARK SMILES IDX 47 57 50 58 64 59 83 60 48 61 49 62 63 64 84 65 51 66 35 67
REMARK SMILES IDX 36 68 44 69 37 70 38 71 42 72 45 73 39 74 40 75 43 76 41 77
REMARK SMILES IDX 67 78 68 79 76 80 69 81 70 82 74 83 77 84 71 85 72 86 75 87
REMARK SMILES IDX 73 88 52 89 53 90 61 91 54 92 55 93 59 94 62 95 56 96 57 97
REMARK SMILES IDX 60 98 58 99
REMARK H PARENT 19 5 6 15 23 33 82 52 50 63
REMARK Flexibility Score: inf
ROOT
ATOM      1  C   UNL A   1      37.171  21.745  24.937  1.00  0.00     0.118 C 
ENDROOT
BRANCH   1   2
ATOM      2  N   UNL A   1      36.251  21.890  26.045  1.00  0.00    -0.352 N 
ATOM      3  C   UNL A   1      34.918  21.639  26.168  1.00  0.00     0.253 C 
ATOM      4  O   UNL A   1      34.428  21.828  27.285  1.00  0.00    -0.269 OA
ATOM      5  H   UNL A   1      36.669  22.235  26.867  1.00  0.00     0.163 HD
BRANCH   3   6
ATOM      6  C   UNL A   1      34.023  21.183  25.069  1.00  0.00     0.067 A 
ATOM      7  C   UNL A   1      33.398  21.928  24.052  1.00  0.00     0.054 A 
ATOM      8  C   UNL A   1      32.432  21.286  23.241  1.00  0.00     0.031 A 
ATOM      9  C   UNL A   1      32.243  19.907  23.278  1.00  0.00     0.049 A 
ATOM     10  C   UNL A   1      33.809  19.784  25.101  1.00  0.00     0.063 A 
ATOM     11  C   UNL A   1      32.993  19.159  24.166  1.00  0.00     0.131 A 
BRANCH   7  12
ATOM     12  N   UNL A   1      33.530  23.288  23.745  1.00  0.00    -0.325 N 
ATOM     13  C   UNL A   1      33.294  24.488  24.342  1.00  0.00     0.231 C 
ATOM     14  O   UNL A   1      33.860  25.387  23.693  1.00  0.00    -0.274 OA
ATOM     15  H   UNL A   1      33.897  23.411  22.839  1.00  0.00     0.169 HD
BRANCH  13  16
ATOM     16  C   UNL A   1      32.590  24.832  25.697  1.00  0.00     0.108 C 
BRANCH  16  17
ATOM     17  C   UNL A   1      31.160  24.289  25.851  1.00  0.00     0.015 C 
ATOM     18  C   UNL A   1      31.064  23.087  26.780  1.00  0.00     0.005 C 
ENDBRANCH  16  17
BRANCH  16  19
ATOM     19  C   UNL A   1      32.708  26.331  26.146  1.00  0.00    -0.036 A 
ATOM     20  C   UNL A   1      33.928  27.031  26.196  1.00  0.00     0.004 A 
ATOM     21  C   UNL A   1      31.595  27.024  26.676  1.00  0.00     0.004 A 
ATOM     22  C   UNL A   1      34.023  28.341  26.688  1.00  0.00     0.000 A 
ATOM     23  C   UNL A   1      31.682  28.341  27.152  1.00  0.00     0.000 A 
ATOM     24  C   UNL A   1      32.899  29.002  27.158  1.00  0.00     0.000 A 
ENDBRANCH  16  19
ENDBRANCH  13  16
ENDBRANCH   7  12
BRANCH  11  25
ATOM     25  O   UNL A   1      32.859  17.767  24.141  1.00  0.00    -0.427 OA
BRANCH  25  26
ATOM     26  C   UNL A   1      33.941  16.998  23.714  1.00  0.00     0.308 C 
ATOM     27  C   UNL A   1      34.745  16.321  24.791  1.00  0.00     0.139 C 
ATOM     28  O   UNL A   1      34.166  16.821  22.520  1.00  0.00    -0.252 OA
ENDBRANCH  25  26
ENDBRANCH  11  25
ENDBRANCH   3   6
ENDBRANCH   1   2
BRANCH   1  29
ATOM     29  C   UNL A   1      37.982  20.466  25.022  1.00  0.00     0.042 C 
BRANCH  29  30
ATOM     30  C   UNL A   1      39.283  20.658  25.797  1.00  0.00     0.118 C 
BRANCH  30  31
ATOM     31  N   UNL A   1      40.114  19.459  25.871  1.00  0.00    -0.352 N 
ATOM     32  C   UNL A   1      41.462  19.320  26.121  1.00  0.00     0.251 C 
ATOM     33  H   UNL A   1      39.635  18.614  25.716  1.00  0.00     0.163 HD
ATOM     34  O   UNL A   1      42.010  18.224  26.028  1.00  0.00    -0.269 OA
BRANCH  32  35
ATOM     35  C   UNL A   1      42.270  20.512  26.449  1.00  0.00     0.039 A 
ATOM     36  C   UNL A   1      42.916  21.204  25.422  1.00  0.00     0.014 A 
ATOM     37  C   UNL A   1      42.330  20.986  27.756  1.00  0.00     0.014 A 
ATOM     38  C   UNL A   1      43.504  22.442  25.691  1.00  0.00     0.010 A 
ATOM     39  C   UNL A   1      42.782  22.276  27.992  1.00  0.00     0.010 A 
ATOM     40  C   UNL A   1      43.373  23.024  26.963  1.00  0.00    -0.014 A 
BRANCH  40  41
ATOM     41  C   UNL A   1      43.825  24.412  27.249  1.00  0.00     0.031 A 
ATOM     42  C   UNL A   1      42.837  25.439  27.733  1.00  0.00     0.074 A 
ATOM     43  C   UNL A   1      45.088  24.780  26.955  1.00  0.00     0.049 A 
ATOM     44  N   UNL A   1      42.988  26.730  27.884  1.00  0.00    -0.248 NA
ATOM     45  C   UNL A   1      41.477  24.958  28.028  1.00  0.00     0.031 C 
ATOM     46  C   UNL A   1      46.120  23.906  26.393  1.00  0.00     0.029 A 
ATOM     47  N   UNL A   1      45.715  25.996  27.070  1.00  0.00    -0.354 N 
ATOM     48  C   UNL A   1      41.737  27.216  28.237  1.00  0.00     0.074 A 
ATOM     49  C   UNL A   1      40.824  26.095  28.218  1.00  0.00     0.031 C 
ATOM     50  C   UNL A   1      47.258  24.604  26.244  1.00  0.00     0.029 A 
ATOM     51  C   UNL A   1      47.026  25.983  26.657  1.00  0.00     0.049 A 
ATOM     52  H   UNL A   1      45.268  26.802  27.416  1.00  0.00     0.167 HD
ATOM     53  C   UNL A   1      41.384  28.479  28.578  1.00  0.00     0.037 A 
ATOM     54  C   UNL A   1      47.937  26.974  26.612  1.00  0.00     0.037 A 
ATOM     55  C   UNL A   1      42.311  29.572  28.676  1.00  0.00     0.049 A 
ATOM     56  C   UNL A   1      47.545  28.351  27.074  1.00  0.00     0.074 A 
ATOM     57  C   UNL A   1      42.086  30.858  29.133  1.00  0.00     0.029 A 
ATOM     58  N   UNL A   1      43.651  29.502  28.319  1.00  0.00    -0.354 N 
ATOM     59  N   UNL A   1      46.379  28.780  27.492  1.00  0.00    -0.248 NA
ATOM     60  C   UNL A   1      48.594  29.378  27.063  1.00  0.00     0.031 C 
ATOM     61  C   UNL A   1      43.280  31.576  29.019  1.00  0.00     0.029 A 
ATOM     62  C   UNL A   1      44.260  30.727  28.528  1.00  0.00     0.049 A 
ATOM     63  H   UNL A   1      44.101  28.699  27.968  1.00  0.00     0.167 HD
ATOM     64  C   UNL A   1      46.557  30.118  27.810  1.00  0.00     0.074 A 
ATOM     65  C   UNL A   1      47.948  30.427  27.555  1.00  0.00     0.031 C 
ATOM     66  C   UNL A   1      45.648  31.013  28.268  1.00  0.00     0.037 A 
BRANCH  53  67
ATOM     67  C   UNL A   1      39.937  28.734  28.887  1.00  0.00     0.064 A 
ATOM     68  C   UNL A   1      39.404  28.517  30.168  1.00  0.00     0.173 A 
ATOM     69  C   UNL A   1      39.071  29.210  27.892  1.00  0.00     0.173 A 
ATOM     70  F   UNL A   1      40.186  28.052  31.154  1.00  0.00    -0.203 F 
ATOM     71  C   UNL A   1      38.053  28.724  30.427  1.00  0.00     0.198 A 
ATOM     72  C   UNL A   1      37.726  29.449  28.164  1.00  0.00     0.198 A 
ATOM     73  F   UNL A   1      39.528  29.441  26.651  1.00  0.00    -0.203 F 
ATOM     74  F   UNL A   1      37.555  28.446  31.641  1.00  0.00    -0.200 F 
ATOM     75  C   UNL A   1      37.216  29.194  29.427  1.00  0.00     0.200 A 
ATOM     76  F   UNL A   1      36.921  29.914  27.198  1.00  0.00    -0.200 F 
ATOM     77  F   UNL A   1      35.915  29.393  29.679  1.00  0.00    -0.200 F 
ENDBRANCH  53  67
BRANCH  54  78
ATOM     78  C   UNL A   1      49.318  26.687  26.146  1.00  0.00     0.064 A 
ATOM     79  C   UNL A   1      49.704  26.970  24.829  1.00  0.00     0.173 A 
ATOM     80  C   UNL A   1      50.284  26.146  27.007  1.00  0.00     0.173 A 
ATOM     81  F   UNL A   1      48.810  27.473  23.964  1.00  0.00    -0.203 F 
ATOM     82  C   UNL A   1      50.999  26.710  24.385  1.00  0.00     0.198 A 
ATOM     83  C   UNL A   1      51.586  25.909  26.569  1.00  0.00     0.198 A 
ATOM     84  F   UNL A   1      49.968  25.866  28.280  1.00  0.00    -0.203 F 
ATOM     85  F   UNL A   1      51.330  26.957  23.111  1.00  0.00    -0.200 F 
ATOM     86  C   UNL A   1      51.941  26.186  25.258  1.00  0.00     0.200 A 
ATOM     87  F   UNL A   1      52.497  25.417  27.419  1.00  0.00    -0.200 F 
ATOM     88  F   UNL A   1      53.188  25.943  24.832  1.00  0.00    -0.200 F 
ENDBRANCH  54  78
BRANCH  66  89
ATOM     89  C   UNL A   1      46.131  32.405  28.540  1.00  0.00     0.064 A 
ATOM     90  C   UNL A   1      46.072  33.404  27.557  1.00  0.00     0.173 A 
ATOM     91  C   UNL A   1      46.607  32.758  29.811  1.00  0.00     0.173 A 
ATOM     92  F   UNL A   1      45.639  33.110  26.322  1.00  0.00    -0.203 F 
ATOM     93  C   UNL A   1      46.489  34.703  27.833  1.00  0.00     0.198 A 
ATOM     94  C   UNL A   1      46.997  34.064  30.091  1.00  0.00     0.198 A 
ATOM     95  F   UNL A   1      46.677  31.839  30.786  1.00  0.00    -0.203 F 
ATOM     96  F   UNL A   1      46.459  35.633  26.869  1.00  0.00    -0.200 F 
ATOM     97  C   UNL A   1      46.942  35.034  29.101  1.00  0.00     0.200 A 
ATOM     98  F   UNL A   1      47.424  34.385  31.321  1.00  0.00    -0.200 F 
ATOM     99  F   UNL A   1      47.333  36.287  29.368  1.00  0.00    -0.200 F 
ENDBRANCH  66  89
ENDBRANCH  40  41
ENDBRANCH  32  35
ENDBRANCH  30  31
ENDBRANCH  29  30
ENDBRANCH   1  29
TORSDOF 16
ENDMDL
MODEL 2
REMARK VINA RESULT:     -13.1      5.935     11.462
REMARK SMILES CC[C@@H](C(=O)Nc1ccc(OC(C)=O)cc1C(=O)NCCCNC(=O)c1ccc(-c2c3nc(c(-c4c(F)c(F)c(F)c(F)c4F)c4ccc([nH]4)c(-c4c(F)c(F)c(F)c(F)c4F)c4nc(c(-c5c(F)c(F)c(F)c(F)c5F)c5ccc2[nH]5)C=C4)C=C3)cc1)c1ccccc1
REMARK SMILES IDX 20 1 19 2 17 3 18 4 16 6 7 7 8 8 9 9 15 10 10 11 6 12 4 13
REMARK SMILES IDX 5 14 3 16 2 17 1 18 89 19 90 20 94 21 91 22 93 23 92 24
REMARK SMILES IDX 11 25 12 26 13 27 14 28 21 29 22 30 23 31 24 32 25 34 26 35
REMARK SMILES IDX 27 36 88 37 28 38 87 39 29 40 30 41 31 42 81 43 32 44 86 45
REMARK SMILES IDX 80 46 82 47 33 48 85 49 79 50 78 51 34 53 66 54 46 55 65 56
REMARK SMILES IDX 47 57 50 58 64 59 83 60 48 61 49 62 63 64 84 65 51 66 35 67
REMARK SMILES IDX 36 68 44 69 37 70 38 71 42 72 45 73 39 74 40 75 43 76 41 77
REMARK SMILES IDX 67 78 68 79 76 80 69 81 70 82 74 83 77 84 71 85 72 86 75 87
REMARK SMILES IDX 73 88 52 89 53 90 61 91 54 92 55 93 59 94 62 95 56 96 57 97
REMARK SMILES IDX 60 98 58 99
REMARK H PARENT 19 5 6 15 23 33 82 52 50 63
REMARK Flexibility Score: inf
ROOT
ATOM      1  C   UNL A   1      32.335  30.017  26.848  1.00  0.00     0.118 C 
ENDROOT
BRANCH   1   2
ATOM      2  N   UNL A   1      33.094  29.645  25.673  1.00  0.00    -0.352 N 
ATOM      3  C   UNL A   1      32.731  29.073  24.492  1.00  0.00     0.253 C 
ATOM      4  O   UNL A   1      33.629  28.926  23.658  1.00  0.00    -0.269 OA
ATOM      5  H   UNL A   1      34.055  29.844  25.741  1.00  0.00     0.163 HD
BRANCH   3   6
ATOM      6  C   UNL A   1      31.360  28.602  24.148  1.00  0.00     0.067 A 
ATOM      7  C   UNL A   1      30.725  27.385  24.458  1.00  0.00     0.054 A 
ATOM      8  C   UNL A   1      29.483  27.098  23.845  1.00  0.00     0.031 A 
ATOM      9  C   UNL A   1      28.779  28.060  23.126  1.00  0.00     0.049 A 
ATOM     10  C   UNL A   1      30.637  29.564  23.403  1.00  0.00     0.063 A 
ATOM     11  C   UNL A   1      29.339  29.315  22.975  1.00  0.00     0.131 A 
BRANCH   7  12
ATOM     12  N   UNL A   1      31.180  26.329  25.257  1.00  0.00    -0.325 N 
ATOM     13  C   UNL A   1      32.198  25.426  25.257  1.00  0.00     0.231 C 
ATOM     14  O   UNL A   1      32.265  24.884  26.375  1.00  0.00    -0.274 OA
ATOM     15  H   UNL A   1      30.598  26.204  26.041  1.00  0.00     0.169 HD
BRANCH  13  16
ATOM     16  C   UNL A   1      33.286  25.115  24.175  1.00  0.00     0.108 C 
BRANCH  16  17
ATOM     17  C   UNL A   1      32.747  24.821  22.766  1.00  0.00     0.015 C 
ATOM     18  C   UNL A   1      32.903  25.985  21.799  1.00  0.00     0.005 C 
ENDBRANCH  16  17
BRANCH  16  19
ATOM     19  C   UNL A   1      34.389  24.090  24.616  1.00  0.00    -0.036 A 
ATOM     20  C   UNL A   1      35.528  24.449  25.360  1.00  0.00     0.004 A 
ATOM     21  C   UNL A   1      34.371  22.754  24.152  1.00  0.00     0.004 A 
ATOM     22  C   UNL A   1      36.547  23.534  25.664  1.00  0.00     0.000 A 
ATOM     23  C   UNL A   1      35.378  21.831  24.469  1.00  0.00     0.000 A 
ATOM     24  C   UNL A   1      36.469  22.221  25.228  1.00  0.00     0.000 A 
ENDBRANCH  16  19
ENDBRANCH  13  16
ENDBRANCH   7  12
BRANCH  11  25
ATOM     25  O   UNL A   1      28.593  30.302  22.322  1.00  0.00    -0.427 OA
BRANCH  25  26
ATOM     26  C   UNL A   1      28.084  31.362  23.073  1.00  0.00     0.308 C 
ATOM     27  C   UNL A   1      28.696  32.713  22.819  1.00  0.00     0.139 C 
ATOM     28  O   UNL A   1      27.134  31.206  23.833  1.00  0.00    -0.252 OA
ENDBRANCH  25  26
ENDBRANCH  11  25
ENDBRANCH   3   6
ENDBRANCH   1   2
BRANCH   1  29
ATOM     29  C   UNL A   1      31.927  31.477  26.836  1.00  0.00     0.042 C 
BRANCH  29  30
ATOM     30  C   UNL A   1      33.001  32.382  27.433  1.00  0.00     0.118 C 
BRANCH  30  31
ATOM     31  N   UNL A   1      32.575  33.766  27.624  1.00  0.00    -0.352 N 
ATOM     32  C   UNL A   1      33.052  34.739  28.475  1.00  0.00     0.251 C 
ATOM     33  H   UNL A   1      31.824  34.050  27.054  1.00  0.00     0.163 HD
ATOM     34  O   UNL A   1      32.482  35.824  28.574  1.00  0.00    -0.269 OA
BRANCH  32  35
ATOM     35  C   UNL A   1      34.228  34.455  29.321  1.00  0.00     0.039 A 
ATOM     36  C   UNL A   1      34.037  34.035  30.639  1.00  0.00     0.014 A 
ATOM     37  C   UNL A   1      35.513  34.536  28.793  1.00  0.00     0.014 A 
ATOM     38  C   UNL A   1      35.128  33.566  31.375  1.00  0.00     0.010 A 
ATOM     39  C   UNL A   1      36.565  33.935  29.468  1.00  0.00     0.010 A 
ATOM     40  C   UNL A   1      36.387  33.439  30.767  1.00  0.00    -0.014 A 
BRANCH  40  41
ATOM     41  C   UNL A   1      37.534  32.782  31.451  1.00  0.00     0.031 A 
ATOM     42  C   UNL A   1      38.249  31.636  30.786  1.00  0.00     0.074 A 
ATOM     43  C   UNL A   1      37.850  33.128  32.715  1.00  0.00     0.049 A 
ATOM     44  N   UNL A   1      39.157  30.829  31.272  1.00  0.00    -0.248 NA
ATOM     45  C   UNL A   1      37.843  31.317  29.407  1.00  0.00     0.031 C 
ATOM     46  C   UNL A   1      37.176  34.158  33.509  1.00  0.00     0.029 A 
ATOM     47  N   UNL A   1      38.809  32.635  33.565  1.00  0.00    -0.354 N 
ATOM     48  C   UNL A   1      39.387  29.883  30.283  1.00  0.00     0.074 A 
ATOM     49  C   UNL A   1      38.482  30.177  29.194  1.00  0.00     0.031 C 
ATOM     50  C   UNL A   1      37.761  34.242  34.714  1.00  0.00     0.029 A 
ATOM     51  C   UNL A   1      38.823  33.245  34.796  1.00  0.00     0.049 A 
ATOM     52  H   UNL A   1      39.429  31.912  33.315  1.00  0.00     0.167 HD
ATOM     53  C   UNL A   1      40.294  28.877  30.268  1.00  0.00     0.037 A 
ATOM     54  C   UNL A   1      39.602  33.023  35.872  1.00  0.00     0.037 A 
ATOM     55  C   UNL A   1      41.247  28.640  31.318  1.00  0.00     0.049 A 
ATOM     56  C   UNL A   1      40.658  31.954  35.803  1.00  0.00     0.074 A 
ATOM     57  C   UNL A   1      42.289  27.732  31.349  1.00  0.00     0.029 A 
ATOM     58  N   UNL A   1      41.278  29.329  32.522  1.00  0.00    -0.354 N 
ATOM     59  N   UNL A   1      40.928  31.123  34.826  1.00  0.00    -0.248 NA
ATOM     60  C   UNL A   1      41.521  31.797  36.981  1.00  0.00     0.031 C 
ATOM     61  C   UNL A   1      42.929  27.846  32.587  1.00  0.00     0.029 A 
ATOM     62  C   UNL A   1      42.311  28.854  33.311  1.00  0.00     0.049 A 
ATOM     63  H   UNL A   1      40.657  30.050  32.777  1.00  0.00     0.167 HD
ATOM     64  C   UNL A   1      41.998  30.356  35.262  1.00  0.00     0.074 A 
ATOM     65  C   UNL A   1      42.342  30.834  36.585  1.00  0.00     0.031 C 
ATOM     66  C   UNL A   1      42.637  29.345  34.626  1.00  0.00     0.037 A 
BRANCH  53  67
ATOM     67  C   UNL A   1      40.305  27.972  29.070  1.00  0.00     0.064 A 
ATOM     68  C   UNL A   1      39.599  26.758  29.052  1.00  0.00     0.173 A 
ATOM     69  C   UNL A   1      41.023  28.328  27.919  1.00  0.00     0.173 A 
ATOM     70  F   UNL A   1      38.905  26.366  30.131  1.00  0.00    -0.203 F 
ATOM     71  C   UNL A   1      39.650  25.915  27.946  1.00  0.00     0.198 A 
ATOM     72  C   UNL A   1      41.043  27.498  26.800  1.00  0.00     0.198 A 
ATOM     73  F   UNL A   1      41.710  29.479  27.878  1.00  0.00    -0.203 F 
ATOM     74  F   UNL A   1      39.022  24.731  27.979  1.00  0.00    -0.200 F 
ATOM     75  C   UNL A   1      40.367  26.287  26.819  1.00  0.00     0.200 A 
ATOM     76  F   UNL A   1      41.728  27.864  25.708  1.00  0.00    -0.200 F 
ATOM     77  F   UNL A   1      40.415  25.474  25.755  1.00  0.00    -0.200 F 
ENDBRANCH  53  67
BRANCH  54  78
ATOM     78  C   UNL A   1      39.435  33.856  37.091  1.00  0.00     0.064 A 
ATOM     79  C   UNL A   1      40.002  35.135  37.168  1.00  0.00     0.173 A 
ATOM     80  C   UNL A   1      38.691  33.405  38.191  1.00  0.00     0.173 A 
ATOM     81  F   UNL A   1      40.737  35.603  36.148  1.00  0.00    -0.203 F 
ATOM     82  C   UNL A   1      39.847  35.926  38.304  1.00  0.00     0.198 A 
ATOM     83  C   UNL A   1      38.515  34.206  39.318  1.00  0.00     0.198 A 
ATOM     84  F   UNL A   1      38.120  32.192  38.163  1.00  0.00    -0.203 F 
ATOM     85  F   UNL A   1      40.430  37.131  38.366  1.00  0.00    -0.200 F 
ATOM     86  C   UNL A   1      39.097  35.463  39.376  1.00  0.00     0.200 A 
ATOM     87  F   UNL A   1      37.778  33.762  40.344  1.00  0.00    -0.200 F 
ATOM     88  F   UNL A   1      38.940  36.228  40.465  1.00  0.00    -0.200 F 
ENDBRANCH  54  78
BRANCH  66  89
ATOM     89  C   UNL A   1      43.783  28.696  35.343  1.00  0.00     0.064 A 
ATOM     90  C   UNL A   1      45.099  29.153  35.180  1.00  0.00     0.173 A 
ATOM     91  C   UNL A   1      43.555  27.643  36.240  1.00  0.00     0.173 A 
ATOM     92  F   UNL A   1      45.367  30.148  34.321  1.00  0.00    -0.203 F 
ATOM     93  C   UNL A   1      46.149  28.567  35.881  1.00  0.00     0.198 A 
ATOM     94  C   UNL A   1      44.604  27.078  36.959  1.00  0.00     0.198 A 
ATOM     95  F   UNL A   1      42.314  27.175  36.433  1.00  0.00    -0.203 F 
ATOM     96  F   UNL A   1      47.403  28.995  35.684  1.00  0.00    -0.200 F 
ATOM     97  C   UNL A   1      45.900  27.537  36.775  1.00  0.00     0.200 A 
ATOM     98  F   UNL A   1      44.361  26.090  37.832  1.00  0.00    -0.200 F 
ATOM     99  F   UNL A   1      46.912  26.981  37.457  1.00  0.00    -0.200 F 
ENDBRANCH  66  89
ENDBRANCH  40  41
ENDBRANCH  32  35
ENDBRANCH  30  31
ENDBRANCH  29  30
ENDBRANCH   1  29
TORSDOF 16
ENDMDL
MODEL 3
REMARK VINA RESULT:     -12.9      0.919      1.819
REMARK SMILES CC[C@@H](C(=O)Nc1ccc(OC(C)=O)cc1C(=O)NCCCNC(=O)c1ccc(-c2c3nc(c(-c4c(F)c(F)c(F)c(F)c4F)c4ccc([nH]4)c(-c4c(F)c(F)c(F)c(F)c4F)c4nc(c(-c5c(F)c(F)c(F)c(F)c5F)c5ccc2[nH]5)C=C4)C=C3)cc1)c1ccccc1
REMARK SMILES IDX 20 1 19 2 17 3 18 4 16 6 7 7 8 8 9 9 15 10 10 11 6 12 4 13
REMARK SMILES IDX 5 14 3 16 2 17 1 18 89 19 90 20 94 21 91 22 93 23 92 24
REMARK SMILES IDX 11 25 12 26 13 27 14 28 21 29 22 30 23 31 24 32 25 34 26 35
REMARK SMILES IDX 27 36 88 37 28 38 87 39 29 40 30 41 31 42 81 43 32 44 86 45
REMARK SMILES IDX 80 46 82 47 33 48 85 49 79 50 78 51 34 53 66 54 46 55 65 56
REMARK SMILES IDX 47 57 50 58 64 59 83 60 48 61 49 62 63 64 84 65 51 66 35 67
REMARK SMILES IDX 36 68 44 69 37 70 38 71 42 72 45 73 39 74 40 75 43 76 41 77
REMARK SMILES IDX 67 78 68 79 76 80 69 81 70 82 74 83 77 84 71 85 72 86 75 87
REMARK SMILES IDX 73 88 52 89 53 90 61 91 54 92 55 93 59 94 62 95 56 96 57 97
REMARK SMILES IDX 60 98 58 99
REMARK H PARENT 19 5 6 15 23 33 82 52 50 63
REMARK Flexibility Score: inf
ROOT
ATOM      1  C   UNL A   1      37.260  21.969  24.471  1.00  0.00     0.118 C 
ENDROOT
BRANCH   1   2
ATOM      2  N   UNL A   1      36.343  22.586  25.404  1.00  0.00    -0.352 N 
ATOM      3  C   UNL A   1      34.983  22.608  25.474  1.00  0.00     0.253 C 
ATOM      4  O   UNL A   1      34.494  23.197  26.442  1.00  0.00    -0.269 OA
ATOM      5  H   UNL A   1      36.786  23.086  26.127  1.00  0.00     0.163 HD
BRANCH   3   6
ATOM      6  C   UNL A   1      34.060  21.999  24.476  1.00  0.00     0.067 A 
ATOM      7  C   UNL A   1      33.491  22.563  23.319  1.00  0.00     0.054 A 
ATOM      8  C   UNL A   1      32.484  21.837  22.640  1.00  0.00     0.031 A 
ATOM      9  C   UNL A   1      32.199  20.511  22.951  1.00  0.00     0.049 A 
ATOM     10  C   UNL A   1      33.748  20.654  24.787  1.00  0.00     0.063 A 
ATOM     11  C   UNL A   1      32.893  19.909  23.984  1.00  0.00     0.131 A 
BRANCH   7  12
ATOM     12  N   UNL A   1      33.718  23.821  22.745  1.00  0.00    -0.325 N 
ATOM     13  C   UNL A   1      33.379  25.117  22.981  1.00  0.00     0.231 C 
ATOM     14  O   UNL A   1      34.096  25.860  22.287  1.00  0.00    -0.274 OA
ATOM     15  H   UNL A   1      34.283  23.744  21.942  1.00  0.00     0.169 HD
BRANCH  13  16
ATOM     16  C   UNL A   1      32.393  25.740  24.026  1.00  0.00     0.108 C 
BRANCH  16  17
ATOM     17  C   UNL A   1      30.938  25.880  23.554  1.00  0.00     0.015 C 
ATOM     18  C   UNL A   1      30.255  24.547  23.284  1.00  0.00     0.005 C 
ENDBRANCH  16  17
BRANCH  16  19
ATOM     19  C   UNL A   1      32.914  27.035  24.741  1.00  0.00    -0.036 A 
ATOM     20  C   UNL A   1      33.745  27.013  25.876  1.00  0.00     0.004 A 
ATOM     21  C   UNL A   1      32.445  28.315  24.365  1.00  0.00     0.004 A 
ATOM     22  C   UNL A   1      34.124  28.182  26.555  1.00  0.00     0.000 A 
ATOM     23  C   UNL A   1      32.834  29.488  25.029  1.00  0.00     0.000 A 
ATOM     24  C   UNL A   1      33.676  29.422  26.127  1.00  0.00     0.000 A 
ENDBRANCH  16  19
ENDBRANCH  13  16
ENDBRANCH   7  12
BRANCH  11  25
ATOM     25  O   UNL A   1      32.662  18.553  24.240  1.00  0.00    -0.427 OA
BRANCH  25  26
ATOM     26  C   UNL A   1      33.342  17.604  23.478  1.00  0.00     0.308 C 
ATOM     27  C   UNL A   1      34.461  16.872  24.168  1.00  0.00     0.139 C 
ATOM     28  O   UNL A   1      32.985  17.327  22.337  1.00  0.00    -0.252 OA
ENDBRANCH  25  26
ENDBRANCH  11  25
ENDBRANCH   3   6
ENDBRANCH   1   2
BRANCH   1  29
ATOM     29  C   UNL A   1      37.793  20.642  24.975  1.00  0.00     0.042 C 
BRANCH  29  30
ATOM     30  C   UNL A   1      39.073  20.806  25.791  1.00  0.00     0.118 C 
BRANCH  30  31
ATOM     31  N   UNL A   1      39.896  19.601  25.855  1.00  0.00    -0.352 N 
ATOM     32  C   UNL A   1      41.245  19.452  26.092  1.00  0.00     0.251 C 
ATOM     33  H   UNL A   1      39.409  18.759  25.704  1.00  0.00     0.163 HD
ATOM     34  O   UNL A   1      41.784  18.352  25.993  1.00  0.00    -0.269 OA
BRANCH  32  35
ATOM     35  C   UNL A   1      42.065  20.638  26.412  1.00  0.00     0.039 A 
ATOM     36  C   UNL A   1      42.479  21.483  25.380  1.00  0.00     0.014 A 
ATOM     37  C   UNL A   1      42.364  20.952  27.735  1.00  0.00     0.014 A 
ATOM     38  C   UNL A   1      43.070  22.709  25.692  1.00  0.00     0.010 A 
ATOM     39  C   UNL A   1      42.813  22.227  28.046  1.00  0.00     0.010 A 
ATOM     40  C   UNL A   1      43.170  23.125  27.030  1.00  0.00    -0.014 A 
BRANCH  40  41
ATOM     41  C   UNL A   1      43.627  24.491  27.402  1.00  0.00     0.031 A 
ATOM     42  C   UNL A   1      42.625  25.523  27.845  1.00  0.00     0.074 A 
ATOM     43  C   UNL A   1      44.917  24.839  27.223  1.00  0.00     0.049 A 
ATOM     44  N   UNL A   1      42.791  26.804  28.056  1.00  0.00    -0.248 NA
ATOM     45  C   UNL A   1      41.236  25.065  28.013  1.00  0.00     0.031 C 
ATOM     46  C   UNL A   1      45.972  23.962  26.712  1.00  0.00     0.029 A 
ATOM     47  N   UNL A   1      45.558  26.036  27.433  1.00  0.00    -0.354 N 
ATOM     48  C   UNL A   1      41.525  27.307  28.327  1.00  0.00     0.074 A 
ATOM     49  C   UNL A   1      40.594  26.209  28.193  1.00  0.00     0.031 C 
ATOM     50  C   UNL A   1      47.132  24.637  26.679  1.00  0.00     0.029 A 
ATOM     51  C   UNL A   1      46.897  26.006  27.124  1.00  0.00     0.049 A 
ATOM     52  H   UNL A   1      45.101  26.839  27.772  1.00  0.00     0.167 HD
ATOM     53  C   UNL A   1      41.173  28.565  28.685  1.00  0.00     0.037 A 
ATOM     54  C   UNL A   1      47.829  26.976  27.188  1.00  0.00     0.037 A 
ATOM     55  C   UNL A   1      42.112  29.632  28.897  1.00  0.00     0.049 A 
ATOM     56  C   UNL A   1      47.430  28.344  27.669  1.00  0.00     0.074 A 
ATOM     57  C   UNL A   1      41.878  30.905  29.382  1.00  0.00     0.029 A 
ATOM     58  N   UNL A   1      43.474  29.543  28.645  1.00  0.00    -0.354 N 
ATOM     59  N   UNL A   1      46.244  28.786  28.009  1.00  0.00    -0.248 NA
ATOM     60  C   UNL A   1      48.499  29.346  27.779  1.00  0.00     0.031 C 
ATOM     61  C   UNL A   1      43.092  31.599  29.390  1.00  0.00     0.029 A 
ATOM     62  C   UNL A   1      44.090  30.745  28.947  1.00  0.00     0.049 A 
ATOM     63  H   UNL A   1      43.934  28.743  28.301  1.00  0.00     0.167 HD
ATOM     64  C   UNL A   1      46.424  30.107  28.390  1.00  0.00     0.074 A 
ATOM     65  C   UNL A   1      47.837  30.392  28.257  1.00  0.00     0.031 C 
ATOM     66  C   UNL A   1      45.500  31.006  28.808  1.00  0.00     0.037 A 
BRANCH  53  67
ATOM     67  C   UNL A   1      39.711  28.843  28.888  1.00  0.00     0.064 A 
ATOM     68  C   UNL A   1      38.891  29.291  27.840  1.00  0.00     0.173 A 
ATOM     69  C   UNL A   1      39.120  28.650  30.145  1.00  0.00     0.173 A 
ATOM     70  F   UNL A   1      39.409  29.502  26.621  1.00  0.00    -0.203 F 
ATOM     71  C   UNL A   1      37.546  29.579  28.055  1.00  0.00     0.198 A 
ATOM     72  C   UNL A   1      37.766  28.906  30.348  1.00  0.00     0.198 A 
ATOM     73  F   UNL A   1      39.855  28.217  31.180  1.00  0.00    -0.203 F 
ATOM     74  F   UNL A   1      36.800  30.069  27.055  1.00  0.00    -0.200 F 
ATOM     75  C   UNL A   1      36.983  29.381  29.306  1.00  0.00     0.200 A 
ATOM     76  F   UNL A   1      37.221  28.703  31.556  1.00  0.00    -0.200 F 
ATOM     77  F   UNL A   1      35.688  29.658  29.511  1.00  0.00    -0.200 F 
ENDBRANCH  53  67
BRANCH  54  78
ATOM     78  C   UNL A   1      49.237  26.673  26.823  1.00  0.00     0.064 A 
ATOM     79  C   UNL A   1      50.152  26.242  27.792  1.00  0.00     0.173 A 
ATOM     80  C   UNL A   1      49.692  26.788  25.501  1.00  0.00     0.173 A 
ATOM     81  F   UNL A   1      49.768  26.133  29.073  1.00  0.00    -0.203 F 
ATOM     82  C   UNL A   1      51.473  25.950  27.458  1.00  0.00     0.198 A 
ATOM     83  C   UNL A   1      51.007  26.473  25.163  1.00  0.00     0.198 A 
ATOM     84  F   UNL A   1      48.854  27.189  24.534  1.00  0.00    -0.203 F 
ATOM     85  F   UNL A   1      52.336  25.573  28.412  1.00  0.00    -0.200 F 
ATOM     86  C   UNL A   1      51.897  26.059  26.142  1.00  0.00     0.200 A 
ATOM     87  F   UNL A   1      51.410  26.565  23.889  1.00  0.00    -0.200 F 
ATOM     88  F   UNL A   1      53.166  25.771  25.820  1.00  0.00    -0.200 F 
ENDBRANCH  54  78
BRANCH  66  89
ATOM     89  C   UNL A   1      45.989  32.377  29.169  1.00  0.00     0.064 A 
ATOM     90  C   UNL A   1      46.050  33.405  28.217  1.00  0.00     0.173 A 
ATOM     91  C   UNL A   1      46.349  32.678  30.491  1.00  0.00     0.173 A 
ATOM     92  F   UNL A   1      45.730  33.159  26.937  1.00  0.00    -0.203 F 
ATOM     93  C   UNL A   1      46.470  34.683  28.573  1.00  0.00     0.198 A 
ATOM     94  C   UNL A   1      46.742  33.964  30.848  1.00  0.00     0.198 A 
ATOM     95  F   UNL A   1      46.302  31.730  31.437  1.00  0.00    -0.203 F 
ATOM     96  F   UNL A   1      46.555  35.641  27.641  1.00  0.00    -0.200 F 
ATOM     97  C   UNL A   1      46.807  34.964  29.889  1.00  0.00     0.200 A 
ATOM     98  F   UNL A   1      47.057  34.237  32.122  1.00  0.00    -0.200 F 
ATOM     99  F   UNL A   1      47.201  36.198  30.232  1.00  0.00    -0.200 F 
ENDBRANCH  66  89
ENDBRANCH  40  41
ENDBRANCH  32  35
ENDBRANCH  30  31
ENDBRANCH  29  30
ENDBRANCH   1  29
TORSDOF 16
ENDMDL
