MODEL 1
REMARK VINA RESULT:     -12.1      0.000      0.000
REMARK SMILES C[C@](NC(=O)c1ccc(Br)o1)(C(=O)NCCCNC(=O)c1ccc(-c2c3nc(c(-c4c(F)c(F)c(F)c(F)c4F)c4ccc([nH]4)c(-c4c(F)c(F)c(F)c(F)c4F)c4nc(c(-c5c(F)c(F)c(F)c(F)c5F)c5ccc2[nH]5)C=C4)C=C3)cc1)C(F)(F)F
REMARK SMILES IDX 16 1 15 2 14 3 12 4 13 5 2 7 1 8 84 9 85 10 86 11 87 12 3 13
REMARK SMILES IDX 4 14 5 16 6 17 7 18 11 19 8 20 9 21 10 22 17 23 18 24 19 25
REMARK SMILES IDX 20 27 21 28 22 29 83 30 23 31 82 32 24 33 25 34 26 35 76 36
REMARK SMILES IDX 27 37 81 38 75 39 77 40 28 41 80 42 74 43 73 44 29 46 61 47
REMARK SMILES IDX 41 48 60 49 42 50 45 51 59 52 78 53 43 54 44 55 58 57 79 58
REMARK SMILES IDX 46 59 30 60 31 61 39 62 32 63 33 64 37 65 40 66 34 67 35 68
REMARK SMILES IDX 38 69 36 70 62 71 63 72 71 73 64 74 65 75 69 76 72 77 66 78
REMARK SMILES IDX 67 79 70 80 68 81 47 82 48 83 56 84 49 85 50 86 54 87 57 88
REMARK SMILES IDX 51 89 52 90 55 91 53 92
REMARK H PARENT 14 6 3 15 18 26 77 45 45 56
REMARK Flexibility Score: inf
ROOT
ATOM      1  C   UNL A   1      31.357  32.324  26.514  1.00  0.00     0.042 C 
ENDROOT
BRANCH   1   2
ATOM      2  C   UNL A   1      31.552  30.890  26.047  1.00  0.00     0.117 C 
BRANCH   2   3
ATOM      3  N   UNL A   1      30.897  30.633  24.773  1.00  0.00    -0.354 N 
ATOM      4  C   UNL A   1      30.916  29.531  23.959  1.00  0.00     0.254 C 
ATOM      5  O   UNL A   1      30.230  29.595  22.939  1.00  0.00    -0.272 OA
ATOM      6  H   UNL A   1      30.348  31.378  24.438  1.00  0.00     0.163 HD
BRANCH   4   7
ATOM      7  C   UNL A   1      31.697  28.267  24.366  1.00  0.00     0.212 C 
ATOM      8  C   UNL A   1      31.224  27.118  23.460  1.00  0.00     0.056 C 
BRANCH   7   9
ATOM      9  C   UNL A   1      33.189  28.516  24.059  1.00  0.00     0.420 C 
ATOM     10  F   UNL A   1      33.894  28.830  25.170  1.00  0.00    -0.168 F 
ATOM     11  F   UNL A   1      33.746  27.376  23.563  1.00  0.00    -0.168 F 
ATOM     12  F   UNL A   1      33.390  29.475  23.132  1.00  0.00    -0.168 F 
ENDBRANCH   7   9
BRANCH   7  13
ATOM     13  N   UNL A   1      31.494  28.137  25.846  1.00  0.00    -0.328 N 
ATOM     14  C   UNL A   1      31.751  27.195  26.803  1.00  0.00     0.288 C 
ATOM     15  H   UNL A   1      31.062  28.935  26.227  1.00  0.00     0.165 HD
ATOM     16  O   UNL A   1      31.434  27.479  27.953  1.00  0.00    -0.266 OA
BRANCH  14  17
ATOM     17  C   UNL A   1      32.277  25.913  26.427  1.00  0.00     0.192 A 
ATOM     18  C   UNL A   1      31.704  24.670  26.249  1.00  0.00     0.057 A 
ATOM     19  O   UNL A   1      33.619  25.840  26.168  1.00  0.00    -0.444 OA
ATOM     20  C   UNL A   1      32.758  23.785  25.907  1.00  0.00     0.059 A 
ATOM     21  C   UNL A   1      33.901  24.550  25.858  1.00  0.00     0.170 A 
ATOM     22  Br  UNL A   1      35.607  23.919  25.447  1.00  0.00    -0.008 Br
ENDBRANCH  14  17
ENDBRANCH   7  13
ENDBRANCH   4   7
ENDBRANCH   2   3
ENDBRANCH   1   2
BRANCH   1  23
ATOM     23  C   UNL A   1      32.545  32.865  27.293  1.00  0.00     0.118 C 
BRANCH  23  24
ATOM     24  N   UNL A   1      32.398  34.275  27.636  1.00  0.00    -0.352 N 
ATOM     25  C   UNL A   1      33.023  35.001  28.621  1.00  0.00     0.251 C 
ATOM     26  H   UNL A   1      31.761  34.779  27.080  1.00  0.00     0.163 HD
ATOM     27  O   UNL A   1      32.653  36.140  28.883  1.00  0.00    -0.269 OA
BRANCH  25  28
ATOM     28  C   UNL A   1      34.129  34.386  29.380  1.00  0.00     0.039 A 
ATOM     29  C   UNL A   1      33.844  33.656  30.535  1.00  0.00     0.014 A 
ATOM     30  C   UNL A   1      35.443  34.506  28.923  1.00  0.00     0.014 A 
ATOM     31  C   UNL A   1      34.872  32.973  31.190  1.00  0.00     0.010 A 
ATOM     32  C   UNL A   1      36.448  33.759  29.522  1.00  0.00     0.010 A 
ATOM     33  C   UNL A   1      36.172  32.984  30.660  1.00  0.00    -0.014 A 
BRANCH  33  34
ATOM     34  C   UNL A   1      37.276  32.200  31.267  1.00  0.00     0.031 A 
ATOM     35  C   UNL A   1      37.793  32.580  32.625  1.00  0.00     0.074 A 
ATOM     36  C   UNL A   1      37.881  31.231  30.555  1.00  0.00     0.049 A 
ATOM     37  N   UNL A   1      38.854  32.153  33.258  1.00  0.00    -0.248 NA
ATOM     38  C   UNL A   1      37.032  33.609  33.353  1.00  0.00     0.031 C 
ATOM     39  C   UNL A   1      37.493  30.797  29.211  1.00  0.00     0.029 A 
ATOM     40  N   UNL A   1      38.972  30.452  30.853  1.00  0.00    -0.354 N 
ATOM     41  C   UNL A   1      38.904  32.879  34.441  1.00  0.00     0.074 A 
ATOM     42  C   UNL A   1      37.796  33.807  34.417  1.00  0.00     0.031 C 
ATOM     43  C   UNL A   1      38.325  29.825  28.806  1.00  0.00     0.029 A 
ATOM     44  C   UNL A   1      39.334  29.600  29.838  1.00  0.00     0.049 A 
ATOM     45  H   UNL A   1      39.449  30.498  31.713  1.00  0.00     0.167 HD
ATOM     46  C   UNL A   1      39.786  32.767  35.462  1.00  0.00     0.037 A 
ATOM     47  C   UNL A   1      40.374  28.751  29.743  1.00  0.00     0.037 A 
ATOM     48  C   UNL A   1      40.867  31.818  35.493  1.00  0.00     0.049 A 
ATOM     49  C   UNL A   1      41.344  28.649  30.890  1.00  0.00     0.074 A 
ATOM     50  C   UNL A   1      41.781  31.584  36.503  1.00  0.00     0.029 A 
ATOM     51  N   UNL A   1      41.175  30.942  34.461  1.00  0.00    -0.354 N 
ATOM     52  N   UNL A   1      41.353  29.302  32.026  1.00  0.00    -0.248 NA
ATOM     53  C   UNL A   1      42.447  27.688  30.743  1.00  0.00     0.031 C 
ATOM     54  C   UNL A   1      42.671  30.598  36.067  1.00  0.00     0.029 A 
ATOM     55  C   UNL A   1      42.277  30.178  34.806  1.00  0.00     0.049 A 
ATOM     56  H   UNL A   1      40.684  30.875  33.611  1.00  0.00     0.167 HD
ATOM     57  C   UNL A   1      42.433  28.806  32.744  1.00  0.00     0.074 A 
ATOM     58  C   UNL A   1      43.056  27.796  31.916  1.00  0.00     0.031 C 
ATOM     59  C   UNL A   1      42.865  29.155  33.980  1.00  0.00     0.037 A 
BRANCH  46  60
ATOM     60  C   UNL A   1      39.617  33.692  36.632  1.00  0.00     0.064 A 
ATOM     61  C   UNL A   1      40.216  34.961  36.661  1.00  0.00     0.173 A 
ATOM     62  C   UNL A   1      38.817  33.321  37.723  1.00  0.00     0.173 A 
ATOM     63  F   UNL A   1      40.999  35.361  35.648  1.00  0.00    -0.203 F 
ATOM     64  C   UNL A   1      40.046  35.808  37.752  1.00  0.00     0.198 A 
ATOM     65  C   UNL A   1      38.623  34.184  38.798  1.00  0.00     0.198 A 
ATOM     66  F   UNL A   1      38.217  32.121  37.745  1.00  0.00    -0.203 F 
ATOM     67  F   UNL A   1      40.671  36.994  37.780  1.00  0.00    -0.200 F 
ATOM     68  C   UNL A   1      39.244  35.423  38.816  1.00  0.00     0.200 A 
ATOM     69  F   UNL A   1      37.836  33.815  39.818  1.00  0.00    -0.200 F 
ATOM     70  F   UNL A   1      39.075  36.245  39.861  1.00  0.00    -0.200 F 
ENDBRANCH  46  60
BRANCH  47  71
ATOM     71  C   UNL A   1      40.545  27.917  28.525  1.00  0.00     0.064 A 
ATOM     72  C   UNL A   1      41.303  28.380  27.439  1.00  0.00     0.173 A 
ATOM     73  C   UNL A   1      39.957  26.648  28.416  1.00  0.00     0.173 A 
ATOM     74  F   UNL A   1      41.867  29.595  27.487  1.00  0.00    -0.203 F 
ATOM     75  C   UNL A   1      41.449  27.613  26.284  1.00  0.00     0.198 A 
ATOM     76  C   UNL A   1      40.128  25.871  27.271  1.00  0.00     0.198 A 
ATOM     77  F   UNL A   1      39.227  26.158  29.428  1.00  0.00    -0.203 F 
ATOM     78  F   UNL A   1      42.139  28.101  25.244  1.00  0.00    -0.200 F 
ATOM     79  C   UNL A   1      40.866  26.359  26.204  1.00  0.00     0.200 A 
ATOM     80  F   UNL A   1      39.574  24.653  27.203  1.00  0.00    -0.200 F 
ATOM     81  F   UNL A   1      41.009  25.622  25.094  1.00  0.00    -0.200 F 
ENDBRANCH  47  71
BRANCH  59  82
ATOM     82  C   UNL A   1      44.030  28.398  34.547  1.00  0.00     0.064 A 
ATOM     83  C   UNL A   1      45.347  28.859  34.417  1.00  0.00     0.173 A 
ATOM     84  C   UNL A   1      43.811  27.229  35.294  1.00  0.00     0.173 A 
ATOM     85  F   UNL A   1      45.609  29.963  33.701  1.00  0.00    -0.203 F 
ATOM     86  C   UNL A   1      46.405  28.169  35.002  1.00  0.00     0.198 A 
ATOM     87  C   UNL A   1      44.868  26.559  35.902  1.00  0.00     0.198 A 
ATOM     88  F   UNL A   1      42.567  26.752  35.452  1.00  0.00    -0.203 F 
ATOM     89  F   UNL A   1      47.661  28.608  34.838  1.00  0.00    -0.200 F 
ATOM     90  C   UNL A   1      46.164  27.027  35.753  1.00  0.00     0.200 A 
ATOM     91  F   UNL A   1      44.630  25.465  36.638  1.00  0.00    -0.200 F 
ATOM     92  F   UNL A   1      47.183  26.375  36.330  1.00  0.00    -0.200 F 
ENDBRANCH  59  82
ENDBRANCH  33  34
ENDBRANCH  25  28
ENDBRANCH  23  24
ENDBRANCH   1  23
TORSDOF 13
ENDMDL
MODEL 2
REMARK VINA RESULT:     -12.0      0.704      7.526
REMARK SMILES C[C@](NC(=O)c1ccc(Br)o1)(C(=O)NCCCNC(=O)c1ccc(-c2c3nc(c(-c4c(F)c(F)c(F)c(F)c4F)c4ccc([nH]4)c(-c4c(F)c(F)c(F)c(F)c4F)c4nc(c(-c5c(F)c(F)c(F)c(F)c5F)c5ccc2[nH]5)C=C4)C=C3)cc1)C(F)(F)F
REMARK SMILES IDX 16 1 15 2 14 3 12 4 13 5 2 7 1 8 84 9 85 10 86 11 87 12 3 13
REMARK SMILES IDX 4 14 5 16 6 17 7 18 11 19 8 20 9 21 10 22 17 23 18 24 19 25
REMARK SMILES IDX 20 27 21 28 22 29 83 30 23 31 82 32 24 33 25 34 26 35 76 36
REMARK SMILES IDX 27 37 81 38 75 39 77 40 28 41 80 42 74 43 73 44 29 46 61 47
REMARK SMILES IDX 41 48 60 49 42 50 45 51 59 52 78 53 43 54 44 55 58 57 79 58
REMARK SMILES IDX 46 59 30 60 31 61 39 62 32 63 33 64 37 65 40 66 34 67 35 68
REMARK SMILES IDX 38 69 36 70 62 71 63 72 71 73 64 74 65 75 69 76 72 77 66 78
REMARK SMILES IDX 67 79 70 80 68 81 47 82 48 83 56 84 49 85 50 86 54 87 57 88
REMARK SMILES IDX 51 89 52 90 55 91 53 92
REMARK H PARENT 14 6 3 15 18 26 77 45 45 56
REMARK Flexibility Score: inf
ROOT
ATOM      1  C   UNL A   1      31.511  31.644  26.786  1.00  0.00     0.042 C 
ENDROOT
BRANCH   1   2
ATOM      2  C   UNL A   1      31.890  30.411  25.982  1.00  0.00     0.117 C 
BRANCH   2   3
ATOM      3  N   UNL A   1      31.143  30.313  24.737  1.00  0.00    -0.354 N 
ATOM      4  C   UNL A   1      31.117  29.335  23.778  1.00  0.00     0.254 C 
ATOM      5  O   UNL A   1      30.353  29.520  22.831  1.00  0.00    -0.272 OA
ATOM      6  H   UNL A   1      30.556  31.082  24.552  1.00  0.00     0.163 HD
BRANCH   4   7
ATOM      7  C   UNL A   1      31.949  28.049  23.945  1.00  0.00     0.212 C 
ATOM      8  C   UNL A   1      31.610  27.122  22.766  1.00  0.00     0.056 C 
BRANCH   7   9
ATOM      9  C   UNL A   1      33.439  28.432  23.820  1.00  0.00     0.420 C 
ATOM     10  F   UNL A   1      34.034  28.576  25.026  1.00  0.00    -0.168 F 
ATOM     11  F   UNL A   1      34.111  27.435  23.179  1.00  0.00    -0.168 F 
ATOM     12  F   UNL A   1      33.642  29.555  23.100  1.00  0.00    -0.168 F 
ENDBRANCH   7   9
BRANCH   7  13
ATOM     13  N   UNL A   1      31.659  27.570  25.336  1.00  0.00    -0.328 N 
ATOM     14  C   UNL A   1      32.024  26.506  26.114  1.00  0.00     0.288 C 
ATOM     15  H   UNL A   1      31.047  28.176  25.811  1.00  0.00     0.165 HD
ATOM     16  O   UNL A   1      31.566  26.474  27.251  1.00  0.00    -0.266 OA
BRANCH  14  17
ATOM     17  C   UNL A   1      32.826  25.450  25.560  1.00  0.00     0.192 A 
ATOM     18  C   UNL A   1      34.179  25.179  25.581  1.00  0.00     0.057 A 
ATOM     19  O   UNL A   1      32.173  24.471  24.862  1.00  0.00    -0.444 OA
ATOM     20  C   UNL A   1      34.365  23.998  24.818  1.00  0.00     0.059 A 
ATOM     21  C   UNL A   1      33.111  23.599  24.415  1.00  0.00     0.170 A 
ATOM     22  Br  UNL A   1      32.735  22.093  23.383  1.00  0.00    -0.008 Br
ENDBRANCH  14  17
ENDBRANCH   7  13
ENDBRANCH   4   7
ENDBRANCH   2   3
ENDBRANCH   1   2
BRANCH   1  23
ATOM     23  C   UNL A   1      32.715  32.438  27.265  1.00  0.00     0.118 C 
BRANCH  23  24
ATOM     24  N   UNL A   1      32.406  33.846  27.493  1.00  0.00    -0.352 N 
ATOM     25  C   UNL A   1      32.952  34.720  28.401  1.00  0.00     0.251 C 
ATOM     26  H   UNL A   1      31.706  34.223  26.913  1.00  0.00     0.163 HD
ATOM     27  O   UNL A   1      32.453  35.826  28.576  1.00  0.00    -0.269 OA
BRANCH  25  28
ATOM     28  C   UNL A   1      34.134  34.306  29.182  1.00  0.00     0.039 A 
ATOM     29  C   UNL A   1      33.953  33.620  30.384  1.00  0.00     0.014 A 
ATOM     30  C   UNL A   1      35.418  34.570  28.700  1.00  0.00     0.014 A 
ATOM     31  C   UNL A   1      35.066  33.122  31.066  1.00  0.00     0.010 A 
ATOM     32  C   UNL A   1      36.516  34.001  29.332  1.00  0.00     0.010 A 
ATOM     33  C   UNL A   1      36.351  33.270  30.520  1.00  0.00    -0.014 A 
BRANCH  33  34
ATOM     34  C   UNL A   1      37.552  32.679  31.160  1.00  0.00     0.031 A 
ATOM     35  C   UNL A   1      38.270  31.548  30.481  1.00  0.00     0.074 A 
ATOM     36  C   UNL A   1      37.922  33.080  32.390  1.00  0.00     0.049 A 
ATOM     37  N   UNL A   1      39.220  30.774  30.940  1.00  0.00    -0.248 NA
ATOM     38  C   UNL A   1      37.834  31.218  29.115  1.00  0.00     0.031 C 
ATOM     39  C   UNL A   1      37.279  34.143  33.166  1.00  0.00     0.029 A 
ATOM     40  N   UNL A   1      38.916  32.620  33.219  1.00  0.00    -0.354 N 
ATOM     41  C   UNL A   1      39.473  29.853  29.932  1.00  0.00     0.074 A 
ATOM     42  C   UNL A   1      38.545  30.131  28.859  1.00  0.00     0.031 C 
ATOM     43  C   UNL A   1      37.901  34.260  34.350  1.00  0.00     0.029 A 
ATOM     44  C   UNL A   1      38.951  33.250  34.439  1.00  0.00     0.049 A 
ATOM     45  H   UNL A   1      39.544  31.907  32.962  1.00  0.00     0.167 HD
ATOM     46  C   UNL A   1      40.408  28.874  29.901  1.00  0.00     0.037 A 
ATOM     47  C   UNL A   1      39.729  33.023  35.514  1.00  0.00     0.037 A 
ATOM     48  C   UNL A   1      41.349  28.625  30.960  1.00  0.00     0.049 A 
ATOM     49  C   UNL A   1      40.757  31.926  35.456  1.00  0.00     0.074 A 
ATOM     50  C   UNL A   1      42.373  27.696  31.004  1.00  0.00     0.029 A 
ATOM     51  N   UNL A   1      41.380  29.314  32.164  1.00  0.00    -0.354 N 
ATOM     52  N   UNL A   1      41.025  31.093  34.479  1.00  0.00    -0.248 NA
ATOM     53  C   UNL A   1      41.596  31.738  36.649  1.00  0.00     0.031 C 
ATOM     54  C   UNL A   1      42.996  27.792  32.252  1.00  0.00     0.029 A 
ATOM     55  C   UNL A   1      42.396  28.818  32.965  1.00  0.00     0.049 A 
ATOM     56  H   UNL A   1      40.770  30.045  32.414  1.00  0.00     0.167 HD
ATOM     57  C   UNL A   1      42.083  30.312  34.922  1.00  0.00     0.074 A 
ATOM     58  C   UNL A   1      42.412  30.769  36.255  1.00  0.00     0.031 C 
ATOM     59  C   UNL A   1      42.727  29.308  34.278  1.00  0.00     0.037 A 
BRANCH  46  60
ATOM     60  C   UNL A   1      40.461  28.001  28.681  1.00  0.00     0.064 A 
ATOM     61  C   UNL A   1      41.207  28.361  27.549  1.00  0.00     0.173 A 
ATOM     62  C   UNL A   1      39.783  26.773  28.656  1.00  0.00     0.173 A 
ATOM     63  F   UNL A   1      41.864  29.530  27.516  1.00  0.00    -0.203 F 
ATOM     64  C   UNL A   1      41.248  27.538  26.427  1.00  0.00     0.198 A 
ATOM     65  C   UNL A   1      39.853  25.938  27.544  1.00  0.00     0.198 A 
ATOM     66  F   UNL A   1      39.058  26.378  29.713  1.00  0.00    -0.203 F 
ATOM     67  F   UNL A   1      41.925  27.928  25.337  1.00  0.00    -0.200 F 
ATOM     68  C   UNL A   1      40.578  26.324  26.428  1.00  0.00     0.200 A 
ATOM     69  F   UNL A   1      39.216  24.758  27.553  1.00  0.00    -0.200 F 
ATOM     70  F   UNL A   1      40.625  25.530  25.349  1.00  0.00    -0.200 F 
ENDBRANCH  46  60
BRANCH  47  71
ATOM     71  C   UNL A   1      39.578  33.863  36.731  1.00  0.00     0.064 A 
ATOM     72  C   UNL A   1      38.781  33.435  37.803  1.00  0.00     0.173 A 
ATOM     73  C   UNL A   1      40.222  35.103  36.851  1.00  0.00     0.173 A 
ATOM     74  F   UNL A   1      38.128  32.266  37.726  1.00  0.00    -0.203 F 
ATOM     75  C   UNL A   1      38.616  34.227  38.938  1.00  0.00     0.198 A 
ATOM     76  C   UNL A   1      40.079  35.880  38.000  1.00  0.00     0.198 A 
ATOM     77  F   UNL A   1      41.001  35.554  35.858  1.00  0.00    -0.203 F 
ATOM     78  F   UNL A   1      37.809  33.815  39.926  1.00  0.00    -0.200 F 
ATOM     79  C   UNL A   1      39.269  35.445  39.038  1.00  0.00     0.200 A 
ATOM     80  F   UNL A   1      40.723  37.051  38.098  1.00  0.00    -0.200 F 
ATOM     81  F   UNL A   1      39.112  36.203  40.131  1.00  0.00    -0.200 F 
ENDBRANCH  47  71
BRANCH  59  82
ATOM     82  C   UNL A   1      43.896  28.674  34.973  1.00  0.00     0.064 A 
ATOM     83  C   UNL A   1      43.748  27.548  35.794  1.00  0.00     0.173 A 
ATOM     84  C   UNL A   1      45.194  29.165  34.754  1.00  0.00     0.173 A 
ATOM     85  F   UNL A   1      42.528  27.052  36.046  1.00  0.00    -0.203 F 
ATOM     86  C   UNL A   1      44.856  26.943  36.382  1.00  0.00     0.198 A 
ATOM     87  C   UNL A   1      46.300  28.540  35.319  1.00  0.00     0.198 A 
ATOM     88  F   UNL A   1      45.387  30.237  33.971  1.00  0.00    -0.203 F 
ATOM     89  F   UNL A   1      44.690  25.887  37.191  1.00  0.00    -0.200 F 
ATOM     90  C   UNL A   1      46.131  27.433  36.135  1.00  0.00     0.200 A 
ATOM     91  F   UNL A   1      47.532  29.005  35.068  1.00  0.00    -0.200 F 
ATOM     92  F   UNL A   1      47.197  26.837  36.689  1.00  0.00    -0.200 F 
ENDBRANCH  59  82
ENDBRANCH  33  34
ENDBRANCH  25  28
ENDBRANCH  23  24
ENDBRANCH   1  23
TORSDOF 13
ENDMDL
MODEL 3
REMARK VINA RESULT:     -12.0      1.372      7.619
REMARK SMILES C[C@](NC(=O)c1ccc(Br)o1)(C(=O)NCCCNC(=O)c1ccc(-c2c3nc(c(-c4c(F)c(F)c(F)c(F)c4F)c4ccc([nH]4)c(-c4c(F)c(F)c(F)c(F)c4F)c4nc(c(-c5c(F)c(F)c(F)c(F)c5F)c5ccc2[nH]5)C=C4)C=C3)cc1)C(F)(F)F
REMARK SMILES IDX 16 1 15 2 14 3 12 4 13 5 2 7 1 8 84 9 85 10 86 11 87 12 3 13
REMARK SMILES IDX 4 14 5 16 6 17 7 18 11 19 8 20 9 21 10 22 17 23 18 24 19 25
REMARK SMILES IDX 20 27 21 28 22 29 83 30 23 31 82 32 24 33 25 34 26 35 76 36
REMARK SMILES IDX 27 37 81 38 75 39 77 40 28 41 80 42 74 43 73 44 29 46 61 47
REMARK SMILES IDX 41 48 60 49 42 50 45 51 59 52 78 53 43 54 44 55 58 57 79 58
REMARK SMILES IDX 46 59 30 60 31 61 39 62 32 63 33 64 37 65 40 66 34 67 35 68
REMARK SMILES IDX 38 69 36 70 62 71 63 72 71 73 64 74 65 75 69 76 72 77 66 78
REMARK SMILES IDX 67 79 70 80 68 81 47 82 48 83 56 84 49 85 50 86 54 87 57 88
REMARK SMILES IDX 51 89 52 90 55 91 53 92
REMARK H PARENT 14 6 3 15 18 26 77 45 45 56
REMARK Flexibility Score: inf
ROOT
ATOM      1  C   UNL A   1      31.541  31.965  26.829  1.00  0.00     0.042 C 
ENDROOT
BRANCH   1   2
ATOM      2  C   UNL A   1      31.934  30.667  26.143  1.00  0.00     0.117 C 
BRANCH   2   3
ATOM      3  N   UNL A   1      33.221  30.168  26.604  1.00  0.00    -0.354 N 
ATOM      4  C   UNL A   1      33.772  28.915  26.547  1.00  0.00     0.254 C 
ATOM      5  O   UNL A   1      34.910  28.799  27.002  1.00  0.00    -0.272 OA
ATOM      6  H   UNL A   1      33.793  30.847  27.029  1.00  0.00     0.163 HD
BRANCH   4   7
ATOM      7  C   UNL A   1      33.016  27.755  25.873  1.00  0.00     0.212 C 
ATOM      8  C   UNL A   1      33.971  26.550  25.817  1.00  0.00     0.056 C 
BRANCH   7   9
ATOM      9  C   UNL A   1      31.835  27.367  26.787  1.00  0.00     0.420 C 
ATOM     10  F   UNL A   1      30.648  27.793  26.297  1.00  0.00    -0.168 F 
ATOM     11  F   UNL A   1      31.750  26.010  26.866  1.00  0.00    -0.168 F 
ATOM     12  F   UNL A   1      31.969  27.817  28.052  1.00  0.00    -0.168 F 
ENDBRANCH   7   9
BRANCH   7  13
ATOM     13  N   UNL A   1      32.502  28.317  24.581  1.00  0.00    -0.328 N 
ATOM     14  C   UNL A   1      31.819  27.842  23.496  1.00  0.00     0.288 C 
ATOM     15  H   UNL A   1      32.710  29.274  24.491  1.00  0.00     0.165 HD
ATOM     16  O   UNL A   1      31.562  28.651  22.611  1.00  0.00    -0.266 OA
BRANCH  14  17
ATOM     17  C   UNL A   1      31.522  26.441  23.389  1.00  0.00     0.192 A 
ATOM     18  C   UNL A   1      30.396  25.689  23.658  1.00  0.00     0.057 A 
ATOM     19  O   UNL A   1      32.516  25.626  22.919  1.00  0.00    -0.444 OA
ATOM     20  C   UNL A   1      30.736  24.340  23.380  1.00  0.00     0.059 A 
ATOM     21  C   UNL A   1      32.033  24.358  22.921  1.00  0.00     0.170 A 
ATOM     22  Br  UNL A   1      33.013  22.862  22.392  1.00  0.00    -0.008 Br
ENDBRANCH  14  17
ENDBRANCH   7  13
ENDBRANCH   4   7
ENDBRANCH   2   3
ENDBRANCH   1   2
BRANCH   1  23
ATOM     23  C   UNL A   1      32.730  32.727  27.392  1.00  0.00     0.118 C 
BRANCH  23  24
ATOM     24  N   UNL A   1      32.430  34.133  27.641  1.00  0.00    -0.352 N 
ATOM     25  C   UNL A   1      32.981  34.990  28.563  1.00  0.00     0.251 C 
ATOM     26  H   UNL A   1      31.734  34.524  27.066  1.00  0.00     0.163 HD
ATOM     27  O   UNL A   1      32.489  36.096  28.754  1.00  0.00    -0.269 OA
BRANCH  25  28
ATOM     28  C   UNL A   1      34.158  34.555  29.340  1.00  0.00     0.039 A 
ATOM     29  C   UNL A   1      33.972  33.967  30.592  1.00  0.00     0.014 A 
ATOM     30  C   UNL A   1      35.441  34.702  28.808  1.00  0.00     0.014 A 
ATOM     31  C   UNL A   1      35.072  33.446  31.278  1.00  0.00     0.010 A 
ATOM     32  C   UNL A   1      36.520  34.109  29.449  1.00  0.00     0.010 A 
ATOM     33  C   UNL A   1      36.346  33.473  30.689  1.00  0.00    -0.014 A 
BRANCH  33  34
ATOM     34  C   UNL A   1      37.527  32.852  31.337  1.00  0.00     0.031 A 
ATOM     35  C   UNL A   1      38.209  31.690  30.673  1.00  0.00     0.074 A 
ATOM     36  C   UNL A   1      37.909  33.256  32.564  1.00  0.00     0.049 A 
ATOM     37  N   UNL A   1      39.133  30.892  31.142  1.00  0.00    -0.248 NA
ATOM     38  C   UNL A   1      37.763  31.358  29.310  1.00  0.00     0.031 C 
ATOM     39  C   UNL A   1      37.300  34.348  33.325  1.00  0.00     0.029 A 
ATOM     40  N   UNL A   1      38.887  32.774  33.399  1.00  0.00    -0.354 N 
ATOM     41  C   UNL A   1      39.357  29.950  30.146  1.00  0.00     0.074 A 
ATOM     42  C   UNL A   1      38.439  30.245  29.068  1.00  0.00     0.031 C 
ATOM     43  C   UNL A   1      37.924  34.460  34.509  1.00  0.00     0.029 A 
ATOM     44  C   UNL A   1      38.942  33.418  34.611  1.00  0.00     0.049 A 
ATOM     45  H   UNL A   1      39.492  32.038  33.151  1.00  0.00     0.167 HD
ATOM     46  C   UNL A   1      40.260  28.942  30.128  1.00  0.00     0.037 A 
ATOM     47  C   UNL A   1      39.711  33.179  35.689  1.00  0.00     0.037 A 
ATOM     48  C   UNL A   1      41.192  28.676  31.191  1.00  0.00     0.049 A 
ATOM     49  C   UNL A   1      40.704  32.048  35.646  1.00  0.00     0.074 A 
ATOM     50  C   UNL A   1      42.186  27.715  31.247  1.00  0.00     0.029 A 
ATOM     51  N   UNL A   1      41.244  29.378  32.387  1.00  0.00    -0.354 N 
ATOM     52  N   UNL A   1      40.945  31.195  34.680  1.00  0.00    -0.248 NA
ATOM     53  C   UNL A   1      41.536  31.848  36.841  1.00  0.00     0.031 C 
ATOM     54  C   UNL A   1      42.810  27.806  32.494  1.00  0.00     0.029 A 
ATOM     55  C   UNL A   1      42.244  28.860  33.194  1.00  0.00     0.049 A 
ATOM     56  H   UNL A   1      40.658  30.131  32.626  1.00  0.00     0.167 HD
ATOM     57  C   UNL A   1      41.978  30.386  35.132  1.00  0.00     0.074 A 
ATOM     58  C   UNL A   1      42.320  30.849  36.460  1.00  0.00     0.031 C 
ATOM     59  C   UNL A   1      42.589  29.354  34.501  1.00  0.00     0.037 A 
BRANCH  46  60
ATOM     60  C   UNL A   1      40.285  28.053  28.919  1.00  0.00     0.064 A 
ATOM     61  C   UNL A   1      41.023  28.388  27.772  1.00  0.00     0.173 A 
ATOM     62  C   UNL A   1      39.591  26.834  28.917  1.00  0.00     0.173 A 
ATOM     63  F   UNL A   1      41.695  29.547  27.717  1.00  0.00    -0.203 F 
ATOM     64  C   UNL A   1      41.038  27.551  26.661  1.00  0.00     0.198 A 
ATOM     65  C   UNL A   1      39.635  25.984  27.816  1.00  0.00     0.198 A 
ATOM     66  F   UNL A   1      38.873  26.463  29.989  1.00  0.00    -0.203 F 
ATOM     67  F   UNL A   1      41.707  27.917  25.558  1.00  0.00    -0.200 F 
ATOM     68  C   UNL A   1      40.351  26.346  26.686  1.00  0.00     0.200 A 
ATOM     69  F   UNL A   1      38.982  24.814  27.847  1.00  0.00    -0.200 F 
ATOM     70  F   UNL A   1      40.374  25.538  25.617  1.00  0.00    -0.200 F 
ENDBRANCH  46  60
BRANCH  47  71
ATOM     71  C   UNL A   1      39.587  34.037  36.896  1.00  0.00     0.064 A 
ATOM     72  C   UNL A   1      38.803  33.633  37.986  1.00  0.00     0.173 A 
ATOM     73  C   UNL A   1      40.243  35.274  36.988  1.00  0.00     0.173 A 
ATOM     74  F   UNL A   1      38.139  32.468  37.937  1.00  0.00    -0.203 F 
ATOM     75  C   UNL A   1      38.663  34.442  39.112  1.00  0.00     0.198 A 
ATOM     76  C   UNL A   1      40.125  36.069  38.127  1.00  0.00     0.198 A 
ATOM     77  F   UNL A   1      41.010  35.704  35.975  1.00  0.00    -0.203 F 
ATOM     78  F   UNL A   1      37.868  34.052  40.119  1.00  0.00    -0.200 F 
ATOM     79  C   UNL A   1      39.328  35.656  39.184  1.00  0.00     0.200 A 
ATOM     80  F   UNL A   1      40.780  37.235  38.198  1.00  0.00    -0.200 F 
ATOM     81  F   UNL A   1      39.194  36.432  40.268  1.00  0.00    -0.200 F 
ENDBRANCH  47  71
BRANCH  59  82
ATOM     82  C   UNL A   1      43.737  28.692  35.205  1.00  0.00     0.064 A 
ATOM     83  C   UNL A   1      45.054  29.152  35.069  1.00  0.00     0.173 A 
ATOM     84  C   UNL A   1      43.499  27.623  36.085  1.00  0.00     0.173 A 
ATOM     85  F   UNL A   1      45.334  30.160  34.230  1.00  0.00    -0.203 F 
ATOM     86  C   UNL A   1      46.094  28.557  35.778  1.00  0.00     0.198 A 
ATOM     87  C   UNL A   1      44.537  27.051  36.814  1.00  0.00     0.198 A 
ATOM     88  F   UNL A   1      42.254  27.152  36.254  1.00  0.00    -0.203 F 
ATOM     89  F   UNL A   1      47.352  28.990  35.609  1.00  0.00    -0.200 F 
ATOM     90  C   UNL A   1      45.833  27.515  36.658  1.00  0.00     0.200 A 
ATOM     91  F   UNL A   1      44.280  26.056  37.673  1.00  0.00    -0.200 F 
ATOM     92  F   UNL A   1      46.834  26.957  37.352  1.00  0.00    -0.200 F 
ENDBRANCH  59  82
ENDBRANCH  33  34
ENDBRANCH  25  28
ENDBRANCH  23  24
ENDBRANCH   1  23
TORSDOF 13
ENDMDL
