MODEL 1
REMARK VINA RESULT:     -11.2      0.000      0.000
REMARK SMILES CCC(CC)N(CCOC)C(=O)N1CC[C@H](C(=O)NCCCNC(=O)c2ccc(-c3c4nc(c(-c5c(F)c(F)c(F)c(F)c5F)c5ccc([nH]5)c(-c5c(F)c(F)c(F)c(F)c5F)c5nc(c(-c6c(F)c(F)c(F)c(F)c6F)c6ccc3[nH]6)C=C5)C=C4)cc2)[C@@H]1C
REMARK SMILES IDX 17 1 18 2 19 3 16 5 13 6 14 7 89 8 15 9 90 10 11 11 12 12
REMARK SMILES IDX 6 13 3 14 2 15 1 16 4 17 5 18 7 19 8 20 9 21 10 22 20 23
REMARK SMILES IDX 21 24 22 25 23 26 24 27 25 29 26 30 27 31 88 32 28 33 87 34
REMARK SMILES IDX 29 35 30 36 31 37 81 38 32 39 86 40 80 41 82 42 33 43 85 44
REMARK SMILES IDX 79 45 78 46 34 48 66 49 46 50 65 51 47 52 50 53 64 54 83 55
REMARK SMILES IDX 48 56 49 57 63 59 84 60 51 61 35 62 36 63 44 64 37 65 38 66
REMARK SMILES IDX 42 67 45 68 39 69 40 70 43 71 41 72 67 73 68 74 76 75 69 76
REMARK SMILES IDX 70 77 74 78 77 79 71 80 72 81 75 82 73 83 52 84 53 85 61 86
REMARK SMILES IDX 54 87 55 88 59 89 62 90 56 91 57 92 60 93 58 94
REMARK H PARENT 19 4 23 28 82 47 50 58
REMARK Flexibility Score: inf
ROOT
ATOM      1  C   UNL A   1      31.638  29.042  24.579  1.00  0.00     0.225 C 
ATOM      2  O   UNL A   1      32.331  28.996  23.562  1.00  0.00    -0.275 OA
ATOM      3  N   UNL A   1      31.379  30.270  25.104  1.00  0.00    -0.356 N 
ATOM      4  H   UNL A   1      30.891  30.923  24.550  1.00  0.00     0.163 HD
ENDROOT
BRANCH   1   5
ATOM      5  C   UNL A   1      31.056  27.797  25.248  1.00  0.00     0.102 C 
ATOM      6  N   UNL A   1      31.938  25.578  25.660  1.00  0.00    -0.321 N 
ATOM      7  C   UNL A   1      31.483  25.621  24.291  1.00  0.00     0.122 C 
ATOM      8  C   UNL A   1      32.107  26.996  26.102  1.00  0.00     0.096 C 
ATOM      9  C   UNL A   1      30.461  26.728  24.318  1.00  0.00     0.037 C 
ATOM     10  C   UNL A   1      33.546  27.471  25.850  1.00  0.00     0.032 C 
BRANCH   6  11
ATOM     11  C   UNL A   1      32.191  24.318  26.158  1.00  0.00     0.320 C 
ATOM     12  O   UNL A   1      31.697  24.035  27.258  1.00  0.00    -0.248 OA
BRANCH  11  13
ATOM     13  N   UNL A   1      33.046  23.417  25.547  1.00  0.00    -0.319 N 
BRANCH  13  14
ATOM     14  C   UNL A   1      32.536  22.055  25.130  1.00  0.00     0.086 C 
BRANCH  14  15
ATOM     15  C   UNL A   1      31.639  22.062  23.861  1.00  0.00     0.022 C 
ATOM     16  C   UNL A   1      32.417  21.894  22.556  1.00  0.00     0.006 C 
ENDBRANCH  14  15
BRANCH  14  17
ATOM     17  C   UNL A   1      33.592  20.923  25.127  1.00  0.00     0.022 C 
ATOM     18  C   UNL A   1      33.077  19.510  25.347  1.00  0.00     0.006 C 
ENDBRANCH  14  17
ENDBRANCH  13  14
BRANCH  13  19
ATOM     19  C   UNL A   1      34.489  23.615  25.400  1.00  0.00     0.150 C 
BRANCH  19  20
ATOM     20  C   UNL A   1      34.918  24.323  24.101  1.00  0.00     0.181 C 
BRANCH  20  21
ATOM     21  O   UNL A   1      35.447  23.453  23.100  1.00  0.00    -0.383 OA
ATOM     22  C   UNL A   1      36.591  22.730  23.538  1.00  0.00     0.194 C 
ENDBRANCH  20  21
ENDBRANCH  19  20
ENDBRANCH  13  19
ENDBRANCH  11  13
ENDBRANCH   6  11
ENDBRANCH   1   5
BRANCH   3  23
ATOM     23  C   UNL A   1      31.786  30.667  26.439  1.00  0.00     0.117 C 
BRANCH  23  24
ATOM     24  C   UNL A   1      31.585  32.158  26.657  1.00  0.00     0.042 C 
BRANCH  24  25
ATOM     25  C   UNL A   1      32.763  32.830  27.344  1.00  0.00     0.118 C 
BRANCH  25  26
ATOM     26  N   UNL A   1      32.515  34.239  27.629  1.00  0.00    -0.352 N 
ATOM     27  C   UNL A   1      33.020  35.040  28.626  1.00  0.00     0.251 C 
ATOM     28  H   UNL A   1      31.888  34.685  27.014  1.00  0.00     0.163 HD
ATOM     29  O   UNL A   1      32.520  36.127  28.864  1.00  0.00    -0.269 OA
BRANCH  27  30
ATOM     30  C   UNL A   1      34.162  34.550  29.424  1.00  0.00     0.039 A 
ATOM     31  C   UNL A   1      33.931  33.975  30.674  1.00  0.00     0.014 A 
ATOM     32  C   UNL A   1      35.456  34.633  28.913  1.00  0.00     0.014 A 
ATOM     33  C   UNL A   1      34.998  33.406  31.370  1.00  0.00     0.010 A 
ATOM     34  C   UNL A   1      36.484  33.947  29.537  1.00  0.00     0.010 A 
ATOM     35  C   UNL A   1      36.274  33.347  30.785  1.00  0.00    -0.014 A 
BRANCH  35  36
ATOM     36  C   UNL A   1      37.421  32.703  31.470  1.00  0.00     0.031 A 
ATOM     37  C   UNL A   1      38.140  31.562  30.800  1.00  0.00     0.074 A 
ATOM     38  C   UNL A   1      37.765  33.090  32.713  1.00  0.00     0.049 A 
ATOM     39  N   UNL A   1      39.101  30.804  31.260  1.00  0.00    -0.248 NA
ATOM     40  C   UNL A   1      37.688  31.198  29.447  1.00  0.00     0.031 C 
ATOM     41  C   UNL A   1      37.106  34.144  33.487  1.00  0.00     0.029 A 
ATOM     42  N   UNL A   1      38.752  32.634  33.550  1.00  0.00    -0.354 N 
ATOM     43  C   UNL A   1      39.348  29.868  30.265  1.00  0.00     0.074 A 
ATOM     44  C   UNL A   1      38.386  30.098  29.212  1.00  0.00     0.031 C 
ATOM     45  C   UNL A   1      37.731  34.280  34.666  1.00  0.00     0.029 A 
ATOM     46  C   UNL A   1      38.803  33.294  34.753  1.00  0.00     0.049 A 
ATOM     47  H   UNL A   1      39.366  31.903  33.309  1.00  0.00     0.167 HD
ATOM     48  C   UNL A   1      40.316  28.923  30.214  1.00  0.00     0.037 A 
ATOM     49  C   UNL A   1      39.622  33.116  35.806  1.00  0.00     0.037 A 
ATOM     50  C   UNL A   1      41.291  28.720  31.251  1.00  0.00     0.049 A 
ATOM     51  C   UNL A   1      40.684  32.052  35.731  1.00  0.00     0.074 A 
ATOM     52  C   UNL A   1      42.350  27.831  31.279  1.00  0.00     0.029 A 
ATOM     53  N   UNL A   1      41.322  29.421  32.448  1.00  0.00    -0.354 N 
ATOM     54  N   UNL A   1      40.957  31.219  34.754  1.00  0.00    -0.248 NA
ATOM     55  C   UNL A   1      41.558  31.907  36.903  1.00  0.00     0.031 C 
ATOM     56  C   UNL A   1      42.990  27.957  32.515  1.00  0.00     0.029 A 
ATOM     57  C   UNL A   1      42.371  28.968  33.232  1.00  0.00     0.049 A 
ATOM     58  H   UNL A   1      40.693  30.135  32.702  1.00  0.00     0.167 HD
ATOM     59  C   UNL A   1      42.052  30.479  35.177  1.00  0.00     0.074 A 
ATOM     60  C   UNL A   1      42.403  30.971  36.493  1.00  0.00     0.031 C 
ATOM     61  C   UNL A   1      42.711  29.483  34.534  1.00  0.00     0.037 A 
BRANCH  48  62
ATOM     62  C   UNL A   1      40.368  28.047  28.994  1.00  0.00     0.064 A 
ATOM     63  C   UNL A   1      39.662  26.835  28.924  1.00  0.00     0.173 A 
ATOM     64  C   UNL A   1      41.121  28.429  27.873  1.00  0.00     0.173 A 
ATOM     65  F   UNL A   1      38.937  26.414  29.973  1.00  0.00    -0.203 F 
ATOM     66  C   UNL A   1      39.737  26.023  27.796  1.00  0.00     0.198 A 
ATOM     67  C   UNL A   1      41.163  27.633  26.732  1.00  0.00     0.198 A 
ATOM     68  F   UNL A   1      41.813  29.578  27.882  1.00  0.00    -0.203 F 
ATOM     69  F   UNL A   1      39.104  24.842  27.779  1.00  0.00    -0.200 F 
ATOM     70  C   UNL A   1      40.481  26.426  26.698  1.00  0.00     0.200 A 
ATOM     71  F   UNL A   1      41.872  28.030  25.666  1.00  0.00    -0.200 F 
ATOM     72  F   UNL A   1      40.547  25.647  25.610  1.00  0.00    -0.200 F 
ENDBRANCH  48  62
BRANCH  49  73
ATOM     73  C   UNL A   1      39.496  33.985  37.007  1.00  0.00     0.064 A 
ATOM     74  C   UNL A   1      40.113  35.243  37.051  1.00  0.00     0.173 A 
ATOM     75  C   UNL A   1      38.769  33.577  38.135  1.00  0.00     0.173 A 
ATOM     76  F   UNL A   1      40.836  35.671  36.005  1.00  0.00    -0.203 F 
ATOM     77  C   UNL A   1      40.031  36.048  38.186  1.00  0.00     0.198 A 
ATOM     78  C   UNL A   1      38.660  34.397  39.257  1.00  0.00     0.198 A 
ATOM     79  F   UNL A   1      38.151  32.387  38.142  1.00  0.00    -0.203 F 
ATOM     80  F   UNL A   1      40.676  37.223  38.219  1.00  0.00    -0.200 F 
ATOM     81  C   UNL A   1      39.300  35.627  39.286  1.00  0.00     0.200 A 
ATOM     82  F   UNL A   1      37.938  33.994  40.310  1.00  0.00    -0.200 F 
ATOM     83  F   UNL A   1      39.219  36.402  40.375  1.00  0.00    -0.200 F 
ENDBRANCH  49  73
BRANCH  61  84
ATOM     84  C   UNL A   1      43.907  28.891  35.224  1.00  0.00     0.064 A 
ATOM     85  C   UNL A   1      43.798  27.786  36.078  1.00  0.00     0.173 A 
ATOM     86  C   UNL A   1      45.188  29.415  34.986  1.00  0.00     0.173 A 
ATOM     87  F   UNL A   1      42.595  27.256  36.348  1.00  0.00    -0.203 F 
ATOM     88  C   UNL A   1      44.922  27.244  36.695  1.00  0.00     0.198 A 
ATOM     89  C   UNL A   1      46.314  28.849  35.575  1.00  0.00     0.198 A 
ATOM     90  F   UNL A   1      45.348  30.466  34.169  1.00  0.00    -0.203 F 
ATOM     91  F   UNL A   1      44.788  26.223  37.551  1.00  0.00    -0.200 F 
ATOM     92  C   UNL A   1      46.180  27.770  36.436  1.00  0.00     0.200 A 
ATOM     93  F   UNL A   1      47.529  29.347  35.309  1.00  0.00    -0.200 F 
ATOM     94  F   UNL A   1      47.263  27.242  37.022  1.00  0.00    -0.200 F 
ENDBRANCH  61  84
ENDBRANCH  35  36
ENDBRANCH  27  30
ENDBRANCH  25  26
ENDBRANCH  24  25
ENDBRANCH  23  24
ENDBRANCH   3  23
TORSDOF 18
ENDMDL
MODEL 2
REMARK VINA RESULT:     -11.2      0.706      2.382
REMARK SMILES CCC(CC)N(CCOC)C(=O)N1CC[C@H](C(=O)NCCCNC(=O)c2ccc(-c3c4nc(c(-c5c(F)c(F)c(F)c(F)c5F)c5ccc([nH]5)c(-c5c(F)c(F)c(F)c(F)c5F)c5nc(c(-c6c(F)c(F)c(F)c(F)c6F)c6ccc3[nH]6)C=C5)C=C4)cc2)[C@@H]1C
REMARK SMILES IDX 17 1 18 2 19 3 16 5 13 6 14 7 89 8 15 9 90 10 11 11 12 12
REMARK SMILES IDX 6 13 3 14 2 15 1 16 4 17 5 18 7 19 8 20 9 21 10 22 20 23
REMARK SMILES IDX 21 24 22 25 23 26 24 27 25 29 26 30 27 31 88 32 28 33 87 34
REMARK SMILES IDX 29 35 30 36 31 37 81 38 32 39 86 40 80 41 82 42 33 43 85 44
REMARK SMILES IDX 79 45 78 46 34 48 66 49 46 50 65 51 47 52 50 53 64 54 83 55
REMARK SMILES IDX 48 56 49 57 63 59 84 60 51 61 35 62 36 63 44 64 37 65 38 66
REMARK SMILES IDX 42 67 45 68 39 69 40 70 43 71 41 72 67 73 68 74 76 75 69 76
REMARK SMILES IDX 70 77 74 78 77 79 71 80 72 81 75 82 73 83 52 84 53 85 61 86
REMARK SMILES IDX 54 87 55 88 59 89 62 90 56 91 57 92 60 93 58 94
REMARK H PARENT 19 4 23 28 82 47 50 58
REMARK Flexibility Score: inf
ROOT
ATOM      1  C   UNL A   1      31.441  28.897  24.586  1.00  0.00     0.225 C 
ATOM      2  O   UNL A   1      32.004  28.798  23.496  1.00  0.00    -0.275 OA
ATOM      3  N   UNL A   1      31.293  30.147  25.102  1.00  0.00    -0.356 N 
ATOM      4  H   UNL A   1      30.767  30.806  24.591  1.00  0.00     0.163 HD
ENDROOT
BRANCH   1   5
ATOM      5  C   UNL A   1      30.898  27.694  25.357  1.00  0.00     0.102 C 
ATOM      6  N   UNL A   1      31.742  25.453  25.730  1.00  0.00    -0.321 N 
ATOM      7  C   UNL A   1      31.129  25.479  24.423  1.00  0.00     0.122 C 
ATOM      8  C   UNL A   1      32.013  26.875  26.105  1.00  0.00     0.096 C 
ATOM      9  C   UNL A   1      30.158  26.625  24.536  1.00  0.00     0.037 C 
ATOM     10  C   UNL A   1      33.429  27.285  25.672  1.00  0.00     0.032 C 
BRANCH   6  11
ATOM     11  C   UNL A   1      32.006  24.197  26.233  1.00  0.00     0.320 C 
ATOM     12  O   UNL A   1      31.558  23.932  27.356  1.00  0.00    -0.248 OA
BRANCH  11  13
ATOM     13  N   UNL A   1      32.827  23.282  25.597  1.00  0.00    -0.319 N 
BRANCH  13  14
ATOM     14  C   UNL A   1      34.123  23.739  24.966  1.00  0.00     0.086 C 
BRANCH  14  15
ATOM     15  C   UNL A   1      35.345  23.733  25.925  1.00  0.00     0.022 C 
ATOM     16  C   UNL A   1      36.694  23.770  25.205  1.00  0.00     0.006 C 
ENDBRANCH  14  15
BRANCH  14  17
ATOM     17  C   UNL A   1      34.434  23.137  23.574  1.00  0.00     0.022 C 
ATOM     18  C   UNL A   1      33.588  23.634  22.413  1.00  0.00     0.006 C 
ENDBRANCH  14  17
ENDBRANCH  13  14
BRANCH  13  19
ATOM     19  C   UNL A   1      32.466  21.886  25.339  1.00  0.00     0.150 C 
BRANCH  19  20
ATOM     20  C   UNL A   1      33.306  20.847  26.108  1.00  0.00     0.181 C 
BRANCH  20  21
ATOM     21  O   UNL A   1      33.140  19.503  25.656  1.00  0.00    -0.383 OA
ATOM     22  C   UNL A   1      32.502  19.414  24.388  1.00  0.00     0.194 C 
ENDBRANCH  20  21
ENDBRANCH  19  20
ENDBRANCH  13  19
ENDBRANCH  11  13
ENDBRANCH   6  11
ENDBRANCH   1   5
BRANCH   3  23
ATOM     23  C   UNL A   1      31.873  30.561  26.367  1.00  0.00     0.117 C 
BRANCH  23  24
ATOM     24  C   UNL A   1      31.647  32.042  26.620  1.00  0.00     0.042 C 
BRANCH  24  25
ATOM     25  C   UNL A   1      32.800  32.712  27.349  1.00  0.00     0.118 C 
BRANCH  25  26
ATOM     26  N   UNL A   1      32.539  34.118  27.637  1.00  0.00    -0.352 N 
ATOM     27  C   UNL A   1      33.032  34.920  28.640  1.00  0.00     0.251 C 
ATOM     28  H   UNL A   1      31.914  34.561  27.019  1.00  0.00     0.163 HD
ATOM     29  O   UNL A   1      32.522  36.002  28.878  1.00  0.00    -0.269 OA
BRANCH  27  30
ATOM     30  C   UNL A   1      34.171  34.436  29.444  1.00  0.00     0.039 A 
ATOM     31  C   UNL A   1      33.931  33.769  30.646  1.00  0.00     0.014 A 
ATOM     32  C   UNL A   1      35.475  34.617  28.985  1.00  0.00     0.014 A 
ATOM     33  C   UNL A   1      35.004  33.209  31.342  1.00  0.00     0.010 A 
ATOM     34  C   UNL A   1      36.517  33.943  29.600  1.00  0.00     0.010 A 
ATOM     35  C   UNL A   1      36.299  33.253  30.798  1.00  0.00    -0.014 A 
BRANCH  35  36
ATOM     36  C   UNL A   1      37.456  32.623  31.481  1.00  0.00     0.031 A 
ATOM     37  C   UNL A   1      38.179  31.483  30.815  1.00  0.00     0.074 A 
ATOM     38  C   UNL A   1      37.805  33.023  32.719  1.00  0.00     0.049 A 
ATOM     39  N   UNL A   1      39.150  30.736  31.274  1.00  0.00    -0.248 NA
ATOM     40  C   UNL A   1      37.721  31.104  29.468  1.00  0.00     0.031 C 
ATOM     41  C   UNL A   1      37.143  34.078  33.489  1.00  0.00     0.029 A 
ATOM     42  N   UNL A   1      38.801  32.581  33.552  1.00  0.00    -0.354 N 
ATOM     43  C   UNL A   1      39.397  29.794  30.285  1.00  0.00     0.074 A 
ATOM     44  C   UNL A   1      38.426  30.009  29.237  1.00  0.00     0.031 C 
ATOM     45  C   UNL A   1      37.775  34.228  34.663  1.00  0.00     0.029 A 
ATOM     46  C   UNL A   1      38.855  33.251  34.750  1.00  0.00     0.049 A 
ATOM     47  H   UNL A   1      39.419  31.853  33.313  1.00  0.00     0.167 HD
ATOM     48  C   UNL A   1      40.372  28.856  30.235  1.00  0.00     0.037 A 
ATOM     49  C   UNL A   1      39.682  33.088  35.799  1.00  0.00     0.037 A 
ATOM     50  C   UNL A   1      41.356  28.670  31.267  1.00  0.00     0.049 A 
ATOM     51  C   UNL A   1      40.753  32.031  35.724  1.00  0.00     0.074 A 
ATOM     52  C   UNL A   1      42.422  27.789  31.295  1.00  0.00     0.029 A 
ATOM     53  N   UNL A   1      41.389  29.380  32.458  1.00  0.00    -0.354 N 
ATOM     54  N   UNL A   1      41.025  31.193  34.752  1.00  0.00    -0.248 NA
ATOM     55  C   UNL A   1      41.635  31.902  36.892  1.00  0.00     0.031 C 
ATOM     56  C   UNL A   1      43.069  27.929  32.525  1.00  0.00     0.029 A 
ATOM     57  C   UNL A   1      42.447  28.941  33.238  1.00  0.00     0.049 A 
ATOM     58  H   UNL A   1      40.757  30.091  32.711  1.00  0.00     0.167 HD
ATOM     59  C   UNL A   1      42.129  30.465  35.174  1.00  0.00     0.074 A 
ATOM     60  C   UNL A   1      42.485  30.970  36.484  1.00  0.00     0.031 C 
ATOM     61  C   UNL A   1      42.791  29.469  34.534  1.00  0.00     0.037 A 
BRANCH  48  62
ATOM     62  C   UNL A   1      40.423  27.972  29.021  1.00  0.00     0.064 A 
ATOM     63  C   UNL A   1      41.187  28.311  27.892  1.00  0.00     0.173 A 
ATOM     64  C   UNL A   1      39.712  26.763  28.988  1.00  0.00     0.173 A 
ATOM     65  F   UNL A   1      41.876  29.462  27.863  1.00  0.00    -0.203 F 
ATOM     66  C   UNL A   1      41.207  27.492  26.766  1.00  0.00     0.198 A 
ATOM     67  C   UNL A   1      39.765  25.929  27.875  1.00  0.00     0.198 A 
ATOM     68  F   UNL A   1      38.968  26.387  30.039  1.00  0.00    -0.203 F 
ATOM     69  F   UNL A   1      41.894  27.870  25.678  1.00  0.00    -0.200 F 
ATOM     70  C   UNL A   1      40.502  26.299  26.761  1.00  0.00     0.200 A 
ATOM     71  F   UNL A   1      39.094  24.768  27.877  1.00  0.00    -0.200 F 
ATOM     72  F   UNL A   1      40.528  25.509  25.679  1.00  0.00    -0.200 F 
ENDBRANCH  48  62
BRANCH  49  73
ATOM     73  C   UNL A   1      39.558  33.964  36.993  1.00  0.00     0.064 A 
ATOM     74  C   UNL A   1      38.791  33.569  38.099  1.00  0.00     0.173 A 
ATOM     75  C   UNL A   1      40.191  35.215  37.055  1.00  0.00     0.173 A 
ATOM     76  F   UNL A   1      38.151  32.390  38.081  1.00  0.00    -0.203 F 
ATOM     77  C   UNL A   1      38.639  34.401  39.207  1.00  0.00     0.198 A 
ATOM     78  C   UNL A   1      40.065  36.032  38.178  1.00  0.00     0.198 A 
ATOM     79  F   UNL A   1      40.944  35.638  36.030  1.00  0.00    -0.203 F 
ATOM     80  F   UNL A   1      37.856  34.018  40.226  1.00  0.00    -0.200 F 
ATOM     81  C   UNL A   1      39.281  35.628  39.248  1.00  0.00     0.200 A 
ATOM     82  F   UNL A   1      40.701  37.209  38.221  1.00  0.00    -0.200 F 
ATOM     83  F   UNL A   1      39.137  36.426  40.315  1.00  0.00    -0.200 F 
ENDBRANCH  49  73
BRANCH  61  84
ATOM     84  C   UNL A   1      43.996  28.892  35.220  1.00  0.00     0.064 A 
ATOM     85  C   UNL A   1      45.281  29.421  35.030  1.00  0.00     0.173 A 
ATOM     86  C   UNL A   1      43.852  27.821  36.116  1.00  0.00     0.173 A 
ATOM     87  F   UNL A   1      45.474  30.436  34.175  1.00  0.00    -0.203 F 
ATOM     88  C   UNL A   1      46.382  28.880  35.688  1.00  0.00     0.198 A 
ATOM     89  C   UNL A   1      44.949  27.306  36.800  1.00  0.00     0.198 A 
ATOM     90  F   UNL A   1      42.644  27.285  36.341  1.00  0.00    -0.203 F 
ATOM     91  F   UNL A   1      47.607  29.366  35.450  1.00  0.00    -0.200 F 
ATOM     92  C   UNL A   1      46.214  27.830  36.579  1.00  0.00     0.200 A 
ATOM     93  F   UNL A   1      44.782  26.305  37.673  1.00  0.00    -0.200 F 
ATOM     94  F   UNL A   1      47.273  27.316  37.219  1.00  0.00    -0.200 F 
ENDBRANCH  61  84
ENDBRANCH  35  36
ENDBRANCH  27  30
ENDBRANCH  25  26
ENDBRANCH  24  25
ENDBRANCH  23  24
ENDBRANCH   3  23
TORSDOF 18
ENDMDL
MODEL 3
REMARK VINA RESULT:     -11.1      5.255     10.702
REMARK SMILES CCC(CC)N(CCOC)C(=O)N1CC[C@H](C(=O)NCCCNC(=O)c2ccc(-c3c4nc(c(-c5c(F)c(F)c(F)c(F)c5F)c5ccc([nH]5)c(-c5c(F)c(F)c(F)c(F)c5F)c5nc(c(-c6c(F)c(F)c(F)c(F)c6F)c6ccc3[nH]6)C=C5)C=C4)cc2)[C@@H]1C
REMARK SMILES IDX 17 1 18 2 19 3 16 5 13 6 14 7 89 8 15 9 90 10 11 11 12 12
REMARK SMILES IDX 6 13 3 14 2 15 1 16 4 17 5 18 7 19 8 20 9 21 10 22 20 23
REMARK SMILES IDX 21 24 22 25 23 26 24 27 25 29 26 30 27 31 88 32 28 33 87 34
REMARK SMILES IDX 29 35 30 36 31 37 81 38 32 39 86 40 80 41 82 42 33 43 85 44
REMARK SMILES IDX 79 45 78 46 34 48 66 49 46 50 65 51 47 52 50 53 64 54 83 55
REMARK SMILES IDX 48 56 49 57 63 59 84 60 51 61 35 62 36 63 44 64 37 65 38 66
REMARK SMILES IDX 42 67 45 68 39 69 40 70 43 71 41 72 67 73 68 74 76 75 69 76
REMARK SMILES IDX 70 77 74 78 77 79 71 80 72 81 75 82 73 83 52 84 53 85 61 86
REMARK SMILES IDX 54 87 55 88 59 89 62 90 56 91 57 92 60 93 58 94
REMARK H PARENT 19 4 23 28 82 47 50 58
REMARK Flexibility Score: inf
ROOT
ATOM      1  C   UNL A   1      34.303  21.527  24.727  1.00  0.00     0.225 C 
ATOM      2  O   UNL A   1      33.437  21.440  25.597  1.00  0.00    -0.275 OA
ATOM      3  N   UNL A   1      35.398  20.730  24.853  1.00  0.00    -0.356 N 
ATOM      4  H   UNL A   1      35.269  19.753  24.851  1.00  0.00     0.163 HD
ENDROOT
BRANCH   1   5
ATOM      5  C   UNL A   1      34.188  22.467  23.527  1.00  0.00     0.102 C 
ATOM      6  N   UNL A   1      33.476  24.772  23.296  1.00  0.00    -0.321 N 
ATOM      7  C   UNL A   1      32.290  23.951  23.355  1.00  0.00     0.122 C 
ATOM      8  C   UNL A   1      34.595  23.951  23.852  1.00  0.00     0.096 C 
ATOM      9  C   UNL A   1      32.795  22.608  22.893  1.00  0.00     0.037 C 
ATOM     10  C   UNL A   1      34.744  24.198  25.361  1.00  0.00     0.032 C 
BRANCH   6  11
ATOM     11  C   UNL A   1      33.276  26.066  22.865  1.00  0.00     0.320 C 
ATOM     12  O   UNL A   1      33.724  26.367  21.751  1.00  0.00    -0.248 OA
BRANCH  11  13
ATOM     13  N   UNL A   1      32.708  27.050  23.656  1.00  0.00    -0.319 N 
BRANCH  13  14
ATOM     14  C   UNL A   1      32.795  26.953  25.163  1.00  0.00     0.086 C 
BRANCH  14  15
ATOM     15  C   UNL A   1      33.900  27.838  25.803  1.00  0.00     0.022 C 
ATOM     16  C   UNL A   1      33.504  28.437  27.153  1.00  0.00     0.006 C 
ENDBRANCH  14  15
BRANCH  14  17
ATOM     17  C   UNL A   1      31.443  27.024  25.912  1.00  0.00     0.022 C 
ATOM     18  C   UNL A   1      30.554  25.793  25.832  1.00  0.00     0.006 C 
ENDBRANCH  14  17
ENDBRANCH  13  14
BRANCH  13  19
ATOM     19  C   UNL A   1      31.868  28.137  23.148  1.00  0.00     0.150 C 
BRANCH  19  20
ATOM     20  C   UNL A   1      30.569  27.683  22.455  1.00  0.00     0.181 C 
BRANCH  20  21
ATOM     21  O   UNL A   1      29.384  27.898  23.221  1.00  0.00    -0.383 OA
ATOM     22  C   UNL A   1      28.516  28.866  22.647  1.00  0.00     0.194 C 
ENDBRANCH  20  21
ENDBRANCH  19  20
ENDBRANCH  13  19
ENDBRANCH  11  13
ENDBRANCH   6  11
ENDBRANCH   1   5
BRANCH   3  23
ATOM     23  C   UNL A   1      36.748  21.247  24.992  1.00  0.00     0.117 C 
BRANCH  23  24
ATOM     24  C   UNL A   1      37.762  20.120  25.091  1.00  0.00     0.042 C 
BRANCH  24  25
ATOM     25  C   UNL A   1      39.055  20.532  25.777  1.00  0.00     0.118 C 
BRANCH  25  26
ATOM     26  N   UNL A   1      40.004  19.430  25.891  1.00  0.00    -0.352 N 
ATOM     27  C   UNL A   1      41.366  19.454  26.080  1.00  0.00     0.251 C 
ATOM     28  H   UNL A   1      39.609  18.531  25.821  1.00  0.00     0.163 HD
ATOM     29  O   UNL A   1      42.036  18.449  25.908  1.00  0.00    -0.269 OA
BRANCH  27  30
ATOM     30  C   UNL A   1      42.010  20.725  26.467  1.00  0.00     0.039 A 
ATOM     31  C   UNL A   1      42.457  21.599  25.475  1.00  0.00     0.014 A 
ATOM     32  C   UNL A   1      42.137  21.060  27.814  1.00  0.00     0.014 A 
ATOM     33  C   UNL A   1      42.954  22.850  25.843  1.00  0.00     0.010 A 
ATOM     34  C   UNL A   1      42.497  22.350  28.168  1.00  0.00     0.010 A 
ATOM     35  C   UNL A   1      42.934  23.252  27.189  1.00  0.00    -0.014 A 
BRANCH  35  36
ATOM     36  C   UNL A   1      43.404  24.593  27.614  1.00  0.00     0.031 A 
ATOM     37  C   UNL A   1      42.397  25.651  27.977  1.00  0.00     0.074 A 
ATOM     38  C   UNL A   1      44.720  24.880  27.600  1.00  0.00     0.049 A 
ATOM     39  N   UNL A   1      42.589  26.908  28.284  1.00  0.00    -0.248 NA
ATOM     40  C   UNL A   1      40.980  25.253  27.952  1.00  0.00     0.031 C 
ATOM     41  C   UNL A   1      45.786  23.954  27.211  1.00  0.00     0.029 A 
ATOM     42  N   UNL A   1      45.385  26.037  27.915  1.00  0.00    -0.354 N 
ATOM     43  C   UNL A   1      41.322  27.448  28.463  1.00  0.00     0.074 A 
ATOM     44  C   UNL A   1      40.367  26.409  28.155  1.00  0.00     0.031 C 
ATOM     45  C   UNL A   1      46.972  24.568  27.348  1.00  0.00     0.029 A 
ATOM     46  C   UNL A   1      46.749  25.941  27.788  1.00  0.00     0.049 A 
ATOM     47  H   UNL A   1      44.927  26.859  28.205  1.00  0.00     0.167 HD
ATOM     48  C   UNL A   1      40.983  28.688  28.886  1.00  0.00     0.037 A 
ATOM     49  C   UNL A   1      47.708  26.862  28.000  1.00  0.00     0.037 A 
ATOM     50  C   UNL A   1      41.940  29.707  29.223  1.00  0.00     0.049 A 
ATOM     51  C   UNL A   1      47.306  28.238  28.460  1.00  0.00     0.074 A 
ATOM     52  C   UNL A   1      41.710  30.979  29.715  1.00  0.00     0.029 A 
ATOM     53  N   UNL A   1      43.314  29.566  29.100  1.00  0.00    -0.354 N 
ATOM     54  N   UNL A   1      46.108  28.717  28.698  1.00  0.00    -0.248 NA
ATOM     55  C   UNL A   1      48.392  29.201  28.688  1.00  0.00     0.031 C 
ATOM     56  C   UNL A   1      42.942  31.626  29.839  1.00  0.00     0.029 A 
ATOM     57  C   UNL A   1      43.945  30.738  29.486  1.00  0.00     0.049 A 
ATOM     58  H   UNL A   1      43.774  28.754  28.785  1.00  0.00     0.167 HD
ATOM     59  C   UNL A   1      46.296  30.020  29.137  1.00  0.00     0.074 A 
ATOM     60  C   UNL A   1      47.726  30.253  29.145  1.00  0.00     0.031 C 
ATOM     61  C   UNL A   1      45.371  30.942  29.501  1.00  0.00     0.037 A 
BRANCH  48  62
ATOM     62  C   UNL A   1      39.519  29.002  29.014  1.00  0.00     0.064 A 
ATOM     63  C   UNL A   1      38.749  29.393  27.906  1.00  0.00     0.173 A 
ATOM     64  C   UNL A   1      38.872  28.899  30.254  1.00  0.00     0.173 A 
ATOM     65  F   UNL A   1      39.319  29.523  26.698  1.00  0.00    -0.203 F 
ATOM     66  C   UNL A   1      37.398  29.702  28.043  1.00  0.00     0.198 A 
ATOM     67  C   UNL A   1      37.514  29.172  30.380  1.00  0.00     0.198 A 
ATOM     68  F   UNL A   1      39.558  28.527  31.346  1.00  0.00    -0.203 F 
ATOM     69  F   UNL A   1      36.701  30.133  26.982  1.00  0.00    -0.200 F 
ATOM     70  C   UNL A   1      36.780  29.585  29.278  1.00  0.00     0.200 A 
ATOM     71  F   UNL A   1      36.913  29.044  31.572  1.00  0.00    -0.200 F 
ATOM     72  F   UNL A   1      35.478  29.876  29.407  1.00  0.00    -0.200 F 
ENDBRANCH  48  62
BRANCH  49  73
ATOM     73  C   UNL A   1      49.140  26.507  27.816  1.00  0.00     0.064 A 
ATOM     74  C   UNL A   1      49.968  26.264  28.922  1.00  0.00     0.173 A 
ATOM     75  C   UNL A   1      49.715  26.411  26.540  1.00  0.00     0.173 A 
ATOM     76  F   UNL A   1      49.471  26.361  30.164  1.00  0.00    -0.203 F 
ATOM     77  C   UNL A   1      51.320  25.967  28.759  1.00  0.00     0.198 A 
ATOM     78  C   UNL A   1      51.059  26.081  26.378  1.00  0.00     0.198 A 
ATOM     79  F   UNL A   1      48.966  26.624  25.449  1.00  0.00    -0.203 F 
ATOM     80  F   UNL A   1      52.099  25.792  29.837  1.00  0.00    -0.200 F 
ATOM     81  C   UNL A   1      51.863  25.870  27.488  1.00  0.00     0.200 A 
ATOM     82  F   UNL A   1      51.576  25.971  25.147  1.00  0.00    -0.200 F 
ATOM     83  F   UNL A   1      53.162  25.581  27.332  1.00  0.00    -0.200 F 
ENDBRANCH  49  73
BRANCH  61  84
ATOM     84  C   UNL A   1      45.877  32.270  29.986  1.00  0.00     0.064 A 
ATOM     85  C   UNL A   1      46.054  33.357  29.119  1.00  0.00     0.173 A 
ATOM     86  C   UNL A   1      46.144  32.467  31.351  1.00  0.00     0.173 A 
ATOM     87  F   UNL A   1      45.825  33.218  27.805  1.00  0.00    -0.203 F 
ATOM     88  C   UNL A   1      46.509  34.584  29.594  1.00  0.00     0.198 A 
ATOM     89  C   UNL A   1      46.564  33.705  31.828  1.00  0.00     0.198 A 
ATOM     90  F   UNL A   1      45.981  31.462  32.224  1.00  0.00    -0.203 F 
ATOM     91  F   UNL A   1      46.724  35.593  28.739  1.00  0.00    -0.200 F 
ATOM     92  C   UNL A   1      46.755  34.759  30.948  1.00  0.00     0.200 A 
ATOM     93  F   UNL A   1      46.783  33.876  33.138  1.00  0.00    -0.200 F 
ATOM     94  F   UNL A   1      47.184  35.944  31.406  1.00  0.00    -0.200 F 
ENDBRANCH  61  84
ENDBRANCH  35  36
ENDBRANCH  27  30
ENDBRANCH  25  26
ENDBRANCH  24  25
ENDBRANCH  23  24
ENDBRANCH   3  23
TORSDOF 18
ENDMDL
