MODEL 1
REMARK VINA RESULT:     -14.3      0.000      0.000
REMARK SMILES O=C(NCCCNC(=O)[C@@H]1CCCN1S(=O)(=O)c1ccc2c3c(cccc13)C(=O)N2)c1ccc(-c2c3nc(c(-c4c(F)c(F)c(F)c(F)c4F)c4ccc([nH]4)c(-c4c(F)c(F)c(F)c(F)c4F)c4nc(c(-c5c(F)c(F)c(F)c(F)c5F)c5ccc2[nH]5)C=C4)C=C3)cc1
REMARK SMILES IDX 5 1 4 2 3 3 1 4 2 5 31 7 32 8 93 9 33 10 92 11 34 12 35 13
REMARK SMILES IDX 36 14 86 15 37 16 91 17 85 18 87 19 38 20 90 21 84 22 83 23
REMARK SMILES IDX 39 25 71 26 51 27 70 28 52 29 55 30 69 31 88 32 53 33 54 34
REMARK SMILES IDX 68 36 89 37 56 38 40 39 41 40 49 41 42 42 43 43 47 44 50 45
REMARK SMILES IDX 44 46 45 47 48 48 46 49 72 50 73 51 81 52 74 53 75 54 79 55
REMARK SMILES IDX 82 56 76 57 77 58 80 59 78 60 57 61 58 62 66 63 59 64 60 65
REMARK SMILES IDX 64 66 67 67 61 68 62 69 65 70 63 71 6 72 7 73 8 74 9 76
REMARK SMILES IDX 10 77 11 78 14 79 12 80 13 81 15 82 16 83 17 84 18 85 19 86
REMARK SMILES IDX 27 87 20 88 22 89 26 90 21 91 23 92 25 93 30 94 24 95 28 96
REMARK SMILES IDX 29 98
REMARK H PARENT 3 6 87 24 55 35 7 75 30 97
REMARK Flexibility Score: inf
ROOT
ATOM      1  C   UNL A   1      33.941  28.831  23.832  1.00  0.00     0.042 C 
ENDROOT
BRANCH   1   2
ATOM      2  C   UNL A   1      33.053  28.766  25.070  1.00  0.00     0.118 C 
BRANCH   2   3
ATOM      3  N   UNL A   1      32.595  30.082  25.466  1.00  0.00    -0.352 N 
ATOM      4  O   UNL A   1      32.267  31.762  26.920  1.00  0.00    -0.269 OA
ATOM      5  C   UNL A   1      32.989  30.843  26.542  1.00  0.00     0.251 C 
ATOM      6  H   UNL A   1      31.908  30.486  24.887  1.00  0.00     0.163 HD
BRANCH   5   7
ATOM      7  C   UNL A   1      34.267  30.587  27.254  1.00  0.00     0.039 A 
ATOM      8  C   UNL A   1      35.118  31.629  27.626  1.00  0.00     0.014 A 
ATOM      9  C   UNL A   1      34.551  29.288  27.690  1.00  0.00     0.014 A 
ATOM     10  C   UNL A   1      36.274  31.359  28.374  1.00  0.00     0.010 A 
ATOM     11  C   UNL A   1      35.693  29.027  28.464  1.00  0.00     0.010 A 
ATOM     12  C   UNL A   1      36.585  30.057  28.801  1.00  0.00    -0.014 A 
BRANCH  12  13
ATOM     13  C   UNL A   1      37.808  29.779  29.624  1.00  0.00     0.031 A 
ATOM     14  C   UNL A   1      38.904  28.867  29.120  1.00  0.00     0.074 A 
ATOM     15  C   UNL A   1      37.950  30.349  30.838  1.00  0.00     0.049 A 
ATOM     16  N   UNL A   1      40.014  28.492  29.713  1.00  0.00    -0.248 NA
ATOM     17  C   UNL A   1      38.746  28.314  27.766  1.00  0.00     0.031 C 
ATOM     18  C   UNL A   1      37.000  31.274  31.456  1.00  0.00     0.029 A 
ATOM     19  N   UNL A   1      38.951  30.235  31.777  1.00  0.00    -0.354 N 
ATOM     20  C   UNL A   1      40.690  27.688  28.802  1.00  0.00     0.074 A 
ATOM     21  C   UNL A   1      39.853  27.593  27.626  1.00  0.00     0.031 C 
ATOM     22  C   UNL A   1      37.472  31.664  32.650  1.00  0.00     0.029 A 
ATOM     23  C   UNL A   1      38.724  30.965  32.920  1.00  0.00     0.049 A 
ATOM     24  H   UNL A   1      39.756  29.683  31.641  1.00  0.00     0.167 HD
ATOM     25  C   UNL A   1      41.903  27.093  28.925  1.00  0.00     0.037 A 
ATOM     26  C   UNL A   1      39.424  31.047  34.070  1.00  0.00     0.037 A 
ATOM     27  C   UNL A   1      42.733  27.141  30.103  1.00  0.00     0.049 A 
ATOM     28  C   UNL A   1      40.690  30.248  34.230  1.00  0.00     0.074 A 
ATOM     29  C   UNL A   1      43.958  26.531  30.320  1.00  0.00     0.029 A 
ATOM     30  N   UNL A   1      42.422  27.828  31.266  1.00  0.00    -0.354 N 
ATOM     31  N   UNL A   1      41.322  29.506  33.354  1.00  0.00    -0.248 NA
ATOM     32  C   UNL A   1      41.340  30.297  35.549  1.00  0.00     0.031 C 
ATOM     33  C   UNL A   1      44.362  26.803  31.630  1.00  0.00     0.029 A 
ATOM     34  C   UNL A   1      43.419  27.632  32.210  1.00  0.00     0.049 A 
ATOM     35  H   UNL A   1      41.614  28.374  31.401  1.00  0.00     0.167 HD
ATOM     36  C   UNL A   1      42.455  29.030  34.003  1.00  0.00     0.074 A 
ATOM     37  C   UNL A   1      42.439  29.588  35.337  1.00  0.00     0.031 C 
ATOM     38  C   UNL A   1      43.415  28.199  33.534  1.00  0.00     0.037 A 
BRANCH  25  39
ATOM     39  C   UNL A   1      42.441  26.326  27.749  1.00  0.00     0.064 A 
ATOM     40  C   UNL A   1      43.339  26.918  26.850  1.00  0.00     0.173 A 
ATOM     41  C   UNL A   1      42.171  24.956  27.601  1.00  0.00     0.173 A 
ATOM     42  F   UNL A   1      43.624  28.226  26.944  1.00  0.00    -0.203 F 
ATOM     43  C   UNL A   1      43.953  26.168  25.850  1.00  0.00     0.198 A 
ATOM     44  C   UNL A   1      42.805  24.203  26.615  1.00  0.00     0.198 A 
ATOM     45  F   UNL A   1      41.329  24.339  28.442  1.00  0.00    -0.203 F 
ATOM     46  F   UNL A   1      44.804  26.756  24.998  1.00  0.00    -0.200 F 
ATOM     47  C   UNL A   1      43.697  24.809  25.743  1.00  0.00     0.200 A 
ATOM     48  F   UNL A   1      42.571  22.887  26.524  1.00  0.00    -0.200 F 
ATOM     49  F   UNL A   1      44.314  24.081  24.801  1.00  0.00    -0.200 F 
ENDBRANCH  25  39
BRANCH  26  50
ATOM     50  C   UNL A   1      38.942  31.907  35.186  1.00  0.00     0.064 A 
ATOM     51  C   UNL A   1      39.265  33.270  35.234  1.00  0.00     0.173 A 
ATOM     52  C   UNL A   1      38.198  31.379  36.252  1.00  0.00     0.173 A 
ATOM     53  F   UNL A   1      40.004  33.818  34.257  1.00  0.00    -0.203 F 
ATOM     54  C   UNL A   1      38.889  34.064  36.316  1.00  0.00     0.198 A 
ATOM     55  C   UNL A   1      37.788  32.181  37.314  1.00  0.00     0.198 A 
ATOM     56  F   UNL A   1      37.868  30.078  36.264  1.00  0.00    -0.203 F 
ATOM     57  F   UNL A   1      39.272  35.347  36.368  1.00  0.00    -0.200 F 
ATOM     58  C   UNL A   1      38.144  33.521  37.351  1.00  0.00     0.200 A 
ATOM     59  F   UNL A   1      37.059  31.654  38.308  1.00  0.00    -0.200 F 
ATOM     60  F   UNL A   1      37.786  34.283  38.393  1.00  0.00    -0.200 F 
ENDBRANCH  26  50
BRANCH  38  61
ATOM     61  C   UNL A   1      44.558  27.863  34.453  1.00  0.00     0.064 A 
ATOM     62  C   UNL A   1      45.706  28.666  34.523  1.00  0.00     0.173 A 
ATOM     63  C   UNL A   1      44.489  26.746  35.299  1.00  0.00     0.173 A 
ATOM     64  F   UNL A   1      45.830  29.739  33.728  1.00  0.00    -0.203 F 
ATOM     65  C   UNL A   1      46.755  28.344  35.381  1.00  0.00     0.198 A 
ATOM     66  C   UNL A   1      45.523  26.448  36.183  1.00  0.00     0.198 A 
ATOM     67  F   UNL A   1      43.410  25.949  35.283  1.00  0.00    -0.203 F 
ATOM     68  F   UNL A   1      47.866  29.095  35.388  1.00  0.00    -0.200 F 
ATOM     69  C   UNL A   1      46.660  27.241  36.216  1.00  0.00     0.200 A 
ATOM     70  F   UNL A   1      45.421  25.393  37.002  1.00  0.00    -0.200 F 
ATOM     71  F   UNL A   1      47.667  26.939  37.047  1.00  0.00    -0.200 F 
ENDBRANCH  38  61
ENDBRANCH  12  13
ENDBRANCH   5   7
ENDBRANCH   2   3
ENDBRANCH   1   2
BRANCH   1  72
ATOM     72  C   UNL A   1      33.253  28.760  22.469  1.00  0.00     0.117 C 
BRANCH  72  73
ATOM     73  N   UNL A   1      33.506  27.532  21.743  1.00  0.00    -0.355 N 
ATOM     74  C   UNL A   1      32.878  26.334  21.711  1.00  0.00     0.238 C 
ATOM     75  H   UNL A   1      34.295  27.578  21.156  1.00  0.00     0.163 HD
ATOM     76  O   UNL A   1      33.252  25.572  20.806  1.00  0.00    -0.273 OA
BRANCH  74  77
ATOM     77  C   UNL A   1      31.788  25.876  22.653  1.00  0.00     0.162 C 
ATOM     78  C   UNL A   1      30.657  26.899  22.775  1.00  0.00     0.032 C 
ATOM     79  N   UNL A   1      31.916  25.226  23.978  1.00  0.00    -0.185 NA
ATOM     80  C   UNL A   1      29.783  26.337  23.877  1.00  0.00     0.019 C 
ATOM     81  C   UNL A   1      30.782  25.717  24.833  1.00  0.00     0.103 C 
BRANCH  79  82
ATOM     82  S   UNL A   1      33.285  24.902  24.899  1.00  0.00     0.244 S 
ATOM     83  O   UNL A   1      34.403  25.233  24.037  1.00  0.00    -0.207 OA
ATOM     84  O   UNL A   1      33.116  25.628  26.141  1.00  0.00    -0.207 OA
BRANCH  82  85
ATOM     85  C   UNL A   1      33.451  23.197  25.353  1.00  0.00     0.090 A 
ATOM     86  C   UNL A   1      33.976  22.803  26.601  1.00  0.00     0.024 A 
ATOM     87  C   UNL A   1      32.972  22.213  24.433  1.00  0.00     0.005 A 
ATOM     88  C   UNL A   1      33.861  21.477  27.075  1.00  0.00     0.028 A 
ATOM     89  C   UNL A   1      32.934  20.941  24.923  1.00  0.00     0.019 A 
ATOM     90  C   UNL A   1      32.531  22.327  23.088  1.00  0.00     0.010 A 
ATOM     91  C   UNL A   1      33.301  20.573  26.196  1.00  0.00     0.050 A 
ATOM     92  C   UNL A   1      32.508  19.809  24.246  1.00  0.00     0.050 A 
ATOM     93  C   UNL A   1      32.156  21.191  22.344  1.00  0.00     0.002 A 
ATOM     94  N   UNL A   1      33.035  19.221  26.324  1.00  0.00    -0.321 N 
ATOM     95  C   UNL A   1      32.153  19.906  22.905  1.00  0.00     0.014 A 
ATOM     96  C   UNL A   1      32.529  18.671  25.139  1.00  0.00     0.256 C 
ATOM     97  H   UNL A   1      33.183  18.707  27.151  1.00  0.00     0.170 HD
ATOM     98  O   UNL A   1      32.180  17.503  25.001  1.00  0.00    -0.269 OA
ENDBRANCH  82  85
ENDBRANCH  79  82
ENDBRANCH  74  77
ENDBRANCH  72  73
ENDBRANCH   1  72
TORSDOF 12
ENDMDL
MODEL 2
REMARK VINA RESULT:     -14.2      1.555      3.764
REMARK SMILES O=C(NCCCNC(=O)[C@@H]1CCCN1S(=O)(=O)c1ccc2c3c(cccc13)C(=O)N2)c1ccc(-c2c3nc(c(-c4c(F)c(F)c(F)c(F)c4F)c4ccc([nH]4)c(-c4c(F)c(F)c(F)c(F)c4F)c4nc(c(-c5c(F)c(F)c(F)c(F)c5F)c5ccc2[nH]5)C=C4)C=C3)cc1
REMARK SMILES IDX 5 1 4 2 3 3 1 4 2 5 31 7 32 8 93 9 33 10 92 11 34 12 35 13
REMARK SMILES IDX 36 14 86 15 37 16 91 17 85 18 87 19 38 20 90 21 84 22 83 23
REMARK SMILES IDX 39 25 71 26 51 27 70 28 52 29 55 30 69 31 88 32 53 33 54 34
REMARK SMILES IDX 68 36 89 37 56 38 40 39 41 40 49 41 42 42 43 43 47 44 50 45
REMARK SMILES IDX 44 46 45 47 48 48 46 49 72 50 73 51 81 52 74 53 75 54 79 55
REMARK SMILES IDX 82 56 76 57 77 58 80 59 78 60 57 61 58 62 66 63 59 64 60 65
REMARK SMILES IDX 64 66 67 67 61 68 62 69 65 70 63 71 6 72 7 73 8 74 9 76
REMARK SMILES IDX 10 77 11 78 14 79 12 80 13 81 15 82 16 83 17 84 18 85 19 86
REMARK SMILES IDX 27 87 20 88 22 89 26 90 21 91 23 92 25 93 30 94 24 95 28 96
REMARK SMILES IDX 29 98
REMARK H PARENT 3 6 87 24 55 35 7 75 30 97
REMARK Flexibility Score: inf
ROOT
ATOM      1  C   UNL A   1      32.306  28.083  26.052  1.00  0.00     0.042 C 
ENDROOT
BRANCH   1   2
ATOM      2  C   UNL A   1      33.235  29.123  25.434  1.00  0.00     0.118 C 
BRANCH   2   3
ATOM      3  N   UNL A   1      32.854  30.467  25.813  1.00  0.00    -0.352 N 
ATOM      4  O   UNL A   1      32.631  32.185  27.243  1.00  0.00    -0.269 OA
ATOM      5  C   UNL A   1      33.298  31.221  26.874  1.00  0.00     0.251 C 
ATOM      6  H   UNL A   1      32.187  30.901  25.232  1.00  0.00     0.163 HD
BRANCH   5   7
ATOM      7  C   UNL A   1      34.565  30.904  27.582  1.00  0.00     0.039 A 
ATOM      8  C   UNL A   1      35.562  31.864  27.762  1.00  0.00     0.014 A 
ATOM      9  C   UNL A   1      34.697  29.660  28.209  1.00  0.00     0.014 A 
ATOM     10  C   UNL A   1      36.707  31.557  28.510  1.00  0.00     0.010 A 
ATOM     11  C   UNL A   1      35.832  29.367  28.982  1.00  0.00     0.010 A 
ATOM     12  C   UNL A   1      36.867  30.304  29.128  1.00  0.00    -0.014 A 
BRANCH  12  13
ATOM     13  C   UNL A   1      38.081  29.990  29.950  1.00  0.00     0.031 A 
ATOM     14  C   UNL A   1      39.161  29.065  29.435  1.00  0.00     0.074 A 
ATOM     15  C   UNL A   1      38.230  30.539  31.174  1.00  0.00     0.049 A 
ATOM     16  N   UNL A   1      40.262  28.660  30.026  1.00  0.00    -0.248 NA
ATOM     17  C   UNL A   1      38.997  28.535  28.073  1.00  0.00     0.031 C 
ATOM     18  C   UNL A   1      37.296  31.473  31.802  1.00  0.00     0.029 A 
ATOM     19  N   UNL A   1      39.226  30.392  32.113  1.00  0.00    -0.354 N 
ATOM     20  C   UNL A   1      40.925  27.857  29.105  1.00  0.00     0.074 A 
ATOM     21  C   UNL A   1      40.090  27.796  27.926  1.00  0.00     0.031 C 
ATOM     22  C   UNL A   1      37.772  31.835  33.003  1.00  0.00     0.029 A 
ATOM     23  C   UNL A   1      39.010  31.109  33.266  1.00  0.00     0.049 A 
ATOM     24  H   UNL A   1      40.020  29.826  31.972  1.00  0.00     0.167 HD
ATOM     25  C   UNL A   1      42.126  27.237  29.222  1.00  0.00     0.037 A 
ATOM     26  C   UNL A   1      39.707  31.160  34.419  1.00  0.00     0.037 A 
ATOM     27  C   UNL A   1      42.953  27.251  30.404  1.00  0.00     0.049 A 
ATOM     28  C   UNL A   1      40.958  30.334  34.571  1.00  0.00     0.074 A 
ATOM     29  C   UNL A   1      44.165  26.615  30.615  1.00  0.00     0.029 A 
ATOM     30  N   UNL A   1      42.652  27.926  31.576  1.00  0.00    -0.354 N 
ATOM     31  N   UNL A   1      41.577  29.593  33.686  1.00  0.00    -0.248 NA
ATOM     32  C   UNL A   1      41.604  30.351  35.893  1.00  0.00     0.031 C 
ATOM     33  C   UNL A   1      44.570  26.859  31.930  1.00  0.00     0.029 A 
ATOM     34  C   UNL A   1      43.641  27.697  32.520  1.00  0.00     0.049 A 
ATOM     35  H   UNL A   1      41.854  28.486  31.717  1.00  0.00     0.167 HD
ATOM     36  C   UNL A   1      42.699  29.086  34.331  1.00  0.00     0.074 A 
ATOM     37  C   UNL A   1      42.690  29.624  35.673  1.00  0.00     0.031 C 
ATOM     38  C   UNL A   1      43.645  28.244  33.852  1.00  0.00     0.037 A 
BRANCH  25  39
ATOM     39  C   UNL A   1      42.653  26.477  28.037  1.00  0.00     0.064 A 
ATOM     40  C   UNL A   1      42.268  25.149  27.801  1.00  0.00     0.173 A 
ATOM     41  C   UNL A   1      43.428  27.120  27.059  1.00  0.00     0.173 A 
ATOM     42  F   UNL A   1      41.533  24.488  28.708  1.00  0.00    -0.203 F 
ATOM     43  C   UNL A   1      42.634  24.494  26.627  1.00  0.00     0.198 A 
ATOM     44  C   UNL A   1      43.773  26.469  25.876  1.00  0.00     0.198 A 
ATOM     45  F   UNL A   1      43.812  28.393  27.231  1.00  0.00    -0.203 F 
ATOM     46  F   UNL A   1      42.260  23.223  26.425  1.00  0.00    -0.200 F 
ATOM     47  C   UNL A   1      43.373  25.159  25.660  1.00  0.00     0.200 A 
ATOM     48  F   UNL A   1      44.470  27.119  24.934  1.00  0.00    -0.200 F 
ATOM     49  F   UNL A   1      43.697  24.539  24.517  1.00  0.00    -0.200 F 
ENDBRANCH  25  39
BRANCH  26  50
ATOM     50  C   UNL A   1      39.239  32.012  35.547  1.00  0.00     0.064 A 
ATOM     51  C   UNL A   1      39.696  33.329  35.691  1.00  0.00     0.173 A 
ATOM     52  C   UNL A   1      38.370  31.516  36.532  1.00  0.00     0.173 A 
ATOM     53  F   UNL A   1      40.555  33.842  34.796  1.00  0.00    -0.203 F 
ATOM     54  C   UNL A   1      39.327  34.106  36.788  1.00  0.00     0.198 A 
ATOM     55  C   UNL A   1      37.971  32.306  37.607  1.00  0.00     0.198 A 
ATOM     56  F   UNL A   1      37.909  30.258  36.451  1.00  0.00    -0.203 F 
ATOM     57  F   UNL A   1      39.836  35.337  36.935  1.00  0.00    -0.200 F 
ATOM     58  C   UNL A   1      38.460  33.597  37.741  1.00  0.00     0.200 A 
ATOM     59  F   UNL A   1      37.123  31.813  38.520  1.00  0.00    -0.200 F 
ATOM     60  F   UNL A   1      38.108  34.342  38.797  1.00  0.00    -0.200 F 
ENDBRANCH  26  50
BRANCH  38  61
ATOM     61  C   UNL A   1      44.778  27.872  34.769  1.00  0.00     0.064 A 
ATOM     62  C   UNL A   1      45.941  28.652  34.856  1.00  0.00     0.173 A 
ATOM     63  C   UNL A   1      44.685  26.743  35.597  1.00  0.00     0.173 A 
ATOM     64  F   UNL A   1      46.087  29.736  34.078  1.00  0.00    -0.203 F 
ATOM     65  C   UNL A   1      46.980  28.298  35.712  1.00  0.00     0.198 A 
ATOM     66  C   UNL A   1      45.711  26.412  36.479  1.00  0.00     0.198 A 
ATOM     67  F   UNL A   1      43.592  25.966  35.564  1.00  0.00    -0.203 F 
ATOM     68  F   UNL A   1      48.105  29.027  35.735  1.00  0.00    -0.200 F 
ATOM     69  C   UNL A   1      46.862  27.183  36.529  1.00  0.00     0.200 A 
ATOM     70  F   UNL A   1      45.586  25.346  37.281  1.00  0.00    -0.200 F 
ATOM     71  F   UNL A   1      47.860  26.849  37.358  1.00  0.00    -0.200 F 
ENDBRANCH  38  61
ENDBRANCH  12  13
ENDBRANCH   5   7
ENDBRANCH   2   3
ENDBRANCH   1   2
BRANCH   1  72
ATOM     72  C   UNL A   1      32.862  26.672  26.249  1.00  0.00     0.117 C 
BRANCH  72  73
ATOM     73  N   UNL A   1      31.862  25.688  26.611  1.00  0.00    -0.355 N 
ATOM     74  C   UNL A   1      31.857  24.336  26.611  1.00  0.00     0.238 C 
ATOM     75  H   UNL A   1      31.015  26.085  26.919  1.00  0.00     0.163 HD
ATOM     76  O   UNL A   1      30.890  23.816  27.191  1.00  0.00    -0.273 OA
BRANCH  74  77
ATOM     77  C   UNL A   1      32.906  23.443  25.989  1.00  0.00     0.162 C 
ATOM     78  C   UNL A   1      34.305  23.715  26.545  1.00  0.00     0.032 C 
ATOM     79  N   UNL A   1      33.081  23.064  24.567  1.00  0.00    -0.185 NA
ATOM     80  C   UNL A   1      35.207  22.862  25.678  1.00  0.00     0.019 C 
ATOM     81  C   UNL A   1      34.557  22.942  24.312  1.00  0.00     0.103 C 
BRANCH  79  82
ATOM     82  S   UNL A   1      32.261  23.587  23.197  1.00  0.00     0.244 S 
ATOM     83  O   UNL A   1      32.999  23.026  22.081  1.00  0.00    -0.207 OA
ATOM     84  O   UNL A   1      30.877  23.208  23.385  1.00  0.00    -0.207 OA
BRANCH  82  85
ATOM     85  C   UNL A   1      32.258  25.349  22.997  1.00  0.00     0.090 A 
ATOM     86  C   UNL A   1      33.415  26.061  22.621  1.00  0.00     0.024 A 
ATOM     87  C   UNL A   1      31.016  26.036  23.168  1.00  0.00     0.005 A 
ATOM     88  C   UNL A   1      33.359  27.409  22.200  1.00  0.00     0.028 A 
ATOM     89  C   UNL A   1      31.032  27.348  22.798  1.00  0.00     0.019 A 
ATOM     90  C   UNL A   1      29.762  25.591  23.662  1.00  0.00     0.010 A 
ATOM     91  C   UNL A   1      32.120  28.012  22.283  1.00  0.00     0.050 A 
ATOM     92  C   UNL A   1      29.967  28.234  22.854  1.00  0.00     0.050 A 
ATOM     93  C   UNL A   1      28.675  26.477  23.800  1.00  0.00     0.002 A 
ATOM     94  N   UNL A   1      31.705  29.291  21.958  1.00  0.00    -0.321 N 
ATOM     95  C   UNL A   1      28.763  27.822  23.413  1.00  0.00     0.014 A 
ATOM     96  C   UNL A   1      30.360  29.505  22.284  1.00  0.00     0.256 C 
ATOM     97  H   UNL A   1      32.287  29.970  21.545  1.00  0.00     0.170 HD
ATOM     98  O   UNL A   1      29.741  30.540  22.064  1.00  0.00    -0.269 OA
ENDBRANCH  82  85
ENDBRANCH  79  82
ENDBRANCH  74  77
ENDBRANCH  72  73
ENDBRANCH   1  72
TORSDOF 12
ENDMDL
MODEL 3
REMARK VINA RESULT:     -14.1      3.960      9.570
REMARK SMILES O=C(NCCCNC(=O)[C@@H]1CCCN1S(=O)(=O)c1ccc2c3c(cccc13)C(=O)N2)c1ccc(-c2c3nc(c(-c4c(F)c(F)c(F)c(F)c4F)c4ccc([nH]4)c(-c4c(F)c(F)c(F)c(F)c4F)c4nc(c(-c5c(F)c(F)c(F)c(F)c5F)c5ccc2[nH]5)C=C4)C=C3)cc1
REMARK SMILES IDX 5 1 4 2 3 3 1 4 2 5 31 7 32 8 93 9 33 10 92 11 34 12 35 13
REMARK SMILES IDX 36 14 86 15 37 16 91 17 85 18 87 19 38 20 90 21 84 22 83 23
REMARK SMILES IDX 39 25 71 26 51 27 70 28 52 29 55 30 69 31 88 32 53 33 54 34
REMARK SMILES IDX 68 36 89 37 56 38 40 39 41 40 49 41 42 42 43 43 47 44 50 45
REMARK SMILES IDX 44 46 45 47 48 48 46 49 72 50 73 51 81 52 74 53 75 54 79 55
REMARK SMILES IDX 82 56 76 57 77 58 80 59 78 60 57 61 58 62 66 63 59 64 60 65
REMARK SMILES IDX 64 66 67 67 61 68 62 69 65 70 63 71 6 72 7 73 8 74 9 76
REMARK SMILES IDX 10 77 11 78 14 79 12 80 13 81 15 82 16 83 17 84 18 85 19 86
REMARK SMILES IDX 27 87 20 88 22 89 26 90 21 91 23 92 25 93 30 94 24 95 28 96
REMARK SMILES IDX 29 98
REMARK H PARENT 3 6 87 24 55 35 7 75 30 97
REMARK Flexibility Score: inf
ROOT
ATOM      1  C   UNL A   1      35.134  22.634  26.972  1.00  0.00     0.042 C 
ENDROOT
BRANCH   1   2
ATOM      2  C   UNL A   1      35.926  22.451  25.682  1.00  0.00     0.118 C 
BRANCH   2   3
ATOM      3  N   UNL A   1      36.851  21.341  25.778  1.00  0.00    -0.352 N 
ATOM      4  O   UNL A   1      38.868  20.364  25.633  1.00  0.00    -0.269 OA
ATOM      5  C   UNL A   1      38.219  21.370  25.911  1.00  0.00     0.251 C 
ATOM      6  H   UNL A   1      36.445  20.444  25.742  1.00  0.00     0.163 HD
BRANCH   5   7
ATOM      7  C   UNL A   1      38.932  22.583  26.390  1.00  0.00     0.039 A 
ATOM      8  C   UNL A   1      40.029  22.494  27.248  1.00  0.00     0.014 A 
ATOM      9  C   UNL A   1      38.587  23.827  25.851  1.00  0.00     0.014 A 
ATOM     10  C   UNL A   1      40.733  23.652  27.610  1.00  0.00     0.010 A 
ATOM     11  C   UNL A   1      39.313  24.979  26.194  1.00  0.00     0.010 A 
ATOM     12  C   UNL A   1      40.386  24.914  27.096  1.00  0.00    -0.014 A 
BRANCH  12  13
ATOM     13  C   UNL A   1      41.159  26.144  27.466  1.00  0.00     0.031 A 
ATOM     14  C   UNL A   1      40.526  27.259  28.269  1.00  0.00     0.074 A 
ATOM     15  C   UNL A   1      42.447  26.274  27.086  1.00  0.00     0.049 A 
ATOM     16  N   UNL A   1      41.039  28.407  28.649  1.00  0.00    -0.248 NA
ATOM     17  C   UNL A   1      39.141  27.057  28.720  1.00  0.00     0.031 C 
ATOM     18  C   UNL A   1      43.212  25.279  26.334  1.00  0.00     0.029 A 
ATOM     19  N   UNL A   1      43.346  27.299  27.279  1.00  0.00    -0.354 N 
ATOM     20  C   UNL A   1      40.056  29.043  29.398  1.00  0.00     0.074 A 
ATOM     21  C   UNL A   1      38.898  28.176  29.391  1.00  0.00     0.031 C 
ATOM     22  C   UNL A   1      44.465  25.726  26.155  1.00  0.00     0.029 A 
ATOM     23  C   UNL A   1      44.578  27.068  26.714  1.00  0.00     0.049 A 
ATOM     24  H   UNL A   1      43.127  28.121  27.776  1.00  0.00     0.167 HD
ATOM     25  C   UNL A   1      40.113  30.234  30.045  1.00  0.00     0.037 A 
ATOM     26  C   UNL A   1      45.671  27.853  26.626  1.00  0.00     0.037 A 
ATOM     27  C   UNL A   1      41.242  31.131  30.028  1.00  0.00     0.049 A 
ATOM     28  C   UNL A   1      45.646  29.235  27.224  1.00  0.00     0.074 A 
ATOM     29  C   UNL A   1      41.363  32.375  30.627  1.00  0.00     0.029 A 
ATOM     30  N   UNL A   1      42.440  30.889  29.375  1.00  0.00    -0.354 N 
ATOM     31  N   UNL A   1      44.715  29.814  27.940  1.00  0.00    -0.248 NA
ATOM     32  C   UNL A   1      46.831  30.077  26.993  1.00  0.00     0.031 C 
ATOM     33  C   UNL A   1      42.610  32.908  30.291  1.00  0.00     0.029 A 
ATOM     34  C   UNL A   1      43.291  31.972  29.533  1.00  0.00     0.049 A 
ATOM     35  H   UNL A   1      42.654  30.069  28.873  1.00  0.00     0.167 HD
ATOM     36  C   UNL A   1      45.213  31.068  28.273  1.00  0.00     0.074 A 
ATOM     37  C   UNL A   1      46.539  31.157  27.703  1.00  0.00     0.031 C 
ATOM     38  C   UNL A   1      44.619  32.058  28.980  1.00  0.00     0.037 A 
BRANCH  25  39
ATOM     39  C   UNL A   1      38.919  30.664  30.850  1.00  0.00     0.064 A 
ATOM     40  C   UNL A   1      38.855  30.426  32.231  1.00  0.00     0.173 A 
ATOM     41  C   UNL A   1      37.903  31.440  30.270  1.00  0.00     0.173 A 
ATOM     42  F   UNL A   1      39.798  29.683  32.832  1.00  0.00    -0.203 F 
ATOM     43  C   UNL A   1      37.823  30.954  33.003  1.00  0.00     0.198 A 
ATOM     44  C   UNL A   1      36.885  31.986  31.049  1.00  0.00     0.198 A 
ATOM     45  F   UNL A   1      37.923  31.707  28.957  1.00  0.00    -0.203 F 
ATOM     46  F   UNL A   1      37.779  30.709  34.320  1.00  0.00    -0.200 F 
ATOM     47  C   UNL A   1      36.848  31.745  32.414  1.00  0.00     0.200 A 
ATOM     48  F   UNL A   1      35.954  32.766  30.483  1.00  0.00    -0.200 F 
ATOM     49  F   UNL A   1      35.873  32.280  33.164  1.00  0.00    -0.200 F 
ENDBRANCH  25  39
BRANCH  26  50
ATOM     50  C   UNL A   1      46.894  27.369  25.928  1.00  0.00     0.064 A 
ATOM     51  C   UNL A   1      47.919  26.724  26.635  1.00  0.00     0.173 A 
ATOM     52  C   UNL A   1      47.091  27.585  24.555  1.00  0.00     0.173 A 
ATOM     53  F   UNL A   1      47.796  26.523  27.956  1.00  0.00    -0.203 F 
ATOM     54  C   UNL A   1      49.101  26.341  26.006  1.00  0.00     0.198 A 
ATOM     55  C   UNL A   1      48.256  27.166  23.918  1.00  0.00     0.198 A 
ATOM     56  F   UNL A   1      46.148  28.206  23.830  1.00  0.00    -0.203 F 
ATOM     57  F   UNL A   1      50.091  25.791  26.722  1.00  0.00    -0.200 F 
ATOM     58  C   UNL A   1      49.266  26.556  24.647  1.00  0.00     0.200 A 
ATOM     59  F   UNL A   1      48.407  27.366  22.601  1.00  0.00    -0.200 F 
ATOM     60  F   UNL A   1      50.404  26.191  24.042  1.00  0.00    -0.200 F 
ENDBRANCH  26  50
BRANCH  38  61
ATOM     61  C   UNL A   1      45.405  33.318  29.216  1.00  0.00     0.064 A 
ATOM     62  C   UNL A   1      45.325  34.411  28.341  1.00  0.00     0.173 A 
ATOM     63  C   UNL A   1      46.221  33.448  30.351  1.00  0.00     0.173 A 
ATOM     64  F   UNL A   1      44.570  34.336  27.234  1.00  0.00    -0.203 F 
ATOM     65  C   UNL A   1      46.057  35.573  28.574  1.00  0.00     0.198 A 
ATOM     66  C   UNL A   1      46.922  34.625  30.601  1.00  0.00     0.198 A 
ATOM     67  F   UNL A   1      46.328  32.440  31.229  1.00  0.00    -0.203 F 
ATOM     68  F   UNL A   1      46.007  36.581  27.692  1.00  0.00    -0.200 F 
ATOM     69  C   UNL A   1      46.848  35.683  29.707  1.00  0.00     0.200 A 
ATOM     70  F   UNL A   1      47.671  34.736  31.707  1.00  0.00    -0.200 F 
ATOM     71  F   UNL A   1      47.544  36.805  29.934  1.00  0.00    -0.200 F 
ENDBRANCH  38  61
ENDBRANCH  12  13
ENDBRANCH   5   7
ENDBRANCH   2   3
ENDBRANCH   1   2
BRANCH   1  72
ATOM     72  C   UNL A   1      34.011  21.635  27.255  1.00  0.00     0.117 C 
BRANCH  72  73
ATOM     73  N   UNL A   1      32.732  22.251  27.545  1.00  0.00    -0.355 N 
ATOM     74  C   UNL A   1      31.723  22.692  26.760  1.00  0.00     0.238 C 
ATOM     75  H   UNL A   1      32.565  22.374  28.507  1.00  0.00     0.163 HD
ATOM     76  O   UNL A   1      30.676  22.974  27.364  1.00  0.00    -0.273 OA
BRANCH  74  77
ATOM     77  C   UNL A   1      31.770  22.852  25.258  1.00  0.00     0.162 C 
ATOM     78  C   UNL A   1      32.167  21.557  24.547  1.00  0.00     0.032 C 
ATOM     79  N   UNL A   1      32.334  23.964  24.457  1.00  0.00    -0.185 NA
ATOM     80  C   UNL A   1      32.326  21.976  23.100  1.00  0.00     0.019 C 
ATOM     81  C   UNL A   1      32.910  23.370  23.203  1.00  0.00     0.103 C 
BRANCH  79  82
ATOM     82  S   UNL A   1      33.193  25.324  24.945  1.00  0.00     0.244 S 
ATOM     83  O   UNL A   1      32.952  25.428  26.371  1.00  0.00    -0.207 OA
ATOM     84  O   UNL A   1      34.549  25.134  24.474  1.00  0.00    -0.207 OA
BRANCH  82  85
ATOM     85  C   UNL A   1      32.627  26.830  24.201  1.00  0.00     0.090 A 
ATOM     86  C   UNL A   1      33.520  27.832  23.767  1.00  0.00     0.024 A 
ATOM     87  C   UNL A   1      31.221  26.980  23.988  1.00  0.00     0.005 A 
ATOM     88  C   UNL A   1      33.102  28.897  22.938  1.00  0.00     0.028 A 
ATOM     89  C   UNL A   1      30.869  28.056  23.228  1.00  0.00     0.019 A 
ATOM     90  C   UNL A   1      30.120  26.205  24.436  1.00  0.00     0.010 A 
ATOM     91  C   UNL A   1      31.749  28.953  22.671  1.00  0.00     0.050 A 
ATOM     92  C   UNL A   1      29.583  28.425  22.867  1.00  0.00     0.050 A 
ATOM     93  C   UNL A   1      28.794  26.585  24.150  1.00  0.00     0.002 A 
ATOM     94  N   UNL A   1      31.006  29.837  21.908  1.00  0.00    -0.321 N 
ATOM     95  C   UNL A   1      28.499  27.714  23.372  1.00  0.00     0.014 A 
ATOM     96  C   UNL A   1      29.633  29.566  21.979  1.00  0.00     0.256 C 
ATOM     97  H   UNL A   1      31.396  30.570  21.379  1.00  0.00     0.170 HD
ATOM     98  O   UNL A   1      28.765  30.179  21.367  1.00  0.00    -0.269 OA
ENDBRANCH  82  85
ENDBRANCH  79  82
ENDBRANCH  74  77
ENDBRANCH  72  73
ENDBRANCH   1  72
TORSDOF 12
ENDMDL
