MODEL 1
REMARK VINA RESULT:     -12.3      0.000      0.000
REMARK SMILES C[C@H]1[C@H](C(=O)NCCCNC(=O)c2ccc(-c3c4nc(c(-c5c(F)c(F)c(F)c(F)c5F)c5ccc([nH]5)c(-c5c(F)c(F)c(F)c(F)c5F)c5nc(c(-c6c(F)c(F)c(F)c(F)c6F)c6ccc3[nH]6)C=C5)C=C4)cc2)CCN1C(=O)[C@H]1CC=CCC1
REMARK SMILES IDX 8 1 7 2 6 3 4 4 5 5 3 7 1 8 2 9 78 10 76 11 77 12 79 13
REMARK SMILES IDX 80 14 81 15 82 16 86 17 83 18 85 19 84 20 9 21 10 22 11 23
REMARK SMILES IDX 12 25 13 26 14 27 75 28 15 29 74 30 16 31 17 32 18 33 68 34
REMARK SMILES IDX 19 35 73 36 67 37 69 38 20 39 72 40 66 41 65 42 21 44 53 45
REMARK SMILES IDX 33 46 52 47 34 48 37 49 51 50 70 51 35 52 36 53 50 55 71 56
REMARK SMILES IDX 38 57 22 58 23 59 31 60 24 61 25 62 29 63 32 64 26 65 27 66
REMARK SMILES IDX 30 67 28 68 54 69 55 70 63 71 56 72 57 73 61 74 64 75 58 76
REMARK SMILES IDX 59 77 62 78 60 79 39 80 40 81 48 82 41 83 42 84 46 85 49 86
REMARK SMILES IDX 43 87 44 88 47 89 45 90
REMARK H PARENT 6 6 10 24 69 43 37 54
REMARK Flexibility Score: inf
ROOT
ATOM      1  C   UNL A   1      31.524  32.101  26.876  1.00  0.00     0.042 C 
ENDROOT
BRANCH   1   2
ATOM      2  C   UNL A   1      31.775  30.752  26.215  1.00  0.00     0.117 C 
BRANCH   2   3
ATOM      3  N   UNL A   1      31.586  29.640  27.132  1.00  0.00    -0.356 N 
ATOM      4  C   UNL A   1      31.602  28.295  26.979  1.00  0.00     0.225 C 
ATOM      5  O   UNL A   1      31.403  27.634  28.005  1.00  0.00    -0.275 OA
ATOM      6  H   UNL A   1      31.412  29.924  28.059  1.00  0.00     0.163 HD
BRANCH   4   7
ATOM      7  C   UNL A   1      31.788  27.568  25.658  1.00  0.00     0.102 C 
ATOM      8  C   UNL A   1      30.145  26.296  24.281  1.00  0.00     0.032 C 
ATOM      9  C   UNL A   1      30.567  27.699  24.732  1.00  0.00     0.094 C 
ATOM     10  N   UNL A   1      31.037  28.514  23.615  1.00  0.00    -0.339 N 
ATOM     11  C   UNL A   1      33.014  27.921  24.822  1.00  0.00     0.037 C 
ATOM     12  C   UNL A   1      32.477  28.350  23.463  1.00  0.00     0.120 C 
BRANCH  10  13
ATOM     13  C   UNL A   1      30.364  29.310  22.717  1.00  0.00     0.226 C 
ATOM     14  O   UNL A   1      30.873  29.511  21.603  1.00  0.00    -0.275 OA
BRANCH  13  15
ATOM     15  C   UNL A   1      29.033  30.030  23.006  1.00  0.00     0.083 C 
ATOM     16  C   UNL A   1      29.085  31.298  23.855  1.00  0.00     0.040 C 
ATOM     17  C   UNL A   1      28.051  30.092  21.833  1.00  0.00     0.018 C 
ATOM     18  C   UNL A   1      28.778  32.572  23.126  1.00  0.00    -0.030 C 
ATOM     19  C   UNL A   1      28.028  31.404  21.048  1.00  0.00     0.028 C 
ATOM     20  C   UNL A   1      28.307  32.619  21.874  1.00  0.00    -0.031 C 
ENDBRANCH  13  15
ENDBRANCH  10  13
ENDBRANCH   4   7
ENDBRANCH   2   3
ENDBRANCH   1   2
BRANCH   1  21
ATOM     21  C   UNL A   1      32.697  33.073  26.864  1.00  0.00     0.118 C 
BRANCH  21  22
ATOM     22  N   UNL A   1      32.454  34.258  27.665  1.00  0.00    -0.352 N 
ATOM     23  C   UNL A   1      33.047  34.685  28.827  1.00  0.00     0.251 C 
ATOM     24  H   UNL A   1      31.750  34.854  27.319  1.00  0.00     0.163 HD
ATOM     25  O   UNL A   1      32.556  35.639  29.432  1.00  0.00    -0.269 OA
BRANCH  23  26
ATOM     26  C   UNL A   1      34.248  34.016  29.389  1.00  0.00     0.039 A 
ATOM     27  C   UNL A   1      34.060  32.967  30.296  1.00  0.00     0.014 A 
ATOM     28  C   UNL A   1      35.546  34.445  29.103  1.00  0.00     0.014 A 
ATOM     29  C   UNL A   1      35.161  32.326  30.873  1.00  0.00     0.010 A 
ATOM     30  C   UNL A   1      36.647  33.755  29.615  1.00  0.00     0.010 A 
ATOM     31  C   UNL A   1      36.468  32.698  30.519  1.00  0.00    -0.014 A 
BRANCH  31  32
ATOM     32  C   UNL A   1      37.645  32.010  31.116  1.00  0.00     0.031 A 
ATOM     33  C   UNL A   1      38.111  32.356  32.506  1.00  0.00     0.074 A 
ATOM     34  C   UNL A   1      38.323  31.091  30.399  1.00  0.00     0.049 A 
ATOM     35  N   UNL A   1      39.130  31.885  33.182  1.00  0.00    -0.248 NA
ATOM     36  C   UNL A   1      37.344  33.388  33.223  1.00  0.00     0.031 C 
ATOM     37  C   UNL A   1      38.013  30.697  29.026  1.00  0.00     0.029 A 
ATOM     38  N   UNL A   1      39.415  30.327  30.727  1.00  0.00    -0.354 N 
ATOM     39  C   UNL A   1      39.135  32.570  34.390  1.00  0.00     0.074 A 
ATOM     40  C   UNL A   1      38.049  33.525  34.336  1.00  0.00     0.031 C 
ATOM     41  C   UNL A   1      38.879  29.748  28.635  1.00  0.00     0.029 A 
ATOM     42  C   UNL A   1      39.822  29.487  29.720  1.00  0.00     0.049 A 
ATOM     43  H   UNL A   1      39.865  30.377  31.602  1.00  0.00     0.167 HD
ATOM     44  C   UNL A   1      39.952  32.404  35.458  1.00  0.00     0.037 A 
ATOM     45  C   UNL A   1      40.837  28.602  29.675  1.00  0.00     0.037 A 
ATOM     46  C   UNL A   1      41.012  31.433  35.532  1.00  0.00     0.049 A 
ATOM     47  C   UNL A   1      41.713  28.417  30.883  1.00  0.00     0.074 A 
ATOM     48  C   UNL A   1      41.855  31.152  36.593  1.00  0.00     0.029 A 
ATOM     49  N   UNL A   1      41.372  30.579  34.500  1.00  0.00    -0.354 N 
ATOM     50  N   UNL A   1      41.668  29.029  32.040  1.00  0.00    -0.248 NA
ATOM     51  C   UNL A   1      42.775  27.406  30.780  1.00  0.00     0.031 C 
ATOM     52  C   UNL A   1      42.747  30.151  36.193  1.00  0.00     0.029 A 
ATOM     53  C   UNL A   1      42.434  29.781  34.896  1.00  0.00     0.049 A 
ATOM     54  H   UNL A   1      40.939  30.545  33.617  1.00  0.00     0.167 HD
ATOM     55  C   UNL A   1      42.679  28.468  32.808  1.00  0.00     0.074 A 
ATOM     56  C   UNL A   1      43.310  27.452  31.993  1.00  0.00     0.031 C 
ATOM     57  C   UNL A   1      43.053  28.773  34.075  1.00  0.00     0.037 A 
BRANCH  44  58
ATOM     58  C   UNL A   1      39.722  33.290  36.647  1.00  0.00     0.064 A 
ATOM     59  C   UNL A   1      40.413  34.501  36.804  1.00  0.00     0.173 A 
ATOM     60  C   UNL A   1      38.776  32.944  37.623  1.00  0.00     0.173 A 
ATOM     61  F   UNL A   1      41.337  34.872  35.904  1.00  0.00    -0.203 F 
ATOM     62  C   UNL A   1      40.188  35.317  37.909  1.00  0.00     0.198 A 
ATOM     63  C   UNL A   1      38.533  33.776  38.713  1.00  0.00     0.198 A 
ATOM     64  F   UNL A   1      38.082  31.800  37.517  1.00  0.00    -0.203 F 
ATOM     65  F   UNL A   1      40.895  36.446  38.062  1.00  0.00    -0.200 F 
ATOM     66  C   UNL A   1      39.243  34.957  38.859  1.00  0.00     0.200 A 
ATOM     67  F   UNL A   1      37.613  33.432  39.625  1.00  0.00    -0.200 F 
ATOM     68  F   UNL A   1      39.025  35.746  39.921  1.00  0.00    -0.200 F 
ENDBRANCH  44  58
BRANCH  45  69
ATOM     69  C   UNL A   1      41.061  27.801  28.446  1.00  0.00     0.064 A 
ATOM     70  C   UNL A   1      41.937  28.246  27.447  1.00  0.00     0.173 A 
ATOM     71  C   UNL A   1      40.409  26.575  28.247  1.00  0.00     0.173 A 
ATOM     72  F   UNL A   1      42.565  29.423  27.585  1.00  0.00    -0.203 F 
ATOM     73  C   UNL A   1      42.142  27.503  26.286  1.00  0.00     0.198 A 
ATOM     74  C   UNL A   1      40.633  25.821  27.097  1.00  0.00     0.198 A 
ATOM     75  F   UNL A   1      39.563  26.106  29.176  1.00  0.00    -0.203 F 
ATOM     76  F   UNL A   1      42.954  27.970  25.329  1.00  0.00    -0.200 F 
ATOM     77  C   UNL A   1      41.494  26.289  26.115  1.00  0.00     0.200 A 
ATOM     78  F   UNL A   1      40.014  24.644  26.940  1.00  0.00    -0.200 F 
ATOM     79  F   UNL A   1      41.694  25.572  25.001  1.00  0.00    -0.200 F 
ENDBRANCH  45  69
BRANCH  57  80
ATOM     80  C   UNL A   1      44.184  27.983  34.663  1.00  0.00     0.064 A 
ATOM     81  C   UNL A   1      45.512  28.426  34.572  1.00  0.00     0.173 A 
ATOM     82  C   UNL A   1      43.936  26.785  35.350  1.00  0.00     0.173 A 
ATOM     83  F   UNL A   1      45.801  29.559  33.913  1.00  0.00    -0.203 F 
ATOM     84  C   UNL A   1      46.553  27.685  35.126  1.00  0.00     0.198 A 
ATOM     85  C   UNL A   1      44.977  26.059  35.923  1.00  0.00     0.198 A 
ATOM     86  F   UNL A   1      42.683  26.321  35.468  1.00  0.00    -0.203 F 
ATOM     87  F   UNL A   1      47.818  28.105  34.989  1.00  0.00    -0.200 F 
ATOM     88  C   UNL A   1      46.284  26.506  35.804  1.00  0.00     0.200 A 
ATOM     89  F   UNL A   1      44.714  24.925  36.586  1.00  0.00    -0.200 F 
ATOM     90  F   UNL A   1      47.287  25.795  36.337  1.00  0.00    -0.200 F 
ENDBRANCH  57  80
ENDBRANCH  31  32
ENDBRANCH  23  26
ENDBRANCH  21  22
ENDBRANCH   1  21
TORSDOF 12
ENDMDL
MODEL 2
REMARK VINA RESULT:     -12.2      0.805      7.455
REMARK SMILES C[C@H]1[C@H](C(=O)NCCCNC(=O)c2ccc(-c3c4nc(c(-c5c(F)c(F)c(F)c(F)c5F)c5ccc([nH]5)c(-c5c(F)c(F)c(F)c(F)c5F)c5nc(c(-c6c(F)c(F)c(F)c(F)c6F)c6ccc3[nH]6)C=C5)C=C4)cc2)CCN1C(=O)[C@H]1CC=CCC1
REMARK SMILES IDX 8 1 7 2 6 3 4 4 5 5 3 7 1 8 2 9 78 10 76 11 77 12 79 13
REMARK SMILES IDX 80 14 81 15 82 16 86 17 83 18 85 19 84 20 9 21 10 22 11 23
REMARK SMILES IDX 12 25 13 26 14 27 75 28 15 29 74 30 16 31 17 32 18 33 68 34
REMARK SMILES IDX 19 35 73 36 67 37 69 38 20 39 72 40 66 41 65 42 21 44 53 45
REMARK SMILES IDX 33 46 52 47 34 48 37 49 51 50 70 51 35 52 36 53 50 55 71 56
REMARK SMILES IDX 38 57 22 58 23 59 31 60 24 61 25 62 29 63 32 64 26 65 27 66
REMARK SMILES IDX 30 67 28 68 54 69 55 70 63 71 56 72 57 73 61 74 64 75 58 76
REMARK SMILES IDX 59 77 62 78 60 79 39 80 40 81 48 82 41 83 42 84 46 85 49 86
REMARK SMILES IDX 43 87 44 88 47 89 45 90
REMARK H PARENT 6 6 10 24 69 43 37 54
REMARK Flexibility Score: inf
ROOT
ATOM      1  C   UNL A   1      31.454  32.166  26.832  1.00  0.00     0.042 C 
ENDROOT
BRANCH   1   2
ATOM      2  C   UNL A   1      31.610  30.809  26.158  1.00  0.00     0.117 C 
BRANCH   2   3
ATOM      3  N   UNL A   1      31.487  29.704  27.096  1.00  0.00    -0.356 N 
ATOM      4  C   UNL A   1      31.554  28.360  26.963  1.00  0.00     0.225 C 
ATOM      5  O   UNL A   1      31.405  27.707  28.003  1.00  0.00    -0.275 OA
ATOM      6  H   UNL A   1      31.322  29.996  28.022  1.00  0.00     0.163 HD
BRANCH   4   7
ATOM      7  C   UNL A   1      31.740  27.620  25.649  1.00  0.00     0.102 C 
ATOM      8  C   UNL A   1      30.097  26.334  24.284  1.00  0.00     0.032 C 
ATOM      9  C   UNL A   1      30.520  27.742  24.722  1.00  0.00     0.094 C 
ATOM     10  N   UNL A   1      30.990  28.546  23.597  1.00  0.00    -0.339 N 
ATOM     11  C   UNL A   1      32.966  27.964  24.810  1.00  0.00     0.037 C 
ATOM     12  C   UNL A   1      32.430  28.380  23.446  1.00  0.00     0.120 C 
BRANCH  10  13
ATOM     13  C   UNL A   1      30.317  29.333  22.691  1.00  0.00     0.226 C 
ATOM     14  O   UNL A   1      30.819  29.511  21.570  1.00  0.00    -0.275 OA
BRANCH  13  15
ATOM     15  C   UNL A   1      28.994  30.070  22.978  1.00  0.00     0.083 C 
ATOM     16  C   UNL A   1      29.059  31.326  23.843  1.00  0.00     0.040 C 
ATOM     17  C   UNL A   1      28.023  30.162  21.798  1.00  0.00     0.018 C 
ATOM     18  C   UNL A   1      28.778  32.614  23.129  1.00  0.00    -0.030 C 
ATOM     19  C   UNL A   1      28.028  31.484  21.030  1.00  0.00     0.028 C 
ATOM     20  C   UNL A   1      28.318  32.684  21.873  1.00  0.00    -0.031 C 
ENDBRANCH  13  15
ENDBRANCH  10  13
ENDBRANCH   4   7
ENDBRANCH   2   3
ENDBRANCH   1   2
BRANCH   1  21
ATOM     21  C   UNL A   1      32.735  32.974  26.999  1.00  0.00     0.118 C 
BRANCH  21  22
ATOM     22  N   UNL A   1      32.510  34.262  27.626  1.00  0.00    -0.352 N 
ATOM     23  C   UNL A   1      33.083  34.822  28.741  1.00  0.00     0.251 C 
ATOM     24  H   UNL A   1      31.838  34.828  27.180  1.00  0.00     0.163 HD
ATOM     25  O   UNL A   1      32.608  35.864  29.196  1.00  0.00    -0.269 OA
BRANCH  23  26
ATOM     26  C   UNL A   1      34.243  34.198  29.427  1.00  0.00     0.039 A 
ATOM     27  C   UNL A   1      33.992  33.320  30.488  1.00  0.00     0.014 A 
ATOM     28  C   UNL A   1      35.564  34.514  29.101  1.00  0.00     0.014 A 
ATOM     29  C   UNL A   1      35.053  32.731  31.183  1.00  0.00     0.010 A 
ATOM     30  C   UNL A   1      36.623  33.865  29.740  1.00  0.00     0.010 A 
ATOM     31  C   UNL A   1      36.381  32.979  30.800  1.00  0.00    -0.014 A 
BRANCH  31  32
ATOM     32  C   UNL A   1      37.516  32.343  31.523  1.00  0.00     0.031 A 
ATOM     33  C   UNL A   1      38.275  31.199  30.903  1.00  0.00     0.074 A 
ATOM     34  C   UNL A   1      37.849  32.768  32.758  1.00  0.00     0.049 A 
ATOM     35  N   UNL A   1      39.271  30.502  31.391  1.00  0.00    -0.248 NA
ATOM     36  C   UNL A   1      37.840  30.765  29.566  1.00  0.00     0.031 C 
ATOM     37  C   UNL A   1      37.168  33.830  33.498  1.00  0.00     0.029 A 
ATOM     38  N   UNL A   1      38.844  32.355  33.610  1.00  0.00    -0.354 N 
ATOM     39  C   UNL A   1      39.570  29.543  30.432  1.00  0.00     0.074 A 
ATOM     40  C   UNL A   1      38.618  29.714  29.355  1.00  0.00     0.031 C 
ATOM     41  C   UNL A   1      37.777  34.001  34.682  1.00  0.00     0.029 A 
ATOM     42  C   UNL A   1      38.875  33.044  34.797  1.00  0.00     0.049 A 
ATOM     43  H   UNL A   1      39.477  31.632  33.389  1.00  0.00     0.167 HD
ATOM     44  C   UNL A   1      40.561  28.619  30.434  1.00  0.00     0.037 A 
ATOM     45  C   UNL A   1      39.696  32.922  35.857  1.00  0.00     0.037 A 
ATOM     46  C   UNL A   1      41.532  28.466  31.486  1.00  0.00     0.049 A 
ATOM     47  C   UNL A   1      40.806  31.908  35.824  1.00  0.00     0.074 A 
ATOM     48  C   UNL A   1      42.608  27.597  31.549  1.00  0.00     0.029 A 
ATOM     49  N   UNL A   1      41.547  29.205  32.659  1.00  0.00    -0.354 N 
ATOM     50  N   UNL A   1      41.113  31.048  34.885  1.00  0.00    -0.248 NA
ATOM     51  C   UNL A   1      41.690  31.857  36.997  1.00  0.00     0.031 C 
ATOM     52  C   UNL A   1      43.254  27.787  32.776  1.00  0.00     0.029 A 
ATOM     53  C   UNL A   1      42.606  28.801  33.459  1.00  0.00     0.049 A 
ATOM     54  H   UNL A   1      40.901  29.911  32.891  1.00  0.00     0.167 HD
ATOM     55  C   UNL A   1      42.234  30.368  35.342  1.00  0.00     0.074 A 
ATOM     56  C   UNL A   1      42.564  30.927  36.636  1.00  0.00     0.031 C 
ATOM     57  C   UNL A   1      42.924  29.366  34.744  1.00  0.00     0.037 A 
BRANCH  44  58
ATOM     58  C   UNL A   1      40.653  27.703  29.249  1.00  0.00     0.064 A 
ATOM     59  C   UNL A   1      41.593  27.917  28.229  1.00  0.00     0.173 A 
ATOM     60  C   UNL A   1      39.818  26.582  29.147  1.00  0.00     0.173 A 
ATOM     61  F   UNL A   1      42.408  28.982  28.274  1.00  0.00    -0.203 F 
ATOM     62  C   UNL A   1      41.672  27.058  27.136  1.00  0.00     0.198 A 
ATOM     63  C   UNL A   1      39.917  25.709  28.065  1.00  0.00     0.198 A 
ATOM     64  F   UNL A   1      38.906  26.328  30.098  1.00  0.00    -0.203 F 
ATOM     65  F   UNL A   1      42.545  27.309  26.150  1.00  0.00    -0.200 F 
ATOM     66  C   UNL A   1      40.839  25.951  27.058  1.00  0.00     0.200 A 
ATOM     67  F   UNL A   1      39.120  24.635  27.997  1.00  0.00    -0.200 F 
ATOM     68  F   UNL A   1      40.919  25.124  26.007  1.00  0.00    -0.200 F 
ENDBRANCH  44  58
BRANCH  45  69
ATOM     69  C   UNL A   1      39.515  33.809  37.034  1.00  0.00     0.064 A 
ATOM     70  C   UNL A   1      38.751  33.397  38.134  1.00  0.00     0.173 A 
ATOM     71  C   UNL A   1      40.103  35.081  37.084  1.00  0.00     0.173 A 
ATOM     72  F   UNL A   1      38.152  32.197  38.120  1.00  0.00    -0.203 F 
ATOM     73  C   UNL A   1      38.569  34.230  39.236  1.00  0.00     0.198 A 
ATOM     74  C   UNL A   1      39.940  35.904  38.197  1.00  0.00     0.198 A 
ATOM     75  F   UNL A   1      40.846  35.519  36.057  1.00  0.00    -0.203 F 
ATOM     76  F   UNL A   1      37.801  33.828  40.258  1.00  0.00    -0.200 F 
ATOM     77  C   UNL A   1      39.168  35.480  39.268  1.00  0.00     0.200 A 
ATOM     78  F   UNL A   1      40.530  37.107  38.229  1.00  0.00    -0.200 F 
ATOM     79  F   UNL A   1      38.997  36.281  40.329  1.00  0.00    -0.200 F 
ENDBRANCH  45  69
BRANCH  57  80
ATOM     80  C   UNL A   1      44.116  28.825  35.475  1.00  0.00     0.064 A 
ATOM     81  C   UNL A   1      45.399  29.359  35.281  1.00  0.00     0.173 A 
ATOM     82  C   UNL A   1      43.971  27.780  36.400  1.00  0.00     0.173 A 
ATOM     83  F   UNL A   1      45.589  30.350  34.397  1.00  0.00    -0.203 F 
ATOM     84  C   UNL A   1      46.497  28.850  35.969  1.00  0.00     0.198 A 
ATOM     85  C   UNL A   1      45.068  27.289  37.104  1.00  0.00     0.198 A 
ATOM     86  F   UNL A   1      42.765  27.237  36.625  1.00  0.00    -0.203 F 
ATOM     87  F   UNL A   1      47.719  29.346  35.736  1.00  0.00    -0.200 F 
ATOM     88  C   UNL A   1      46.330  27.819  36.883  1.00  0.00     0.200 A 
ATOM     89  F   UNL A   1      44.903  26.300  37.993  1.00  0.00    -0.200 F 
ATOM     90  F   UNL A   1      47.388  27.331  37.544  1.00  0.00    -0.200 F 
ENDBRANCH  57  80
ENDBRANCH  31  32
ENDBRANCH  23  26
ENDBRANCH  21  22
ENDBRANCH   1  21
TORSDOF 12
ENDMDL
MODEL 3
REMARK VINA RESULT:     -12.2      5.828     11.906
REMARK SMILES C[C@H]1[C@H](C(=O)NCCCNC(=O)c2ccc(-c3c4nc(c(-c5c(F)c(F)c(F)c(F)c5F)c5ccc([nH]5)c(-c5c(F)c(F)c(F)c(F)c5F)c5nc(c(-c6c(F)c(F)c(F)c(F)c6F)c6ccc3[nH]6)C=C5)C=C4)cc2)CCN1C(=O)[C@H]1CC=CCC1
REMARK SMILES IDX 8 1 7 2 6 3 4 4 5 5 3 7 1 8 2 9 78 10 76 11 77 12 79 13
REMARK SMILES IDX 80 14 81 15 82 16 86 17 83 18 85 19 84 20 9 21 10 22 11 23
REMARK SMILES IDX 12 25 13 26 14 27 75 28 15 29 74 30 16 31 17 32 18 33 68 34
REMARK SMILES IDX 19 35 73 36 67 37 69 38 20 39 72 40 66 41 65 42 21 44 53 45
REMARK SMILES IDX 33 46 52 47 34 48 37 49 51 50 70 51 35 52 36 53 50 55 71 56
REMARK SMILES IDX 38 57 22 58 23 59 31 60 24 61 25 62 29 63 32 64 26 65 27 66
REMARK SMILES IDX 30 67 28 68 54 69 55 70 63 71 56 72 57 73 61 74 64 75 58 76
REMARK SMILES IDX 59 77 62 78 60 79 39 80 40 81 48 82 41 83 42 84 46 85 49 86
REMARK SMILES IDX 43 87 44 88 47 89 45 90
REMARK H PARENT 6 6 10 24 69 43 37 54
REMARK Flexibility Score: inf
ROOT
ATOM      1  C   UNL A   1      41.035  19.926  26.959  1.00  0.00     0.042 C 
ENDROOT
BRANCH   1   2
ATOM      2  C   UNL A   1      42.534  19.716  27.139  1.00  0.00     0.117 C 
BRANCH   2   3
ATOM      3  N   UNL A   1      43.279  19.955  25.914  1.00  0.00    -0.356 N 
ATOM      4  C   UNL A   1      43.856  21.054  25.376  1.00  0.00     0.225 C 
ATOM      5  O   UNL A   1      44.428  20.887  24.292  1.00  0.00    -0.275 OA
ATOM      6  H   UNL A   1      43.388  19.147  25.361  1.00  0.00     0.163 HD
BRANCH   4   7
ATOM      7  C   UNL A   1      43.802  22.450  25.972  1.00  0.00     0.102 C 
ATOM      8  C   UNL A   1      45.114  23.448  27.842  1.00  0.00     0.032 C 
ATOM      9  C   UNL A   1      45.188  22.972  26.387  1.00  0.00     0.094 C 
ATOM     10  N   UNL A   1      45.459  24.071  25.465  1.00  0.00    -0.339 N 
ATOM     11  C   UNL A   1      43.149  23.550  25.141  1.00  0.00     0.037 C 
ATOM     12  C   UNL A   1      44.202  24.642  25.001  1.00  0.00     0.120 C 
BRANCH  10  13
ATOM     13  C   UNL A   1      46.638  24.641  25.044  1.00  0.00     0.226 C 
ATOM     14  O   UNL A   1      47.136  24.258  23.973  1.00  0.00    -0.275 OA
BRANCH  13  15
ATOM     15  C   UNL A   1      47.435  25.698  25.833  1.00  0.00     0.083 C 
ATOM     16  C   UNL A   1      48.304  25.209  26.990  1.00  0.00     0.040 C 
ATOM     17  C   UNL A   1      48.068  26.810  24.991  1.00  0.00     0.018 C 
ATOM     18  C   UNL A   1      49.783  25.312  26.771  1.00  0.00    -0.030 C 
ATOM     19  C   UNL A   1      49.552  26.641  24.666  1.00  0.00     0.028 C 
ATOM     20  C   UNL A   1      50.340  25.951  25.733  1.00  0.00    -0.031 C 
ENDBRANCH  13  15
ENDBRANCH  10  13
ENDBRANCH   4   7
ENDBRANCH   2   3
ENDBRANCH   1   2
BRANCH   1  21
ATOM     21  C   UNL A   1      40.540  21.355  27.138  1.00  0.00     0.118 C 
BRANCH  21  22
ATOM     22  N   UNL A   1      39.388  21.659  26.309  1.00  0.00    -0.352 N 
ATOM     23  C   UNL A   1      38.710  22.839  26.126  1.00  0.00     0.251 C 
ATOM     24  H   UNL A   1      39.036  20.897  25.796  1.00  0.00     0.163 HD
ATOM     25  O   UNL A   1      37.645  22.824  25.507  1.00  0.00    -0.269 OA
BRANCH  23  26
ATOM     26  C   UNL A   1      39.211  24.127  26.669  1.00  0.00     0.039 A 
ATOM     27  C   UNL A   1      38.902  24.453  27.995  1.00  0.00     0.014 A 
ATOM     28  C   UNL A   1      39.909  25.049  25.885  1.00  0.00     0.014 A 
ATOM     29  C   UNL A   1      39.327  25.668  28.541  1.00  0.00     0.010 A 
ATOM     30  C   UNL A   1      40.404  26.226  26.453  1.00  0.00     0.010 A 
ATOM     31  C   UNL A   1      40.104  26.558  27.782  1.00  0.00    -0.014 A 
BRANCH  31  32
ATOM     32  C   UNL A   1      40.575  27.846  28.361  1.00  0.00     0.031 A 
ATOM     33  C   UNL A   1      42.035  28.062  28.660  1.00  0.00     0.074 A 
ATOM     34  C   UNL A   1      39.686  28.816  28.653  1.00  0.00     0.049 A 
ATOM     35  N   UNL A   1      42.628  29.103  29.190  1.00  0.00    -0.248 NA
ATOM     36  C   UNL A   1      42.947  26.952  28.344  1.00  0.00     0.031 C 
ATOM     37  C   UNL A   1      38.239  28.721  28.464  1.00  0.00     0.029 A 
ATOM     38  N   UNL A   1      39.872  30.073  29.176  1.00  0.00    -0.354 N 
ATOM     39  C   UNL A   1      43.972  28.769  29.284  1.00  0.00     0.074 A 
ATOM     40  C   UNL A   1      44.102  27.409  28.804  1.00  0.00     0.031 C 
ATOM     41  C   UNL A   1      37.670  29.877  28.842  1.00  0.00     0.029 A 
ATOM     42  C   UNL A   1      38.707  30.785  29.326  1.00  0.00     0.049 A 
ATOM     43  H   UNL A   1      40.757  30.430  29.421  1.00  0.00     0.167 HD
ATOM     44  C   UNL A   1      45.011  29.530  29.708  1.00  0.00     0.037 A 
ATOM     45  C   UNL A   1      38.498  32.029  29.796  1.00  0.00     0.037 A 
ATOM     46  C   UNL A   1      44.895  30.893  30.153  1.00  0.00     0.049 A 
ATOM     47  C   UNL A   1      39.669  32.864  30.235  1.00  0.00     0.074 A 
ATOM     48  C   UNL A   1      45.898  31.763  30.547  1.00  0.00     0.029 A 
ATOM     49  N   UNL A   1      43.700  31.588  30.262  1.00  0.00    -0.354 N 
ATOM     50  N   UNL A   1      40.942  32.554  30.262  1.00  0.00    -0.248 NA
ATOM     51  C   UNL A   1      39.373  34.227  30.698  1.00  0.00     0.031 C 
ATOM     52  C   UNL A   1      45.307  32.973  30.924  1.00  0.00     0.029 A 
ATOM     53  C   UNL A   1      43.940  32.872  30.729  1.00  0.00     0.049 A 
ATOM     54  H   UNL A   1      42.812  31.224  30.041  1.00  0.00     0.167 HD
ATOM     55  C   UNL A   1      41.599  33.686  30.725  1.00  0.00     0.074 A 
ATOM     56  C   UNL A   1      40.587  34.696  30.950  1.00  0.00     0.031 C 
ATOM     57  C   UNL A   1      42.924  33.868  30.948  1.00  0.00     0.037 A 
BRANCH  44  58
ATOM     58  C   UNL A   1      46.375  28.903  29.697  1.00  0.00     0.064 A 
ATOM     59  C   UNL A   1      47.230  29.028  28.591  1.00  0.00     0.173 A 
ATOM     60  C   UNL A   1      46.846  28.201  30.815  1.00  0.00     0.173 A 
ATOM     61  F   UNL A   1      46.821  29.681  27.492  1.00  0.00    -0.203 F 
ATOM     62  C   UNL A   1      48.495  28.446  28.594  1.00  0.00     0.198 A 
ATOM     63  C   UNL A   1      48.123  27.643  30.825  1.00  0.00     0.198 A 
ATOM     64  F   UNL A   1      46.071  28.057  31.901  1.00  0.00    -0.203 F 
ATOM     65  F   UNL A   1      49.275  28.538  27.509  1.00  0.00    -0.200 F 
ATOM     66  C   UNL A   1      48.943  27.760  29.714  1.00  0.00     0.200 A 
ATOM     67  F   UNL A   1      48.558  26.990  31.912  1.00  0.00    -0.200 F 
ATOM     68  F   UNL A   1      50.162  27.204  29.716  1.00  0.00    -0.200 F 
ENDBRANCH  44  58
BRANCH  45  69
ATOM     69  C   UNL A   1      37.117  32.573  29.849  1.00  0.00     0.064 A 
ATOM     70  C   UNL A   1      36.323  32.409  30.992  1.00  0.00     0.173 A 
ATOM     71  C   UNL A   1      36.567  33.269  28.764  1.00  0.00     0.173 A 
ATOM     72  F   UNL A   1      36.800  31.730  32.046  1.00  0.00    -0.203 F 
ATOM     73  C   UNL A   1      35.023  32.907  31.043  1.00  0.00     0.198 A 
ATOM     74  C   UNL A   1      35.275  33.788  28.824  1.00  0.00     0.198 A 
ATOM     75  F   UNL A   1      37.289  33.455  27.649  1.00  0.00    -0.203 F 
ATOM     76  F   UNL A   1      34.271  32.702  32.132  1.00  0.00    -0.200 F 
ATOM     77  C   UNL A   1      34.503  33.601  29.960  1.00  0.00     0.200 A 
ATOM     78  F   UNL A   1      34.780  34.468  27.781  1.00  0.00    -0.200 F 
ATOM     79  F   UNL A   1      33.254  34.085  30.010  1.00  0.00    -0.200 F 
ENDBRANCH  45  69
BRANCH  57  80
ATOM     80  C   UNL A   1      43.356  35.216  31.443  1.00  0.00     0.064 A 
ATOM     81  C   UNL A   1      43.760  36.226  30.557  1.00  0.00     0.173 A 
ATOM     82  C   UNL A   1      43.338  35.512  32.814  1.00  0.00     0.173 A 
ATOM     83  F   UNL A   1      43.807  35.987  29.237  1.00  0.00    -0.203 F 
ATOM     84  C   UNL A   1      44.155  37.476  31.028  1.00  0.00     0.198 A 
ATOM     85  C   UNL A   1      43.711  36.770  33.281  1.00  0.00     0.198 A 
ATOM     86  F   UNL A   1      42.955  34.582  33.702  1.00  0.00    -0.203 F 
ATOM     87  F   UNL A   1      44.579  38.410  30.168  1.00  0.00    -0.200 F 
ATOM     88  C   UNL A   1      44.125  37.747  32.389  1.00  0.00     0.200 A 
ATOM     89  F   UNL A   1      43.672  37.034  34.593  1.00  0.00    -0.200 F 
ATOM     90  F   UNL A   1      44.505  38.951  32.840  1.00  0.00    -0.200 F 
ENDBRANCH  57  80
ENDBRANCH  31  32
ENDBRANCH  23  26
ENDBRANCH  21  22
ENDBRANCH   1  21
TORSDOF 12
ENDMDL
