MODEL 1
REMARK VINA RESULT:     -12.8      0.000      0.000
REMARK SMILES O=C(Cc1ccc(F)c(F)c1)NC1(C(=O)NCCCNC(=O)c2ccc(-c3c4nc(c(-c5c(F)c(F)c(F)c(F)c5F)c5ccc([nH]5)c(-c5c(F)c(F)c(F)c(F)c5F)c5nc(c(-c6c(F)c(F)c(F)c(F)c6F)c6ccc3[nH]6)C=C5)C=C4)cc2)CCCC1
REMARK SMILES IDX 17 1 16 2 14 3 15 4 13 6 86 7 89 8 87 9 88 10 12 11 1 12
REMARK SMILES IDX 2 13 3 15 4 16 5 17 11 18 6 19 9 20 7 21 10 22 8 23 18 24
REMARK SMILES IDX 19 25 20 26 21 27 22 29 23 30 24 31 85 32 25 33 84 34 26 35
REMARK SMILES IDX 27 36 28 37 78 38 29 39 83 40 77 41 79 42 30 43 82 44 76 45
REMARK SMILES IDX 75 46 31 48 63 49 43 50 62 51 44 52 47 53 61 54 80 55 45 56
REMARK SMILES IDX 46 57 60 59 81 60 48 61 32 62 33 63 41 64 34 65 35 66 39 67
REMARK SMILES IDX 42 68 36 69 37 70 40 71 38 72 64 73 65 74 73 75 66 76 67 77
REMARK SMILES IDX 71 78 74 79 68 80 69 81 72 82 70 83 49 84 50 85 58 86 51 87
REMARK SMILES IDX 52 88 56 89 59 90 53 91 54 92 57 93 55 94
REMARK H PARENT 16 5 12 14 20 28 79 47 47 58
REMARK Flexibility Score: inf
ROOT
ATOM      1  C   UNL A   1      31.414  30.385  26.099  1.00  0.00     0.117 C 
ENDROOT
BRANCH   1   2
ATOM      2  N   UNL A   1      32.494  30.079  25.185  1.00  0.00    -0.354 N 
ATOM      3  C   UNL A   1      32.816  28.934  24.526  1.00  0.00     0.245 C 
ATOM      4  O   UNL A   1      33.794  29.006  23.765  1.00  0.00    -0.272 OA
ATOM      5  H   UNL A   1      33.103  30.833  25.008  1.00  0.00     0.163 HD
BRANCH   3   6
ATOM      6  C   UNL A   1      32.057  27.575  24.704  1.00  0.00     0.119 C 
ATOM      7  C   UNL A   1      32.104  27.045  26.144  1.00  0.00     0.038 C 
ATOM      8  C   UNL A   1      32.629  26.486  23.788  1.00  0.00     0.038 C 
ATOM      9  C   UNL A   1      32.714  25.646  26.093  1.00  0.00     0.003 C 
ATOM     10  C   UNL A   1      33.223  25.406  24.680  1.00  0.00     0.003 C 
BRANCH   6  11
ATOM     11  N   UNL A   1      30.674  27.917  24.315  1.00  0.00    -0.341 N 
ATOM     12  O   UNL A   1      30.831  27.603  22.049  1.00  0.00    -0.275 OA
ATOM     13  C   UNL A   1      30.164  27.887  23.040  1.00  0.00     0.225 C 
ATOM     14  H   UNL A   1      30.061  28.191  25.035  1.00  0.00     0.164 HD
BRANCH  13  15
ATOM     15  C   UNL A   1      28.698  28.273  22.947  1.00  0.00     0.135 C 
BRANCH  15  16
ATOM     16  C   UNL A   1      28.476  29.727  22.596  1.00  0.00    -0.036 A 
ATOM     17  C   UNL A   1      28.678  30.730  23.560  1.00  0.00     0.007 A 
ATOM     18  C   UNL A   1      28.091  30.099  21.297  1.00  0.00     0.046 A 
ATOM     19  C   UNL A   1      28.487  32.076  23.235  1.00  0.00     0.043 A 
ATOM     20  C   UNL A   1      27.901  31.443  20.985  1.00  0.00     0.159 A 
ATOM     21  C   UNL A   1      28.098  32.424  21.947  1.00  0.00     0.158 A 
ATOM     22  F   UNL A   1      27.524  31.781  19.743  1.00  0.00    -0.204 F 
ATOM     23  F   UNL A   1      27.917  33.717  21.642  1.00  0.00    -0.204 F 
ENDBRANCH  15  16
ENDBRANCH  13  15
ENDBRANCH   6  11
ENDBRANCH   3   6
ENDBRANCH   1   2
BRANCH   1  24
ATOM     24  C   UNL A   1      31.324  31.870  26.415  1.00  0.00     0.042 C 
BRANCH  24  25
ATOM     25  C   UNL A   1      32.633  32.453  26.927  1.00  0.00     0.118 C 
BRANCH  25  26
ATOM     26  N   UNL A   1      32.476  33.821  27.406  1.00  0.00    -0.352 N 
ATOM     27  C   UNL A   1      33.074  34.481  28.447  1.00  0.00     0.251 C 
ATOM     28  H   UNL A   1      31.832  34.361  26.894  1.00  0.00     0.163 HD
ATOM     29  O   UNL A   1      32.616  35.566  28.811  1.00  0.00    -0.269 OA
BRANCH  27  30
ATOM     30  C   UNL A   1      34.249  33.916  29.140  1.00  0.00     0.039 A 
ATOM     31  C   UNL A   1      34.055  32.892  30.071  1.00  0.00     0.014 A 
ATOM     32  C   UNL A   1      35.533  34.421  28.922  1.00  0.00     0.014 A 
ATOM     33  C   UNL A   1      35.150  32.344  30.742  1.00  0.00     0.010 A 
ATOM     34  C   UNL A   1      36.634  33.809  29.514  1.00  0.00     0.010 A 
ATOM     35  C   UNL A   1      36.452  32.776  30.444  1.00  0.00    -0.014 A 
BRANCH  35  36
ATOM     36  C   UNL A   1      37.633  32.178  31.114  1.00  0.00     0.031 A 
ATOM     37  C   UNL A   1      38.427  31.102  30.423  1.00  0.00     0.074 A 
ATOM     38  C   UNL A   1      37.962  32.570  32.359  1.00  0.00     0.049 A 
ATOM     39  N   UNL A   1      39.457  30.424  30.862  1.00  0.00    -0.248 NA
ATOM     40  C   UNL A   1      37.990  30.714  29.072  1.00  0.00     0.031 C 
ATOM     41  C   UNL A   1      37.238  33.570  33.146  1.00  0.00     0.029 A 
ATOM     42  N   UNL A   1      38.988  32.179  33.183  1.00  0.00    -0.354 N 
ATOM     43  C   UNL A   1      39.779  29.529  29.851  1.00  0.00     0.074 A 
ATOM     44  C   UNL A   1      38.800  29.701  28.802  1.00  0.00     0.031 C 
ATOM     45  C   UNL A   1      37.866  33.745  34.319  1.00  0.00     0.029 A 
ATOM     46  C   UNL A   1      39.010  32.841  34.386  1.00  0.00     0.049 A 
ATOM     47  H   UNL A   1      39.645  31.491  32.934  1.00  0.00     0.167 HD
ATOM     48  C   UNL A   1      40.819  28.667  29.789  1.00  0.00     0.037 A 
ATOM     49  C   UNL A   1      39.860  32.732  35.426  1.00  0.00     0.037 A 
ATOM     50  C   UNL A   1      41.815  28.533  30.819  1.00  0.00     0.049 A 
ATOM     51  C   UNL A   1      41.004  31.761  35.336  1.00  0.00     0.074 A 
ATOM     52  C   UNL A   1      42.944  27.734  30.823  1.00  0.00     0.029 A 
ATOM     53  N   UNL A   1      41.802  29.221  32.023  1.00  0.00    -0.354 N 
ATOM     54  N   UNL A   1      41.333  30.964  34.348  1.00  0.00    -0.248 NA
ATOM     55  C   UNL A   1      41.895  31.669  36.502  1.00  0.00     0.031 C 
ATOM     56  C   UNL A   1      43.590  27.903  32.050  1.00  0.00     0.029 A 
ATOM     57  C   UNL A   1      42.892  28.845  32.790  1.00  0.00     0.049 A 
ATOM     58  H   UNL A   1      41.119  29.877  32.292  1.00  0.00     0.167 HD
ATOM     59  C   UNL A   1      42.478  30.296  34.761  1.00  0.00     0.074 A 
ATOM     60  C   UNL A   1      42.794  30.788  36.086  1.00  0.00     0.031 C 
ATOM     61  C   UNL A   1      43.197  29.355  34.101  1.00  0.00     0.037 A 
BRANCH  48  62
ATOM     62  C   UNL A   1      40.959  27.816  28.560  1.00  0.00     0.064 A 
ATOM     63  C   UNL A   1      41.715  28.262  27.465  1.00  0.00     0.173 A 
ATOM     64  C   UNL A   1      40.281  26.594  28.436  1.00  0.00     0.173 A 
ATOM     65  F   UNL A   1      42.377  29.425  27.529  1.00  0.00    -0.203 F 
ATOM     66  C   UNL A   1      41.776  27.520  26.288  1.00  0.00     0.198 A 
ATOM     67  C   UNL A   1      40.369  25.841  27.269  1.00  0.00     0.198 A 
ATOM     68  F   UNL A   1      39.553  26.119  29.458  1.00  0.00    -0.203 F 
ATOM     69  F   UNL A   1      42.476  27.981  25.243  1.00  0.00    -0.200 F 
ATOM     70  C   UNL A   1      41.106  26.309  26.192  1.00  0.00     0.200 A 
ATOM     71  F   UNL A   1      39.741  24.659  27.187  1.00  0.00    -0.200 F 
ATOM     72  F   UNL A   1      41.174  25.592  25.062  1.00  0.00    -0.200 F 
ENDBRANCH  48  62
BRANCH  49  73
ATOM     73  C   UNL A   1      39.677  33.602  36.617  1.00  0.00     0.064 A 
ATOM     74  C   UNL A   1      38.878  33.208  37.700  1.00  0.00     0.173 A 
ATOM     75  C   UNL A   1      40.272  34.871  36.674  1.00  0.00     0.173 A 
ATOM     76  F   UNL A   1      38.280  32.008  37.692  1.00  0.00    -0.203 F 
ATOM     77  C   UNL A   1      38.662  34.058  38.783  1.00  0.00     0.198 A 
ATOM     78  C   UNL A   1      40.078  35.709  37.771  1.00  0.00     0.198 A 
ATOM     79  F   UNL A   1      41.060  35.286  35.671  1.00  0.00    -0.203 F 
ATOM     80  F   UNL A   1      37.863  33.671  39.787  1.00  0.00    -0.200 F 
ATOM     81  C   UNL A   1      39.267  35.305  38.820  1.00  0.00     0.200 A 
ATOM     82  F   UNL A   1      40.681  36.905  37.812  1.00  0.00    -0.200 F 
ATOM     83  F   UNL A   1      39.066  36.119  39.866  1.00  0.00    -0.200 F 
ENDBRANCH  49  73
BRANCH  61  84
ATOM     84  C   UNL A   1      44.409  28.795  34.783  1.00  0.00     0.064 A 
ATOM     85  C   UNL A   1      44.298  27.672  35.618  1.00  0.00     0.173 A 
ATOM     86  C   UNL A   1      45.652  29.439  34.704  1.00  0.00     0.173 A 
ATOM     87  F   UNL A   1      43.127  27.029  35.734  1.00  0.00    -0.203 F 
ATOM     88  C   UNL A   1      45.382  27.233  36.372  1.00  0.00     0.198 A 
ATOM     89  C   UNL A   1      46.741  28.980  35.439  1.00  0.00     0.198 A 
ATOM     90  F   UNL A   1      45.808  30.509  33.910  1.00  0.00    -0.203 F 
ATOM     91  F   UNL A   1      45.241  26.190  37.201  1.00  0.00    -0.200 F 
ATOM     92  C   UNL A   1      46.601  27.887  36.283  1.00  0.00     0.200 A 
ATOM     93  F   UNL A   1      47.924  29.601  35.338  1.00  0.00    -0.200 F 
ATOM     94  F   UNL A   1      47.643  27.466  37.013  1.00  0.00    -0.200 F 
ENDBRANCH  61  84
ENDBRANCH  35  36
ENDBRANCH  27  30
ENDBRANCH  25  26
ENDBRANCH  24  25
ENDBRANCH   1  24
TORSDOF 13
ENDMDL
MODEL 2
REMARK VINA RESULT:     -12.8      0.896      7.410
REMARK SMILES O=C(Cc1ccc(F)c(F)c1)NC1(C(=O)NCCCNC(=O)c2ccc(-c3c4nc(c(-c5c(F)c(F)c(F)c(F)c5F)c5ccc([nH]5)c(-c5c(F)c(F)c(F)c(F)c5F)c5nc(c(-c6c(F)c(F)c(F)c(F)c6F)c6ccc3[nH]6)C=C5)C=C4)cc2)CCCC1
REMARK SMILES IDX 17 1 16 2 14 3 15 4 13 6 86 7 89 8 87 9 88 10 12 11 1 12
REMARK SMILES IDX 2 13 3 15 4 16 5 17 11 18 6 19 9 20 7 21 10 22 8 23 18 24
REMARK SMILES IDX 19 25 20 26 21 27 22 29 23 30 24 31 85 32 25 33 84 34 26 35
REMARK SMILES IDX 27 36 28 37 78 38 29 39 83 40 77 41 79 42 30 43 82 44 76 45
REMARK SMILES IDX 75 46 31 48 63 49 43 50 62 51 44 52 47 53 61 54 80 55 45 56
REMARK SMILES IDX 46 57 60 59 81 60 48 61 32 62 33 63 41 64 34 65 35 66 39 67
REMARK SMILES IDX 42 68 36 69 37 70 40 71 38 72 64 73 65 74 73 75 66 76 67 77
REMARK SMILES IDX 71 78 74 79 68 80 69 81 72 82 70 83 49 84 50 85 58 86 51 87
REMARK SMILES IDX 52 88 56 89 59 90 53 91 54 92 57 93 55 94
REMARK H PARENT 16 5 12 14 20 28 79 47 47 58
REMARK Flexibility Score: inf
ROOT
ATOM      1  C   UNL A   1      31.340  30.852  25.687  1.00  0.00     0.117 C 
ENDROOT
BRANCH   1   2
ATOM      2  N   UNL A   1      32.433  29.998  26.100  1.00  0.00    -0.354 N 
ATOM      3  C   UNL A   1      33.031  28.943  25.485  1.00  0.00     0.245 C 
ATOM      4  O   UNL A   1      33.990  28.438  26.090  1.00  0.00    -0.272 OA
ATOM      5  H   UNL A   1      32.810  30.219  26.982  1.00  0.00     0.163 HD
BRANCH   3   6
ATOM      6  C   UNL A   1      32.560  28.342  24.117  1.00  0.00     0.119 C 
ATOM      7  C   UNL A   1      32.717  26.817  24.044  1.00  0.00     0.038 C 
ATOM      8  C   UNL A   1      33.334  28.947  22.939  1.00  0.00     0.038 C 
ATOM      9  C   UNL A   1      33.594  26.508  22.833  1.00  0.00     0.003 C 
ATOM     10  C   UNL A   1      34.135  27.825  22.296  1.00  0.00     0.003 C 
BRANCH   6  11
ATOM     11  N   UNL A   1      31.134  28.726  24.063  1.00  0.00    -0.341 N 
ATOM     12  O   UNL A   1      30.594  27.879  22.002  1.00  0.00    -0.275 OA
ATOM     13  C   UNL A   1      30.265  28.454  23.036  1.00  0.00     0.225 C 
ATOM     14  H   UNL A   1      30.775  29.223  24.833  1.00  0.00     0.164 HD
BRANCH  13  15
ATOM     15  C   UNL A   1      28.851  28.958  23.268  1.00  0.00     0.135 C 
BRANCH  15  16
ATOM     16  C   UNL A   1      28.544  30.253  22.548  1.00  0.00    -0.036 A 
ATOM     17  C   UNL A   1      28.050  30.234  21.233  1.00  0.00     0.007 A 
ATOM     18  C   UNL A   1      28.721  31.488  23.192  1.00  0.00     0.046 A 
ATOM     19  C   UNL A   1      27.751  31.429  20.570  1.00  0.00     0.043 A 
ATOM     20  C   UNL A   1      28.423  32.673  22.522  1.00  0.00     0.159 A 
ATOM     21  C   UNL A   1      27.941  32.642  21.220  1.00  0.00     0.158 A 
ATOM     22  F   UNL A   1      28.606  33.844  23.147  1.00  0.00    -0.204 F 
ATOM     23  F   UNL A   1      27.652  33.783  20.579  1.00  0.00    -0.204 F 
ENDBRANCH  15  16
ENDBRANCH  13  15
ENDBRANCH   6  11
ENDBRANCH   3   6
ENDBRANCH   1   2
BRANCH   1  24
ATOM     24  C   UNL A   1      31.270  32.139  26.495  1.00  0.00     0.042 C 
BRANCH  24  25
ATOM     25  C   UNL A   1      32.584  32.486  27.180  1.00  0.00     0.118 C 
BRANCH  25  26
ATOM     26  N   UNL A   1      32.651  33.891  27.562  1.00  0.00    -0.352 N 
ATOM     27  C   UNL A   1      33.426  34.531  28.493  1.00  0.00     0.251 C 
ATOM     28  H   UNL A   1      32.036  34.478  27.067  1.00  0.00     0.163 HD
ATOM     29  O   UNL A   1      33.149  35.690  28.810  1.00  0.00    -0.269 OA
BRANCH  27  30
ATOM     30  C   UNL A   1      34.579  33.859  29.124  1.00  0.00     0.039 A 
ATOM     31  C   UNL A   1      34.342  32.850  30.063  1.00  0.00     0.014 A 
ATOM     32  C   UNL A   1      35.891  34.249  28.843  1.00  0.00     0.014 A 
ATOM     33  C   UNL A   1      35.416  32.202  30.675  1.00  0.00     0.010 A 
ATOM     34  C   UNL A   1      36.961  33.537  29.377  1.00  0.00     0.010 A 
ATOM     35  C   UNL A   1      36.735  32.519  30.313  1.00  0.00    -0.014 A 
BRANCH  35  36
ATOM     36  C   UNL A   1      37.890  31.813  30.921  1.00  0.00     0.031 A 
ATOM     37  C   UNL A   1      38.320  32.141  32.325  1.00  0.00     0.074 A 
ATOM     38  C   UNL A   1      38.577  30.912  30.193  1.00  0.00     0.049 A 
ATOM     39  N   UNL A   1      39.330  31.670  33.011  1.00  0.00    -0.248 NA
ATOM     40  C   UNL A   1      37.529  33.152  33.046  1.00  0.00     0.031 C 
ATOM     41  C   UNL A   1      38.282  30.548  28.807  1.00  0.00     0.029 A 
ATOM     42  N   UNL A   1      39.663  30.137  30.516  1.00  0.00    -0.354 N 
ATOM     43  C   UNL A   1      39.301  32.334  34.229  1.00  0.00     0.074 A 
ATOM     44  C   UNL A   1      38.215  33.286  34.171  1.00  0.00     0.031 C 
ATOM     45  C   UNL A   1      39.137  29.591  28.412  1.00  0.00     0.029 A 
ATOM     46  C   UNL A   1      40.066  29.305  29.500  1.00  0.00     0.049 A 
ATOM     47  H   UNL A   1      40.110  30.174  31.392  1.00  0.00     0.167 HD
ATOM     48  C   UNL A   1      40.087  32.140  35.314  1.00  0.00     0.037 A 
ATOM     49  C   UNL A   1      41.072  28.409  29.454  1.00  0.00     0.037 A 
ATOM     50  C   UNL A   1      41.137  31.159  35.380  1.00  0.00     0.049 A 
ATOM     51  C   UNL A   1      41.937  28.217  30.669  1.00  0.00     0.074 A 
ATOM     52  C   UNL A   1      41.948  30.840  36.454  1.00  0.00     0.029 A 
ATOM     53  N   UNL A   1      41.515  30.335  34.330  1.00  0.00    -0.354 N 
ATOM     54  N   UNL A   1      41.859  28.808  31.837  1.00  0.00    -0.248 NA
ATOM     55  C   UNL A   1      43.028  27.239  30.563  1.00  0.00     0.031 C 
ATOM     56  C   UNL A   1      42.849  29.856  36.040  1.00  0.00     0.029 A 
ATOM     57  C   UNL A   1      42.566  29.526  34.724  1.00  0.00     0.049 A 
ATOM     58  H   UNL A   1      41.099  30.329  33.438  1.00  0.00     0.167 HD
ATOM     59  C   UNL A   1      42.872  28.259  32.611  1.00  0.00     0.074 A 
ATOM     60  C   UNL A   1      43.546  27.279  31.784  1.00  0.00     0.031 C 
ATOM     61  C   UNL A   1      43.215  28.547  33.890  1.00  0.00     0.037 A 
BRANCH  48  62
ATOM     62  C   UNL A   1      39.831  32.982  36.530  1.00  0.00     0.064 A 
ATOM     63  C   UNL A   1      38.835  32.622  37.450  1.00  0.00     0.173 A 
ATOM     64  C   UNL A   1      40.521  34.184  36.745  1.00  0.00     0.173 A 
ATOM     65  F   UNL A   1      38.142  31.486  37.289  1.00  0.00    -0.203 F 
ATOM     66  C   UNL A   1      38.531  33.444  38.533  1.00  0.00     0.198 A 
ATOM     67  C   UNL A   1      40.235  34.988  37.845  1.00  0.00     0.198 A 
ATOM     68  F   UNL A   1      41.490  34.567  35.899  1.00  0.00    -0.203 F 
ATOM     69  F   UNL A   1      37.552  33.098  39.380  1.00  0.00    -0.200 F 
ATOM     70  C   UNL A   1      39.233  34.623  38.732  1.00  0.00     0.200 A 
ATOM     71  F   UNL A   1      40.932  36.115  38.049  1.00  0.00    -0.200 F 
ATOM     72  F   UNL A   1      38.945  35.407  39.779  1.00  0.00    -0.200 F 
ENDBRANCH  48  62
BRANCH  49  73
ATOM     73  C   UNL A   1      41.277  27.600  28.224  1.00  0.00     0.064 A 
ATOM     74  C   UNL A   1      40.637  26.365  28.041  1.00  0.00     0.173 A 
ATOM     75  C   UNL A   1      42.156  28.033  27.221  1.00  0.00     0.173 A 
ATOM     76  F   UNL A   1      39.792  25.902  28.974  1.00  0.00    -0.203 F 
ATOM     77  C   UNL A   1      40.885  25.585  26.914  1.00  0.00     0.198 A 
ATOM     78  C   UNL A   1      42.382  27.265  26.080  1.00  0.00     0.198 A 
ATOM     79  F   UNL A   1      42.777  29.215  27.341  1.00  0.00    -0.203 F 
ATOM     80  F   UNL A   1      40.289  24.392  26.783  1.00  0.00    -0.200 F 
ATOM     81  C   UNL A   1      41.753  26.038  25.932  1.00  0.00     0.200 A 
ATOM     82  F   UNL A   1      43.205  27.716  25.124  1.00  0.00    -0.200 F 
ATOM     83  F   UNL A   1      41.984  25.291  24.843  1.00  0.00    -0.200 F 
ENDBRANCH  49  73
BRANCH  61  84
ATOM     84  C   UNL A   1      44.360  27.791  34.496  1.00  0.00     0.064 A 
ATOM     85  C   UNL A   1      44.132  26.586  35.178  1.00  0.00     0.173 A 
ATOM     86  C   UNL A   1      45.658  28.320  34.504  1.00  0.00     0.173 A 
ATOM     87  F   UNL A   1      42.905  26.047  35.207  1.00  0.00    -0.203 F 
ATOM     88  C   UNL A   1      45.159  25.953  35.871  1.00  0.00     0.198 A 
ATOM     89  C   UNL A   1      46.689  27.669  35.176  1.00  0.00     0.198 A 
ATOM     90  F   UNL A   1      45.925  29.463  33.856  1.00  0.00    -0.203 F 
ATOM     91  F   UNL A   1      44.909  24.830  36.558  1.00  0.00    -0.200 F 
ATOM     92  C   UNL A   1      46.435  26.494  35.871  1.00  0.00     0.200 A 
ATOM     93  F   UNL A   1      47.926  28.183  35.159  1.00  0.00    -0.200 F 
ATOM     94  F   UNL A   1      47.423  25.886  36.543  1.00  0.00    -0.200 F 
ENDBRANCH  61  84
ENDBRANCH  35  36
ENDBRANCH  27  30
ENDBRANCH  25  26
ENDBRANCH  24  25
ENDBRANCH   1  24
TORSDOF 13
ENDMDL
MODEL 3
REMARK VINA RESULT:     -12.8      0.648      1.902
REMARK SMILES O=C(Cc1ccc(F)c(F)c1)NC1(C(=O)NCCCNC(=O)c2ccc(-c3c4nc(c(-c5c(F)c(F)c(F)c(F)c5F)c5ccc([nH]5)c(-c5c(F)c(F)c(F)c(F)c5F)c5nc(c(-c6c(F)c(F)c(F)c(F)c6F)c6ccc3[nH]6)C=C5)C=C4)cc2)CCCC1
REMARK SMILES IDX 17 1 16 2 14 3 15 4 13 6 86 7 89 8 87 9 88 10 12 11 1 12
REMARK SMILES IDX 2 13 3 15 4 16 5 17 11 18 6 19 9 20 7 21 10 22 8 23 18 24
REMARK SMILES IDX 19 25 20 26 21 27 22 29 23 30 24 31 85 32 25 33 84 34 26 35
REMARK SMILES IDX 27 36 28 37 78 38 29 39 83 40 77 41 79 42 30 43 82 44 76 45
REMARK SMILES IDX 75 46 31 48 63 49 43 50 62 51 44 52 47 53 61 54 80 55 45 56
REMARK SMILES IDX 46 57 60 59 81 60 48 61 32 62 33 63 41 64 34 65 35 66 39 67
REMARK SMILES IDX 42 68 36 69 37 70 40 71 38 72 64 73 65 74 73 75 66 76 67 77
REMARK SMILES IDX 71 78 74 79 68 80 69 81 72 82 70 83 49 84 50 85 58 86 51 87
REMARK SMILES IDX 52 88 56 89 59 90 53 91 54 92 57 93 55 94
REMARK H PARENT 16 5 12 14 20 28 79 47 47 58
REMARK Flexibility Score: inf
ROOT
ATOM      1  C   UNL A   1      31.319  30.841  25.698  1.00  0.00     0.117 C 
ENDROOT
BRANCH   1   2
ATOM      2  N   UNL A   1      32.431  30.013  26.111  1.00  0.00    -0.354 N 
ATOM      3  C   UNL A   1      33.046  28.965  25.503  1.00  0.00     0.245 C 
ATOM      4  O   UNL A   1      34.019  28.484  26.105  1.00  0.00    -0.272 OA
ATOM      5  H   UNL A   1      32.810  30.251  26.989  1.00  0.00     0.163 HD
BRANCH   3   6
ATOM      6  C   UNL A   1      32.578  28.341  24.144  1.00  0.00     0.119 C 
ATOM      7  C   UNL A   1      32.742  26.815  24.094  1.00  0.00     0.038 C 
ATOM      8  C   UNL A   1      33.348  28.931  22.957  1.00  0.00     0.038 C 
ATOM      9  C   UNL A   1      33.620  26.493  22.887  1.00  0.00     0.003 C 
ATOM     10  C   UNL A   1      34.155  27.803  22.330  1.00  0.00     0.003 C 
BRANCH   6  11
ATOM     11  N   UNL A   1      31.150  28.717  24.084  1.00  0.00    -0.341 N 
ATOM     12  O   UNL A   1      30.612  27.834  22.038  1.00  0.00    -0.275 OA
ATOM     13  C   UNL A   1      30.281  28.424  23.062  1.00  0.00     0.225 C 
ATOM     14  H   UNL A   1      30.789  29.224  24.847  1.00  0.00     0.164 HD
BRANCH  13  15
ATOM     15  C   UNL A   1      28.865  28.925  23.287  1.00  0.00     0.135 C 
BRANCH  15  16
ATOM     16  C   UNL A   1      28.558  30.218  22.564  1.00  0.00    -0.036 A 
ATOM     17  C   UNL A   1      28.073  30.196  21.245  1.00  0.00     0.007 A 
ATOM     18  C   UNL A   1      28.727  31.455  23.207  1.00  0.00     0.046 A 
ATOM     19  C   UNL A   1      27.775  31.389  20.579  1.00  0.00     0.043 A 
ATOM     20  C   UNL A   1      28.429  32.637  22.533  1.00  0.00     0.159 A 
ATOM     21  C   UNL A   1      27.956  32.604  21.229  1.00  0.00     0.158 A 
ATOM     22  F   UNL A   1      28.604  33.811  23.158  1.00  0.00    -0.204 F 
ATOM     23  F   UNL A   1      27.667  33.743  20.584  1.00  0.00    -0.204 F 
ENDBRANCH  15  16
ENDBRANCH  13  15
ENDBRANCH   6  11
ENDBRANCH   3   6
ENDBRANCH   1   2
BRANCH   1  24
ATOM     24  C   UNL A   1      31.185  32.099  26.542  1.00  0.00     0.042 C 
BRANCH  24  25
ATOM     25  C   UNL A   1      32.517  32.601  27.083  1.00  0.00     0.118 C 
BRANCH  25  26
ATOM     26  N   UNL A   1      32.447  33.990  27.518  1.00  0.00    -0.352 N 
ATOM     27  C   UNL A   1      33.108  34.650  28.520  1.00  0.00     0.251 C 
ATOM     28  H   UNL A   1      31.817  34.547  27.006  1.00  0.00     0.163 HD
ATOM     29  O   UNL A   1      32.719  35.769  28.859  1.00  0.00    -0.269 OA
BRANCH  27  30
ATOM     30  C   UNL A   1      34.271  34.045  29.200  1.00  0.00     0.039 A 
ATOM     31  C   UNL A   1      34.049  33.083  30.189  1.00  0.00     0.014 A 
ATOM     32  C   UNL A   1      35.575  34.455  28.912  1.00  0.00     0.014 A 
ATOM     33  C   UNL A   1      35.132  32.500  30.849  1.00  0.00     0.010 A 
ATOM     34  C   UNL A   1      36.656  33.803  29.496  1.00  0.00     0.010 A 
ATOM     35  C   UNL A   1      36.446  32.832  30.484  1.00  0.00    -0.014 A 
BRANCH  35  36
ATOM     36  C   UNL A   1      37.612  32.192  31.142  1.00  0.00     0.031 A 
ATOM     37  C   UNL A   1      38.395  31.129  30.421  1.00  0.00     0.074 A 
ATOM     38  C   UNL A   1      37.936  32.537  32.403  1.00  0.00     0.049 A 
ATOM     39  N   UNL A   1      39.411  30.420  30.845  1.00  0.00    -0.248 NA
ATOM     40  C   UNL A   1      37.964  30.794  29.054  1.00  0.00     0.031 C 
ATOM     41  C   UNL A   1      37.221  33.520  33.218  1.00  0.00     0.029 A 
ATOM     42  N   UNL A   1      38.949  32.102  33.221  1.00  0.00    -0.354 N 
ATOM     43  C   UNL A   1      39.728  29.556  29.807  1.00  0.00     0.074 A 
ATOM     44  C   UNL A   1      38.761  29.779  28.756  1.00  0.00     0.031 C 
ATOM     45  C   UNL A   1      37.841  33.645  34.402  1.00  0.00     0.029 A 
ATOM     46  C   UNL A   1      38.970  32.721  34.447  1.00  0.00     0.049 A 
ATOM     47  H   UNL A   1      39.598  31.412  32.954  1.00  0.00     0.167 HD
ATOM     48  C   UNL A   1      40.756  28.680  29.723  1.00  0.00     0.037 A 
ATOM     49  C   UNL A   1      39.809  32.564  35.489  1.00  0.00     0.037 A 
ATOM     50  C   UNL A   1      41.740  28.495  30.756  1.00  0.00     0.049 A 
ATOM     51  C   UNL A   1      40.940  31.578  35.375  1.00  0.00     0.074 A 
ATOM     52  C   UNL A   1      42.857  27.679  30.742  1.00  0.00     0.029 A 
ATOM     53  N   UNL A   1      41.727  29.141  31.983  1.00  0.00    -0.354 N 
ATOM     54  N   UNL A   1      41.265  30.811  34.363  1.00  0.00    -0.248 NA
ATOM     55  C   UNL A   1      41.818  31.433  36.544  1.00  0.00     0.031 C 
ATOM     56  C   UNL A   1      43.495  27.796  31.979  1.00  0.00     0.029 A 
ATOM     57  C   UNL A   1      42.804  28.723  32.745  1.00  0.00     0.049 A 
ATOM     58  H   UNL A   1      41.052  29.798  32.269  1.00  0.00     0.167 HD
ATOM     59  C   UNL A   1      42.395  30.111  34.762  1.00  0.00     0.074 A 
ATOM     60  C   UNL A   1      42.708  30.553  36.106  1.00  0.00     0.031 C 
ATOM     61  C   UNL A   1      43.106  29.183  34.076  1.00  0.00     0.037 A 
BRANCH  48  62
ATOM     62  C   UNL A   1      40.892  27.870  28.467  1.00  0.00     0.064 A 
ATOM     63  C   UNL A   1      40.281  26.611  28.358  1.00  0.00     0.173 A 
ATOM     64  C   UNL A   1      41.692  28.305  27.400  1.00  0.00     0.173 A 
ATOM     65  F   UNL A   1      39.511  26.145  29.352  1.00  0.00    -0.203 F 
ATOM     66  C   UNL A   1      40.476  25.815  27.232  1.00  0.00     0.198 A 
ATOM     67  C   UNL A   1      41.860  27.520  26.263  1.00  0.00     0.198 A 
ATOM     68  F   UNL A   1      42.290  29.506  27.451  1.00  0.00    -0.203 F 
ATOM     69  F   UNL A   1      39.910  24.603  27.165  1.00  0.00    -0.200 F 
ATOM     70  C   UNL A   1      41.262  26.271  26.184  1.00  0.00     0.200 A 
ATOM     71  F   UNL A   1      42.600  27.974  25.241  1.00  0.00    -0.200 F 
ATOM     72  F   UNL A   1      41.441  25.509  25.098  1.00  0.00    -0.200 F 
ENDBRANCH  48  62
BRANCH  49  73
ATOM     73  C   UNL A   1      39.630  33.396  36.708  1.00  0.00     0.064 A 
ATOM     74  C   UNL A   1      38.810  32.980  37.767  1.00  0.00     0.173 A 
ATOM     75  C   UNL A   1      40.248  34.649  36.816  1.00  0.00     0.173 A 
ATOM     76  F   UNL A   1      38.190  31.792  37.711  1.00  0.00    -0.203 F 
ATOM     77  C   UNL A   1      38.598  33.795  38.877  1.00  0.00     0.198 A 
ATOM     78  C   UNL A   1      40.058  35.452  37.939  1.00  0.00     0.198 A 
ATOM     79  F   UNL A   1      41.056  35.083  35.837  1.00  0.00    -0.203 F 
ATOM     80  F   UNL A   1      37.780  33.390  39.858  1.00  0.00    -0.200 F 
ATOM     81  C   UNL A   1      39.227  35.028  38.964  1.00  0.00     0.200 A 
ATOM     82  F   UNL A   1      40.684  36.634  38.029  1.00  0.00    -0.200 F 
ATOM     83  F   UNL A   1      39.030  35.808  40.036  1.00  0.00    -0.200 F 
ENDBRANCH  49  73
BRANCH  61  84
ATOM     84  C   UNL A   1      44.304  28.581  34.748  1.00  0.00     0.064 A 
ATOM     85  C   UNL A   1      45.576  29.146  34.569  1.00  0.00     0.173 A 
ATOM     86  C   UNL A   1      44.209  27.381  35.465  1.00  0.00     0.173 A 
ATOM     87  F   UNL A   1      45.717  30.288  33.880  1.00  0.00    -0.203 F 
ATOM     88  C   UNL A   1      46.714  28.514  35.061  1.00  0.00     0.198 A 
ATOM     89  C   UNL A   1      45.348  26.766  35.979  1.00  0.00     0.198 A 
ATOM     90  F   UNL A   1      43.013  26.810  35.671  1.00  0.00    -0.203 F 
ATOM     91  F   UNL A   1      47.923  29.045  34.835  1.00  0.00    -0.200 F 
ATOM     92  C   UNL A   1      46.599  27.326  35.764  1.00  0.00     0.200 A 
ATOM     93  F   UNL A   1      45.234  25.626  36.676  1.00  0.00    -0.200 F 
ATOM     94  F   UNL A   1      47.696  26.715  36.234  1.00  0.00    -0.200 F 
ENDBRANCH  61  84
ENDBRANCH  35  36
ENDBRANCH  27  30
ENDBRANCH  25  26
ENDBRANCH  24  25
ENDBRANCH   1  24
TORSDOF 13
ENDMDL
