MODEL 1
REMARK VINA RESULT:     -13.5      0.000      0.000
REMARK SMILES O=C(NCCCNC(=O)[C@@H](Cc1ccccc1)N1C(=O)/C(=C/c2ccncc2)SC1=S)c1ccc(-c2c3nc(c(-c4c(F)c(F)c(F)c(F)c4F)c4ccc([nH]4)c(-c4c(F)c(F)c(F)c(F)c4F)c4nc(c(-c5c(F)c(F)c(F)c(F)c5F)c5ccc2[nH]5)C=C4)C=C3)cc1
REMARK SMILES IDX 5 1 4 2 3 3 1 4 2 5 32 7 33 8 94 9 34 10 93 11 35 12 36 13
REMARK SMILES IDX 37 14 87 15 38 16 92 17 86 18 88 19 39 20 91 21 85 22 84 23
REMARK SMILES IDX 40 25 72 26 52 27 71 28 53 29 56 30 70 31 89 32 54 33 55 34
REMARK SMILES IDX 69 36 90 37 57 38 41 39 42 40 50 41 43 42 44 43 48 44 51 45
REMARK SMILES IDX 45 46 46 47 49 48 47 49 73 50 74 51 82 52 75 53 76 54 80 55
REMARK SMILES IDX 83 56 77 57 78 58 81 59 79 60 58 61 59 62 67 63 60 64 61 65
REMARK SMILES IDX 65 66 68 67 62 68 63 69 66 70 64 71 6 72 7 73 8 74 9 76
REMARK SMILES IDX 10 77 11 78 12 79 13 80 17 81 14 82 16 83 15 84 18 85 19 86
REMARK SMILES IDX 30 87 20 88 21 89 29 90 31 91 22 92 23 93 24 94 28 95 25 96
REMARK SMILES IDX 27 97 26 98
REMARK H PARENT 3 6 88 24 56 35 7 75
REMARK Flexibility Score: inf
ROOT
ATOM      1  C   UNL A   1      37.916  19.515  25.012  1.00  0.00     0.042 C 
ENDROOT
BRANCH   1   2
ATOM      2  C   UNL A   1      39.057  20.118  25.820  1.00  0.00     0.118 C 
BRANCH   2   3
ATOM      3  N   UNL A   1      40.185  19.204  25.953  1.00  0.00    -0.352 N 
ATOM      4  O   UNL A   1      42.286  18.448  25.938  1.00  0.00    -0.269 OA
ATOM      5  C   UNL A   1      41.537  19.416  26.073  1.00  0.00     0.251 C 
ATOM      6  H   UNL A   1      39.928  18.254  25.958  1.00  0.00     0.163 HD
BRANCH   5   7
ATOM      7  C   UNL A   1      42.128  20.751  26.357  1.00  0.00     0.039 A 
ATOM      8  C   UNL A   1      42.392  21.687  25.358  1.00  0.00     0.014 A 
ATOM      9  C   UNL A   1      42.321  21.123  27.696  1.00  0.00     0.014 A 
ATOM     10  C   UNL A   1      42.967  22.918  25.671  1.00  0.00     0.010 A 
ATOM     11  C   UNL A   1      42.790  22.403  28.020  1.00  0.00     0.010 A 
ATOM     12  C   UNL A   1      43.132  23.309  27.007  1.00  0.00    -0.014 A 
BRANCH  12  13
ATOM     13  C   UNL A   1      43.561  24.696  27.325  1.00  0.00     0.031 A 
ATOM     14  C   UNL A   1      42.591  25.701  27.875  1.00  0.00     0.074 A 
ATOM     15  C   UNL A   1      44.838  25.056  27.084  1.00  0.00     0.049 A 
ATOM     16  N   UNL A   1      42.773  26.971  28.136  1.00  0.00    -0.248 NA
ATOM     17  C   UNL A   1      41.232  25.218  28.158  1.00  0.00     0.031 C 
ATOM     18  C   UNL A   1      45.869  24.173  26.536  1.00  0.00     0.029 A 
ATOM     19  N   UNL A   1      45.487  26.252  27.257  1.00  0.00    -0.354 N 
ATOM     20  C   UNL A   1      41.549  27.447  28.586  1.00  0.00     0.074 A 
ATOM     21  C   UNL A   1      40.624  26.334  28.538  1.00  0.00     0.031 C 
ATOM     22  C   UNL A   1      47.022  24.846  26.436  1.00  0.00     0.029 A 
ATOM     23  C   UNL A   1      46.795  26.230  26.838  1.00  0.00     0.049 A 
ATOM     24  H   UNL A   1      45.057  27.049  27.642  1.00  0.00     0.167 HD
ATOM     25  C   UNL A   1      41.231  28.698  29.002  1.00  0.00     0.037 A 
ATOM     26  C   UNL A   1      47.705  27.218  26.743  1.00  0.00     0.037 A 
ATOM     27  C   UNL A   1      42.166  29.795  29.048  1.00  0.00     0.049 A 
ATOM     28  C   UNL A   1      47.322  28.603  27.174  1.00  0.00     0.074 A 
ATOM     29  C   UNL A   1      41.959  31.086  29.499  1.00  0.00     0.029 A 
ATOM     30  N   UNL A   1      43.483  29.731  28.612  1.00  0.00    -0.354 N 
ATOM     31  N   UNL A   1      46.175  29.032  27.639  1.00  0.00    -0.248 NA
ATOM     32  C   UNL A   1      48.355  29.642  27.069  1.00  0.00     0.031 C 
ATOM     33  C   UNL A   1      43.128  31.821  29.273  1.00  0.00     0.029 A 
ATOM     34  C   UNL A   1      44.088  30.970  28.748  1.00  0.00     0.049 A 
ATOM     35  H   UNL A   1      43.922  28.924  28.257  1.00  0.00     0.167 HD
ATOM     36  C   UNL A   1      46.350  30.382  27.903  1.00  0.00     0.074 A 
ATOM     37  C   UNL A   1      47.719  30.701  27.551  1.00  0.00     0.031 C 
ATOM     38  C   UNL A   1      45.456  31.272  28.398  1.00  0.00     0.037 A 
BRANCH  25  39
ATOM     39  C   UNL A   1      39.803  28.956  29.398  1.00  0.00     0.064 A 
ATOM     40  C   UNL A   1      39.343  28.752  30.708  1.00  0.00     0.173 A 
ATOM     41  C   UNL A   1      38.879  29.420  28.448  1.00  0.00     0.173 A 
ATOM     42  F   UNL A   1      40.180  28.303  31.656  1.00  0.00    -0.203 F 
ATOM     43  C   UNL A   1      38.005  28.954  31.039  1.00  0.00     0.198 A 
ATOM     44  C   UNL A   1      37.550  29.656  28.791  1.00  0.00     0.198 A 
ATOM     45  F   UNL A   1      39.264  29.645  27.183  1.00  0.00    -0.203 F 
ATOM     46  F   UNL A   1      37.575  28.682  32.280  1.00  0.00    -0.200 F 
ATOM     47  C   UNL A   1      37.111  29.408  30.082  1.00  0.00     0.200 A 
ATOM     48  F   UNL A   1      36.692  30.112  27.868  1.00  0.00    -0.200 F 
ATOM     49  F   UNL A   1      35.822  29.596  30.400  1.00  0.00    -0.200 F 
ENDBRANCH  25  39
BRANCH  26  50
ATOM     50  C   UNL A   1      49.049  26.911  26.190  1.00  0.00     0.064 A 
ATOM     51  C   UNL A   1      50.064  26.385  26.998  1.00  0.00     0.173 A 
ATOM     52  C   UNL A   1      49.323  27.077  24.822  1.00  0.00     0.173 A 
ATOM     53  F   UNL A   1      49.855  26.221  28.313  1.00  0.00    -0.203 F 
ATOM     54  C   UNL A   1      51.301  26.036  26.461  1.00  0.00     0.198 A 
ATOM     55  C   UNL A   1      50.549  26.700  24.282  1.00  0.00     0.198 A 
ATOM     56  F   UNL A   1      48.379  27.567  24.004  1.00  0.00    -0.203 F 
ATOM     57  F   UNL A   1      52.265  25.554  27.259  1.00  0.00    -0.200 F 
ATOM     58  C   UNL A   1      51.539  26.182  25.102  1.00  0.00     0.200 A 
ATOM     59  F   UNL A   1      50.763  26.820  22.964  1.00  0.00    -0.200 F 
ATOM     60  F   UNL A   1      52.721  25.822  24.582  1.00  0.00    -0.200 F 
ENDBRANCH  26  50
BRANCH  38  61
ATOM     61  C   UNL A   1      45.933  32.676  28.633  1.00  0.00     0.064 A 
ATOM     62  C   UNL A   1      46.561  33.054  29.827  1.00  0.00     0.173 A 
ATOM     63  C   UNL A   1      45.828  33.634  27.612  1.00  0.00     0.173 A 
ATOM     64  F   UNL A   1      46.669  32.180  30.840  1.00  0.00    -0.203 F 
ATOM     65  C   UNL A   1      47.062  34.343  29.994  1.00  0.00     0.198 A 
ATOM     66  C   UNL A   1      46.357  34.911  27.771  1.00  0.00     0.198 A 
ATOM     67  F   UNL A   1      45.237  33.320  26.450  1.00  0.00    -0.203 F 
ATOM     68  F   UNL A   1      47.633  34.693  31.154  1.00  0.00    -0.200 F 
ATOM     69  C   UNL A   1      46.971  35.265  28.962  1.00  0.00     0.200 A 
ATOM     70  F   UNL A   1      46.281  35.795  26.766  1.00  0.00    -0.200 F 
ATOM     71  F   UNL A   1      47.474  36.498  29.115  1.00  0.00    -0.200 F 
ENDBRANCH  38  61
ENDBRANCH  12  13
ENDBRANCH   5   7
ENDBRANCH   2   3
ENDBRANCH   1   2
BRANCH   1  72
ATOM     72  C   UNL A   1      36.812  20.504  24.633  1.00  0.00     0.117 C 
BRANCH  72  73
ATOM     73  N   UNL A   1      35.873  20.676  25.726  1.00  0.00    -0.354 N 
ATOM     74  C   UNL A   1      34.580  21.073  25.824  1.00  0.00     0.243 C 
ATOM     75  H   UNL A   1      36.267  20.452  26.599  1.00  0.00     0.163 HD
ATOM     76  O   UNL A   1      34.198  21.292  26.985  1.00  0.00    -0.273 OA
BRANCH  74  77
ATOM     77  C   UNL A   1      33.611  21.423  24.653  1.00  0.00     0.185 C 
BRANCH  77  78
ATOM     78  C   UNL A   1      32.473  20.351  24.638  1.00  0.00     0.071 C 
BRANCH  78  79
ATOM     79  C   UNL A   1      32.740  18.854  24.655  1.00  0.00    -0.045 A 
ATOM     80  C   UNL A   1      33.257  18.268  23.487  1.00  0.00     0.004 A 
ATOM     81  C   UNL A   1      32.528  18.014  25.751  1.00  0.00     0.004 A 
ATOM     82  C   UNL A   1      33.593  16.911  23.444  1.00  0.00     0.000 A 
ATOM     83  C   UNL A   1      32.895  16.666  25.727  1.00  0.00     0.000 A 
ATOM     84  C   UNL A   1      33.436  16.115  24.574  1.00  0.00     0.000 A 
ENDBRANCH  78  79
ENDBRANCH  77  78
BRANCH  77  85
ATOM     85  N   UNL A   1      33.210  22.824  24.401  1.00  0.00    -0.280 N 
ATOM     86  C   UNL A   1      32.146  23.374  25.098  1.00  0.00     0.266 C 
ATOM     87  C   UNL A   1      34.031  23.786  23.829  1.00  0.00     0.149 C 
ATOM     88  O   UNL A   1      31.493  22.840  25.987  1.00  0.00    -0.268 OA
ATOM     89  C   UNL A   1      31.899  24.774  24.662  1.00  0.00     0.081 C 
ATOM     90  S   UNL A   1      33.101  25.247  23.535  1.00  0.00    -0.054 SA
ATOM     91  S   UNL A   1      35.663  23.750  23.491  1.00  0.00    -0.052 S 
ATOM     92  C   UNL A   1      30.883  25.522  25.115  1.00  0.00     0.029 C 
BRANCH  92  93
ATOM     93  C   UNL A   1      30.594  26.866  24.606  1.00  0.00    -0.021 A 
ATOM     94  C   UNL A   1      29.649  27.031  23.592  1.00  0.00     0.028 A 
ATOM     95  C   UNL A   1      31.296  27.977  25.069  1.00  0.00     0.028 A 
ATOM     96  C   UNL A   1      29.457  28.298  23.071  1.00  0.00     0.111 A 
ATOM     97  C   UNL A   1      31.028  29.204  24.484  1.00  0.00     0.111 A 
ATOM     98  N   UNL A   1      30.126  29.390  23.497  1.00  0.00    -0.265 NA
ENDBRANCH  92  93
ENDBRANCH  77  85
ENDBRANCH  74  77
ENDBRANCH  72  73
ENDBRANCH   1  72
TORSDOF 14
ENDMDL
MODEL 2
REMARK VINA RESULT:     -13.4      0.857      1.831
REMARK SMILES O=C(NCCCNC(=O)[C@@H](Cc1ccccc1)N1C(=O)/C(=C/c2ccncc2)SC1=S)c1ccc(-c2c3nc(c(-c4c(F)c(F)c(F)c(F)c4F)c4ccc([nH]4)c(-c4c(F)c(F)c(F)c(F)c4F)c4nc(c(-c5c(F)c(F)c(F)c(F)c5F)c5ccc2[nH]5)C=C4)C=C3)cc1
REMARK SMILES IDX 5 1 4 2 3 3 1 4 2 5 32 7 33 8 94 9 34 10 93 11 35 12 36 13
REMARK SMILES IDX 37 14 87 15 38 16 92 17 86 18 88 19 39 20 91 21 85 22 84 23
REMARK SMILES IDX 40 25 72 26 52 27 71 28 53 29 56 30 70 31 89 32 54 33 55 34
REMARK SMILES IDX 69 36 90 37 57 38 41 39 42 40 50 41 43 42 44 43 48 44 51 45
REMARK SMILES IDX 45 46 46 47 49 48 47 49 73 50 74 51 82 52 75 53 76 54 80 55
REMARK SMILES IDX 83 56 77 57 78 58 81 59 79 60 58 61 59 62 67 63 60 64 61 65
REMARK SMILES IDX 65 66 68 67 62 68 63 69 66 70 64 71 6 72 7 73 8 74 9 76
REMARK SMILES IDX 10 77 11 78 12 79 13 80 17 81 14 82 16 83 15 84 18 85 19 86
REMARK SMILES IDX 30 87 20 88 21 89 29 90 31 91 22 92 23 93 24 94 28 95 25 96
REMARK SMILES IDX 27 97 26 98
REMARK H PARENT 3 6 88 24 56 35 7 75
REMARK Flexibility Score: inf
ROOT
ATOM      1  C   UNL A   1      37.907  19.507  24.994  1.00  0.00     0.042 C 
ENDROOT
BRANCH   1   2
ATOM      2  C   UNL A   1      39.073  20.122  25.756  1.00  0.00     0.118 C 
BRANCH   2   3
ATOM      3  N   UNL A   1      40.192  19.199  25.897  1.00  0.00    -0.352 N 
ATOM      4  O   UNL A   1      42.291  18.439  25.956  1.00  0.00    -0.269 OA
ATOM      5  C   UNL A   1      41.535  19.398  26.107  1.00  0.00     0.251 C 
ATOM      6  H   UNL A   1      39.936  18.250  25.828  1.00  0.00     0.163 HD
BRANCH   5   7
ATOM      7  C   UNL A   1      42.108  20.712  26.506  1.00  0.00     0.039 A 
ATOM      8  C   UNL A   1      42.475  21.688  25.580  1.00  0.00     0.014 A 
ATOM      9  C   UNL A   1      42.173  21.022  27.873  1.00  0.00     0.014 A 
ATOM     10  C   UNL A   1      43.029  22.895  26.003  1.00  0.00     0.010 A 
ATOM     11  C   UNL A   1      42.620  22.280  28.298  1.00  0.00     0.010 A 
ATOM     12  C   UNL A   1      43.068  23.225  27.364  1.00  0.00    -0.014 A 
BRANCH  12  13
ATOM     13  C   UNL A   1      43.477  24.591  27.785  1.00  0.00     0.031 A 
ATOM     14  C   UNL A   1      42.454  25.635  28.130  1.00  0.00     0.074 A 
ATOM     15  C   UNL A   1      44.789  24.896  27.824  1.00  0.00     0.049 A 
ATOM     16  N   UNL A   1      42.629  26.895  28.440  1.00  0.00    -0.248 NA
ATOM     17  C   UNL A   1      41.047  25.210  28.112  1.00  0.00     0.031 C 
ATOM     18  C   UNL A   1      45.875  23.971  27.495  1.00  0.00     0.029 A 
ATOM     19  N   UNL A   1      45.435  26.062  28.146  1.00  0.00    -0.354 N 
ATOM     20  C   UNL A   1      41.358  27.421  28.627  1.00  0.00     0.074 A 
ATOM     21  C   UNL A   1      40.419  26.350  28.369  1.00  0.00     0.031 C 
ATOM     22  C   UNL A   1      47.050  24.595  27.651  1.00  0.00     0.029 A 
ATOM     23  C   UNL A   1      46.800  25.985  28.014  1.00  0.00     0.049 A 
ATOM     24  H   UNL A   1      44.967  26.876  28.443  1.00  0.00     0.167 HD
ATOM     25  C   UNL A   1      41.012  28.683  28.983  1.00  0.00     0.037 A 
ATOM     26  C   UNL A   1      47.750  26.933  28.127  1.00  0.00     0.037 A 
ATOM     27  C   UNL A   1      41.960  29.738  29.241  1.00  0.00     0.049 A 
ATOM     28  C   UNL A   1      47.343  28.331  28.486  1.00  0.00     0.074 A 
ATOM     29  C   UNL A   1      41.716  31.035  29.654  1.00  0.00     0.029 A 
ATOM     30  N   UNL A   1      43.336  29.620  29.093  1.00  0.00    -0.354 N 
ATOM     31  N   UNL A   1      46.141  28.808  28.703  1.00  0.00    -0.248 NA
ATOM     32  C   UNL A   1      48.416  29.325  28.615  1.00  0.00     0.031 C 
ATOM     33  C   UNL A   1      42.935  31.720  29.690  1.00  0.00     0.029 A 
ATOM     34  C   UNL A   1      43.949  30.830  29.370  1.00  0.00     0.049 A 
ATOM     35  H   UNL A   1      43.806  28.796  28.828  1.00  0.00     0.167 HD
ATOM     36  C   UNL A   1      46.312  30.148  29.015  1.00  0.00     0.074 A 
ATOM     37  C   UNL A   1      47.737  30.408  28.966  1.00  0.00     0.031 C 
ATOM     38  C   UNL A   1      45.371  31.074  29.322  1.00  0.00     0.037 A 
BRANCH  25  39
ATOM     39  C   UNL A   1      39.544  29.001  29.070  1.00  0.00     0.064 A 
ATOM     40  C   UNL A   1      38.795  29.384  27.947  1.00  0.00     0.173 A 
ATOM     41  C   UNL A   1      38.875  28.917  30.302  1.00  0.00     0.173 A 
ATOM     42  F   UNL A   1      39.383  29.487  26.746  1.00  0.00    -0.203 F 
ATOM     43  C   UNL A   1      37.447  29.718  28.062  1.00  0.00     0.198 A 
ATOM     44  C   UNL A   1      37.519  29.216  30.407  1.00  0.00     0.198 A 
ATOM     45  F   UNL A   1      39.536  28.544  31.407  1.00  0.00    -0.203 F 
ATOM     46  F   UNL A   1      36.772  30.150  26.988  1.00  0.00    -0.200 F 
ATOM     47  C   UNL A   1      36.810  29.631  29.291  1.00  0.00     0.200 A 
ATOM     48  F   UNL A   1      36.901  29.114  31.592  1.00  0.00    -0.200 F 
ATOM     49  F   UNL A   1      35.515  29.958  29.401  1.00  0.00    -0.200 F 
ENDBRANCH  25  39
BRANCH  26  50
ATOM     50  C   UNL A   1      49.167  26.570  27.867  1.00  0.00     0.064 A 
ATOM     51  C   UNL A   1      49.684  26.545  26.567  1.00  0.00     0.173 A 
ATOM     52  C   UNL A   1      50.050  26.305  28.927  1.00  0.00     0.173 A 
ATOM     53  F   UNL A   1      48.878  26.778  25.521  1.00  0.00    -0.203 F 
ATOM     54  C   UNL A   1      51.031  26.270  26.334  1.00  0.00     0.198 A 
ATOM     55  C   UNL A   1      51.401  26.060  28.695  1.00  0.00     0.198 A 
ATOM     56  F   UNL A   1      49.606  26.327  30.193  1.00  0.00    -0.203 F 
ATOM     57  F   UNL A   1      51.498  26.231  25.079  1.00  0.00    -0.200 F 
ATOM     58  C   UNL A   1      51.890  26.039  27.399  1.00  0.00     0.200 A 
ATOM     59  F   UNL A   1      52.231  25.862  29.729  1.00  0.00    -0.200 F 
ATOM     60  F   UNL A   1      53.190  25.800  27.175  1.00  0.00    -0.200 F 
ENDBRANCH  26  50
BRANCH  38  61
ATOM     61  C   UNL A   1      45.845  32.455  29.671  1.00  0.00     0.064 A 
ATOM     62  C   UNL A   1      46.219  32.801  30.977  1.00  0.00     0.173 A 
ATOM     63  C   UNL A   1      46.001  33.420  28.663  1.00  0.00     0.173 A 
ATOM     64  F   UNL A   1      46.072  31.920  31.978  1.00  0.00    -0.203 F 
ATOM     65  C   UNL A   1      46.727  34.066  31.263  1.00  0.00     0.198 A 
ATOM     66  C   UNL A   1      46.537  34.672  28.948  1.00  0.00     0.198 A 
ATOM     67  F   UNL A   1      45.660  33.137  27.398  1.00  0.00    -0.203 F 
ATOM     68  F   UNL A   1      47.051  34.387  32.522  1.00  0.00    -0.200 F 
ATOM     69  C   UNL A   1      46.897  34.995  30.247  1.00  0.00     0.200 A 
ATOM     70  F   UNL A   1      46.714  35.562  27.961  1.00  0.00    -0.200 F 
ATOM     71  F   UNL A   1      47.407  36.204  30.520  1.00  0.00    -0.200 F 
ENDBRANCH  38  61
ENDBRANCH  12  13
ENDBRANCH   5   7
ENDBRANCH   2   3
ENDBRANCH   1   2
BRANCH   1  72
ATOM     72  C   UNL A   1      36.790  20.489  24.638  1.00  0.00     0.117 C 
BRANCH  72  73
ATOM     73  N   UNL A   1      35.910  20.707  25.771  1.00  0.00    -0.354 N 
ATOM     74  C   UNL A   1      34.617  21.087  25.920  1.00  0.00     0.243 C 
ATOM     75  H   UNL A   1      36.357  20.540  26.632  1.00  0.00     0.163 HD
ATOM     76  O   UNL A   1      34.296  21.365  27.087  1.00  0.00    -0.273 OA
BRANCH  74  77
ATOM     77  C   UNL A   1      33.576  21.353  24.789  1.00  0.00     0.185 C 
BRANCH  77  78
ATOM     78  C   UNL A   1      32.459  20.265  24.903  1.00  0.00     0.071 C 
BRANCH  78  79
ATOM     79  C   UNL A   1      32.733  18.774  24.782  1.00  0.00    -0.045 A 
ATOM     80  C   UNL A   1      33.209  18.294  23.550  1.00  0.00     0.004 A 
ATOM     81  C   UNL A   1      32.564  17.843  25.809  1.00  0.00     0.004 A 
ATOM     82  C   UNL A   1      33.550  16.949  23.379  1.00  0.00     0.000 A 
ATOM     83  C   UNL A   1      32.936  16.504  25.656  1.00  0.00     0.000 A 
ATOM     84  C   UNL A   1      33.438  16.058  24.442  1.00  0.00     0.000 A 
ENDBRANCH  78  79
ENDBRANCH  77  78
BRANCH  77  85
ATOM     85  N   UNL A   1      33.137  22.731  24.479  1.00  0.00    -0.280 N 
ATOM     86  C   UNL A   1      32.169  23.339  25.261  1.00  0.00     0.266 C 
ATOM     87  C   UNL A   1      33.871  23.640  23.730  1.00  0.00     0.149 C 
ATOM     88  O   UNL A   1      31.640  22.881  26.268  1.00  0.00    -0.268 OA
ATOM     89  C   UNL A   1      31.858  24.700  24.749  1.00  0.00     0.081 C 
ATOM     90  S   UNL A   1      32.902  25.076  23.442  1.00  0.00    -0.054 SA
ATOM     91  S   UNL A   1      35.447  23.570  23.187  1.00  0.00    -0.052 S 
ATOM     92  C   UNL A   1      30.905  25.486  25.268  1.00  0.00     0.029 C 
BRANCH  92  93
ATOM     93  C   UNL A   1      30.544  26.786  24.694  1.00  0.00    -0.021 A 
ATOM     94  C   UNL A   1      29.518  26.863  23.751  1.00  0.00     0.028 A 
ATOM     95  C   UNL A   1      31.252  27.940  25.024  1.00  0.00     0.028 A 
ATOM     96  C   UNL A   1      29.255  28.086  23.162  1.00  0.00     0.111 A 
ATOM     97  C   UNL A   1      30.910  29.118  24.381  1.00  0.00     0.111 A 
ATOM     98  N   UNL A   1      29.928  29.218  23.458  1.00  0.00    -0.265 NA
ENDBRANCH  92  93
ENDBRANCH  77  85
ENDBRANCH  74  77
ENDBRANCH  72  73
ENDBRANCH   1  72
TORSDOF 14
ENDMDL
MODEL 3
REMARK VINA RESULT:     -13.3      4.597     10.299
REMARK SMILES O=C(NCCCNC(=O)[C@@H](Cc1ccccc1)N1C(=O)/C(=C/c2ccncc2)SC1=S)c1ccc(-c2c3nc(c(-c4c(F)c(F)c(F)c(F)c4F)c4ccc([nH]4)c(-c4c(F)c(F)c(F)c(F)c4F)c4nc(c(-c5c(F)c(F)c(F)c(F)c5F)c5ccc2[nH]5)C=C4)C=C3)cc1
REMARK SMILES IDX 5 1 4 2 3 3 1 4 2 5 32 7 33 8 94 9 34 10 93 11 35 12 36 13
REMARK SMILES IDX 37 14 87 15 38 16 92 17 86 18 88 19 39 20 91 21 85 22 84 23
REMARK SMILES IDX 40 25 72 26 52 27 71 28 53 29 56 30 70 31 89 32 54 33 55 34
REMARK SMILES IDX 69 36 90 37 57 38 41 39 42 40 50 41 43 42 44 43 48 44 51 45
REMARK SMILES IDX 45 46 46 47 49 48 47 49 73 50 74 51 82 52 75 53 76 54 80 55
REMARK SMILES IDX 83 56 77 57 78 58 81 59 79 60 58 61 59 62 67 63 60 64 61 65
REMARK SMILES IDX 65 66 68 67 62 68 63 69 66 70 64 71 6 72 7 73 8 74 9 76
REMARK SMILES IDX 10 77 11 78 12 79 13 80 17 81 14 82 16 83 15 84 18 85 19 86
REMARK SMILES IDX 30 87 20 88 21 89 29 90 31 91 22 92 23 93 24 94 28 95 25 96
REMARK SMILES IDX 27 97 26 98
REMARK H PARENT 3 6 88 24 56 35 7 75
REMARK Flexibility Score: inf
ROOT
ATOM      1  C   UNL A   1      32.645  28.011  25.523  1.00  0.00     0.042 C 
ENDROOT
BRANCH   1   2
ATOM      2  C   UNL A   1      33.235  29.311  24.992  1.00  0.00     0.118 C 
BRANCH   2   3
ATOM      3  N   UNL A   1      32.751  30.477  25.718  1.00  0.00    -0.352 N 
ATOM      4  O   UNL A   1      32.444  31.934  27.383  1.00  0.00    -0.269 OA
ATOM      5  C   UNL A   1      33.184  31.097  26.865  1.00  0.00     0.251 C 
ATOM      6  H   UNL A   1      31.962  30.901  25.309  1.00  0.00     0.163 HD
BRANCH   5   7
ATOM      7  C   UNL A   1      34.497  30.805  27.501  1.00  0.00     0.039 A 
ATOM      8  C   UNL A   1      35.458  31.788  27.732  1.00  0.00     0.014 A 
ATOM      9  C   UNL A   1      34.727  29.509  27.988  1.00  0.00     0.014 A 
ATOM     10  C   UNL A   1      36.684  31.461  28.310  1.00  0.00     0.010 A 
ATOM     11  C   UNL A   1      35.911  29.206  28.673  1.00  0.00     0.010 A 
ATOM     12  C   UNL A   1      36.909  30.178  28.828  1.00  0.00    -0.014 A 
BRANCH  12  13
ATOM     13  C   UNL A   1      38.139  29.902  29.615  1.00  0.00     0.031 A 
ATOM     14  C   UNL A   1      39.199  28.972  29.098  1.00  0.00     0.074 A 
ATOM     15  C   UNL A   1      38.282  30.477  30.826  1.00  0.00     0.049 A 
ATOM     16  N   UNL A   1      40.294  28.558  29.683  1.00  0.00    -0.248 NA
ATOM     17  C   UNL A   1      38.993  28.425  27.749  1.00  0.00     0.031 C 
ATOM     18  C   UNL A   1      37.314  31.385  31.442  1.00  0.00     0.029 A 
ATOM     19  N   UNL A   1      39.284  30.381  31.758  1.00  0.00    -0.354 N 
ATOM     20  C   UNL A   1      40.896  27.682  28.789  1.00  0.00     0.074 A 
ATOM     21  C   UNL A   1      40.029  27.604  27.632  1.00  0.00     0.031 C 
ATOM     22  C   UNL A   1      37.774  31.780  32.636  1.00  0.00     0.029 A 
ATOM     23  C   UNL A   1      39.032  31.092  32.906  1.00  0.00     0.049 A 
ATOM     24  H   UNL A   1      40.104  29.854  31.619  1.00  0.00     0.167 HD
ATOM     25  C   UNL A   1      42.065  27.009  28.924  1.00  0.00     0.037 A 
ATOM     26  C   UNL A   1      39.709  31.155  34.068  1.00  0.00     0.037 A 
ATOM     27  C   UNL A   1      42.919  27.101  30.082  1.00  0.00     0.049 A 
ATOM     28  C   UNL A   1      40.981  30.374  34.212  1.00  0.00     0.074 A 
ATOM     29  C   UNL A   1      44.146  26.500  30.298  1.00  0.00     0.029 A 
ATOM     30  N   UNL A   1      42.626  27.831  31.227  1.00  0.00    -0.354 N 
ATOM     31  N   UNL A   1      41.563  29.583  33.344  1.00  0.00    -0.248 NA
ATOM     32  C   UNL A   1      41.693  30.490  35.491  1.00  0.00     0.031 C 
ATOM     33  C   UNL A   1      44.563  26.810  31.598  1.00  0.00     0.029 A 
ATOM     34  C   UNL A   1      43.631  27.665  32.166  1.00  0.00     0.049 A 
ATOM     35  H   UNL A   1      41.821  28.385  31.352  1.00  0.00     0.167 HD
ATOM     36  C   UNL A   1      42.717  29.123  33.959  1.00  0.00     0.074 A 
ATOM     37  C   UNL A   1      42.758  29.730  35.274  1.00  0.00     0.031 C 
ATOM     38  C   UNL A   1      43.660  28.280  33.472  1.00  0.00     0.037 A 
BRANCH  25  39
ATOM     39  C   UNL A   1      42.464  26.080  27.811  1.00  0.00     0.064 A 
ATOM     40  C   UNL A   1      43.352  26.469  26.796  1.00  0.00     0.173 A 
ATOM     41  C   UNL A   1      41.949  24.774  27.761  1.00  0.00     0.173 A 
ATOM     42  F   UNL A   1      43.870  27.706  26.790  1.00  0.00    -0.203 F 
ATOM     43  C   UNL A   1      43.671  25.605  25.750  1.00  0.00     0.198 A 
ATOM     44  C   UNL A   1      42.298  23.901  26.734  1.00  0.00     0.198 A 
ATOM     45  F   UNL A   1      41.106  24.342  28.710  1.00  0.00    -0.203 F 
ATOM     46  F   UNL A   1      44.464  26.025  24.755  1.00  0.00    -0.200 F 
ATOM     47  C   UNL A   1      43.146  24.322  25.722  1.00  0.00     0.200 A 
ATOM     48  F   UNL A   1      41.804  22.655  26.718  1.00  0.00    -0.200 F 
ATOM     49  F   UNL A   1      43.448  23.494  24.711  1.00  0.00    -0.200 F 
ENDBRANCH  25  39
BRANCH  26  50
ATOM     50  C   UNL A   1      39.161  31.974  35.180  1.00  0.00     0.064 A 
ATOM     51  C   UNL A   1      38.437  31.390  36.226  1.00  0.00     0.173 A 
ATOM     52  C   UNL A   1      39.411  33.355  35.250  1.00  0.00     0.173 A 
ATOM     53  F   UNL A   1      38.162  30.078  36.197  1.00  0.00    -0.203 F 
ATOM     54  C   UNL A   1      37.984  32.153  37.300  1.00  0.00     0.198 A 
ATOM     55  C   UNL A   1      38.983  34.111  36.339  1.00  0.00     0.198 A 
ATOM     56  F   UNL A   1      40.109  33.961  34.278  1.00  0.00    -0.203 F 
ATOM     57  F   UNL A   1      37.274  31.574  38.278  1.00  0.00    -0.200 F 
ATOM     58  C   UNL A   1      38.267  33.510  37.362  1.00  0.00     0.200 A 
ATOM     59  F   UNL A   1      39.281  35.415  36.404  1.00  0.00    -0.200 F 
ATOM     60  F   UNL A   1      37.852  34.238  38.408  1.00  0.00    -0.200 F 
ENDBRANCH  26  50
BRANCH  38  61
ATOM     61  C   UNL A   1      44.846  27.987  34.344  1.00  0.00     0.064 A 
ATOM     62  C   UNL A   1      44.870  26.889  35.216  1.00  0.00     0.173 A 
ATOM     63  C   UNL A   1      46.004  28.774  34.244  1.00  0.00     0.173 A 
ATOM     64  F   UNL A   1      43.782  26.118  35.361  1.00  0.00    -0.203 F 
ATOM     65  C   UNL A   1      46.009  26.594  35.961  1.00  0.00     0.198 A 
ATOM     66  C   UNL A   1      47.150  28.457  34.967  1.00  0.00     0.198 A 
ATOM     67  F   UNL A   1      46.031  29.834  33.423  1.00  0.00    -0.203 F 
ATOM     68  F   UNL A   1      46.002  25.558  36.810  1.00  0.00    -0.200 F 
ATOM     69  C   UNL A   1      47.151  27.369  35.826  1.00  0.00     0.200 A 
ATOM     70  F   UNL A   1      48.257  29.200  34.823  1.00  0.00    -0.200 F 
ATOM     71  F   UNL A   1      48.254  27.070  36.526  1.00  0.00    -0.200 F 
ENDBRANCH  38  61
ENDBRANCH  12  13
ENDBRANCH   5   7
ENDBRANCH   2   3
ENDBRANCH   1   2
BRANCH   1  72
ATOM     72  C   UNL A   1      33.657  26.880  25.709  1.00  0.00     0.117 C 
BRANCH  72  73
ATOM     73  N   UNL A   1      33.961  26.242  24.441  1.00  0.00    -0.354 N 
ATOM     74  C   UNL A   1      33.542  25.117  23.811  1.00  0.00     0.243 C 
ATOM     75  H   UNL A   1      34.626  26.744  23.917  1.00  0.00     0.163 HD
ATOM     76  O   UNL A   1      34.214  24.808  22.814  1.00  0.00    -0.273 OA
BRANCH  74  77
ATOM     77  C   UNL A   1      32.441  24.122  24.291  1.00  0.00     0.185 C 
BRANCH  77  78
ATOM     78  C   UNL A   1      31.171  24.353  23.407  1.00  0.00     0.071 C 
BRANCH  78  79
ATOM     79  C   UNL A   1      30.520  25.715  23.226  1.00  0.00    -0.045 A 
ATOM     80  C   UNL A   1      29.315  25.960  23.907  1.00  0.00     0.004 A 
ATOM     81  C   UNL A   1      31.035  26.752  22.446  1.00  0.00     0.004 A 
ATOM     82  C   UNL A   1      28.689  27.209  23.846  1.00  0.00     0.000 A 
ATOM     83  C   UNL A   1      30.434  28.013  22.410  1.00  0.00     0.000 A 
ATOM     84  C   UNL A   1      29.263  28.245  23.117  1.00  0.00     0.000 A 
ENDBRANCH  78  79
ENDBRANCH  77  78
BRANCH  77  85
ATOM     85  N   UNL A   1      32.782  22.720  24.616  1.00  0.00    -0.280 N 
ATOM     86  C   UNL A   1      32.649  21.736  23.650  1.00  0.00     0.266 C 
ATOM     87  C   UNL A   1      33.603  22.334  25.666  1.00  0.00     0.149 C 
ATOM     88  O   UNL A   1      32.321  21.892  22.479  1.00  0.00    -0.268 OA
ATOM     89  C   UNL A   1      33.011  20.405  24.203  1.00  0.00     0.081 C 
ATOM     90  S   UNL A   1      33.582  20.584  25.809  1.00  0.00    -0.054 SA
ATOM     91  S   UNL A   1      34.578  23.246  26.666  1.00  0.00    -0.052 S 
ATOM     92  C   UNL A   1      32.903  19.261  23.512  1.00  0.00     0.029 C 
BRANCH  92  93
ATOM     93  C   UNL A   1      33.173  17.945  24.100  1.00  0.00    -0.021 A 
ATOM     94  C   UNL A   1      32.209  17.340  24.907  1.00  0.00     0.028 A 
ATOM     95  C   UNL A   1      34.404  17.317  23.922  1.00  0.00     0.028 A 
ATOM     96  C   UNL A   1      32.521  16.139  25.518  1.00  0.00     0.111 A 
ATOM     97  C   UNL A   1      34.618  16.113  24.575  1.00  0.00     0.111 A 
ATOM     98  N   UNL A   1      33.706  15.511  25.368  1.00  0.00    -0.265 NA
ENDBRANCH  92  93
ENDBRANCH  77  85
ENDBRANCH  74  77
ENDBRANCH  72  73
ENDBRANCH   1  72
TORSDOF 14
ENDMDL
