MODEL 1
REMARK VINA RESULT:     -11.6      0.000      0.000
REMARK SMILES C[C@H]1[C@@H](C(=O)NCCCNC(=O)c2ccc(-c3c4nc(c(-c5c(F)c(F)c(F)c(F)c5F)c5ccc([nH]5)c(-c5c(F)c(F)c(F)c(F)c5F)c5nc(c(-c6c(F)c(F)c(F)c(F)c6F)c6ccc3[nH]6)C=C5)C=C4)cc2)CCN1C(=O)NCC(C1CC1)C1CC1
REMARK SMILES IDX 7 1 6 2 4 3 5 4 3 6 1 7 2 8 78 9 76 10 77 11 79 12 80 13
REMARK SMILES IDX 81 14 82 16 83 17 84 18 85 19 86 20 87 21 88 22 89 23 8 24
REMARK SMILES IDX 9 25 10 26 11 27 12 29 13 30 14 31 75 32 15 33 74 34 16 35
REMARK SMILES IDX 17 36 18 37 68 38 19 39 73 40 67 41 69 42 20 43 72 44 66 45
REMARK SMILES IDX 65 46 21 48 53 49 33 50 52 51 34 52 37 53 51 54 70 55 35 56
REMARK SMILES IDX 36 57 50 59 71 60 38 61 22 62 23 63 31 64 24 65 25 66 29 67
REMARK SMILES IDX 32 68 26 69 27 70 30 71 28 72 54 73 55 74 63 75 56 76 57 77
REMARK SMILES IDX 61 78 64 79 58 80 59 81 62 82 60 83 39 84 40 85 48 86 41 87
REMARK SMILES IDX 42 88 46 89 49 90 43 91 44 92 47 93 45 94
REMARK H PARENT 6 5 81 15 10 28 69 47 37 58
REMARK Flexibility Score: inf
ROOT
ATOM      1  C   UNL A   1      36.620  20.258  24.986  1.00  0.00     0.117 C 
ENDROOT
BRANCH   1   2
ATOM      2  N   UNL A   1      35.432  19.414  24.961  1.00  0.00    -0.356 N 
ATOM      3  C   UNL A   1      34.099  19.704  24.918  1.00  0.00     0.225 C 
ATOM      4  O   UNL A   1      33.326  18.745  24.976  1.00  0.00    -0.275 OA
ATOM      5  H   UNL A   1      35.629  18.450  24.977  1.00  0.00     0.163 HD
BRANCH   3   6
ATOM      6  C   UNL A   1      33.598  21.128  24.719  1.00  0.00     0.102 C 
ATOM      7  C   UNL A   1      33.695  21.471  27.318  1.00  0.00     0.032 C 
ATOM      8  C   UNL A   1      33.635  22.088  25.921  1.00  0.00     0.096 C 
ATOM      9  N   UNL A   1      32.421  22.883  25.837  1.00  0.00    -0.321 N 
ATOM     10  C   UNL A   1      32.154  21.230  24.184  1.00  0.00     0.037 C 
ATOM     11  C   UNL A   1      31.399  22.087  25.187  1.00  0.00     0.122 C 
BRANCH   9  12
ATOM     12  C   UNL A   1      32.084  24.049  26.456  1.00  0.00     0.317 C 
ATOM     13  O   UNL A   1      31.158  24.096  27.271  1.00  0.00    -0.249 OA
ATOM     14  N   UNL A   1      32.738  25.211  26.248  1.00  0.00    -0.338 N 
ATOM     15  H   UNL A   1      32.353  25.943  26.781  1.00  0.00     0.165 HD
BRANCH  14  16
ATOM     16  C   UNL A   1      33.868  25.672  25.441  1.00  0.00     0.121 C 
BRANCH  16  17
ATOM     17  C   UNL A   1      33.695  27.122  24.941  1.00  0.00     0.014 C 
BRANCH  17  18
ATOM     18  C   UNL A   1      32.938  27.241  23.629  1.00  0.00    -0.006 C 
ATOM     19  C   UNL A   1      33.249  28.214  22.513  1.00  0.00     0.004 C 
ATOM     20  C   UNL A   1      33.566  26.754  22.344  1.00  0.00     0.004 C 
ENDBRANCH  17  18
BRANCH  17  21
ATOM     21  C   UNL A   1      33.069  28.084  25.949  1.00  0.00    -0.006 C 
ATOM     22  C   UNL A   1      33.792  28.587  27.176  1.00  0.00     0.004 C 
ATOM     23  C   UNL A   1      33.456  29.541  26.060  1.00  0.00     0.004 C 
ENDBRANCH  17  21
ENDBRANCH  16  17
ENDBRANCH  14  16
ENDBRANCH   9  12
ENDBRANCH   3   6
ENDBRANCH   1   2
BRANCH   1  24
ATOM     24  C   UNL A   1      37.906  19.424  25.041  1.00  0.00     0.042 C 
BRANCH  24  25
ATOM     25  C   UNL A   1      39.082  20.105  25.731  1.00  0.00     0.118 C 
BRANCH  25  26
ATOM     26  N   UNL A   1      40.212  19.211  25.899  1.00  0.00    -0.352 N 
ATOM     27  C   UNL A   1      41.545  19.446  26.115  1.00  0.00     0.251 C 
ATOM     28  H   UNL A   1      39.977  18.256  25.846  1.00  0.00     0.163 HD
ATOM     29  O   UNL A   1      42.318  18.486  26.002  1.00  0.00    -0.269 OA
BRANCH  27  30
ATOM     30  C   UNL A   1      42.110  20.777  26.463  1.00  0.00     0.039 A 
ATOM     31  C   UNL A   1      42.189  21.117  27.823  1.00  0.00     0.014 A 
ATOM     32  C   UNL A   1      42.454  21.745  25.517  1.00  0.00     0.014 A 
ATOM     33  C   UNL A   1      42.620  22.389  28.222  1.00  0.00     0.010 A 
ATOM     34  C   UNL A   1      42.973  22.984  25.916  1.00  0.00     0.010 A 
ATOM     35  C   UNL A   1      43.034  23.334  27.273  1.00  0.00    -0.014 A 
BRANCH  35  36
ATOM     36  C   UNL A   1      43.471  24.698  27.688  1.00  0.00     0.031 A 
ATOM     37  C   UNL A   1      42.455  25.753  28.048  1.00  0.00     0.074 A 
ATOM     38  C   UNL A   1      44.783  25.008  27.723  1.00  0.00     0.049 A 
ATOM     39  N   UNL A   1      42.641  27.002  28.402  1.00  0.00    -0.248 NA
ATOM     40  C   UNL A   1      41.039  25.361  27.978  1.00  0.00     0.031 C 
ATOM     41  C   UNL A   1      45.873  24.104  27.357  1.00  0.00     0.029 A 
ATOM     42  N   UNL A   1      45.421  26.171  28.079  1.00  0.00    -0.354 N 
ATOM     43  C   UNL A   1      41.374  27.544  28.575  1.00  0.00     0.074 A 
ATOM     44  C   UNL A   1      40.424  26.505  28.238  1.00  0.00     0.031 C 
ATOM     45  C   UNL A   1      47.045  24.737  27.530  1.00  0.00     0.029 A 
ATOM     46  C   UNL A   1      46.790  26.099  27.991  1.00  0.00     0.049 A 
ATOM     47  H   UNL A   1      44.942  26.980  28.371  1.00  0.00     0.167 HD
ATOM     48  C   UNL A   1      41.026  28.784  29.001  1.00  0.00     0.037 A 
ATOM     49  C   UNL A   1      47.735  27.024  28.249  1.00  0.00     0.037 A 
ATOM     50  C   UNL A   1      41.964  29.809  29.375  1.00  0.00     0.049 A 
ATOM     51  C   UNL A   1      47.327  28.385  28.744  1.00  0.00     0.074 A 
ATOM     52  C   UNL A   1      41.706  31.076  29.872  1.00  0.00     0.029 A 
ATOM     53  N   UNL A   1      43.342  29.687  29.296  1.00  0.00    -0.354 N 
ATOM     54  N   UNL A   1      46.125  28.861  28.957  1.00  0.00    -0.248 NA
ATOM     55  C   UNL A   1      48.410  29.332  29.046  1.00  0.00     0.031 C 
ATOM     56  C   UNL A   1      42.928  31.731  30.061  1.00  0.00     0.029 A 
ATOM     57  C   UNL A   1      43.948  30.858  29.722  1.00  0.00     0.049 A 
ATOM     58  H   UNL A   1      43.821  28.884  28.983  1.00  0.00     0.167 HD
ATOM     59  C   UNL A   1      46.306  30.153  29.434  1.00  0.00     0.074 A 
ATOM     60  C   UNL A   1      47.735  30.379  29.500  1.00  0.00     0.031 C 
ATOM     61  C   UNL A   1      45.372  31.070  29.783  1.00  0.00     0.037 A 
BRANCH  48  62
ATOM     62  C   UNL A   1      39.560  29.097  29.098  1.00  0.00     0.064 A 
ATOM     63  C   UNL A   1      38.810  29.459  27.967  1.00  0.00     0.173 A 
ATOM     64  C   UNL A   1      38.889  29.004  30.326  1.00  0.00     0.173 A 
ATOM     65  F   UNL A   1      39.405  29.572  26.770  1.00  0.00    -0.203 F 
ATOM     66  C   UNL A   1      37.451  29.747  28.070  1.00  0.00     0.198 A 
ATOM     67  C   UNL A   1      37.524  29.265  30.420  1.00  0.00     0.198 A 
ATOM     68  F   UNL A   1      39.557  28.655  31.437  1.00  0.00    -0.203 F 
ATOM     69  F   UNL A   1      36.769  30.141  26.987  1.00  0.00    -0.200 F 
ATOM     70  C   UNL A   1      36.809  29.645  29.294  1.00  0.00     0.200 A 
ATOM     71  F   UNL A   1      36.901  29.152  31.602  1.00  0.00    -0.200 F 
ATOM     72  F   UNL A   1      35.500  29.919  29.391  1.00  0.00    -0.200 F 
ENDBRANCH  48  62
BRANCH  49  73
ATOM     73  C   UNL A   1      49.169  26.682  28.069  1.00  0.00     0.064 A 
ATOM     74  C   UNL A   1      49.970  26.334  29.167  1.00  0.00     0.173 A 
ATOM     75  C   UNL A   1      49.767  26.690  26.801  1.00  0.00     0.173 A 
ATOM     76  F   UNL A   1      49.448  26.335  30.402  1.00  0.00    -0.203 F 
ATOM     77  C   UNL A   1      51.318  26.023  29.004  1.00  0.00     0.198 A 
ATOM     78  C   UNL A   1      51.109  26.352  26.636  1.00  0.00     0.198 A 
ATOM     79  F   UNL A   1      49.043  27.011  25.719  1.00  0.00    -0.203 F 
ATOM     80  F   UNL A   1      52.069  25.733  30.074  1.00  0.00    -0.200 F 
ATOM     81  C   UNL A   1      51.885  26.026  27.739  1.00  0.00     0.200 A 
ATOM     82  F   UNL A   1      51.650  26.342  25.410  1.00  0.00    -0.200 F 
ATOM     83  F   UNL A   1      53.180  25.720  27.582  1.00  0.00    -0.200 F 
ENDBRANCH  49  73
BRANCH  61  84
ATOM     84  C   UNL A   1      45.865  32.395  30.287  1.00  0.00     0.064 A 
ATOM     85  C   UNL A   1      46.079  33.476  29.419  1.00  0.00     0.173 A 
ATOM     86  C   UNL A   1      46.099  32.594  31.655  1.00  0.00     0.173 A 
ATOM     87  F   UNL A   1      45.882  33.332  28.100  1.00  0.00    -0.203 F 
ATOM     88  C   UNL A   1      46.538  34.700  29.901  1.00  0.00     0.198 A 
ATOM     89  C   UNL A   1      46.533  33.827  32.136  1.00  0.00     0.198 A 
ATOM     90  F   UNL A   1      45.904  31.594  32.528  1.00  0.00    -0.203 F 
ATOM     91  F   UNL A   1      46.781  35.704  29.048  1.00  0.00    -0.200 F 
ATOM     92  C   UNL A   1      46.759  34.876  31.259  1.00  0.00     0.200 A 
ATOM     93  F   UNL A   1      46.736  33.998  33.450  1.00  0.00    -0.200 F 
ATOM     94  F   UNL A   1      47.198  36.055  31.719  1.00  0.00    -0.200 F 
ENDBRANCH  61  84
ENDBRANCH  35  36
ENDBRANCH  27  30
ENDBRANCH  25  26
ENDBRANCH  24  25
ENDBRANCH   1  24
TORSDOF 15
ENDMDL
MODEL 2
REMARK VINA RESULT:     -11.6      5.389     10.746
REMARK SMILES C[C@H]1[C@@H](C(=O)NCCCNC(=O)c2ccc(-c3c4nc(c(-c5c(F)c(F)c(F)c(F)c5F)c5ccc([nH]5)c(-c5c(F)c(F)c(F)c(F)c5F)c5nc(c(-c6c(F)c(F)c(F)c(F)c6F)c6ccc3[nH]6)C=C5)C=C4)cc2)CCN1C(=O)NCC(C1CC1)C1CC1
REMARK SMILES IDX 7 1 6 2 4 3 5 4 3 6 1 7 2 8 78 9 76 10 77 11 79 12 80 13
REMARK SMILES IDX 81 14 82 16 83 17 84 18 85 19 86 20 87 21 88 22 89 23 8 24
REMARK SMILES IDX 9 25 10 26 11 27 12 29 13 30 14 31 75 32 15 33 74 34 16 35
REMARK SMILES IDX 17 36 18 37 68 38 19 39 73 40 67 41 69 42 20 43 72 44 66 45
REMARK SMILES IDX 65 46 21 48 53 49 33 50 52 51 34 52 37 53 51 54 70 55 35 56
REMARK SMILES IDX 36 57 50 59 71 60 38 61 22 62 23 63 31 64 24 65 25 66 29 67
REMARK SMILES IDX 32 68 26 69 27 70 30 71 28 72 54 73 55 74 63 75 56 76 57 77
REMARK SMILES IDX 61 78 64 79 58 80 59 81 62 82 60 83 39 84 40 85 48 86 41 87
REMARK SMILES IDX 42 88 46 89 49 90 43 91 44 92 47 93 45 94
REMARK H PARENT 6 5 81 15 10 28 69 47 37 58
REMARK Flexibility Score: inf
ROOT
ATOM      1  C   UNL A   1      31.400  30.860  25.859  1.00  0.00     0.117 C 
ENDROOT
BRANCH   1   2
ATOM      2  N   UNL A   1      30.578  30.741  24.661  1.00  0.00    -0.356 N 
ATOM      3  C   UNL A   1      30.358  29.709  23.795  1.00  0.00     0.225 C 
ATOM      4  O   UNL A   1      29.644  29.953  22.820  1.00  0.00    -0.275 OA
ATOM      5  H   UNL A   1      30.087  31.563  24.432  1.00  0.00     0.163 HD
BRANCH   3   6
ATOM      6  C   UNL A   1      30.892  28.310  24.070  1.00  0.00     0.102 C 
ATOM      7  C   UNL A   1      33.079  28.944  22.767  1.00  0.00     0.032 C 
ATOM      8  C   UNL A   1      32.370  28.020  23.757  1.00  0.00     0.096 C 
ATOM      9  N   UNL A   1      32.409  26.672  23.214  1.00  0.00    -0.321 N 
ATOM     10  C   UNL A   1      30.116  27.179  23.364  1.00  0.00     0.037 C 
ATOM     11  C   UNL A   1      31.146  26.412  22.551  1.00  0.00     0.122 C 
BRANCH   9  12
ATOM     12  C   UNL A   1      33.457  25.819  23.041  1.00  0.00     0.317 C 
ATOM     13  O   UNL A   1      33.904  25.575  21.915  1.00  0.00    -0.249 OA
ATOM     14  N   UNL A   1      34.088  25.208  24.065  1.00  0.00    -0.338 N 
ATOM     15  H   UNL A   1      34.819  24.630  23.747  1.00  0.00     0.165 HD
BRANCH  14  16
ATOM     16  C   UNL A   1      33.976  25.176  25.523  1.00  0.00     0.121 C 
BRANCH  16  17
ATOM     17  C   UNL A   1      33.249  23.918  26.041  1.00  0.00     0.014 C 
BRANCH  17  18
ATOM     18  C   UNL A   1      34.091  23.045  26.957  1.00  0.00    -0.006 C 
ATOM     19  C   UNL A   1      33.972  21.545  27.107  1.00  0.00     0.004 C 
ATOM     20  C   UNL A   1      35.147  22.134  26.378  1.00  0.00     0.004 C 
ENDBRANCH  17  18
BRANCH  17  21
ATOM     21  C   UNL A   1      31.907  24.180  26.723  1.00  0.00    -0.006 C 
ATOM     22  C   UNL A   1      30.739  24.841  26.030  1.00  0.00     0.004 C 
ATOM     23  C   UNL A   1      30.653  23.390  26.426  1.00  0.00     0.004 C 
ENDBRANCH  17  21
ENDBRANCH  16  17
ENDBRANCH  14  16
ENDBRANCH   9  12
ENDBRANCH   3   6
ENDBRANCH   1   2
BRANCH   1  24
ATOM     24  C   UNL A   1      31.325  32.269  26.458  1.00  0.00     0.042 C 
BRANCH  24  25
ATOM     25  C   UNL A   1      32.566  32.701  27.233  1.00  0.00     0.118 C 
BRANCH  25  26
ATOM     26  N   UNL A   1      32.510  34.097  27.623  1.00  0.00    -0.352 N 
ATOM     27  C   UNL A   1      33.120  34.795  28.632  1.00  0.00     0.251 C 
ATOM     28  H   UNL A   1      31.922  34.647  27.055  1.00  0.00     0.163 HD
ATOM     29  O   UNL A   1      32.715  35.942  28.859  1.00  0.00    -0.269 OA
BRANCH  27  30
ATOM     30  C   UNL A   1      34.223  34.251  29.470  1.00  0.00     0.039 A 
ATOM     31  C   UNL A   1      35.524  34.293  28.943  1.00  0.00     0.014 A 
ATOM     32  C   UNL A   1      34.023  33.603  30.690  1.00  0.00     0.014 A 
ATOM     33  C   UNL A   1      36.597  33.714  29.632  1.00  0.00     0.010 A 
ATOM     34  C   UNL A   1      35.109  33.106  31.424  1.00  0.00     0.010 A 
ATOM     35  C   UNL A   1      36.406  33.128  30.892  1.00  0.00    -0.014 A 
BRANCH  35  36
ATOM     36  C   UNL A   1      37.538  32.488  31.621  1.00  0.00     0.031 A 
ATOM     37  C   UNL A   1      38.298  31.340  31.003  1.00  0.00     0.074 A 
ATOM     38  C   UNL A   1      37.880  32.918  32.852  1.00  0.00     0.049 A 
ATOM     39  N   UNL A   1      39.290  30.638  31.496  1.00  0.00    -0.248 NA
ATOM     40  C   UNL A   1      37.872  30.907  29.664  1.00  0.00     0.031 C 
ATOM     41  C   UNL A   1      37.206  33.985  33.590  1.00  0.00     0.029 A 
ATOM     42  N   UNL A   1      38.878  32.505  33.702  1.00  0.00    -0.354 N 
ATOM     43  C   UNL A   1      39.588  29.674  30.541  1.00  0.00     0.074 A 
ATOM     44  C   UNL A   1      38.640  29.846  29.461  1.00  0.00     0.031 C 
ATOM     45  C   UNL A   1      37.822  34.160  34.771  1.00  0.00     0.029 A 
ATOM     46  C   UNL A   1      38.915  33.199  34.887  1.00  0.00     0.049 A 
ATOM     47  H   UNL A   1      39.506  31.780  33.483  1.00  0.00     0.167 HD
ATOM     48  C   UNL A   1      40.576  28.745  30.545  1.00  0.00     0.037 A 
ATOM     49  C   UNL A   1      39.736  33.076  35.949  1.00  0.00     0.037 A 
ATOM     50  C   UNL A   1      41.547  28.592  31.597  1.00  0.00     0.049 A 
ATOM     51  C   UNL A   1      40.840  32.056  35.921  1.00  0.00     0.074 A 
ATOM     52  C   UNL A   1      42.619  27.717  31.663  1.00  0.00     0.029 A 
ATOM     53  N   UNL A   1      41.566  29.333  32.768  1.00  0.00    -0.354 N 
ATOM     54  N   UNL A   1      41.143  31.191  34.984  1.00  0.00    -0.248 NA
ATOM     55  C   UNL A   1      41.724  32.003  37.094  1.00  0.00     0.031 C 
ATOM     56  C   UNL A   1      43.265  27.907  32.889  1.00  0.00     0.029 A 
ATOM     57  C   UNL A   1      42.622  28.928  33.569  1.00  0.00     0.049 A 
ATOM     58  H   UNL A   1      40.924  30.045  32.996  1.00  0.00     0.167 HD
ATOM     59  C   UNL A   1      42.260  30.506  35.444  1.00  0.00     0.074 A 
ATOM     60  C   UNL A   1      42.595  31.070  36.735  1.00  0.00     0.031 C 
ATOM     61  C   UNL A   1      42.945  29.498  34.852  1.00  0.00     0.037 A 
BRANCH  48  62
ATOM     62  C   UNL A   1      40.665  27.824  29.362  1.00  0.00     0.064 A 
ATOM     63  C   UNL A   1      41.623  28.012  28.353  1.00  0.00     0.173 A 
ATOM     64  C   UNL A   1      39.805  26.720  29.249  1.00  0.00     0.173 A 
ATOM     65  F   UNL A   1      42.463  29.058  28.408  1.00  0.00    -0.203 F 
ATOM     66  C   UNL A   1      41.695  27.152  27.261  1.00  0.00     0.198 A 
ATOM     67  C   UNL A   1      39.899  25.844  28.170  1.00  0.00     0.198 A 
ATOM     68  F   UNL A   1      38.875  26.489  30.189  1.00  0.00    -0.203 F 
ATOM     69  F   UNL A   1      42.583  27.383  26.286  1.00  0.00    -0.200 F 
ATOM     70  C   UNL A   1      40.837  26.066  27.173  1.00  0.00     0.200 A 
ATOM     71  F   UNL A   1      39.078  24.788  28.093  1.00  0.00    -0.200 F 
ATOM     72  F   UNL A   1      40.911  25.235  26.123  1.00  0.00    -0.200 F 
ENDBRANCH  48  62
BRANCH  49  73
ATOM     73  C   UNL A   1      39.558  33.969  37.123  1.00  0.00     0.064 A 
ATOM     74  C   UNL A   1      40.138  35.245  37.152  1.00  0.00     0.173 A 
ATOM     75  C   UNL A   1      38.805  33.569  38.236  1.00  0.00     0.173 A 
ATOM     76  F   UNL A   1      40.887  35.663  36.120  1.00  0.00    -0.203 F 
ATOM     77  C   UNL A   1      39.984  36.081  38.255  1.00  0.00     0.198 A 
ATOM     78  C   UNL A   1      38.628  34.417  39.328  1.00  0.00     0.198 A 
ATOM     79  F   UNL A   1      38.226  32.360  38.254  1.00  0.00    -0.203 F 
ATOM     80  F   UNL A   1      40.581  37.280  38.273  1.00  0.00    -0.200 F 
ATOM     81  C   UNL A   1      39.224  35.669  39.339  1.00  0.00     0.200 A 
ATOM     82  F   UNL A   1      37.882  34.020  40.367  1.00  0.00    -0.200 F 
ATOM     83  F   UNL A   1      39.070  36.476  40.398  1.00  0.00    -0.200 F 
ENDBRANCH  49  73
BRANCH  61  84
ATOM     84  C   UNL A   1      44.137  28.954  35.584  1.00  0.00     0.064 A 
ATOM     85  C   UNL A   1      44.017  27.895  36.496  1.00  0.00     0.173 A 
ATOM     86  C   UNL A   1      45.416  29.479  35.351  1.00  0.00     0.173 A 
ATOM     87  F   UNL A   1      42.812  27.368  36.764  1.00  0.00    -0.203 F 
ATOM     88  C   UNL A   1      45.131  27.401  37.169  1.00  0.00     0.198 A 
ATOM     89  C   UNL A   1      46.532  28.964  36.006  1.00  0.00     0.198 A 
ATOM     90  F   UNL A   1      45.586  30.488  34.484  1.00  0.00    -0.203 F 
ATOM     91  F   UNL A   1      44.986  26.421  38.071  1.00  0.00    -0.200 F 
ATOM     92  C   UNL A   1      46.388  27.932  36.919  1.00  0.00     0.200 A 
ATOM     93  F   UNL A   1      47.748  29.472  35.756  1.00  0.00    -0.200 F 
ATOM     94  F   UNL A   1      47.459  27.452  37.567  1.00  0.00    -0.200 F 
ENDBRANCH  61  84
ENDBRANCH  35  36
ENDBRANCH  27  30
ENDBRANCH  25  26
ENDBRANCH  24  25
ENDBRANCH   1  24
TORSDOF 15
ENDMDL
MODEL 3
REMARK VINA RESULT:     -11.5      5.024      9.497
REMARK SMILES C[C@H]1[C@@H](C(=O)NCCCNC(=O)c2ccc(-c3c4nc(c(-c5c(F)c(F)c(F)c(F)c5F)c5ccc([nH]5)c(-c5c(F)c(F)c(F)c(F)c5F)c5nc(c(-c6c(F)c(F)c(F)c(F)c6F)c6ccc3[nH]6)C=C5)C=C4)cc2)CCN1C(=O)NCC(C1CC1)C1CC1
REMARK SMILES IDX 7 1 6 2 4 3 5 4 3 6 1 7 2 8 78 9 76 10 77 11 79 12 80 13
REMARK SMILES IDX 81 14 82 16 83 17 84 18 85 19 86 20 87 21 88 22 89 23 8 24
REMARK SMILES IDX 9 25 10 26 11 27 12 29 13 30 14 31 75 32 15 33 74 34 16 35
REMARK SMILES IDX 17 36 18 37 68 38 19 39 73 40 67 41 69 42 20 43 72 44 66 45
REMARK SMILES IDX 65 46 21 48 53 49 33 50 52 51 34 52 37 53 51 54 70 55 35 56
REMARK SMILES IDX 36 57 50 59 71 60 38 61 22 62 23 63 31 64 24 65 25 66 29 67
REMARK SMILES IDX 32 68 26 69 27 70 30 71 28 72 54 73 55 74 63 75 56 76 57 77
REMARK SMILES IDX 61 78 64 79 58 80 59 81 62 82 60 83 39 84 40 85 48 86 41 87
REMARK SMILES IDX 42 88 46 89 49 90 43 91 44 92 47 93 45 94
REMARK H PARENT 6 5 81 15 10 28 69 47 37 58
REMARK Flexibility Score: inf
ROOT
ATOM      1  C   UNL A   1      31.654  30.498  26.687  1.00  0.00     0.117 C 
ENDROOT
BRANCH   1   2
ATOM      2  N   UNL A   1      31.880  30.142  25.292  1.00  0.00    -0.356 N 
ATOM      3  C   UNL A   1      31.754  28.966  24.611  1.00  0.00     0.225 C 
ATOM      4  O   UNL A   1      32.093  28.979  23.425  1.00  0.00    -0.275 OA
ATOM      5  H   UNL A   1      32.181  30.895  24.734  1.00  0.00     0.163 HD
BRANCH   3   6
ATOM      6  C   UNL A   1      31.142  27.731  25.258  1.00  0.00     0.102 C 
ATOM      7  C   UNL A   1      33.563  26.797  25.644  1.00  0.00     0.032 C 
ATOM      8  C   UNL A   1      32.077  26.758  25.997  1.00  0.00     0.096 C 
ATOM      9  N   UNL A   1      31.583  25.423  25.699  1.00  0.00    -0.321 N 
ATOM     10  C   UNL A   1      30.333  26.838  24.295  1.00  0.00     0.037 C 
ATOM     11  C   UNL A   1      30.950  25.453  24.395  1.00  0.00     0.122 C 
BRANCH   9  12
ATOM     12  C   UNL A   1      31.843  24.230  26.303  1.00  0.00     0.317 C 
ATOM     13  O   UNL A   1      31.254  23.895  27.336  1.00  0.00    -0.249 OA
ATOM     14  N   UNL A   1      32.727  23.334  25.818  1.00  0.00    -0.338 N 
ATOM     15  H   UNL A   1      32.781  22.533  26.388  1.00  0.00     0.165 HD
BRANCH  14  16
ATOM     16  C   UNL A   1      33.626  23.234  24.668  1.00  0.00     0.121 C 
BRANCH  16  17
ATOM     17  C   UNL A   1      34.636  22.074  24.796  1.00  0.00     0.014 C 
BRANCH  17  18
ATOM     18  C   UNL A   1      35.864  22.407  25.626  1.00  0.00    -0.006 C 
ATOM     19  C   UNL A   1      37.234  22.750  25.083  1.00  0.00     0.004 C 
ATOM     20  C   UNL A   1      36.377  23.827  25.688  1.00  0.00     0.004 C 
ENDBRANCH  17  18
BRANCH  17  21
ATOM     21  C   UNL A   1      34.050  20.759  25.306  1.00  0.00    -0.006 C 
ATOM     22  C   UNL A   1      32.947  20.010  24.595  1.00  0.00     0.004 C 
ATOM     23  C   UNL A   1      34.331  19.418  24.666  1.00  0.00     0.004 C 
ENDBRANCH  17  21
ENDBRANCH  16  17
ENDBRANCH  14  16
ENDBRANCH   9  12
ENDBRANCH   3   6
ENDBRANCH   1   2
BRANCH   1  24
ATOM     24  C   UNL A   1      31.469  32.010  26.863  1.00  0.00     0.042 C 
BRANCH  24  25
ATOM     25  C   UNL A   1      32.764  32.816  26.879  1.00  0.00     0.118 C 
BRANCH  25  26
ATOM     26  N   UNL A   1      32.611  34.084  27.566  1.00  0.00    -0.352 N 
ATOM     27  C   UNL A   1      33.176  34.582  28.712  1.00  0.00     0.251 C 
ATOM     28  H   UNL A   1      31.984  34.704  27.128  1.00  0.00     0.163 HD
ATOM     29  O   UNL A   1      32.692  35.620  29.181  1.00  0.00    -0.269 OA
BRANCH  27  30
ATOM     30  C   UNL A   1      34.317  33.944  29.422  1.00  0.00     0.039 A 
ATOM     31  C   UNL A   1      35.615  34.294  29.016  1.00  0.00     0.014 A 
ATOM     32  C   UNL A   1      34.171  32.941  30.382  1.00  0.00     0.014 A 
ATOM     33  C   UNL A   1      36.736  33.664  29.572  1.00  0.00     0.010 A 
ATOM     34  C   UNL A   1      35.292  32.377  31.005  1.00  0.00     0.010 A 
ATOM     35  C   UNL A   1      36.589  32.709  30.587  1.00  0.00    -0.014 A 
BRANCH  35  36
ATOM     36  C   UNL A   1      37.776  32.016  31.168  1.00  0.00     0.031 A 
ATOM     37  C   UNL A   1      38.260  32.357  32.555  1.00  0.00     0.074 A 
ATOM     38  C   UNL A   1      38.441  31.093  30.446  1.00  0.00     0.049 A 
ATOM     39  N   UNL A   1      39.289  31.885  33.217  1.00  0.00    -0.248 NA
ATOM     40  C   UNL A   1      37.502  33.381  33.290  1.00  0.00     0.031 C 
ATOM     41  C   UNL A   1      38.115  30.697  29.076  1.00  0.00     0.029 A 
ATOM     42  N   UNL A   1      39.534  30.322  30.763  1.00  0.00    -0.354 N 
ATOM     43  C   UNL A   1      39.312  32.567  34.427  1.00  0.00     0.074 A 
ATOM     44  C   UNL A   1      38.226  33.523  34.391  1.00  0.00     0.031 C 
ATOM     45  C   UNL A   1      38.972  29.742  28.679  1.00  0.00     0.029 A 
ATOM     46  C   UNL A   1      39.926  29.479  29.753  1.00  0.00     0.049 A 
ATOM     47  H   UNL A   1      39.993  30.372  31.632  1.00  0.00     0.167 HD
ATOM     48  C   UNL A   1      40.143  32.399  35.486  1.00  0.00     0.037 A 
ATOM     49  C   UNL A   1      40.940  28.593  29.694  1.00  0.00     0.037 A 
ATOM     50  C   UNL A   1      41.201  31.426  35.546  1.00  0.00     0.049 A 
ATOM     51  C   UNL A   1      41.833  28.406  30.890  1.00  0.00     0.074 A 
ATOM     52  C   UNL A   1      42.057  31.144  36.597  1.00  0.00     0.029 A 
ATOM     53  N   UNL A   1      41.548  30.571  34.510  1.00  0.00    -0.354 N 
ATOM     54  N   UNL A   1      41.803  29.019  32.048  1.00  0.00    -0.248 NA
ATOM     55  C   UNL A   1      42.893  27.394  30.774  1.00  0.00     0.031 C 
ATOM     56  C   UNL A   1      42.943  30.142  36.184  1.00  0.00     0.029 A 
ATOM     57  C   UNL A   1      42.613  29.771  34.892  1.00  0.00     0.049 A 
ATOM     58  H   UNL A   1      41.101  30.538  33.633  1.00  0.00     0.167 HD
ATOM     59  C   UNL A   1      42.825  28.456  32.803  1.00  0.00     0.074 A 
ATOM     60  C   UNL A   1      43.442  27.437  31.980  1.00  0.00     0.031 C 
ATOM     61  C   UNL A   1      43.218  28.760  34.064  1.00  0.00     0.037 A 
BRANCH  48  62
ATOM     62  C   UNL A   1      39.930  33.286  36.680  1.00  0.00     0.064 A 
ATOM     63  C   UNL A   1      40.650  34.480  36.846  1.00  0.00     0.173 A 
ATOM     64  C   UNL A   1      38.975  32.958  37.654  1.00  0.00     0.173 A 
ATOM     65  F   UNL A   1      41.583  34.836  35.949  1.00  0.00    -0.203 F 
ATOM     66  C   UNL A   1      40.444  35.293  37.957  1.00  0.00     0.198 A 
ATOM     67  C   UNL A   1      38.750  33.788  38.749  1.00  0.00     0.198 A 
ATOM     68  F   UNL A   1      38.253  31.831  37.540  1.00  0.00    -0.203 F 
ATOM     69  F   UNL A   1      41.180  36.401  38.120  1.00  0.00    -0.200 F 
ATOM     70  C   UNL A   1      39.492  34.950  38.904  1.00  0.00     0.200 A 
ATOM     71  F   UNL A   1      37.820  33.461  39.657  1.00  0.00    -0.200 F 
ATOM     72  F   UNL A   1      39.292  35.736  39.972  1.00  0.00    -0.200 F 
ENDBRANCH  48  62
BRANCH  49  73
ATOM     73  C   UNL A   1      41.147  27.791  28.461  1.00  0.00     0.064 A 
ATOM     74  C   UNL A   1      42.060  28.202  27.479  1.00  0.00     0.173 A 
ATOM     75  C   UNL A   1      40.442  26.599  28.240  1.00  0.00     0.173 A 
ATOM     76  F   UNL A   1      42.740  29.347  27.636  1.00  0.00    -0.203 F 
ATOM     77  C   UNL A   1      42.248  27.459  26.316  1.00  0.00     0.198 A 
ATOM     78  C   UNL A   1      40.652  25.842  27.088  1.00  0.00     0.198 A 
ATOM     79  F   UNL A   1      39.562  26.161  29.151  1.00  0.00    -0.203 F 
ATOM     80  F   UNL A   1      43.098  27.896  25.377  1.00  0.00    -0.200 F 
ATOM     81  C   UNL A   1      41.550  26.277  26.125  1.00  0.00     0.200 A 
ATOM     82  F   UNL A   1      39.985  24.694  26.913  1.00  0.00    -0.200 F 
ATOM     83  F   UNL A   1      41.737  25.559  25.009  1.00  0.00    -0.200 F 
ENDBRANCH  49  73
BRANCH  61  84
ATOM     84  C   UNL A   1      44.355  27.967  34.639  1.00  0.00     0.064 A 
ATOM     85  C   UNL A   1      45.682  28.409  34.538  1.00  0.00     0.173 A 
ATOM     86  C   UNL A   1      44.112  26.765  35.320  1.00  0.00     0.173 A 
ATOM     87  F   UNL A   1      45.968  29.545  33.883  1.00  0.00    -0.203 F 
ATOM     88  C   UNL A   1      46.728  27.662  35.075  1.00  0.00     0.198 A 
ATOM     89  C   UNL A   1      45.158  26.035  35.879  1.00  0.00     0.198 A 
ATOM     90  F   UNL A   1      42.860  26.301  35.450  1.00  0.00    -0.203 F 
ATOM     91  F   UNL A   1      47.992  28.080  34.925  1.00  0.00    -0.200 F 
ATOM     92  C   UNL A   1      46.464  26.479  35.750  1.00  0.00     0.200 A 
ATOM     93  F   UNL A   1      44.901  24.897  36.540  1.00  0.00    -0.200 F 
ATOM     94  F   UNL A   1      47.473  25.764  36.267  1.00  0.00    -0.200 F 
ENDBRANCH  61  84
ENDBRANCH  35  36
ENDBRANCH  27  30
ENDBRANCH  25  26
ENDBRANCH  24  25
ENDBRANCH   1  24
TORSDOF 15
ENDMDL
