MODEL 1
REMARK VINA RESULT:     -13.7      0.000      0.000
REMARK SMILES Cc1cc(C(=O)NCCCNC(=O)c2ccc(-c3c4nc(c(-c5c(F)c(F)c(F)c(F)c5F)c5ccc([nH]5)c(-c5c(F)c(F)c(F)c(F)c5F)c5nc(c(-c6c(F)c(F)c(F)c(F)c6F)c6ccc3[nH]6)C=C5)C=C4)cc2)ccc1-c1ccc(/C=N/NC(=O)c2cccc(N(C)C)c2)o1
REMARK SMILES IDX 5 1 6 2 7 3 4 5 1 6 2 7 3 8 79 9 78 10 77 11 80 12 81 13
REMARK SMILES IDX 98 14 82 15 83 16 84 17 85 18 86 19 87 20 88 22 89 23 90 24
REMARK SMILES IDX 97 25 91 26 93 27 92 28 94 29 95 30 96 31 8 32 9 33 10 34
REMARK SMILES IDX 11 35 12 36 13 38 14 39 15 40 76 41 16 42 75 43 17 44 18 45
REMARK SMILES IDX 19 46 69 47 20 48 74 49 68 50 70 51 21 52 73 53 67 54 66 55
REMARK SMILES IDX 22 57 54 58 34 59 53 60 35 61 38 62 52 63 71 64 36 65 37 66
REMARK SMILES IDX 51 68 72 69 39 70 23 71 24 72 32 73 25 74 26 75 30 76 33 77
REMARK SMILES IDX 27 78 28 79 31 80 29 81 55 82 56 83 64 84 57 85 58 86 62 87
REMARK SMILES IDX 65 88 59 89 60 90 63 91 61 92 40 93 41 94 49 95 42 96 43 97
REMARK SMILES IDX 47 98 50 99 44 100 45 101 48 102 46 103
REMARK H PARENT 7 4 86 21 11 37 70 56 38 67
REMARK Flexibility Score: inf
ROOT
ATOM      1  C   UNL A   1      33.626  37.075  29.095  1.00  0.00     0.251 C 
ATOM      2  O   UNL A   1      33.814  37.948  28.243  1.00  0.00    -0.269 OA
ATOM      3  N   UNL A   1      33.315  37.515  30.360  1.00  0.00    -0.352 N 
ATOM      4  H   UNL A   1      33.358  38.494  30.456  1.00  0.00     0.163 HD
ENDROOT
BRANCH   1   5
ATOM      5  C   UNL A   1      33.762  35.639  28.693  1.00  0.00     0.040 A 
ATOM      6  C   UNL A   1      36.689  33.191  28.548  1.00  0.00     0.045 C 
ATOM      7  C   UNL A   1      35.277  33.701  28.448  1.00  0.00    -0.039 A 
ATOM      8  C   UNL A   1      35.046  35.064  28.749  1.00  0.00     0.018 A 
ATOM      9  C   UNL A   1      34.185  32.887  28.105  1.00  0.00     0.020 A 
ATOM     10  C   UNL A   1      32.915  33.461  28.030  1.00  0.00     0.013 A 
ATOM     11  C   UNL A   1      32.708  34.809  28.322  1.00  0.00     0.014 A 
BRANCH   9  12
ATOM     12  C   UNL A   1      34.278  31.459  27.853  1.00  0.00     0.135 A 
ATOM     13  C   UNL A   1      35.272  30.515  28.000  1.00  0.00     0.051 A 
ATOM     14  O   UNL A   1      33.123  30.861  27.435  1.00  0.00    -0.455 OA
ATOM     15  C   UNL A   1      34.699  29.276  27.625  1.00  0.00     0.053 A 
ATOM     16  C   UNL A   1      33.388  29.533  27.274  1.00  0.00     0.147 A 
BRANCH  16  17
ATOM     17  C   UNL A   1      32.344  28.686  26.770  1.00  0.00     0.180 C 
ATOM     18  N   UNL A   1      31.937  27.691  27.493  1.00  0.00    -0.177 NA
BRANCH  18  19
ATOM     19  N   UNL A   1      30.986  26.853  26.997  1.00  0.00    -0.243 N 
ATOM     20  C   UNL A   1      31.065  25.752  26.162  1.00  0.00     0.271 C 
ATOM     21  H   UNL A   1      30.071  27.070  27.287  1.00  0.00     0.194 HD
ATOM     22  O   UNL A   1      30.011  25.239  25.774  1.00  0.00    -0.267 OA
BRANCH  20  23
ATOM     23  C   UNL A   1      32.349  25.143  25.725  1.00  0.00     0.043 A 
ATOM     24  C   UNL A   1      33.108  25.851  24.791  1.00  0.00     0.014 A 
ATOM     25  C   UNL A   1      32.788  23.878  26.148  1.00  0.00     0.039 A 
ATOM     26  C   UNL A   1      34.308  25.324  24.335  1.00  0.00     0.003 A 
ATOM     27  C   UNL A   1      34.029  23.335  25.754  1.00  0.00     0.037 A 
ATOM     28  C   UNL A   1      34.764  24.095  24.826  1.00  0.00     0.026 A 
BRANCH  27  29
ATOM     29  N   UNL A   1      34.480  22.113  26.244  1.00  0.00    -0.378 N 
ATOM     30  C   UNL A   1      34.086  21.592  27.550  1.00  0.00     0.143 C 
ATOM     31  C   UNL A   1      35.056  21.128  25.330  1.00  0.00     0.143 C 
ENDBRANCH  27  29
ENDBRANCH  20  23
ENDBRANCH  18  19
ENDBRANCH  16  17
ENDBRANCH   9  12
ENDBRANCH   1   5
BRANCH   3  32
ATOM     32  C   UNL A   1      32.934  36.827  31.585  1.00  0.00     0.118 C 
BRANCH  32  33
ATOM     33  C   UNL A   1      33.772  37.282  32.784  1.00  0.00     0.042 C 
BRANCH  33  34
ATOM     34  C   UNL A   1      34.162  36.150  33.717  1.00  0.00     0.118 C 
BRANCH  34  35
ATOM     35  N   UNL A   1      33.726  34.827  33.272  1.00  0.00    -0.352 N 
ATOM     36  C   UNL A   1      34.503  33.732  32.932  1.00  0.00     0.251 C 
ATOM     37  H   UNL A   1      32.752  34.698  33.204  1.00  0.00     0.163 HD
ATOM     38  O   UNL A   1      33.990  32.691  32.535  1.00  0.00    -0.269 OA
BRANCH  36  39
ATOM     39  C   UNL A   1      35.955  33.794  33.206  1.00  0.00     0.039 A 
ATOM     40  C   UNL A   1      36.740  34.495  32.285  1.00  0.00     0.014 A 
ATOM     41  C   UNL A   1      36.529  32.886  34.089  1.00  0.00     0.014 A 
ATOM     42  C   UNL A   1      38.032  34.054  32.034  1.00  0.00     0.010 A 
ATOM     43  C   UNL A   1      37.767  32.373  33.766  1.00  0.00     0.010 A 
ATOM     44  C   UNL A   1      38.478  32.905  32.685  1.00  0.00    -0.014 A 
BRANCH  44  45
ATOM     45  C   UNL A   1      39.669  32.175  32.281  1.00  0.00     0.031 A 
ATOM     46  C   UNL A   1      39.513  30.984  31.431  1.00  0.00     0.074 A 
ATOM     47  C   UNL A   1      40.902  32.605  32.629  1.00  0.00     0.049 A 
ATOM     48  N   UNL A   1      40.377  30.032  31.352  1.00  0.00    -0.248 NA
ATOM     49  C   UNL A   1      38.318  30.749  30.634  1.00  0.00     0.031 C 
ATOM     50  C   UNL A   1      42.180  32.134  32.103  1.00  0.00     0.029 A 
ATOM     51  N   UNL A   1      41.258  33.451  33.692  1.00  0.00    -0.354 N 
ATOM     52  C   UNL A   1      39.998  29.205  30.322  1.00  0.00     0.074 A 
ATOM     53  C   UNL A   1      38.672  29.652  29.961  1.00  0.00     0.031 C 
ATOM     54  C   UNL A   1      43.147  32.421  32.987  1.00  0.00     0.029 A 
ATOM     55  C   UNL A   1      42.509  32.969  34.166  1.00  0.00     0.049 A 
ATOM     56  H   UNL A   1      40.747  34.218  34.037  1.00  0.00     0.167 HD
ATOM     57  C   UNL A   1      40.911  28.322  29.821  1.00  0.00     0.037 A 
ATOM     58  C   UNL A   1      42.637  32.487  35.438  1.00  0.00     0.037 A 
ATOM     59  C   UNL A   1      42.153  28.349  30.602  1.00  0.00     0.049 A 
ATOM     60  C   UNL A   1      42.960  31.010  35.509  1.00  0.00     0.074 A 
ATOM     61  C   UNL A   1      43.388  28.955  30.437  1.00  0.00     0.029 A 
ATOM     62  N   UNL A   1      42.115  27.929  31.921  1.00  0.00    -0.354 N 
ATOM     63  N   UNL A   1      43.146  30.243  34.471  1.00  0.00    -0.248 NA
ATOM     64  C   UNL A   1      42.979  30.262  36.766  1.00  0.00     0.031 C 
ATOM     65  C   UNL A   1      44.089  28.889  31.678  1.00  0.00     0.029 A 
ATOM     66  C   UNL A   1      43.287  28.230  32.592  1.00  0.00     0.049 A 
ATOM     67  H   UNL A   1      41.347  27.471  32.332  1.00  0.00     0.167 HD
ATOM     68  C   UNL A   1      43.249  28.940  34.880  1.00  0.00     0.074 A 
ATOM     69  C   UNL A   1      43.124  29.002  36.325  1.00  0.00     0.031 C 
ATOM     70  C   UNL A   1      43.388  27.899  34.006  1.00  0.00     0.037 A 
BRANCH  57  71
ATOM     71  C   UNL A   1      40.776  27.623  28.483  1.00  0.00     0.064 A 
ATOM     72  C   UNL A   1      40.035  26.425  28.374  1.00  0.00     0.173 A 
ATOM     73  C   UNL A   1      41.391  28.033  27.286  1.00  0.00     0.173 A 
ATOM     74  F   UNL A   1      39.291  25.968  29.389  1.00  0.00    -0.203 F 
ATOM     75  C   UNL A   1      40.026  25.648  27.212  1.00  0.00     0.198 A 
ATOM     76  C   UNL A   1      41.434  27.229  26.142  1.00  0.00     0.198 A 
ATOM     77  F   UNL A   1      41.911  29.258  27.147  1.00  0.00    -0.203 F 
ATOM     78  F   UNL A   1      39.308  24.517  27.176  1.00  0.00    -0.200 F 
ATOM     79  C   UNL A   1      40.761  26.028  26.110  1.00  0.00     0.200 A 
ATOM     80  F   UNL A   1      42.129  27.636  25.070  1.00  0.00    -0.200 F 
ATOM     81  F   UNL A   1      40.793  25.260  25.012  1.00  0.00    -0.200 F 
ENDBRANCH  57  71
BRANCH  58  82
ATOM     82  C   UNL A   1      41.772  33.236  36.391  1.00  0.00     0.064 A 
ATOM     83  C   UNL A   1      42.239  34.502  36.802  1.00  0.00     0.173 A 
ATOM     84  C   UNL A   1      40.395  32.998  36.440  1.00  0.00     0.173 A 
ATOM     85  F   UNL A   1      43.556  34.758  36.817  1.00  0.00    -0.203 F 
ATOM     86  C   UNL A   1      41.352  35.554  36.996  1.00  0.00     0.198 A 
ATOM     87  C   UNL A   1      39.512  34.046  36.690  1.00  0.00     0.198 A 
ATOM     88  F   UNL A   1      39.897  31.802  36.099  1.00  0.00    -0.203 F 
ATOM     89  F   UNL A   1      41.821  36.799  37.164  1.00  0.00    -0.200 F 
ATOM     90  C   UNL A   1      39.990  35.334  36.889  1.00  0.00     0.200 A 
ATOM     91  F   UNL A   1      38.192  33.827  36.623  1.00  0.00    -0.200 F 
ATOM     92  F   UNL A   1      39.142  36.371  36.923  1.00  0.00    -0.200 F 
ENDBRANCH  58  82
BRANCH  70  93
ATOM     93  C   UNL A   1      43.596  26.468  34.439  1.00  0.00     0.064 A 
ATOM     94  C   UNL A   1      42.536  25.641  34.852  1.00  0.00     0.173 A 
ATOM     95  C   UNL A   1      44.885  25.902  34.550  1.00  0.00     0.173 A 
ATOM     96  F   UNL A   1      41.283  26.111  34.931  1.00  0.00    -0.203 F 
ATOM     97  C   UNL A   1      42.738  24.311  35.227  1.00  0.00     0.198 A 
ATOM     98  C   UNL A   1      45.090  24.591  34.982  1.00  0.00     0.198 A 
ATOM     99  F   UNL A   1      45.990  26.586  34.228  1.00  0.00    -0.203 F 
ATOM    100  F   UNL A   1      41.685  23.540  35.529  1.00  0.00    -0.200 F 
ATOM    101  C   UNL A   1      44.014  23.787  35.291  1.00  0.00     0.200 A 
ATOM    102  F   UNL A   1      46.339  24.115  35.084  1.00  0.00    -0.200 F 
ATOM    103  F   UNL A   1      44.208  22.514  35.660  1.00  0.00    -0.200 F 
ENDBRANCH  70  93
ENDBRANCH  44  45
ENDBRANCH  36  39
ENDBRANCH  34  35
ENDBRANCH  33  34
ENDBRANCH  32  33
ENDBRANCH   3  32
TORSDOF 15
ENDMDL
MODEL 2
REMARK VINA RESULT:     -13.5      1.455      2.673
REMARK SMILES Cc1cc(C(=O)NCCCNC(=O)c2ccc(-c3c4nc(c(-c5c(F)c(F)c(F)c(F)c5F)c5ccc([nH]5)c(-c5c(F)c(F)c(F)c(F)c5F)c5nc(c(-c6c(F)c(F)c(F)c(F)c6F)c6ccc3[nH]6)C=C5)C=C4)cc2)ccc1-c1ccc(/C=N/NC(=O)c2cccc(N(C)C)c2)o1
REMARK SMILES IDX 5 1 6 2 7 3 4 5 1 6 2 7 3 8 79 9 78 10 77 11 80 12 81 13
REMARK SMILES IDX 98 14 82 15 83 16 84 17 85 18 86 19 87 20 88 22 89 23 90 24
REMARK SMILES IDX 97 25 91 26 93 27 92 28 94 29 95 30 96 31 8 32 9 33 10 34
REMARK SMILES IDX 11 35 12 36 13 38 14 39 15 40 76 41 16 42 75 43 17 44 18 45
REMARK SMILES IDX 19 46 69 47 20 48 74 49 68 50 70 51 21 52 73 53 67 54 66 55
REMARK SMILES IDX 22 57 54 58 34 59 53 60 35 61 38 62 52 63 71 64 36 65 37 66
REMARK SMILES IDX 51 68 72 69 39 70 23 71 24 72 32 73 25 74 26 75 30 76 33 77
REMARK SMILES IDX 27 78 28 79 31 80 29 81 55 82 56 83 64 84 57 85 58 86 62 87
REMARK SMILES IDX 65 88 59 89 60 90 63 91 61 92 40 93 41 94 49 95 42 96 43 97
REMARK SMILES IDX 47 98 50 99 44 100 45 101 48 102 46 103
REMARK H PARENT 7 4 86 21 11 37 70 56 38 67
REMARK Flexibility Score: inf
ROOT
ATOM      1  C   UNL A   1      33.611  37.068  29.074  1.00  0.00     0.251 C 
ATOM      2  O   UNL A   1      33.763  37.938  28.212  1.00  0.00    -0.269 OA
ATOM      3  N   UNL A   1      33.300  37.511  30.338  1.00  0.00    -0.352 N 
ATOM      4  H   UNL A   1      33.314  38.492  30.425  1.00  0.00     0.163 HD
ENDROOT
BRANCH   1   5
ATOM      5  C   UNL A   1      33.786  35.633  28.684  1.00  0.00     0.040 A 
ATOM      6  C   UNL A   1      36.780  33.265  28.563  1.00  0.00     0.045 C 
ATOM      7  C   UNL A   1      35.354  33.735  28.457  1.00  0.00    -0.039 A 
ATOM      8  C   UNL A   1      35.085  35.094  28.747  1.00  0.00     0.018 A 
ATOM      9  C   UNL A   1      34.285  32.888  28.120  1.00  0.00     0.020 A 
ATOM     10  C   UNL A   1      32.999  33.427  28.040  1.00  0.00     0.013 A 
ATOM     11  C   UNL A   1      32.756  34.771  28.320  1.00  0.00     0.014 A 
BRANCH   9  12
ATOM     12  C   UNL A   1      34.418  31.462  27.881  1.00  0.00     0.135 A 
ATOM     13  C   UNL A   1      35.475  30.578  27.873  1.00  0.00     0.051 A 
ATOM     14  O   UNL A   1      33.245  30.791  27.676  1.00  0.00    -0.455 OA
ATOM     15  C   UNL A   1      34.921  29.300  27.622  1.00  0.00     0.053 A 
ATOM     16  C   UNL A   1      33.556  29.475  27.495  1.00  0.00     0.147 A 
BRANCH  16  17
ATOM     17  C   UNL A   1      32.493  28.559  27.191  1.00  0.00     0.180 C 
ATOM     18  N   UNL A   1      32.789  27.380  26.743  1.00  0.00    -0.177 NA
BRANCH  18  19
ATOM     19  N   UNL A   1      31.784  26.527  26.401  1.00  0.00    -0.243 N 
ATOM     20  C   UNL A   1      30.842  26.562  25.388  1.00  0.00     0.271 C 
ATOM     21  H   UNL A   1      31.715  25.736  26.983  1.00  0.00     0.194 HD
ATOM     22  O   UNL A   1      29.961  25.698  25.381  1.00  0.00    -0.267 OA
BRANCH  20  23
ATOM     23  C   UNL A   1      30.849  27.572  24.297  1.00  0.00     0.043 A 
ATOM     24  C   UNL A   1      32.012  27.682  23.532  1.00  0.00     0.014 A 
ATOM     25  C   UNL A   1      29.782  28.452  24.052  1.00  0.00     0.039 A 
ATOM     26  C   UNL A   1      32.080  28.618  22.510  1.00  0.00     0.003 A 
ATOM     27  C   UNL A   1      29.789  29.376  22.986  1.00  0.00     0.037 A 
ATOM     28  C   UNL A   1      30.977  29.436  22.235  1.00  0.00     0.026 A 
BRANCH  27  29
ATOM     29  N   UNL A   1      28.692  30.187  22.714  1.00  0.00    -0.378 N 
ATOM     30  C   UNL A   1      28.294  31.292  23.581  1.00  0.00     0.143 C 
ATOM     31  C   UNL A   1      28.119  30.214  21.369  1.00  0.00     0.143 C 
ENDBRANCH  27  29
ENDBRANCH  20  23
ENDBRANCH  18  19
ENDBRANCH  16  17
ENDBRANCH   9  12
ENDBRANCH   1   5
BRANCH   3  32
ATOM     32  C   UNL A   1      32.953  36.824  31.575  1.00  0.00     0.118 C 
BRANCH  32  33
ATOM     33  C   UNL A   1      33.831  37.273  32.747  1.00  0.00     0.042 C 
BRANCH  33  34
ATOM     34  C   UNL A   1      34.131  36.165  33.740  1.00  0.00     0.118 C 
BRANCH  34  35
ATOM     35  N   UNL A   1      33.692  34.838  33.311  1.00  0.00    -0.352 N 
ATOM     36  C   UNL A   1      34.467  33.740  32.974  1.00  0.00     0.251 C 
ATOM     37  H   UNL A   1      32.718  34.707  33.252  1.00  0.00     0.163 HD
ATOM     38  O   UNL A   1      33.951  32.696  32.592  1.00  0.00    -0.269 OA
BRANCH  36  39
ATOM     39  C   UNL A   1      35.921  33.806  33.236  1.00  0.00     0.039 A 
ATOM     40  C   UNL A   1      36.697  34.501  32.303  1.00  0.00     0.014 A 
ATOM     41  C   UNL A   1      36.503  32.904  34.120  1.00  0.00     0.014 A 
ATOM     42  C   UNL A   1      37.988  34.059  32.044  1.00  0.00     0.010 A 
ATOM     43  C   UNL A   1      37.739  32.390  33.790  1.00  0.00     0.010 A 
ATOM     44  C   UNL A   1      38.440  32.915  32.699  1.00  0.00    -0.014 A 
BRANCH  44  45
ATOM     45  C   UNL A   1      39.628  32.184  32.290  1.00  0.00     0.031 A 
ATOM     46  C   UNL A   1      39.467  30.988  31.447  1.00  0.00     0.074 A 
ATOM     47  C   UNL A   1      40.864  32.615  32.627  1.00  0.00     0.049 A 
ATOM     48  N   UNL A   1      40.330  30.036  31.366  1.00  0.00    -0.248 NA
ATOM     49  C   UNL A   1      38.266  30.749  30.660  1.00  0.00     0.031 C 
ATOM     50  C   UNL A   1      42.138  32.142  32.093  1.00  0.00     0.029 A 
ATOM     51  N   UNL A   1      41.228  33.467  33.682  1.00  0.00    -0.354 N 
ATOM     52  C   UNL A   1      39.944  29.204  30.343  1.00  0.00     0.074 A 
ATOM     53  C   UNL A   1      38.615  29.649  29.990  1.00  0.00     0.031 C 
ATOM     54  C   UNL A   1      43.112  32.434  32.968  1.00  0.00     0.029 A 
ATOM     55  C   UNL A   1      42.482  32.987  34.149  1.00  0.00     0.049 A 
ATOM     56  H   UNL A   1      40.719  34.236  34.028  1.00  0.00     0.167 HD
ATOM     57  C   UNL A   1      40.853  28.319  29.840  1.00  0.00     0.037 A 
ATOM     58  C   UNL A   1      42.620  32.512  35.423  1.00  0.00     0.037 A 
ATOM     59  C   UNL A   1      42.100  28.350  30.612  1.00  0.00     0.049 A 
ATOM     60  C   UNL A   1      42.943  31.036  35.499  1.00  0.00     0.074 A 
ATOM     61  C   UNL A   1      43.334  28.955  30.434  1.00  0.00     0.029 A 
ATOM     62  N   UNL A   1      42.073  27.937  31.932  1.00  0.00    -0.354 N 
ATOM     63  N   UNL A   1      43.122  30.263  34.463  1.00  0.00    -0.248 NA
ATOM     64  C   UNL A   1      42.973  30.294  36.759  1.00  0.00     0.031 C 
ATOM     65  C   UNL A   1      44.045  28.896  31.670  1.00  0.00     0.029 A 
ATOM     66  C   UNL A   1      43.250  28.241  32.594  1.00  0.00     0.049 A 
ATOM     67  H   UNL A   1      41.309  27.481  32.352  1.00  0.00     0.167 HD
ATOM     68  C   UNL A   1      43.229  28.962  34.878  1.00  0.00     0.074 A 
ATOM     69  C   UNL A   1      43.114  29.032  36.324  1.00  0.00     0.031 C 
ATOM     70  C   UNL A   1      43.361  27.917  34.008  1.00  0.00     0.037 A 
BRANCH  57  71
ATOM     71  C   UNL A   1      40.708  27.613  28.507  1.00  0.00     0.064 A 
ATOM     72  C   UNL A   1      39.944  26.429  28.404  1.00  0.00     0.173 A 
ATOM     73  C   UNL A   1      41.335  28.003  27.308  1.00  0.00     0.173 A 
ATOM     74  F   UNL A   1      39.189  25.993  29.420  1.00  0.00    -0.203 F 
ATOM     75  C   UNL A   1      39.924  25.644  27.247  1.00  0.00     0.198 A 
ATOM     76  C   UNL A   1      41.366  27.189  26.170  1.00  0.00     0.198 A 
ATOM     77  F   UNL A   1      41.879  29.216  27.163  1.00  0.00    -0.203 F 
ATOM     78  F   UNL A   1      39.184  24.527  27.216  1.00  0.00    -0.200 F 
ATOM     79  C   UNL A   1      40.669  26.002  26.144  1.00  0.00     0.200 A 
ATOM     80  F   UNL A   1      42.072  27.576  25.097  1.00  0.00    -0.200 F 
ATOM     81  F   UNL A   1      40.689  25.226  25.052  1.00  0.00    -0.200 F 
ENDBRANCH  57  71
BRANCH  58  82
ATOM     82  C   UNL A   1      41.762  33.265  36.379  1.00  0.00     0.064 A 
ATOM     83  C   UNL A   1      42.226  34.538  36.772  1.00  0.00     0.173 A 
ATOM     84  C   UNL A   1      40.387  33.021  36.445  1.00  0.00     0.173 A 
ATOM     85  F   UNL A   1      43.542  34.801  36.769  1.00  0.00    -0.203 F 
ATOM     86  C   UNL A   1      41.336  35.587  36.966  1.00  0.00     0.198 A 
ATOM     87  C   UNL A   1      39.501  34.066  36.696  1.00  0.00     0.198 A 
ATOM     88  F   UNL A   1      39.891  31.819  36.122  1.00  0.00    -0.203 F 
ATOM     89  F   UNL A   1      41.800  36.836  37.118  1.00  0.00    -0.200 F 
ATOM     90  C   UNL A   1      39.974  35.359  36.877  1.00  0.00     0.200 A 
ATOM     91  F   UNL A   1      38.181  33.839  36.646  1.00  0.00    -0.200 F 
ATOM     92  F   UNL A   1      39.121  36.392  36.911  1.00  0.00    -0.200 F 
ENDBRANCH  58  82
BRANCH  70  93
ATOM     93  C   UNL A   1      43.573  26.489  34.447  1.00  0.00     0.064 A 
ATOM     94  C   UNL A   1      44.821  25.847  34.359  1.00  0.00     0.173 A 
ATOM     95  C   UNL A   1      42.503  25.677  34.885  1.00  0.00     0.173 A 
ATOM     96  F   UNL A   1      45.881  26.468  33.822  1.00  0.00    -0.203 F 
ATOM     97  C   UNL A   1      45.009  24.533  34.792  1.00  0.00     0.198 A 
ATOM     98  C   UNL A   1      42.682  24.345  35.261  1.00  0.00     0.198 A 
ATOM     99  F   UNL A   1      41.252  26.143  34.982  1.00  0.00    -0.203 F 
ATOM    100  F   UNL A   1      46.236  23.995  34.767  1.00  0.00    -0.200 F 
ATOM    101  C   UNL A   1      43.940  23.783  35.243  1.00  0.00     0.200 A 
ATOM    102  F   UNL A   1      41.624  23.619  35.650  1.00  0.00    -0.200 F 
ATOM    103  F   UNL A   1      44.120  22.519  35.650  1.00  0.00    -0.200 F 
ENDBRANCH  70  93
ENDBRANCH  44  45
ENDBRANCH  36  39
ENDBRANCH  34  35
ENDBRANCH  33  34
ENDBRANCH  32  33
ENDBRANCH   3  32
TORSDOF 15
ENDMDL
MODEL 3
REMARK VINA RESULT:     -13.4      5.497     11.627
REMARK SMILES Cc1cc(C(=O)NCCCNC(=O)c2ccc(-c3c4nc(c(-c5c(F)c(F)c(F)c(F)c5F)c5ccc([nH]5)c(-c5c(F)c(F)c(F)c(F)c5F)c5nc(c(-c6c(F)c(F)c(F)c(F)c6F)c6ccc3[nH]6)C=C5)C=C4)cc2)ccc1-c1ccc(/C=N/NC(=O)c2cccc(N(C)C)c2)o1
REMARK SMILES IDX 5 1 6 2 7 3 4 5 1 6 2 7 3 8 79 9 78 10 77 11 80 12 81 13
REMARK SMILES IDX 98 14 82 15 83 16 84 17 85 18 86 19 87 20 88 22 89 23 90 24
REMARK SMILES IDX 97 25 91 26 93 27 92 28 94 29 95 30 96 31 8 32 9 33 10 34
REMARK SMILES IDX 11 35 12 36 13 38 14 39 15 40 76 41 16 42 75 43 17 44 18 45
REMARK SMILES IDX 19 46 69 47 20 48 74 49 68 50 70 51 21 52 73 53 67 54 66 55
REMARK SMILES IDX 22 57 54 58 34 59 53 60 35 61 38 62 52 63 71 64 36 65 37 66
REMARK SMILES IDX 51 68 72 69 39 70 23 71 24 72 32 73 25 74 26 75 30 76 33 77
REMARK SMILES IDX 27 78 28 79 31 80 29 81 55 82 56 83 64 84 57 85 58 86 62 87
REMARK SMILES IDX 65 88 59 89 60 90 63 91 61 92 40 93 41 94 49 95 42 96 43 97
REMARK SMILES IDX 47 98 50 99 44 100 45 101 48 102 46 103
REMARK H PARENT 7 4 86 21 11 37 70 56 38 67
REMARK Flexibility Score: inf
ROOT
ATOM      1  C   UNL A   1      41.870  20.952  27.380  1.00  0.00     0.251 C 
ATOM      2  O   UNL A   1      42.141  21.485  28.459  1.00  0.00    -0.269 OA
ATOM      3  N   UNL A   1      42.827  20.113  26.858  1.00  0.00    -0.352 N 
ATOM      4  H   UNL A   1      43.662  20.100  27.378  1.00  0.00     0.163 HD
ENDROOT
BRANCH   1   5
ATOM      5  C   UNL A   1      40.555  21.265  26.734  1.00  0.00     0.040 A 
ATOM      6  C   UNL A   1      38.404  24.411  26.488  1.00  0.00     0.045 C 
ATOM      7  C   UNL A   1      38.847  22.990  26.267  1.00  0.00    -0.039 A 
ATOM      8  C   UNL A   1      40.050  22.570  26.883  1.00  0.00     0.018 A 
ATOM      9  C   UNL A   1      38.146  22.080  25.458  1.00  0.00     0.020 A 
ATOM     10  C   UNL A   1      38.637  20.780  25.326  1.00  0.00     0.013 A 
ATOM     11  C   UNL A   1      39.820  20.383  25.949  1.00  0.00     0.014 A 
BRANCH   9  12
ATOM     12  C   UNL A   1      36.946  22.410  24.708  1.00  0.00     0.135 A 
ATOM     13  C   UNL A   1      36.697  22.822  23.417  1.00  0.00     0.051 A 
ATOM     14  O   UNL A   1      35.768  22.222  25.375  1.00  0.00    -0.455 OA
ATOM     15  C   UNL A   1      35.290  22.918  23.296  1.00  0.00     0.053 A 
ATOM     16  C   UNL A   1      34.759  22.555  24.519  1.00  0.00     0.147 A 
BRANCH  16  17
ATOM     17  C   UNL A   1      33.410  22.508  25.006  1.00  0.00     0.180 C 
ATOM     18  N   UNL A   1      33.064  23.295  25.975  1.00  0.00    -0.177 NA
BRANCH  18  19
ATOM     19  N   UNL A   1      31.801  23.217  26.478  1.00  0.00    -0.243 N 
ATOM     20  C   UNL A   1      30.787  24.152  26.587  1.00  0.00     0.271 C 
ATOM     21  H   UNL A   1      31.565  22.329  26.830  1.00  0.00     0.194 HD
ATOM     22  O   UNL A   1      29.765  23.835  27.201  1.00  0.00    -0.267 OA
BRANCH  20  23
ATOM     23  C   UNL A   1      30.856  25.510  25.985  1.00  0.00     0.043 A 
ATOM     24  C   UNL A   1      30.077  25.748  24.850  1.00  0.00     0.014 A 
ATOM     25  C   UNL A   1      31.707  26.523  26.457  1.00  0.00     0.039 A 
ATOM     26  C   UNL A   1      30.113  26.993  24.238  1.00  0.00     0.003 A 
ATOM     27  C   UNL A   1      31.728  27.819  25.899  1.00  0.00     0.037 A 
ATOM     28  C   UNL A   1      30.913  28.012  24.769  1.00  0.00     0.026 A 
BRANCH  27  29
ATOM     29  N   UNL A   1      32.524  28.830  26.429  1.00  0.00    -0.378 N 
ATOM     30  C   UNL A   1      31.994  30.139  26.800  1.00  0.00     0.143 C 
ATOM     31  C   UNL A   1      33.835  28.508  26.989  1.00  0.00     0.143 C 
ENDBRANCH  27  29
ENDBRANCH  20  23
ENDBRANCH  18  19
ENDBRANCH  16  17
ENDBRANCH   9  12
ENDBRANCH   1   5
BRANCH   3  32
ATOM     32  C   UNL A   1      42.854  19.241  25.692  1.00  0.00     0.118 C 
BRANCH  32  33
ATOM     33  C   UNL A   1      44.231  18.606  25.481  1.00  0.00     0.042 C 
BRANCH  33  34
ATOM     34  C   UNL A   1      45.260  19.562  24.906  1.00  0.00     0.118 C 
BRANCH  34  35
ATOM     35  N   UNL A   1      44.757  20.405  23.822  1.00  0.00    -0.352 N 
ATOM     36  C   UNL A   1      44.691  21.787  23.762  1.00  0.00     0.251 C 
ATOM     37  H   UNL A   1      44.422  19.926  23.029  1.00  0.00     0.163 HD
ATOM     38  O   UNL A   1      44.203  22.355  22.792  1.00  0.00    -0.269 OA
BRANCH  36  39
ATOM     39  C   UNL A   1      45.362  22.564  24.827  1.00  0.00     0.039 A 
ATOM     40  C   UNL A   1      45.154  22.138  26.142  1.00  0.00     0.014 A 
ATOM     41  C   UNL A   1      45.826  23.846  24.555  1.00  0.00     0.014 A 
ATOM     42  C   UNL A   1      45.103  23.089  27.154  1.00  0.00     0.010 A 
ATOM     43  C   UNL A   1      45.665  24.806  25.532  1.00  0.00     0.010 A 
ATOM     44  C   UNL A   1      45.222  24.433  26.805  1.00  0.00    -0.014 A 
BRANCH  44  45
ATOM     45  C   UNL A   1      44.877  25.520  27.707  1.00  0.00     0.031 A 
ATOM     46  C   UNL A   1      43.564  26.169  27.562  1.00  0.00     0.074 A 
ATOM     47  C   UNL A   1      45.716  25.900  28.696  1.00  0.00     0.049 A 
ATOM     48  N   UNL A   1      43.295  27.361  27.968  1.00  0.00    -0.248 NA
ATOM     49  C   UNL A   1      42.451  25.525  26.881  1.00  0.00     0.031 C 
ATOM     50  C   UNL A   1      45.413  26.786  29.816  1.00  0.00     0.029 A 
ATOM     51  N   UNL A   1      47.102  25.694  28.784  1.00  0.00    -0.354 N 
ATOM     52  C   UNL A   1      41.938  27.549  27.852  1.00  0.00     0.074 A 
ATOM     53  C   UNL A   1      41.473  26.407  27.099  1.00  0.00     0.031 C 
ATOM     54  C   UNL A   1      46.561  27.296  30.289  1.00  0.00     0.029 A 
ATOM     55  C   UNL A   1      47.625  26.858  29.411  1.00  0.00     0.049 A 
ATOM     56  H   UNL A   1      47.607  24.907  28.476  1.00  0.00     0.167 HD
ATOM     57  C   UNL A   1      41.363  28.591  28.519  1.00  0.00     0.037 A 
ATOM     58  C   UNL A   1      48.502  27.673  28.753  1.00  0.00     0.037 A 
ATOM     59  C   UNL A   1      42.379  29.423  29.173  1.00  0.00     0.049 A 
ATOM     60  C   UNL A   1      47.962  29.057  28.466  1.00  0.00     0.074 A 
ATOM     61  C   UNL A   1      42.871  29.516  30.465  1.00  0.00     0.029 A 
ATOM     62  N   UNL A   1      43.277  30.117  28.381  1.00  0.00    -0.354 N 
ATOM     63  N   UNL A   1      46.786  29.483  28.835  1.00  0.00    -0.248 NA
ATOM     64  C   UNL A   1      48.672  30.029  27.634  1.00  0.00     0.031 C 
ATOM     65  C   UNL A   1      44.077  30.277  30.433  1.00  0.00     0.029 A 
ATOM     66  C   UNL A   1      44.310  30.661  29.124  1.00  0.00     0.049 A 
ATOM     67  H   UNL A   1      43.192  30.213  27.405  1.00  0.00     0.167 HD
ATOM     68  C   UNL A   1      46.548  30.710  28.273  1.00  0.00     0.074 A 
ATOM     69  C   UNL A   1      47.754  31.002  27.517  1.00  0.00     0.031 C 
ATOM     70  C   UNL A   1      45.368  31.379  28.430  1.00  0.00     0.037 A 
BRANCH  57  71
ATOM     71  C   UNL A   1      39.877  28.713  28.791  1.00  0.00     0.064 A 
ATOM     72  C   UNL A   1      39.010  29.230  27.802  1.00  0.00     0.173 A 
ATOM     73  C   UNL A   1      39.244  28.401  30.009  1.00  0.00     0.173 A 
ATOM     74  F   UNL A   1      39.431  29.460  26.552  1.00  0.00    -0.203 F 
ATOM     75  C   UNL A   1      37.668  29.530  28.059  1.00  0.00     0.198 A 
ATOM     76  C   UNL A   1      37.920  28.756  30.287  1.00  0.00     0.198 A 
ATOM     77  F   UNL A   1      39.855  27.675  30.951  1.00  0.00    -0.203 F 
ATOM     78  F   UNL A   1      36.901  30.027  27.079  1.00  0.00    -0.200 F 
ATOM     79  C   UNL A   1      37.134  29.333  29.314  1.00  0.00     0.200 A 
ATOM     80  F   UNL A   1      37.413  28.523  31.507  1.00  0.00    -0.200 F 
ATOM     81  F   UNL A   1      35.863  29.665  29.575  1.00  0.00    -0.200 F 
ENDBRANCH  57  71
BRANCH  58  82
ATOM     82  C   UNL A   1      49.409  26.892  27.867  1.00  0.00     0.064 A 
ATOM     83  C   UNL A   1      49.119  26.923  26.486  1.00  0.00     0.173 A 
ATOM     84  C   UNL A   1      50.725  26.624  28.254  1.00  0.00     0.173 A 
ATOM     85  F   UNL A   1      47.860  27.128  26.070  1.00  0.00    -0.203 F 
ATOM     86  C   UNL A   1      50.145  26.949  25.549  1.00  0.00     0.198 A 
ATOM     87  C   UNL A   1      51.742  26.596  27.303  1.00  0.00     0.198 A 
ATOM     88  F   UNL A   1      51.052  26.544  29.551  1.00  0.00    -0.203 F 
ATOM     89  F   UNL A   1      49.867  27.204  24.263  1.00  0.00    -0.200 F 
ATOM     90  C   UNL A   1      51.460  26.836  25.965  1.00  0.00     0.200 A 
ATOM     91  F   UNL A   1      53.014  26.450  27.701  1.00  0.00    -0.200 F 
ATOM     92  F   UNL A   1      52.455  27.013  25.086  1.00  0.00    -0.200 F 
ENDBRANCH  58  82
BRANCH  70  93
ATOM     93  C   UNL A   1      45.121  32.769  27.897  1.00  0.00     0.064 A 
ATOM     94  C   UNL A   1      45.588  33.924  28.550  1.00  0.00     0.173 A 
ATOM     95  C   UNL A   1      44.319  33.000  26.757  1.00  0.00     0.173 A 
ATOM     96  F   UNL A   1      46.236  33.842  29.721  1.00  0.00    -0.203 F 
ATOM     97  C   UNL A   1      45.374  35.203  28.033  1.00  0.00     0.198 A 
ATOM     98  C   UNL A   1      44.057  34.283  26.276  1.00  0.00     0.198 A 
ATOM     99  F   UNL A   1      43.776  31.996  26.057  1.00  0.00    -0.203 F 
ATOM    100  F   UNL A   1      45.913  36.266  28.647  1.00  0.00    -0.200 F 
ATOM    101  C   UNL A   1      44.610  35.382  26.897  1.00  0.00     0.200 A 
ATOM    102  F   UNL A   1      43.273  34.439  25.199  1.00  0.00    -0.200 F 
ATOM    103  F   UNL A   1      44.398  36.611  26.406  1.00  0.00    -0.200 F 
ENDBRANCH  70  93
ENDBRANCH  44  45
ENDBRANCH  36  39
ENDBRANCH  34  35
ENDBRANCH  33  34
ENDBRANCH  32  33
ENDBRANCH   3  32
TORSDOF 15
ENDMDL
