MODEL 1
REMARK VINA RESULT:     -12.9      0.000      0.000
REMARK SMILES O=C(NCCCNC(=O)c1cccc(Nc2ccc([N+](=O)[O-])cc2)c1)c1ccc(-c2c3nc(c(-c4c(F)c(F)c(F)c(F)c4F)c4ccc([nH]4)c(-c4c(F)c(F)c(F)c(F)c4F)c4nc(c(-c5c(F)c(F)c(F)c(F)c5F)c5ccc2[nH]5)C=C4)C=C3)cc1
REMARK SMILES IDX 5 1 4 2 3 3 1 4 2 5 26 7 27 8 88 9 28 10 87 11 29 12 30 13
REMARK SMILES IDX 31 14 81 15 32 16 86 17 80 18 82 19 33 20 85 21 79 22 78 23
REMARK SMILES IDX 34 25 66 26 46 27 65 28 47 29 50 30 64 31 83 32 48 33 49 34
REMARK SMILES IDX 63 36 84 37 51 38 35 39 36 40 44 41 37 42 38 43 42 44 45 45
REMARK SMILES IDX 39 46 40 47 43 48 41 49 67 50 68 51 76 52 69 53 70 54 74 55
REMARK SMILES IDX 77 56 71 57 72 58 75 59 73 60 52 61 53 62 61 63 54 64 55 65
REMARK SMILES IDX 59 66 62 67 56 68 57 69 60 70 58 71 6 72 7 73 8 74 9 76
REMARK SMILES IDX 10 77 11 78 25 79 12 80 14 81 13 82 15 83 16 85 17 86 24 87
REMARK SMILES IDX 18 88 23 89 19 90 20 91 21 92 22 93
REMARK H PARENT 3 6 82 24 50 35 7 75 15 84
REMARK Flexibility Score: inf
ROOT
ATOM      1  C   UNL A   1      38.123  19.606  24.973  1.00  0.00     0.042 C 
ENDROOT
BRANCH   1   2
ATOM      2  C   UNL A   1      39.177  20.007  25.996  1.00  0.00     0.118 C 
BRANCH   2   3
ATOM      3  N   UNL A   1      40.341  19.133  25.980  1.00  0.00    -0.352 N 
ATOM      4  O   UNL A   1      42.511  18.559  25.837  1.00  0.00    -0.269 OA
ATOM      5  C   UNL A   1      41.677  19.432  26.062  1.00  0.00     0.251 C 
ATOM      6  H   UNL A   1      40.136  18.174  25.896  1.00  0.00     0.163 HD
BRANCH   5   7
ATOM      7  C   UNL A   1      42.124  20.801  26.399  1.00  0.00     0.039 A 
ATOM      8  C   UNL A   1      42.286  21.775  25.410  1.00  0.00     0.014 A 
ATOM      9  C   UNL A   1      42.340  21.126  27.742  1.00  0.00     0.014 A 
ATOM     10  C   UNL A   1      42.796  23.026  25.743  1.00  0.00     0.010 A 
ATOM     11  C   UNL A   1      42.770  22.409  28.085  1.00  0.00     0.010 A 
ATOM     12  C   UNL A   1      43.029  23.361  27.086  1.00  0.00    -0.014 A 
BRANCH  12  13
ATOM     13  C   UNL A   1      43.482  24.726  27.444  1.00  0.00     0.031 A 
ATOM     14  C   UNL A   1      42.525  25.729  28.013  1.00  0.00     0.074 A 
ATOM     15  C   UNL A   1      44.765  25.065  27.219  1.00  0.00     0.049 A 
ATOM     16  N   UNL A   1      42.724  26.990  28.306  1.00  0.00    -0.248 NA
ATOM     17  C   UNL A   1      41.156  25.261  28.279  1.00  0.00     0.031 C 
ATOM     18  C   UNL A   1      45.783  24.176  26.658  1.00  0.00     0.029 A 
ATOM     19  N   UNL A   1      45.429  26.249  27.419  1.00  0.00    -0.354 N 
ATOM     20  C   UNL A   1      41.505  27.471  28.764  1.00  0.00     0.074 A 
ATOM     21  C   UNL A   1      40.565  26.373  28.690  1.00  0.00     0.031 C 
ATOM     22  C   UNL A   1      46.943  24.841  26.563  1.00  0.00     0.029 A 
ATOM     23  C   UNL A   1      46.735  26.218  26.998  1.00  0.00     0.049 A 
ATOM     24  H   UNL A   1      45.009  27.042  27.824  1.00  0.00     0.167 HD
ATOM     25  C   UNL A   1      41.205  28.716  29.207  1.00  0.00     0.037 A 
ATOM     26  C   UNL A   1      47.656  27.198  26.934  1.00  0.00     0.037 A 
ATOM     27  C   UNL A   1      42.153  29.796  29.290  1.00  0.00     0.049 A 
ATOM     28  C   UNL A   1      47.294  28.575  27.406  1.00  0.00     0.074 A 
ATOM     29  C   UNL A   1      41.963  31.076  29.780  1.00  0.00     0.029 A 
ATOM     30  N   UNL A   1      43.471  29.726  28.857  1.00  0.00    -0.354 N 
ATOM     31  N   UNL A   1      46.151  29.008  27.882  1.00  0.00    -0.248 NA
ATOM     32  C   UNL A   1      48.343  29.599  27.334  1.00  0.00     0.031 C 
ATOM     33  C   UNL A   1      43.149  31.796  29.597  1.00  0.00     0.029 A 
ATOM     34  C   UNL A   1      44.096  30.949  29.042  1.00  0.00     0.049 A 
ATOM     35  H   UNL A   1      43.898  28.925  28.477  1.00  0.00     0.167 HD
ATOM     36  C   UNL A   1      46.348  30.347  28.184  1.00  0.00     0.074 A 
ATOM     37  C   UNL A   1      47.722  30.654  27.843  1.00  0.00     0.031 C 
ATOM     38  C   UNL A   1      45.466  31.238  28.699  1.00  0.00     0.037 A 
BRANCH  25  39
ATOM     39  C   UNL A   1      39.783  28.985  29.608  1.00  0.00     0.064 A 
ATOM     40  C   UNL A   1      39.336  28.803  30.927  1.00  0.00     0.173 A 
ATOM     41  C   UNL A   1      38.857  29.451  28.663  1.00  0.00     0.173 A 
ATOM     42  F   UNL A   1      40.177  28.349  31.868  1.00  0.00    -0.203 F 
ATOM     43  C   UNL A   1      38.009  29.043  31.274  1.00  0.00     0.198 A 
ATOM     44  C   UNL A   1      37.538  29.718  29.019  1.00  0.00     0.198 A 
ATOM     45  F   UNL A   1      39.232  29.650  27.390  1.00  0.00    -0.203 F 
ATOM     46  F   UNL A   1      37.593  28.809  32.525  1.00  0.00    -0.200 F 
ATOM     47  C   UNL A   1      37.112  29.505  30.322  1.00  0.00     0.200 A 
ATOM     48  F   UNL A   1      36.676  30.177  28.101  1.00  0.00    -0.200 F 
ATOM     49  F   UNL A   1      35.835  29.734  30.657  1.00  0.00    -0.200 F 
ENDBRANCH  25  39
BRANCH  26  50
ATOM     50  C   UNL A   1      48.996  26.888  26.380  1.00  0.00     0.064 A 
ATOM     51  C   UNL A   1      50.005  26.349  27.186  1.00  0.00     0.173 A 
ATOM     52  C   UNL A   1      49.271  27.063  25.014  1.00  0.00     0.173 A 
ATOM     53  F   UNL A   1      49.792  26.178  28.499  1.00  0.00    -0.203 F 
ATOM     54  C   UNL A   1      51.240  25.994  26.648  1.00  0.00     0.198 A 
ATOM     55  C   UNL A   1      50.496  26.684  24.473  1.00  0.00     0.198 A 
ATOM     56  F   UNL A   1      48.332  27.567  24.199  1.00  0.00    -0.203 F 
ATOM     57  F   UNL A   1      52.197  25.496  27.443  1.00  0.00    -0.200 F 
ATOM     58  C   UNL A   1      51.481  26.152  25.290  1.00  0.00     0.200 A 
ATOM     59  F   UNL A   1      50.717  26.819  23.158  1.00  0.00    -0.200 F 
ATOM     60  F   UNL A   1      52.662  25.788  24.771  1.00  0.00    -0.200 F 
ENDBRANCH  26  50
BRANCH  38  61
ATOM     61  C   UNL A   1      45.964  32.630  28.958  1.00  0.00     0.064 A 
ATOM     62  C   UNL A   1      46.599  32.969  30.160  1.00  0.00     0.173 A 
ATOM     63  C   UNL A   1      45.864  33.614  27.963  1.00  0.00     0.173 A 
ATOM     64  F   UNL A   1      46.704  32.068  31.148  1.00  0.00    -0.203 F 
ATOM     65  C   UNL A   1      47.109  34.250  30.360  1.00  0.00     0.198 A 
ATOM     66  C   UNL A   1      46.397  34.884  28.156  1.00  0.00     0.198 A 
ATOM     67  F   UNL A   1      45.267  33.335  26.794  1.00  0.00    -0.203 F 
ATOM     68  F   UNL A   1      47.688  34.564  31.527  1.00  0.00    -0.200 F 
ATOM     69  C   UNL A   1      47.017  35.201  29.355  1.00  0.00     0.200 A 
ATOM     70  F   UNL A   1      46.318  35.799  27.180  1.00  0.00    -0.200 F 
ATOM     71  F   UNL A   1      47.524  36.428  29.543  1.00  0.00    -0.200 F 
ENDBRANCH  38  61
ENDBRANCH  12  13
ENDBRANCH   5   7
ENDBRANCH   2   3
ENDBRANCH   1   2
BRANCH   1  72
ATOM     72  C   UNL A   1      37.390  20.779  24.335  1.00  0.00     0.118 C 
BRANCH  72  73
ATOM     73  N   UNL A   1      37.124  21.846  25.287  1.00  0.00    -0.352 N 
ATOM     74  C   UNL A   1      36.143  22.801  25.292  1.00  0.00     0.251 C 
ATOM     75  H   UNL A   1      37.748  21.888  26.048  1.00  0.00     0.163 HD
ATOM     76  O   UNL A   1      36.229  23.752  26.066  1.00  0.00    -0.269 OA
BRANCH  74  77
ATOM     77  C   UNL A   1      34.983  22.700  24.384  1.00  0.00     0.041 A 
ATOM     78  C   UNL A   1      34.688  23.777  23.548  1.00  0.00     0.014 A 
ATOM     79  C   UNL A   1      34.143  21.580  24.413  1.00  0.00     0.039 A 
ATOM     80  C   UNL A   1      33.583  23.706  22.705  1.00  0.00     0.003 A 
ATOM     81  C   UNL A   1      33.039  21.485  23.558  1.00  0.00     0.039 A 
ATOM     82  C   UNL A   1      32.775  22.563  22.704  1.00  0.00     0.026 A 
BRANCH  81  83
ATOM     83  N   UNL A   1      32.266  20.311  23.592  1.00  0.00    -0.356 N 
ATOM     84  H   UNL A   1      31.346  20.421  23.259  1.00  0.00     0.167 HD
BRANCH  83  85
ATOM     85  C   UNL A   1      32.575  19.008  24.015  1.00  0.00     0.039 A 
ATOM     86  C   UNL A   1      33.009  18.081  23.057  1.00  0.00     0.033 A 
ATOM     87  C   UNL A   1      32.554  18.624  25.362  1.00  0.00     0.033 A 
ATOM     88  C   UNL A   1      33.448  16.808  23.432  1.00  0.00     0.088 A 
ATOM     89  C   UNL A   1      32.984  17.351  25.754  1.00  0.00     0.088 A 
ATOM     90  C   UNL A   1      33.443  16.452  24.785  1.00  0.00     0.269 A 
BRANCH  90  91
ATOM     91  N   UNL A   1      33.946  15.135  25.191  1.00  0.00     0.062 N 
ATOM     92  O   UNL A   1      33.112  14.254  25.445  1.00  0.00    -0.258 OA
ATOM     93  O   UNL A   1      35.174  14.980  25.249  1.00  0.00    -0.258 OA
ENDBRANCH  90  91
ENDBRANCH  83  85
ENDBRANCH  81  83
ENDBRANCH  74  77
ENDBRANCH  72  73
ENDBRANCH   1  72
TORSDOF 13
ENDMDL
MODEL 2
REMARK VINA RESULT:     -12.9      0.258      1.734
REMARK SMILES O=C(NCCCNC(=O)c1cccc(Nc2ccc([N+](=O)[O-])cc2)c1)c1ccc(-c2c3nc(c(-c4c(F)c(F)c(F)c(F)c4F)c4ccc([nH]4)c(-c4c(F)c(F)c(F)c(F)c4F)c4nc(c(-c5c(F)c(F)c(F)c(F)c5F)c5ccc2[nH]5)C=C4)C=C3)cc1
REMARK SMILES IDX 5 1 4 2 3 3 1 4 2 5 26 7 27 8 88 9 28 10 87 11 29 12 30 13
REMARK SMILES IDX 31 14 81 15 32 16 86 17 80 18 82 19 33 20 85 21 79 22 78 23
REMARK SMILES IDX 34 25 66 26 46 27 65 28 47 29 50 30 64 31 83 32 48 33 49 34
REMARK SMILES IDX 63 36 84 37 51 38 35 39 36 40 44 41 37 42 38 43 42 44 45 45
REMARK SMILES IDX 39 46 40 47 43 48 41 49 67 50 68 51 76 52 69 53 70 54 74 55
REMARK SMILES IDX 77 56 71 57 72 58 75 59 73 60 52 61 53 62 61 63 54 64 55 65
REMARK SMILES IDX 59 66 62 67 56 68 57 69 60 70 58 71 6 72 7 73 8 74 9 76
REMARK SMILES IDX 10 77 11 78 25 79 12 80 14 81 13 82 15 83 16 85 17 86 24 87
REMARK SMILES IDX 18 88 23 89 19 90 20 91 21 92 22 93
REMARK H PARENT 3 6 82 24 50 35 7 75 15 84
REMARK Flexibility Score: inf
ROOT
ATOM      1  C   UNL A   1      38.159  19.659  25.001  1.00  0.00     0.042 C 
ENDROOT
BRANCH   1   2
ATOM      2  C   UNL A   1      39.210  20.071  26.022  1.00  0.00     0.118 C 
BRANCH   2   3
ATOM      3  N   UNL A   1      40.370  19.191  26.024  1.00  0.00    -0.352 N 
ATOM      4  O   UNL A   1      42.539  18.605  25.911  1.00  0.00    -0.269 OA
ATOM      5  C   UNL A   1      41.706  19.484  26.122  1.00  0.00     0.251 C 
ATOM      6  H   UNL A   1      40.162  18.232  25.940  1.00  0.00     0.163 HD
BRANCH   5   7
ATOM      7  C   UNL A   1      42.156  20.851  26.462  1.00  0.00     0.039 A 
ATOM      8  C   UNL A   1      42.443  21.213  27.781  1.00  0.00     0.014 A 
ATOM      9  C   UNL A   1      42.338  21.775  25.428  1.00  0.00     0.014 A 
ATOM     10  C   UNL A   1      42.774  22.530  28.084  1.00  0.00     0.010 A 
ATOM     11  C   UNL A   1      42.754  23.074  25.724  1.00  0.00     0.010 A 
ATOM     12  C   UNL A   1      42.948  23.470  27.057  1.00  0.00    -0.014 A 
BRANCH  12  13
ATOM     13  C   UNL A   1      43.394  24.848  27.377  1.00  0.00     0.031 A 
ATOM     14  C   UNL A   1      42.438  25.851  27.950  1.00  0.00     0.074 A 
ATOM     15  C   UNL A   1      44.667  25.196  27.114  1.00  0.00     0.049 A 
ATOM     16  N   UNL A   1      42.629  27.119  28.213  1.00  0.00    -0.248 NA
ATOM     17  C   UNL A   1      41.082  25.371  28.258  1.00  0.00     0.031 C 
ATOM     18  C   UNL A   1      45.682  24.308  26.547  1.00  0.00     0.029 A 
ATOM     19  N   UNL A   1      45.321  26.392  27.275  1.00  0.00    -0.354 N 
ATOM     20  C   UNL A   1      41.415  27.595  28.690  1.00  0.00     0.074 A 
ATOM     21  C   UNL A   1      40.487  26.485  28.661  1.00  0.00     0.031 C 
ATOM     22  C   UNL A   1      46.831  24.985  26.411  1.00  0.00     0.029 A 
ATOM     23  C   UNL A   1      46.617  26.368  26.824  1.00  0.00     0.049 A 
ATOM     24  H   UNL A   1      44.901  27.188  27.675  1.00  0.00     0.167 HD
ATOM     25  C   UNL A   1      41.111  28.845  29.116  1.00  0.00     0.037 A 
ATOM     26  C   UNL A   1      47.524  27.357  26.718  1.00  0.00     0.037 A 
ATOM     27  C   UNL A   1      42.048  29.937  29.155  1.00  0.00     0.049 A 
ATOM     28  C   UNL A   1      47.156  28.739  27.172  1.00  0.00     0.074 A 
ATOM     29  C   UNL A   1      41.855  31.225  29.625  1.00  0.00     0.029 A 
ATOM     30  N   UNL A   1      43.356  29.874  28.692  1.00  0.00    -0.354 N 
ATOM     31  N   UNL A   1      46.021  29.168  27.666  1.00  0.00    -0.248 NA
ATOM     32  C   UNL A   1      48.191  29.773  27.054  1.00  0.00     0.031 C 
ATOM     33  C   UNL A   1      43.027  31.954  29.399  1.00  0.00     0.029 A 
ATOM     34  C   UNL A   1      43.971  31.108  28.837  1.00  0.00     0.049 A 
ATOM     35  H   UNL A   1      43.783  29.071  28.317  1.00  0.00     0.167 HD
ATOM     36  C   UNL A   1      46.208  30.515  27.937  1.00  0.00     0.074 A 
ATOM     37  C   UNL A   1      47.570  30.831  27.557  1.00  0.00     0.031 C 
ATOM     38  C   UNL A   1      45.329  31.406  28.456  1.00  0.00     0.037 A 
BRANCH  25  39
ATOM     39  C   UNL A   1      39.696  29.105  29.547  1.00  0.00     0.064 A 
ATOM     40  C   UNL A   1      38.705  29.509  28.638  1.00  0.00     0.173 A 
ATOM     41  C   UNL A   1      39.321  28.927  30.887  1.00  0.00     0.173 A 
ATOM     42  F   UNL A   1      39.012  29.703  27.347  1.00  0.00    -0.203 F 
ATOM     43  C   UNL A   1      37.402  29.760  29.062  1.00  0.00     0.198 A 
ATOM     44  C   UNL A   1      38.010  29.151  31.302  1.00  0.00     0.198 A 
ATOM     45  F   UNL A   1      40.225  28.535  31.797  1.00  0.00    -0.203 F 
ATOM     46  F   UNL A   1      36.488  30.198  28.187  1.00  0.00    -0.200 F 
ATOM     47  C   UNL A   1      37.055  29.576  30.392  1.00  0.00     0.200 A 
ATOM     48  F   UNL A   1      37.673  28.960  32.586  1.00  0.00    -0.200 F 
ATOM     49  F   UNL A   1      35.801  29.820  30.799  1.00  0.00    -0.200 F 
ENDBRANCH  25  39
BRANCH  26  50
ATOM     50  C   UNL A   1      48.854  27.052  26.137  1.00  0.00     0.064 A 
ATOM     51  C   UNL A   1      49.885  26.531  26.927  1.00  0.00     0.173 A 
ATOM     52  C   UNL A   1      49.097  27.213  24.764  1.00  0.00     0.173 A 
ATOM     53  F   UNL A   1      49.703  26.374  28.247  1.00  0.00    -0.203 F 
ATOM     54  C   UNL A   1      51.111  26.180  26.366  1.00  0.00     0.198 A 
ATOM     55  C   UNL A   1      50.313  26.837  24.200  1.00  0.00     0.198 A 
ATOM     56  F   UNL A   1      48.136  27.699  23.964  1.00  0.00    -0.203 F 
ATOM     57  F   UNL A   1      52.090  25.700  27.145  1.00  0.00    -0.200 F 
ATOM     58  C   UNL A   1      51.320  26.323  25.001  1.00  0.00     0.200 A 
ATOM     59  F   UNL A   1      50.503  26.958  22.879  1.00  0.00    -0.200 F 
ATOM     60  F   UNL A   1      52.492  25.964  24.460  1.00  0.00    -0.200 F 
ENDBRANCH  26  50
BRANCH  38  61
ATOM     61  C   UNL A   1      45.815  32.808  28.675  1.00  0.00     0.064 A 
ATOM     62  C   UNL A   1      45.644  33.804  27.705  1.00  0.00     0.173 A 
ATOM     63  C   UNL A   1      46.398  33.171  29.899  1.00  0.00     0.173 A 
ATOM     64  F   UNL A   1      45.109  33.502  26.513  1.00  0.00    -0.203 F 
ATOM     65  C   UNL A   1      46.048  35.115  27.950  1.00  0.00     0.198 A 
ATOM     66  C   UNL A   1      46.776  34.486  30.150  1.00  0.00     0.198 A 
ATOM     67  F   UNL A   1      46.579  32.253  30.860  1.00  0.00    -0.203 F 
ATOM     68  F   UNL A   1      45.902  36.047  26.998  1.00  0.00    -0.200 F 
ATOM     69  C   UNL A   1      46.603  35.456  29.174  1.00  0.00     0.200 A 
ATOM     70  F   UNL A   1      47.301  34.817  31.338  1.00  0.00    -0.200 F 
ATOM     71  F   UNL A   1      46.975  36.721  29.413  1.00  0.00    -0.200 F 
ENDBRANCH  38  61
ENDBRANCH  12  13
ENDBRANCH   5   7
ENDBRANCH   2   3
ENDBRANCH   1   2
BRANCH   1  72
ATOM     72  C   UNL A   1      37.403  20.825  24.376  1.00  0.00     0.118 C 
BRANCH  72  73
ATOM     73  N   UNL A   1      37.143  21.890  25.333  1.00  0.00    -0.352 N 
ATOM     74  C   UNL A   1      36.170  22.854  25.339  1.00  0.00     0.251 C 
ATOM     75  H   UNL A   1      37.765  21.922  26.095  1.00  0.00     0.163 HD
ATOM     76  O   UNL A   1      36.262  23.800  26.118  1.00  0.00    -0.269 OA
BRANCH  74  77
ATOM     77  C   UNL A   1      35.013  22.767  24.426  1.00  0.00     0.041 A 
ATOM     78  C   UNL A   1      34.726  23.852  23.598  1.00  0.00     0.014 A 
ATOM     79  C   UNL A   1      34.165  21.652  24.443  1.00  0.00     0.039 A 
ATOM     80  C   UNL A   1      33.623  23.794  22.751  1.00  0.00     0.003 A 
ATOM     81  C   UNL A   1      33.063  21.570  23.585  1.00  0.00     0.039 A 
ATOM     82  C   UNL A   1      32.809  22.656  22.739  1.00  0.00     0.026 A 
BRANCH  81  83
ATOM     83  N   UNL A   1      32.284  20.400  23.606  1.00  0.00    -0.356 N 
ATOM     84  H   UNL A   1      31.368  20.517  23.264  1.00  0.00     0.167 HD
BRANCH  83  85
ATOM     85  C   UNL A   1      32.580  19.095  24.028  1.00  0.00     0.039 A 
ATOM     86  C   UNL A   1      33.036  18.172  23.075  1.00  0.00     0.033 A 
ATOM     87  C   UNL A   1      32.528  18.702  25.372  1.00  0.00     0.033 A 
ATOM     88  C   UNL A   1      33.464  16.897  23.452  1.00  0.00     0.088 A 
ATOM     89  C   UNL A   1      32.946  17.426  25.765  1.00  0.00     0.088 A 
ATOM     90  C   UNL A   1      33.427  16.532  24.802  1.00  0.00     0.269 A 
BRANCH  90  91
ATOM     91  N   UNL A   1      33.918  15.212  25.212  1.00  0.00     0.062 N 
ATOM     92  O   UNL A   1      35.140  15.078  25.376  1.00  0.00    -0.258 OA
ATOM     93  O   UNL A   1      33.083  14.311  25.376  1.00  0.00    -0.258 OA
ENDBRANCH  90  91
ENDBRANCH  83  85
ENDBRANCH  81  83
ENDBRANCH  74  77
ENDBRANCH  72  73
ENDBRANCH   1  72
TORSDOF 13
ENDMDL
MODEL 3
REMARK VINA RESULT:     -12.8      6.618     11.945
REMARK SMILES O=C(NCCCNC(=O)c1cccc(Nc2ccc([N+](=O)[O-])cc2)c1)c1ccc(-c2c3nc(c(-c4c(F)c(F)c(F)c(F)c4F)c4ccc([nH]4)c(-c4c(F)c(F)c(F)c(F)c4F)c4nc(c(-c5c(F)c(F)c(F)c(F)c5F)c5ccc2[nH]5)C=C4)C=C3)cc1
REMARK SMILES IDX 5 1 4 2 3 3 1 4 2 5 26 7 27 8 88 9 28 10 87 11 29 12 30 13
REMARK SMILES IDX 31 14 81 15 32 16 86 17 80 18 82 19 33 20 85 21 79 22 78 23
REMARK SMILES IDX 34 25 66 26 46 27 65 28 47 29 50 30 64 31 83 32 48 33 49 34
REMARK SMILES IDX 63 36 84 37 51 38 35 39 36 40 44 41 37 42 38 43 42 44 45 45
REMARK SMILES IDX 39 46 40 47 43 48 41 49 67 50 68 51 76 52 69 53 70 54 74 55
REMARK SMILES IDX 77 56 71 57 72 58 75 59 73 60 52 61 53 62 61 63 54 64 55 65
REMARK SMILES IDX 59 66 62 67 56 68 57 69 60 70 58 71 6 72 7 73 8 74 9 76
REMARK SMILES IDX 10 77 11 78 25 79 12 80 14 81 13 82 15 83 16 85 17 86 24 87
REMARK SMILES IDX 18 88 23 89 19 90 20 91 21 92 22 93
REMARK H PARENT 3 6 82 24 50 35 7 75 15 84
REMARK Flexibility Score: inf
ROOT
ATOM      1  C   UNL A   1      31.411  32.091  26.674  1.00  0.00     0.042 C 
ENDROOT
BRANCH   1   2
ATOM      2  C   UNL A   1      32.722  32.776  27.031  1.00  0.00     0.118 C 
BRANCH   2   3
ATOM      3  N   UNL A   1      32.528  34.090  27.627  1.00  0.00    -0.352 N 
ATOM      4  O   UNL A   1      32.699  35.726  29.161  1.00  0.00    -0.269 OA
ATOM      5  C   UNL A   1      33.146  34.678  28.701  1.00  0.00     0.251 C 
ATOM      6  H   UNL A   1      31.843  34.645  27.189  1.00  0.00     0.163 HD
BRANCH   5   7
ATOM      7  C   UNL A   1      34.332  34.053  29.324  1.00  0.00     0.039 A 
ATOM      8  C   UNL A   1      35.624  34.498  29.031  1.00  0.00     0.014 A 
ATOM      9  C   UNL A   1      34.141  33.029  30.257  1.00  0.00     0.014 A 
ATOM     10  C   UNL A   1      36.726  33.832  29.560  1.00  0.00     0.010 A 
ATOM     11  C   UNL A   1      35.245  32.417  30.853  1.00  0.00     0.010 A 
ATOM     12  C   UNL A   1      36.547  32.795  30.488  1.00  0.00    -0.014 A 
BRANCH  12  13
ATOM     13  C   UNL A   1      37.724  32.151  31.120  1.00  0.00     0.031 A 
ATOM     14  C   UNL A   1      38.498  31.088  30.399  1.00  0.00     0.074 A 
ATOM     15  C   UNL A   1      38.070  32.514  32.369  1.00  0.00     0.049 A 
ATOM     16  N   UNL A   1      39.499  30.361  30.826  1.00  0.00    -0.248 NA
ATOM     17  C   UNL A   1      38.088  30.793  29.018  1.00  0.00     0.031 C 
ATOM     18  C   UNL A   1      37.384  33.527  33.170  1.00  0.00     0.029 A 
ATOM     19  N   UNL A   1      39.074  32.063  33.188  1.00  0.00    -0.354 N 
ATOM     20  C   UNL A   1      39.820  29.505  29.782  1.00  0.00     0.074 A 
ATOM     21  C   UNL A   1      38.894  29.788  28.706  1.00  0.00     0.031 C 
ATOM     22  C   UNL A   1      37.987  33.626  34.363  1.00  0.00     0.029 A 
ATOM     23  C   UNL A   1      39.062  32.642  34.433  1.00  0.00     0.049 A 
ATOM     24  H   UNL A   1      39.736  31.389  32.911  1.00  0.00     0.167 HD
ATOM     25  C   UNL A   1      40.802  28.573  29.730  1.00  0.00     0.037 A 
ATOM     26  C   UNL A   1      39.807  32.385  35.523  1.00  0.00     0.037 A 
ATOM     27  C   UNL A   1      41.727  28.311  30.801  1.00  0.00     0.049 A 
ATOM     28  C   UNL A   1      40.872  31.331  35.451  1.00  0.00     0.074 A 
ATOM     29  C   UNL A   1      42.794  27.430  30.825  1.00  0.00     0.029 A 
ATOM     30  N   UNL A   1      41.687  28.922  32.048  1.00  0.00    -0.354 N 
ATOM     31  N   UNL A   1      41.199  30.559  34.442  1.00  0.00    -0.248 NA
ATOM     32  C   UNL A   1      41.670  31.108  36.663  1.00  0.00     0.031 C 
ATOM     33  C   UNL A   1      43.366  27.469  32.101  1.00  0.00     0.029 A 
ATOM     34  C   UNL A   1      42.690  28.414  32.858  1.00  0.00     0.049 A 
ATOM     35  H   UNL A   1      41.040  29.613  32.316  1.00  0.00     0.167 HD
ATOM     36  C   UNL A   1      42.251  29.774  34.888  1.00  0.00     0.074 A 
ATOM     37  C   UNL A   1      42.513  30.167  36.258  1.00  0.00     0.031 C 
ATOM     38  C   UNL A   1      42.938  28.817  34.219  1.00  0.00     0.037 A 
BRANCH  25  39
ATOM     39  C   UNL A   1      40.906  27.745  28.481  1.00  0.00     0.064 A 
ATOM     40  C   UNL A   1      40.212  26.533  28.333  1.00  0.00     0.173 A 
ATOM     41  C   UNL A   1      41.696  28.181  27.407  1.00  0.00     0.173 A 
ATOM     42  F   UNL A   1      39.451  26.065  29.333  1.00  0.00    -0.203 F 
ATOM     43  C   UNL A   1      40.336  25.773  27.172  1.00  0.00     0.198 A 
ATOM     44  C   UNL A   1      41.794  27.433  26.236  1.00  0.00     0.198 A 
ATOM     45  F   UNL A   1      42.374  29.336  27.491  1.00  0.00    -0.203 F 
ATOM     46  F   UNL A   1      39.709  24.593  27.077  1.00  0.00    -0.200 F 
ATOM     47  C   UNL A   1      41.122  26.226  26.123  1.00  0.00     0.200 A 
ATOM     48  F   UNL A   1      42.544  27.879  25.218  1.00  0.00    -0.200 F 
ATOM     49  F   UNL A   1      41.241  25.493  25.008  1.00  0.00    -0.200 F 
ENDBRANCH  25  39
BRANCH  26  50
ATOM     50  C   UNL A   1      39.541  33.142  36.770  1.00  0.00     0.064 A 
ATOM     51  C   UNL A   1      40.199  34.347  37.040  1.00  0.00     0.173 A 
ATOM     52  C   UNL A   1      38.568  32.707  37.685  1.00  0.00     0.173 A 
ATOM     53  F   UNL A   1      41.146  34.794  36.201  1.00  0.00    -0.203 F 
ATOM     54  C   UNL A   1      39.896  35.092  38.177  1.00  0.00     0.198 A 
ATOM     55  C   UNL A   1      38.248  33.465  38.808  1.00  0.00     0.198 A 
ATOM     56  F   UNL A   1      37.903  31.564  37.465  1.00  0.00    -0.203 F 
ATOM     57  F   UNL A   1      40.553  36.234  38.424  1.00  0.00    -0.200 F 
ATOM     58  C   UNL A   1      38.913  34.655  39.055  1.00  0.00     0.200 A 
ATOM     59  F   UNL A   1      37.284  33.050  39.642  1.00  0.00    -0.200 F 
ATOM     60  F   UNL A   1      38.607  35.385  40.136  1.00  0.00    -0.200 F 
ENDBRANCH  26  50
BRANCH  38  61
ATOM     61  C   UNL A   1      44.064  28.141  34.945  1.00  0.00     0.064 A 
ATOM     62  C   UNL A   1      45.353  28.691  34.974  1.00  0.00     0.173 A 
ATOM     63  C   UNL A   1      43.832  26.967  35.676  1.00  0.00     0.173 A 
ATOM     64  F   UNL A   1      45.630  29.803  34.277  1.00  0.00    -0.203 F 
ATOM     65  C   UNL A   1      46.372  28.082  35.703  1.00  0.00     0.198 A 
ATOM     66  C   UNL A   1      44.845  26.375  36.424  1.00  0.00     0.198 A 
ATOM     67  F   UNL A   1      42.613  26.405  35.682  1.00  0.00    -0.203 F 
ATOM     68  F   UNL A   1      47.605  28.608  35.695  1.00  0.00    -0.200 F 
ATOM     69  C   UNL A   1      46.114  26.933  36.434  1.00  0.00     0.200 A 
ATOM     70  F   UNL A   1      44.591  25.271  37.140  1.00  0.00    -0.200 F 
ATOM     71  F   UNL A   1      47.092  26.358  37.149  1.00  0.00    -0.200 F 
ENDBRANCH  38  61
ENDBRANCH  12  13
ENDBRANCH   5   7
ENDBRANCH   2   3
ENDBRANCH   1   2
BRANCH   1  72
ATOM     72  C   UNL A   1      31.416  30.581  26.884  1.00  0.00     0.118 C 
BRANCH  72  73
ATOM     73  N   UNL A   1      32.734  30.001  26.677  1.00  0.00    -0.352 N 
ATOM     74  C   UNL A   1      33.093  28.728  26.322  1.00  0.00     0.251 C 
ATOM     75  H   UNL A   1      33.486  30.622  26.814  1.00  0.00     0.163 HD
ATOM     76  O   UNL A   1      34.268  28.381  26.423  1.00  0.00    -0.269 OA
BRANCH  74  77
ATOM     77  C   UNL A   1      32.088  27.771  25.817  1.00  0.00     0.041 A 
ATOM     78  C   UNL A   1      32.063  26.481  26.347  1.00  0.00     0.014 A 
ATOM     79  C   UNL A   1      31.227  28.119  24.769  1.00  0.00     0.039 A 
ATOM     80  C   UNL A   1      31.138  25.561  25.862  1.00  0.00     0.003 A 
ATOM     81  C   UNL A   1      30.279  27.211  24.283  1.00  0.00     0.039 A 
ATOM     82  C   UNL A   1      30.247  25.931  24.848  1.00  0.00     0.026 A 
BRANCH  81  83
ATOM     83  N   UNL A   1      29.403  27.638  23.270  1.00  0.00    -0.356 N 
ATOM     84  H   UNL A   1      28.952  26.906  22.789  1.00  0.00     0.167 HD
BRANCH  83  85
ATOM     85  C   UNL A   1      29.055  28.923  22.823  1.00  0.00     0.039 A 
ATOM     86  C   UNL A   1      27.966  29.567  23.428  1.00  0.00     0.033 A 
ATOM     87  C   UNL A   1      29.803  29.621  21.867  1.00  0.00     0.033 A 
ATOM     88  C   UNL A   1      27.647  30.891  23.114  1.00  0.00     0.088 A 
ATOM     89  C   UNL A   1      29.492  30.944  21.536  1.00  0.00     0.088 A 
ATOM     90  C   UNL A   1      28.421  31.580  22.175  1.00  0.00     0.269 A 
BRANCH  90  91
ATOM     91  N   UNL A   1      28.121  32.984  21.875  1.00  0.00     0.062 N 
ATOM     92  O   UNL A   1      28.403  33.829  22.738  1.00  0.00    -0.258 OA
ATOM     93  O   UNL A   1      27.611  33.243  20.776  1.00  0.00    -0.258 OA
ENDBRANCH  90  91
ENDBRANCH  83  85
ENDBRANCH  81  83
ENDBRANCH  74  77
ENDBRANCH  72  73
ENDBRANCH   1  72
TORSDOF 13
ENDMDL
