MODEL 1
REMARK VINA RESULT:     -12.4      0.000      0.000
REMARK SMILES O=C(NCCCNC(=O)c1cc(Br)ccc1NC(=O)c1ccc(Br)s1)c1ccc(-c2c3nc(c(-c4c(F)c(F)c(F)c(F)c4F)c4ccc([nH]4)c(-c4c(F)c(F)c(F)c(F)c4F)c4nc(c(-c5c(F)c(F)c(F)c(F)c5F)c5ccc2[nH]5)C=C4)C=C3)cc1
REMARK SMILES IDX 5 1 4 2 3 3 1 4 2 5 26 7 27 8 88 9 28 10 87 11 29 12 30 13
REMARK SMILES IDX 31 14 81 15 32 16 86 17 80 18 82 19 33 20 85 21 79 22 78 23
REMARK SMILES IDX 34 25 66 26 46 27 65 28 47 29 50 30 64 31 83 32 48 33 49 34
REMARK SMILES IDX 63 36 84 37 51 38 35 39 36 40 44 41 37 42 38 43 42 44 45 45
REMARK SMILES IDX 39 46 40 47 43 48 41 49 67 50 68 51 76 52 69 53 70 54 74 55
REMARK SMILES IDX 77 56 71 57 72 58 75 59 73 60 52 61 53 62 61 63 54 64 55 65
REMARK SMILES IDX 59 66 62 67 56 68 57 69 60 70 58 71 6 72 7 73 8 74 9 76
REMARK SMILES IDX 10 77 11 78 16 79 12 80 15 81 13 82 14 83 17 84 18 85 19 87
REMARK SMILES IDX 20 88 21 89 25 90 22 91 23 92 24 93
REMARK H PARENT 3 6 82 24 50 35 7 75 17 86
REMARK Flexibility Score: inf
ROOT
ATOM      1  C   UNL A   1      33.891  29.178  23.930  1.00  0.00     0.042 C 
ENDROOT
BRANCH   1   2
ATOM      2  C   UNL A   1      33.215  29.082  25.292  1.00  0.00     0.118 C 
BRANCH   2   3
ATOM      3  N   UNL A   1      32.730  30.371  25.767  1.00  0.00    -0.352 N 
ATOM      4  O   UNL A   1      32.434  32.111  27.153  1.00  0.00    -0.269 OA
ATOM      5  C   UNL A   1      33.134  31.159  26.817  1.00  0.00     0.251 C 
ATOM      6  H   UNL A   1      31.984  30.742  25.244  1.00  0.00     0.163 HD
BRANCH   5   7
ATOM      7  C   UNL A   1      34.385  30.877  27.555  1.00  0.00     0.039 A 
ATOM      8  C   UNL A   1      34.685  29.594  28.014  1.00  0.00     0.014 A 
ATOM      9  C   UNL A   1      35.316  31.907  27.729  1.00  0.00     0.014 A 
ATOM     10  C   UNL A   1      35.834  29.373  28.767  1.00  0.00     0.010 A 
ATOM     11  C   UNL A   1      36.515  31.665  28.407  1.00  0.00     0.010 A 
ATOM     12  C   UNL A   1      36.770  30.401  28.958  1.00  0.00    -0.014 A 
BRANCH  12  13
ATOM     13  C   UNL A   1      38.029  30.106  29.688  1.00  0.00     0.031 A 
ATOM     14  C   UNL A   1      38.256  30.614  31.084  1.00  0.00     0.074 A 
ATOM     15  C   UNL A   1      38.954  29.328  29.094  1.00  0.00     0.049 A 
ATOM     16  N   UNL A   1      39.275  30.406  31.881  1.00  0.00    -0.248 NA
ATOM     17  C   UNL A   1      37.209  31.470  31.662  1.00  0.00     0.031 C 
ATOM     18  C   UNL A   1      38.853  28.792  27.734  1.00  0.00     0.029 A 
ATOM     19  N   UNL A   1      40.145  28.832  29.558  1.00  0.00    -0.354 N 
ATOM     20  C   UNL A   1      38.999  31.111  33.045  1.00  0.00     0.074 A 
ATOM     21  C   UNL A   1      37.730  31.778  32.842  1.00  0.00     0.031 C 
ATOM     22  C   UNL A   1      39.909  28.000  27.493  1.00  0.00     0.029 A 
ATOM     23  C   UNL A   1      40.785  28.014  28.659  1.00  0.00     0.049 A 
ATOM     24  H   UNL A   1      40.507  29.041  30.449  1.00  0.00     0.167 HD
ATOM     25  C   UNL A   1      39.732  31.183  34.182  1.00  0.00     0.037 A 
ATOM     26  C   UNL A   1      41.953  27.352  28.759  1.00  0.00     0.037 A 
ATOM     27  C   UNL A   1      40.988  30.509  34.386  1.00  0.00     0.049 A 
ATOM     28  C   UNL A   1      42.745  27.456  30.029  1.00  0.00     0.074 A 
ATOM     29  C   UNL A   1      41.799  30.512  35.508  1.00  0.00     0.029 A 
ATOM     30  N   UNL A   1      41.614  29.706  33.444  1.00  0.00    -0.354 N 
ATOM     31  N   UNL A   1      42.460  28.109  31.129  1.00  0.00    -0.248 NA
ATOM     32  C   UNL A   1      44.023  26.732  30.072  1.00  0.00     0.031 C 
ATOM     33  C   UNL A   1      42.932  29.736  35.234  1.00  0.00     0.029 A 
ATOM     34  C   UNL A   1      42.808  29.219  33.955  1.00  0.00     0.049 A 
ATOM     35  H   UNL A   1      41.264  29.511  32.545  1.00  0.00     0.167 HD
ATOM     36  C   UNL A   1      43.516  27.871  31.996  1.00  0.00     0.074 A 
ATOM     37  C   UNL A   1      44.436  26.991  31.305  1.00  0.00     0.031 C 
ATOM     38  C   UNL A   1      43.710  28.346  33.250  1.00  0.00     0.037 A 
BRANCH  25  39
ATOM     39  C   UNL A   1      39.197  32.028  35.300  1.00  0.00     0.064 A 
ATOM     40  C   UNL A   1      38.410  31.478  36.322  1.00  0.00     0.173 A 
ATOM     41  C   UNL A   1      39.518  33.391  35.381  1.00  0.00     0.173 A 
ATOM     42  F   UNL A   1      38.064  30.181  36.283  1.00  0.00    -0.203 F 
ATOM     43  C   UNL A   1      37.950  32.264  37.374  1.00  0.00     0.198 A 
ATOM     44  C   UNL A   1      39.075  34.170  36.446  1.00  0.00     0.198 A 
ATOM     45  F   UNL A   1      40.272  33.966  34.431  1.00  0.00    -0.203 F 
ATOM     46  F   UNL A   1      37.170  31.725  38.321  1.00  0.00    -0.200 F 
ATOM     47  C   UNL A   1      38.288  33.607  37.440  1.00  0.00     0.200 A 
ATOM     48  F   UNL A   1      39.411  35.467  36.513  1.00  0.00    -0.200 F 
ATOM     49  F   UNL A   1      37.851  34.362  38.458  1.00  0.00    -0.200 F 
ENDBRANCH  25  39
BRANCH  26  50
ATOM     50  C   UNL A   1      42.433  26.531  27.620  1.00  0.00     0.064 A 
ATOM     51  C   UNL A   1      43.402  27.020  26.734  1.00  0.00     0.173 A 
ATOM     52  C   UNL A   1      41.944  25.233  27.403  1.00  0.00     0.173 A 
ATOM     53  F   UNL A   1      43.884  28.263  26.890  1.00  0.00    -0.203 F 
ATOM     54  C   UNL A   1      43.854  26.249  25.665  1.00  0.00     0.198 A 
ATOM     55  C   UNL A   1      42.417  24.454  26.352  1.00  0.00     0.198 A 
ATOM     56  F   UNL A   1      41.020  24.719  28.227  1.00  0.00    -0.203 F 
ATOM     57  F   UNL A   1      44.752  26.755  24.810  1.00  0.00    -0.200 F 
ATOM     58  C   UNL A   1      43.366  24.965  25.479  1.00  0.00     0.200 A 
ATOM     59  F   UNL A   1      41.954  23.207  26.184  1.00  0.00    -0.200 F 
ATOM     60  F   UNL A   1      43.806  24.220  24.455  1.00  0.00    -0.200 F 
ENDBRANCH  26  50
BRANCH  38  61
ATOM     61  C   UNL A   1      44.957  27.907  33.955  1.00  0.00     0.064 A 
ATOM     62  C   UNL A   1      46.143  28.651  33.869  1.00  0.00     0.173 A 
ATOM     63  C   UNL A   1      44.963  26.743  34.737  1.00  0.00     0.173 A 
ATOM     64  F   UNL A   1      46.190  29.761  33.117  1.00  0.00    -0.203 F 
ATOM     65  C   UNL A   1      47.298  28.230  34.522  1.00  0.00     0.198 A 
ATOM     66  C   UNL A   1      46.113  26.339  35.407  1.00  0.00     0.198 A 
ATOM     67  F   UNL A   1      43.852  26.001  34.852  1.00  0.00    -0.203 F 
ATOM     68  F   UNL A   1      48.434  28.930  34.389  1.00  0.00    -0.200 F 
ATOM     69  C   UNL A   1      47.281  27.078  35.294  1.00  0.00     0.200 A 
ATOM     70  F   UNL A   1      46.093  25.229  36.160  1.00  0.00    -0.200 F 
ATOM     71  F   UNL A   1      48.394  26.675  35.921  1.00  0.00    -0.200 F 
ENDBRANCH  38  61
ENDBRANCH  12  13
ENDBRANCH   5   7
ENDBRANCH   2   3
ENDBRANCH   1   2
BRANCH   1  72
ATOM     72  C   UNL A   1      32.943  28.957  22.758  1.00  0.00     0.118 C 
BRANCH  72  73
ATOM     73  N   UNL A   1      33.312  27.797  21.953  1.00  0.00    -0.352 N 
ATOM     74  C   UNL A   1      33.094  26.460  22.187  1.00  0.00     0.253 C 
ATOM     75  H   UNL A   1      33.787  28.003  21.115  1.00  0.00     0.163 HD
ATOM     76  O   UNL A   1      33.675  25.610  21.521  1.00  0.00    -0.269 OA
BRANCH  74  77
ATOM     77  C   UNL A   1      32.209  26.044  23.299  1.00  0.00     0.064 A 
ATOM     78  C   UNL A   1      30.827  26.233  23.146  1.00  0.00     0.031 A 
ATOM     79  C   UNL A   1      32.746  25.509  24.487  1.00  0.00     0.054 A 
ATOM     80  C   UNL A   1      29.987  26.054  24.234  1.00  0.00     0.018 A 
ATOM     81  C   UNL A   1      31.887  25.418  25.585  1.00  0.00     0.028 A 
ATOM     82  Br  UNL A   1      28.139  26.388  24.062  1.00  0.00    -0.051 Br
ATOM     83  C   UNL A   1      30.517  25.686  25.464  1.00  0.00     0.018 A 
BRANCH  79  84
ATOM     84  N   UNL A   1      34.106  25.115  24.515  1.00  0.00    -0.321 N 
ATOM     85  C   UNL A   1      34.752  23.894  24.488  1.00  0.00     0.265 C 
ATOM     86  H   UNL A   1      34.727  25.878  24.563  1.00  0.00     0.170 HD
ATOM     87  O   UNL A   1      35.970  23.896  24.675  1.00  0.00    -0.268 OA
BRANCH  85  88
ATOM     88  C   UNL A   1      34.020  22.680  24.202  1.00  0.00     0.093 A 
ATOM     89  C   UNL A   1      33.049  22.440  23.245  1.00  0.00     0.027 A 
ATOM     90  S   UNL A   1      34.365  21.270  25.116  1.00  0.00    -0.123 S 
ATOM     91  C   UNL A   1      32.505  21.122  23.351  1.00  0.00     0.028 A 
ATOM     92  C   UNL A   1      33.130  20.408  24.341  1.00  0.00     0.071 A 
ATOM     93  Br  UNL A   1      32.666  18.654  24.804  1.00  0.00    -0.039 Br
ENDBRANCH  85  88
ENDBRANCH  79  84
ENDBRANCH  74  77
ENDBRANCH  72  73
ENDBRANCH   1  72
TORSDOF 12
ENDMDL
MODEL 2
REMARK VINA RESULT:     -12.4      1.638      3.256
REMARK SMILES O=C(NCCCNC(=O)c1cc(Br)ccc1NC(=O)c1ccc(Br)s1)c1ccc(-c2c3nc(c(-c4c(F)c(F)c(F)c(F)c4F)c4ccc([nH]4)c(-c4c(F)c(F)c(F)c(F)c4F)c4nc(c(-c5c(F)c(F)c(F)c(F)c5F)c5ccc2[nH]5)C=C4)C=C3)cc1
REMARK SMILES IDX 5 1 4 2 3 3 1 4 2 5 26 7 27 8 88 9 28 10 87 11 29 12 30 13
REMARK SMILES IDX 31 14 81 15 32 16 86 17 80 18 82 19 33 20 85 21 79 22 78 23
REMARK SMILES IDX 34 25 66 26 46 27 65 28 47 29 50 30 64 31 83 32 48 33 49 34
REMARK SMILES IDX 63 36 84 37 51 38 35 39 36 40 44 41 37 42 38 43 42 44 45 45
REMARK SMILES IDX 39 46 40 47 43 48 41 49 67 50 68 51 76 52 69 53 70 54 74 55
REMARK SMILES IDX 77 56 71 57 72 58 75 59 73 60 52 61 53 62 61 63 54 64 55 65
REMARK SMILES IDX 59 66 62 67 56 68 57 69 60 70 58 71 6 72 7 73 8 74 9 76
REMARK SMILES IDX 10 77 11 78 16 79 12 80 15 81 13 82 14 83 17 84 18 85 19 87
REMARK SMILES IDX 20 88 21 89 25 90 22 91 23 92 24 93
REMARK H PARENT 3 6 82 24 50 35 7 75 17 86
REMARK Flexibility Score: inf
ROOT
ATOM      1  C   UNL A   1      32.856  27.868  25.916  1.00  0.00     0.042 C 
ENDROOT
BRANCH   1   2
ATOM      2  C   UNL A   1      33.517  29.089  25.290  1.00  0.00     0.118 C 
BRANCH   2   3
ATOM      3  N   UNL A   1      32.991  30.341  25.820  1.00  0.00    -0.352 N 
ATOM      4  O   UNL A   1      32.630  32.003  27.284  1.00  0.00    -0.269 OA
ATOM      5  C   UNL A   1      33.359  31.087  26.912  1.00  0.00     0.251 C 
ATOM      6  H   UNL A   1      32.242  30.717  25.304  1.00  0.00     0.163 HD
BRANCH   5   7
ATOM      7  C   UNL A   1      34.607  30.802  27.654  1.00  0.00     0.039 A 
ATOM      8  C   UNL A   1      34.834  29.559  28.245  1.00  0.00     0.014 A 
ATOM      9  C   UNL A   1      35.608  31.780  27.698  1.00  0.00     0.014 A 
ATOM     10  C   UNL A   1      35.984  29.343  28.997  1.00  0.00     0.010 A 
ATOM     11  C   UNL A   1      36.805  31.531  28.378  1.00  0.00     0.010 A 
ATOM     12  C   UNL A   1      36.990  30.320  29.059  1.00  0.00    -0.014 A 
BRANCH  12  13
ATOM     13  C   UNL A   1      38.245  30.020  29.794  1.00  0.00     0.031 A 
ATOM     14  C   UNL A   1      38.475  30.544  31.183  1.00  0.00     0.074 A 
ATOM     15  C   UNL A   1      39.162  29.225  29.212  1.00  0.00     0.049 A 
ATOM     16  N   UNL A   1      39.491  30.336  31.985  1.00  0.00    -0.248 NA
ATOM     17  C   UNL A   1      37.438  31.419  31.749  1.00  0.00     0.031 C 
ATOM     18  C   UNL A   1      39.057  28.672  27.859  1.00  0.00     0.029 A 
ATOM     19  N   UNL A   1      40.347  28.722  29.684  1.00  0.00    -0.354 N 
ATOM     20  C   UNL A   1      39.221  31.059  33.139  1.00  0.00     0.074 A 
ATOM     21  C   UNL A   1      37.960  31.737  32.926  1.00  0.00     0.031 C 
ATOM     22  C   UNL A   1      40.104  27.866  27.630  1.00  0.00     0.029 A 
ATOM     23  C   UNL A   1      40.979  27.886  28.797  1.00  0.00     0.049 A 
ATOM     24  H   UNL A   1      40.710  28.938  30.573  1.00  0.00     0.167 HD
ATOM     25  C   UNL A   1      39.953  31.138  34.276  1.00  0.00     0.037 A 
ATOM     26  C   UNL A   1      42.139  27.212  28.907  1.00  0.00     0.037 A 
ATOM     27  C   UNL A   1      41.203  30.453  34.490  1.00  0.00     0.049 A 
ATOM     28  C   UNL A   1      42.931  27.324  30.177  1.00  0.00     0.074 A 
ATOM     29  C   UNL A   1      42.011  30.462  35.613  1.00  0.00     0.029 A 
ATOM     30  N   UNL A   1      41.821  29.631  33.560  1.00  0.00    -0.354 N 
ATOM     31  N   UNL A   1      42.652  27.995  31.267  1.00  0.00    -0.248 NA
ATOM     32  C   UNL A   1      44.201  26.587  30.231  1.00  0.00     0.031 C 
ATOM     33  C   UNL A   1      43.136  29.669  35.352  1.00  0.00     0.029 A 
ATOM     34  C   UNL A   1      43.008  29.138  34.079  1.00  0.00     0.049 A 
ATOM     35  H   UNL A   1      41.469  29.428  32.663  1.00  0.00     0.167 HD
ATOM     36  C   UNL A   1      43.704  27.757  32.140  1.00  0.00     0.074 A 
ATOM     37  C   UNL A   1      44.615  26.857  31.461  1.00  0.00     0.031 C 
ATOM     38  C   UNL A   1      43.901  28.245  33.388  1.00  0.00     0.037 A 
BRANCH  25  39
ATOM     39  C   UNL A   1      39.427  32.004  35.382  1.00  0.00     0.064 A 
ATOM     40  C   UNL A   1      38.596  31.484  36.386  1.00  0.00     0.173 A 
ATOM     41  C   UNL A   1      39.799  33.353  35.471  1.00  0.00     0.173 A 
ATOM     42  F   UNL A   1      38.202  30.202  36.339  1.00  0.00    -0.203 F 
ATOM     43  C   UNL A   1      38.143  32.288  37.428  1.00  0.00     0.198 A 
ATOM     44  C   UNL A   1      39.362  34.149  36.526  1.00  0.00     0.198 A 
ATOM     45  F   UNL A   1      40.595  33.898  34.538  1.00  0.00    -0.203 F 
ATOM     46  F   UNL A   1      37.322  31.780  38.357  1.00  0.00    -0.200 F 
ATOM     47  C   UNL A   1      38.532  33.618  37.502  1.00  0.00     0.200 A 
ATOM     48  F   UNL A   1      39.745  35.432  36.601  1.00  0.00    -0.200 F 
ATOM     49  F   UNL A   1      38.101  34.389  38.510  1.00  0.00    -0.200 F 
ENDBRANCH  25  39
BRANCH  26  50
ATOM     50  C   UNL A   1      42.612  26.370  27.780  1.00  0.00     0.064 A 
ATOM     51  C   UNL A   1      42.177  25.046  27.635  1.00  0.00     0.173 A 
ATOM     52  C   UNL A   1      43.497  26.878  26.816  1.00  0.00     0.173 A 
ATOM     53  F   UNL A   1      41.347  24.512  28.543  1.00  0.00    -0.203 F 
ATOM     54  C   UNL A   1      42.621  24.256  26.576  1.00  0.00     0.198 A 
ATOM     55  C   UNL A   1      43.917  26.096  25.744  1.00  0.00     0.198 A 
ATOM     56  F   UNL A   1      43.937  28.141  26.909  1.00  0.00    -0.203 F 
ATOM     57  F   UNL A   1      42.220  22.981  26.482  1.00  0.00    -0.200 F 
ATOM     58  C   UNL A   1      43.484  24.783  25.629  1.00  0.00     0.200 A 
ATOM     59  F   UNL A   1      44.740  26.615  24.822  1.00  0.00    -0.200 F 
ATOM     60  F   UNL A   1      43.905  24.026  24.606  1.00  0.00    -0.200 F 
ENDBRANCH  26  50
BRANCH  38  61
ATOM     61  C   UNL A   1      45.143  27.802  34.099  1.00  0.00     0.064 A 
ATOM     62  C   UNL A   1      45.158  26.639  34.885  1.00  0.00     0.173 A 
ATOM     63  C   UNL A   1      46.332  28.536  33.982  1.00  0.00     0.173 A 
ATOM     64  F   UNL A   1      44.040  25.917  35.041  1.00  0.00    -0.203 F 
ATOM     65  C   UNL A   1      46.316  26.242  35.547  1.00  0.00     0.198 A 
ATOM     66  C   UNL A   1      47.494  28.121  34.626  1.00  0.00     0.198 A 
ATOM     67  F   UNL A   1      46.368  29.652  33.239  1.00  0.00    -0.203 F 
ATOM     68  F   UNL A   1      46.297  25.154  36.329  1.00  0.00    -0.200 F 
ATOM     69  C   UNL A   1      47.483  26.980  35.414  1.00  0.00     0.200 A 
ATOM     70  F   UNL A   1      48.623  28.830  34.491  1.00  0.00    -0.200 F 
ATOM     71  F   UNL A   1      48.595  26.595  36.053  1.00  0.00    -0.200 F 
ENDBRANCH  38  61
ENDBRANCH  12  13
ENDBRANCH   5   7
ENDBRANCH   2   3
ENDBRANCH   1   2
BRANCH   1  72
ATOM     72  C   UNL A   1      33.610  26.567  25.666  1.00  0.00     0.118 C 
BRANCH  72  73
ATOM     73  N   UNL A   1      32.968  25.420  26.300  1.00  0.00    -0.352 N 
ATOM     74  C   UNL A   1      33.274  24.082  26.210  1.00  0.00     0.253 C 
ATOM     75  H   UNL A   1      32.202  25.636  26.880  1.00  0.00     0.163 HD
ATOM     76  O   UNL A   1      32.487  23.237  26.624  1.00  0.00    -0.269 OA
BRANCH  74  77
ATOM     77  C   UNL A   1      34.526  23.658  25.544  1.00  0.00     0.064 A 
ATOM     78  C   UNL A   1      35.739  23.904  26.205  1.00  0.00     0.031 A 
ATOM     79  C   UNL A   1      34.497  23.059  24.268  1.00  0.00     0.054 A 
ATOM     80  C   UNL A   1      36.936  23.715  25.532  1.00  0.00     0.018 A 
ATOM     81  C   UNL A   1      35.714  22.960  23.590  1.00  0.00     0.028 A 
ATOM     82  Br  UNL A   1      38.569  24.124  26.382  1.00  0.00    -0.051 Br
ATOM     83  C   UNL A   1      36.927  23.282  24.213  1.00  0.00     0.018 A 
BRANCH  79  84
ATOM     84  N   UNL A   1      33.261  22.614  23.742  1.00  0.00    -0.321 N 
ATOM     85  C   UNL A   1      32.187  23.248  23.149  1.00  0.00     0.265 C 
ATOM     86  H   UNL A   1      33.140  21.639  23.814  1.00  0.00     0.170 HD
ATOM     87  O   UNL A   1      31.182  22.569  22.928  1.00  0.00    -0.268 OA
BRANCH  85  88
ATOM     88  C   UNL A   1      32.275  24.640  22.763  1.00  0.00     0.093 A 
ATOM     89  C   UNL A   1      33.305  25.318  22.134  1.00  0.00     0.027 A 
ATOM     90  S   UNL A   1      30.935  25.668  23.064  1.00  0.00    -0.123 S 
ATOM     91  C   UNL A   1      33.032  26.716  22.013  1.00  0.00     0.028 A 
ATOM     92  C   UNL A   1      31.786  27.020  22.500  1.00  0.00     0.071 A 
ATOM     93  Br  UNL A   1      31.088  28.757  22.547  1.00  0.00    -0.039 Br
ENDBRANCH  85  88
ENDBRANCH  79  84
ENDBRANCH  74  77
ENDBRANCH  72  73
ENDBRANCH   1  72
TORSDOF 12
ENDMDL
MODEL 3
REMARK VINA RESULT:     -12.2      1.738      2.853
REMARK SMILES O=C(NCCCNC(=O)c1cc(Br)ccc1NC(=O)c1ccc(Br)s1)c1ccc(-c2c3nc(c(-c4c(F)c(F)c(F)c(F)c4F)c4ccc([nH]4)c(-c4c(F)c(F)c(F)c(F)c4F)c4nc(c(-c5c(F)c(F)c(F)c(F)c5F)c5ccc2[nH]5)C=C4)C=C3)cc1
REMARK SMILES IDX 5 1 4 2 3 3 1 4 2 5 26 7 27 8 88 9 28 10 87 11 29 12 30 13
REMARK SMILES IDX 31 14 81 15 32 16 86 17 80 18 82 19 33 20 85 21 79 22 78 23
REMARK SMILES IDX 34 25 66 26 46 27 65 28 47 29 50 30 64 31 83 32 48 33 49 34
REMARK SMILES IDX 63 36 84 37 51 38 35 39 36 40 44 41 37 42 38 43 42 44 45 45
REMARK SMILES IDX 39 46 40 47 43 48 41 49 67 50 68 51 76 52 69 53 70 54 74 55
REMARK SMILES IDX 77 56 71 57 72 58 75 59 73 60 52 61 53 62 61 63 54 64 55 65
REMARK SMILES IDX 59 66 62 67 56 68 57 69 60 70 58 71 6 72 7 73 8 74 9 76
REMARK SMILES IDX 10 77 11 78 16 79 12 80 15 81 13 82 14 83 17 84 18 85 19 87
REMARK SMILES IDX 20 88 21 89 25 90 22 91 23 92 24 93
REMARK H PARENT 3 6 82 24 50 35 7 75 17 86
REMARK Flexibility Score: inf
ROOT
ATOM      1  C   UNL A   1      32.560  27.950  25.693  1.00  0.00     0.042 C 
ENDROOT
BRANCH   1   2
ATOM      2  C   UNL A   1      33.417  29.127  25.244  1.00  0.00     0.118 C 
BRANCH   2   3
ATOM      3  N   UNL A   1      32.928  30.401  25.757  1.00  0.00    -0.352 N 
ATOM      4  O   UNL A   1      32.612  32.089  27.200  1.00  0.00    -0.269 OA
ATOM      5  C   UNL A   1      33.314  31.146  26.843  1.00  0.00     0.251 C 
ATOM      6  H   UNL A   1      32.194  30.794  25.233  1.00  0.00     0.163 HD
BRANCH   5   7
ATOM      7  C   UNL A   1      34.549  30.831  27.595  1.00  0.00     0.039 A 
ATOM      8  C   UNL A   1      34.759  29.567  28.148  1.00  0.00     0.014 A 
ATOM      9  C   UNL A   1      35.553  31.801  27.687  1.00  0.00     0.014 A 
ATOM     10  C   UNL A   1      35.897  29.321  28.912  1.00  0.00     0.010 A 
ATOM     11  C   UNL A   1      36.738  31.524  28.377  1.00  0.00     0.010 A 
ATOM     12  C   UNL A   1      36.906  30.290  29.021  1.00  0.00    -0.014 A 
BRANCH  12  13
ATOM     13  C   UNL A   1      38.147  29.959  29.766  1.00  0.00     0.031 A 
ATOM     14  C   UNL A   1      38.381  30.478  31.156  1.00  0.00     0.074 A 
ATOM     15  C   UNL A   1      39.049  29.140  29.191  1.00  0.00     0.049 A 
ATOM     16  N   UNL A   1      39.385  30.246  31.966  1.00  0.00    -0.248 NA
ATOM     17  C   UNL A   1      37.361  31.380  31.713  1.00  0.00     0.031 C 
ATOM     18  C   UNL A   1      38.940  28.588  27.838  1.00  0.00     0.029 A 
ATOM     19  N   UNL A   1      40.216  28.607  29.673  1.00  0.00    -0.354 N 
ATOM     20  C   UNL A   1      39.125  30.976  33.117  1.00  0.00     0.074 A 
ATOM     21  C   UNL A   1      37.883  31.686  32.894  1.00  0.00     0.031 C 
ATOM     22  C   UNL A   1      39.968  27.756  27.617  1.00  0.00     0.029 A 
ATOM     23  C   UNL A   1      40.834  27.755  28.791  1.00  0.00     0.049 A 
ATOM     24  H   UNL A   1      40.578  28.816  30.564  1.00  0.00     0.167 HD
ATOM     25  C   UNL A   1      39.850  31.038  34.260  1.00  0.00     0.037 A 
ATOM     26  C   UNL A   1      41.976  27.052  28.910  1.00  0.00     0.037 A 
ATOM     27  C   UNL A   1      41.080  30.321  34.484  1.00  0.00     0.049 A 
ATOM     28  C   UNL A   1      42.761  27.145  30.186  1.00  0.00     0.074 A 
ATOM     29  C   UNL A   1      41.880  30.311  35.613  1.00  0.00     0.029 A 
ATOM     30  N   UNL A   1      41.684  29.483  33.559  1.00  0.00    -0.354 N 
ATOM     31  N   UNL A   1      42.491  27.824  31.274  1.00  0.00    -0.248 NA
ATOM     32  C   UNL A   1      44.011  26.376  30.250  1.00  0.00     0.031 C 
ATOM     33  C   UNL A   1      42.986  29.490  35.360  1.00  0.00     0.029 A 
ATOM     34  C   UNL A   1      42.855  28.961  34.087  1.00  0.00     0.049 A 
ATOM     35  H   UNL A   1      41.334  29.288  32.660  1.00  0.00     0.167 HD
ATOM     36  C   UNL A   1      43.530  27.560  32.154  1.00  0.00     0.074 A 
ATOM     37  C   UNL A   1      44.423  26.637  31.484  1.00  0.00     0.031 C 
ATOM     38  C   UNL A   1      43.730  28.045  33.403  1.00  0.00     0.037 A 
BRANCH  25  39
ATOM     39  C   UNL A   1      39.337  31.918  35.361  1.00  0.00     0.064 A 
ATOM     40  C   UNL A   1      38.526  31.409  36.386  1.00  0.00     0.173 A 
ATOM     41  C   UNL A   1      39.704  33.270  35.423  1.00  0.00     0.173 A 
ATOM     42  F   UNL A   1      38.138  30.125  36.365  1.00  0.00    -0.203 F 
ATOM     43  C   UNL A   1      38.086  32.227  37.423  1.00  0.00     0.198 A 
ATOM     44  C   UNL A   1      39.281  34.080  36.474  1.00  0.00     0.198 A 
ATOM     45  F   UNL A   1      40.482  33.804  34.469  1.00  0.00    -0.203 F 
ATOM     46  F   UNL A   1      37.283  31.729  38.373  1.00  0.00    -0.200 F 
ATOM     47  C   UNL A   1      38.469  33.559  37.471  1.00  0.00     0.200 A 
ATOM     48  F   UNL A   1      39.659  35.365  36.522  1.00  0.00    -0.200 F 
ATOM     49  F   UNL A   1      38.051  34.344  38.474  1.00  0.00    -0.200 F 
ENDBRANCH  25  39
BRANCH  26  50
ATOM     50  C   UNL A   1      42.436  26.197  27.788  1.00  0.00     0.064 A 
ATOM     51  C   UNL A   1      41.920  24.908  27.603  1.00  0.00     0.173 A 
ATOM     52  C   UNL A   1      43.389  26.659  26.867  1.00  0.00     0.173 A 
ATOM     53  F   UNL A   1      41.021  24.417  28.469  1.00  0.00    -0.203 F 
ATOM     54  C   UNL A   1      42.351  24.106  26.548  1.00  0.00     0.198 A 
ATOM     55  C   UNL A   1      43.798  25.867  25.799  1.00  0.00     0.198 A 
ATOM     56  F   UNL A   1      43.908  27.888  26.999  1.00  0.00    -0.203 F 
ATOM     57  F   UNL A   1      41.871  22.862  26.416  1.00  0.00    -0.200 F 
ATOM     58  C   UNL A   1      43.285  24.588  25.644  1.00  0.00     0.200 A 
ATOM     59  F   UNL A   1      44.690  26.343  24.918  1.00  0.00    -0.200 F 
ATOM     60  F   UNL A   1      43.694  23.819  24.625  1.00  0.00    -0.200 F 
ENDBRANCH  26  50
BRANCH  38  61
ATOM     61  C   UNL A   1      44.955  27.571  34.125  1.00  0.00     0.064 A 
ATOM     62  C   UNL A   1      44.934  26.411  34.914  1.00  0.00     0.173 A 
ATOM     63  C   UNL A   1      46.164  28.272  34.012  1.00  0.00     0.173 A 
ATOM     64  F   UNL A   1      43.796  25.719  35.065  1.00  0.00    -0.203 F 
ATOM     65  C   UNL A   1      46.076  25.985  35.585  1.00  0.00     0.198 A 
ATOM     66  C   UNL A   1      47.310  27.829  34.666  1.00  0.00     0.198 A 
ATOM     67  F   UNL A   1      46.234  29.385  33.267  1.00  0.00    -0.203 F 
ATOM     68  F   UNL A   1      46.023  24.900  36.371  1.00  0.00    -0.200 F 
ATOM     69  C   UNL A   1      47.264  26.691  35.458  1.00  0.00     0.200 A 
ATOM     70  F   UNL A   1      48.459  28.508  34.536  1.00  0.00    -0.200 F 
ATOM     71  F   UNL A   1      48.361  26.279  36.105  1.00  0.00    -0.200 F 
ENDBRANCH  38  61
ENDBRANCH  12  13
ENDBRANCH   5   7
ENDBRANCH   2   3
ENDBRANCH   1   2
BRANCH   1  72
ATOM     72  C   UNL A   1      33.129  26.592  25.303  1.00  0.00     0.118 C 
BRANCH  72  73
ATOM     73  N   UNL A   1      32.662  25.519  26.175  1.00  0.00    -0.352 N 
ATOM     74  C   UNL A   1      33.061  24.205  26.241  1.00  0.00     0.253 C 
ATOM     75  H   UNL A   1      31.957  25.775  26.813  1.00  0.00     0.163 HD
ATOM     76  O   UNL A   1      32.401  23.387  26.873  1.00  0.00    -0.269 OA
BRANCH  74  77
ATOM     77  C   UNL A   1      34.254  23.760  25.485  1.00  0.00     0.064 A 
ATOM     78  C   UNL A   1      35.495  23.782  26.141  1.00  0.00     0.031 A 
ATOM     79  C   UNL A   1      34.146  23.363  24.137  1.00  0.00     0.054 A 
ATOM     80  C   UNL A   1      36.656  23.575  25.413  1.00  0.00     0.018 A 
ATOM     81  C   UNL A   1      35.337  23.243  23.417  1.00  0.00     0.028 A 
ATOM     82  Br  UNL A   1      38.334  23.687  26.267  1.00  0.00    -0.051 Br
ATOM     83  C   UNL A   1      36.585  23.346  24.046  1.00  0.00     0.018 A 
BRANCH  79  84
ATOM     84  N   UNL A   1      32.864  23.128  23.586  1.00  0.00    -0.321 N 
ATOM     85  C   UNL A   1      32.104  21.994  23.373  1.00  0.00     0.265 C 
ATOM     86  H   UNL A   1      32.415  23.953  23.290  1.00  0.00     0.170 HD
ATOM     87  O   UNL A   1      31.063  22.125  22.726  1.00  0.00    -0.268 OA
BRANCH  85  88
ATOM     88  C   UNL A   1      32.504  20.723  23.937  1.00  0.00     0.093 A 
ATOM     89  C   UNL A   1      32.869  20.409  25.235  1.00  0.00     0.027 A 
ATOM     90  S   UNL A   1      32.528  19.339  22.924  1.00  0.00    -0.123 S 
ATOM     91  C   UNL A   1      33.285  19.048  25.361  1.00  0.00     0.028 A 
ATOM     92  C   UNL A   1      33.160  18.380  24.169  1.00  0.00     0.071 A 
ATOM     93  Br  UNL A   1      33.643  16.587  23.930  1.00  0.00    -0.039 Br
ENDBRANCH  85  88
ENDBRANCH  79  84
ENDBRANCH  74  77
ENDBRANCH  72  73
ENDBRANCH   1  72
TORSDOF 12
ENDMDL
