MODEL 1
REMARK VINA RESULT:     -10.9      0.000      0.000
REMARK SMILES O=C(NCCCNC(=O)c1ccc(N2C(=O)/C(=C\c3ccc4c(c3)OCO4)[NH+]=C2c2ccccc2)cc1)c1ccc(-c2c3nc(c(-c4c(F)c(F)c(F)c(F)c4F)c4ccc([nH]4)c(-c4c(F)c(F)c(F)c(F)c4F)c4nc(c(-c5c(F)c(F)c(F)c(F)c5F)c5ccc2[nH]5)C=C4)C=C3)cc1
REMARK SMILES IDX 5 1 4 2 3 3 1 4 2 5 38 7 39 8 100 9 40 10 99 11 41 12 42 13
REMARK SMILES IDX 43 14 93 15 44 16 98 17 92 18 94 19 45 20 97 21 91 22 90 23
REMARK SMILES IDX 46 25 78 26 58 27 77 28 59 29 62 30 76 31 95 32 60 33 61 34
REMARK SMILES IDX 75 36 96 37 63 38 47 39 48 40 56 41 49 42 50 43 54 44 57 45
REMARK SMILES IDX 51 46 52 47 55 48 53 49 79 50 80 51 88 52 81 53 82 54 86 55
REMARK SMILES IDX 89 56 83 57 84 58 87 59 85 60 64 61 65 62 73 63 66 64 67 65
REMARK SMILES IDX 71 66 74 67 68 68 69 69 72 70 70 71 6 72 7 73 8 74 9 76
REMARK SMILES IDX 10 77 11 78 37 79 12 80 36 81 13 82 14 83 15 84 29 85 16 86
REMARK SMILES IDX 17 87 28 88 18 89 30 91 31 92 35 93 32 94 34 95 33 96 19 97
REMARK SMILES IDX 20 98 24 99 21 100 23 101 22 102 25 103 27 104 26 105
REMARK H PARENT 3 6 94 24 62 35 7 75 28 90
REMARK Flexibility Score: inf
ROOT
ATOM      1  C   UNL A   1      34.734  32.577  30.145  1.00  0.00     0.042 C 
ENDROOT
BRANCH   1   2
ATOM      2  C   UNL A   1      34.397  32.545  28.664  1.00  0.00     0.118 C 
BRANCH   2   3
ATOM      3  N   UNL A   1      33.827  31.271  28.240  1.00  0.00    -0.352 N 
ATOM      4  O   UNL A   1      33.791  29.166  27.439  1.00  0.00    -0.269 OA
ATOM      5  C   UNL A   1      34.438  30.075  27.951  1.00  0.00     0.251 C 
ATOM      6  H   UNL A   1      32.848  31.268  28.145  1.00  0.00     0.163 HD
BRANCH   5   7
ATOM      7  C   UNL A   1      35.876  29.884  28.236  1.00  0.00     0.039 A 
ATOM      8  C   UNL A   1      36.839  30.197  27.278  1.00  0.00     0.014 A 
ATOM      9  C   UNL A   1      36.269  29.401  29.489  1.00  0.00     0.014 A 
ATOM     10  C   UNL A   1      38.168  29.863  27.499  1.00  0.00     0.010 A 
ATOM     11  C   UNL A   1      37.623  29.177  29.753  1.00  0.00     0.010 A 
ATOM     12  C   UNL A   1      38.581  29.376  28.747  1.00  0.00    -0.014 A 
BRANCH  12  13
ATOM     13  C   UNL A   1      40.031  29.165  28.996  1.00  0.00     0.031 A 
ATOM     14  C   UNL A   1      40.860  30.191  29.714  1.00  0.00     0.074 A 
ATOM     15  C   UNL A   1      40.589  28.010  28.583  1.00  0.00     0.049 A 
ATOM     16  N   UNL A   1      42.134  30.156  30.016  1.00  0.00    -0.248 NA
ATOM     17  C   UNL A   1      40.177  31.421  30.147  1.00  0.00     0.031 C 
ATOM     18  C   UNL A   1      39.882  26.944  27.867  1.00  0.00     0.029 A 
ATOM     19  N   UNL A   1      41.866  27.528  28.715  1.00  0.00    -0.354 N 
ATOM     20  C   UNL A   1      42.409  31.358  30.655  1.00  0.00     0.074 A 
ATOM     21  C   UNL A   1      41.176  32.116  30.673  1.00  0.00     0.031 C 
ATOM     22  C   UNL A   1      40.719  25.918  27.665  1.00  0.00     0.029 A 
ATOM     23  C   UNL A   1      42.040  26.282  28.163  1.00  0.00     0.049 A 
ATOM     24  H   UNL A   1      42.587  28.027  29.161  1.00  0.00     0.167 HD
ATOM     25  C   UNL A   1      43.584  31.781  31.184  1.00  0.00     0.037 A 
ATOM     26  C   UNL A   1      43.145  25.527  28.042  1.00  0.00     0.037 A 
ATOM     27  C   UNL A   1      44.805  31.014  31.164  1.00  0.00     0.049 A 
ATOM     28  C   UNL A   1      44.441  26.046  28.596  1.00  0.00     0.074 A 
ATOM     29  C   UNL A   1      46.037  31.341  31.702  1.00  0.00     0.029 A 
ATOM     30  N   UNL A   1      44.951  29.771  30.564  1.00  0.00    -0.354 N 
ATOM     31  N   UNL A   1      44.678  27.165  29.235  1.00  0.00    -0.248 NA
ATOM     32  C   UNL A   1      45.625  25.197  28.409  1.00  0.00     0.031 C 
ATOM     33  C   UNL A   1      46.943  30.328  31.372  1.00  0.00     0.029 A 
ATOM     34  C   UNL A   1      46.260  29.333  30.693  1.00  0.00     0.049 A 
ATOM     35  H   UNL A   1      44.230  29.272  30.114  1.00  0.00     0.167 HD
ATOM     36  C   UNL A   1      46.029  27.142  29.552  1.00  0.00     0.074 A 
ATOM     37  C   UNL A   1      46.553  25.888  29.052  1.00  0.00     0.031 C 
ATOM     38  C   UNL A   1      46.768  28.078  30.197  1.00  0.00     0.037 A 
BRANCH  25  39
ATOM     39  C   UNL A   1      43.621  33.145  31.813  1.00  0.00     0.064 A 
ATOM     40  C   UNL A   1      43.836  34.306  31.054  1.00  0.00     0.173 A 
ATOM     41  C   UNL A   1      43.376  33.300  33.187  1.00  0.00     0.173 A 
ATOM     42  F   UNL A   1      44.084  34.217  29.739  1.00  0.00    -0.203 F 
ATOM     43  C   UNL A   1      43.826  35.565  31.651  1.00  0.00     0.198 A 
ATOM     44  C   UNL A   1      43.335  34.562  33.774  1.00  0.00     0.198 A 
ATOM     45  F   UNL A   1      43.158  32.225  33.959  1.00  0.00    -0.203 F 
ATOM     46  F   UNL A   1      44.076  36.656  30.913  1.00  0.00    -0.200 F 
ATOM     47  C   UNL A   1      43.567  35.694  33.007  1.00  0.00     0.200 A 
ATOM     48  F   UNL A   1      43.068  34.684  35.081  1.00  0.00    -0.200 F 
ATOM     49  F   UNL A   1      43.544  36.906  33.576  1.00  0.00    -0.200 F 
ENDBRANCH  25  39
BRANCH  26  50
ATOM     50  C   UNL A   1      43.074  24.212  27.352  1.00  0.00     0.064 A 
ATOM     51  C   UNL A   1      43.408  24.086  25.997  1.00  0.00     0.173 A 
ATOM     52  C   UNL A   1      42.665  23.055  28.033  1.00  0.00     0.173 A 
ATOM     53  F   UNL A   1      43.790  25.165  25.299  1.00  0.00    -0.203 F 
ATOM     54  C   UNL A   1      43.308  22.860  25.342  1.00  0.00     0.198 A 
ATOM     55  C   UNL A   1      42.603  21.823  27.387  1.00  0.00     0.198 A 
ATOM     56  F   UNL A   1      42.343  23.118  29.333  1.00  0.00    -0.203 F 
ATOM     57  F   UNL A   1      43.579  22.779  24.033  1.00  0.00    -0.200 F 
ATOM     58  C   UNL A   1      42.912  21.729  26.040  1.00  0.00     0.200 A 
ATOM     59  F   UNL A   1      42.240  20.728  28.070  1.00  0.00    -0.200 F 
ATOM     60  F   UNL A   1      42.820  20.549  25.410  1.00  0.00    -0.200 F 
ENDBRANCH  26  50
BRANCH  38  61
ATOM     61  C   UNL A   1      48.216  27.758  30.442  1.00  0.00     0.064 A 
ATOM     62  C   UNL A   1      49.221  28.137  29.541  1.00  0.00     0.173 A 
ATOM     63  C   UNL A   1      48.601  27.085  31.612  1.00  0.00     0.173 A 
ATOM     64  F   UNL A   1      48.904  28.766  28.399  1.00  0.00    -0.203 F 
ATOM     65  C   UNL A   1      50.557  27.825  29.787  1.00  0.00     0.198 A 
ATOM     66  C   UNL A   1      49.940  26.809  31.872  1.00  0.00     0.198 A 
ATOM     67  F   UNL A   1      47.680  26.706  32.510  1.00  0.00    -0.203 F 
ATOM     68  F   UNL A   1      51.493  28.145  28.884  1.00  0.00    -0.200 F 
ATOM     69  C   UNL A   1      50.916  27.170  30.955  1.00  0.00     0.200 A 
ATOM     70  F   UNL A   1      50.287  26.191  33.010  1.00  0.00    -0.200 F 
ATOM     71  F   UNL A   1      52.201  26.878  31.194  1.00  0.00    -0.200 F 
ENDBRANCH  38  61
ENDBRANCH  12  13
ENDBRANCH   5   7
ENDBRANCH   2   3
ENDBRANCH   1   2
BRANCH   1  72
ATOM     72  C   UNL A   1      35.962  33.413  30.472  1.00  0.00     0.118 C 
BRANCH  72  73
ATOM     73  N   UNL A   1      35.637  34.563  31.308  1.00  0.00    -0.352 N 
ATOM     74  C   UNL A   1      36.019  34.832  32.598  1.00  0.00     0.251 C 
ATOM     75  H   UNL A   1      35.063  35.241  30.886  1.00  0.00     0.163 HD
ATOM     76  O   UNL A   1      35.491  35.740  33.230  1.00  0.00    -0.269 OA
BRANCH  74  77
ATOM     77  C   UNL A   1      37.055  33.993  33.227  1.00  0.00     0.040 A 
ATOM     78  C   UNL A   1      38.396  34.229  32.931  1.00  0.00     0.018 A 
ATOM     79  C   UNL A   1      36.694  32.997  34.137  1.00  0.00     0.018 A 
ATOM     80  C   UNL A   1      39.386  33.551  33.648  1.00  0.00     0.053 A 
ATOM     81  C   UNL A   1      37.685  32.314  34.838  1.00  0.00     0.053 A 
ATOM     82  C   UNL A   1      39.038  32.624  34.642  1.00  0.00     0.136 A 
BRANCH  82  83
ATOM     83  N   UNL A   1      40.014  32.023  35.465  1.00  0.00    -0.154 N 
ATOM     84  C   UNL A   1      40.559  30.788  35.217  1.00  0.00     0.385 C 
ATOM     85  C   UNL A   1      40.563  32.483  36.634  1.00  0.00     0.295 C 
ATOM     86  O   UNL A   1      40.305  29.992  34.329  1.00  0.00    -0.236 OA
ATOM     87  C   UNL A   1      41.560  30.640  36.327  1.00  0.00     0.216 C 
ATOM     88  N   UNL A   1      41.460  31.714  37.183  1.00  0.00    -0.233 N 
ATOM     89  C   UNL A   1      42.482  29.673  36.447  1.00  0.00     0.068 C 
ATOM     90  H   UNL A   1      41.955  31.866  38.020  1.00  0.00     0.312 HD
BRANCH  85  91
ATOM     91  C   UNL A   1      40.116  33.715  37.301  1.00  0.00     0.065 A 
ATOM     92  C   UNL A   1      40.632  34.940  36.870  1.00  0.00     0.017 A 
ATOM     93  C   UNL A   1      39.263  33.650  38.408  1.00  0.00     0.017 A 
ATOM     94  C   UNL A   1      40.271  36.110  37.537  1.00  0.00     0.001 A 
ATOM     95  C   UNL A   1      38.910  34.824  39.074  1.00  0.00     0.001 A 
ATOM     96  C   UNL A   1      39.413  36.051  38.637  1.00  0.00     0.000 A 
ENDBRANCH  85  91
BRANCH  89  97
ATOM     97  C   UNL A   1      42.746  28.740  35.354  1.00  0.00    -0.017 A 
ATOM     98  C   UNL A   1      43.514  29.106  34.230  1.00  0.00     0.012 A 
ATOM     99  C   UNL A   1      42.370  27.404  35.556  1.00  0.00     0.059 A 
ATOM    100  C   UNL A   1      43.976  28.125  33.343  1.00  0.00     0.051 A 
ATOM    101  C   UNL A   1      42.886  26.462  34.702  1.00  0.00     0.166 A 
ATOM    102  C   UNL A   1      43.681  26.810  33.634  1.00  0.00     0.165 A 
ATOM    103  O   UNL A   1      42.769  25.116  34.849  1.00  0.00    -0.454 OA
ATOM    104  O   UNL A   1      44.162  25.714  32.984  1.00  0.00    -0.454 OA
ATOM    105  C   UNL A   1      43.779  24.681  33.919  1.00  0.00     0.468 C 
ENDBRANCH  89  97
ENDBRANCH  82  83
ENDBRANCH  74  77
ENDBRANCH  72  73
ENDBRANCH   1  72
TORSDOF 13
ENDMDL
MODEL 2
REMARK VINA RESULT:     -10.6      3.639     10.980
REMARK SMILES O=C(NCCCNC(=O)c1ccc(N2C(=O)/C(=C\c3ccc4c(c3)OCO4)[NH+]=C2c2ccccc2)cc1)c1ccc(-c2c3nc(c(-c4c(F)c(F)c(F)c(F)c4F)c4ccc([nH]4)c(-c4c(F)c(F)c(F)c(F)c4F)c4nc(c(-c5c(F)c(F)c(F)c(F)c5F)c5ccc2[nH]5)C=C4)C=C3)cc1
REMARK SMILES IDX 5 1 4 2 3 3 1 4 2 5 38 7 39 8 100 9 40 10 99 11 41 12 42 13
REMARK SMILES IDX 43 14 93 15 44 16 98 17 92 18 94 19 45 20 97 21 91 22 90 23
REMARK SMILES IDX 46 25 78 26 58 27 77 28 59 29 62 30 76 31 95 32 60 33 61 34
REMARK SMILES IDX 75 36 96 37 63 38 47 39 48 40 56 41 49 42 50 43 54 44 57 45
REMARK SMILES IDX 51 46 52 47 55 48 53 49 79 50 80 51 88 52 81 53 82 54 86 55
REMARK SMILES IDX 89 56 83 57 84 58 87 59 85 60 64 61 65 62 73 63 66 64 67 65
REMARK SMILES IDX 71 66 74 67 68 68 69 69 72 70 70 71 6 72 7 73 8 74 9 76
REMARK SMILES IDX 10 77 11 78 37 79 12 80 36 81 13 82 14 83 15 84 29 85 16 86
REMARK SMILES IDX 17 87 28 88 18 89 30 91 31 92 35 93 32 94 34 95 33 96 19 97
REMARK SMILES IDX 20 98 24 99 21 100 23 101 22 102 25 103 27 104 26 105
REMARK H PARENT 3 6 94 24 62 35 7 75 28 90
REMARK Flexibility Score: inf
ROOT
ATOM      1  C   UNL A   1      41.991  22.630  25.855  1.00  0.00     0.042 C 
ENDROOT
BRANCH   1   2
ATOM      2  C   UNL A   1      40.806  21.912  26.478  1.00  0.00     0.118 C 
BRANCH   2   3
ATOM      3  N   UNL A   1      39.536  22.275  25.861  1.00  0.00    -0.352 N 
ATOM      4  O   UNL A   1      37.610  23.406  25.564  1.00  0.00    -0.269 OA
ATOM      5  C   UNL A   1      38.734  23.375  26.056  1.00  0.00     0.251 C 
ATOM      6  H   UNL A   1      39.198  21.630  25.200  1.00  0.00     0.163 HD
BRANCH   5   7
ATOM      7  C   UNL A   1      39.212  24.510  26.872  1.00  0.00     0.039 A 
ATOM      8  C   UNL A   1      38.915  24.582  28.233  1.00  0.00     0.014 A 
ATOM      9  C   UNL A   1      39.985  25.510  26.273  1.00  0.00     0.014 A 
ATOM     10  C   UNL A   1      39.230  25.729  28.949  1.00  0.00     0.010 A 
ATOM     11  C   UNL A   1      40.405  26.609  27.026  1.00  0.00     0.010 A 
ATOM     12  C   UNL A   1      40.003  26.743  28.364  1.00  0.00    -0.014 A 
BRANCH  12  13
ATOM     13  C   UNL A   1      40.444  27.888  29.202  1.00  0.00     0.031 A 
ATOM     14  C   UNL A   1      41.826  27.943  29.789  1.00  0.00     0.074 A 
ATOM     15  C   UNL A   1      39.579  28.901  29.406  1.00  0.00     0.049 A 
ATOM     16  N   UNL A   1      42.367  28.874  30.535  1.00  0.00    -0.248 NA
ATOM     17  C   UNL A   1      42.718  26.807  29.511  1.00  0.00     0.031 C 
ATOM     18  C   UNL A   1      38.208  28.952  28.893  1.00  0.00     0.029 A 
ATOM     19  N   UNL A   1      39.722  30.086  30.081  1.00  0.00    -0.354 N 
ATOM     20  C   UNL A   1      43.651  28.431  30.828  1.00  0.00     0.074 A 
ATOM     21  C   UNL A   1      43.799  27.133  30.205  1.00  0.00     0.031 C 
ATOM     22  C   UNL A   1      37.653  30.123  29.229  1.00  0.00     0.029 A 
ATOM     23  C   UNL A   1      38.597  30.873  30.050  1.00  0.00     0.049 A 
ATOM     24  H   UNL A   1      40.551  30.347  30.544  1.00  0.00     0.167 HD
ATOM     25  C   UNL A   1      44.614  29.058  31.546  1.00  0.00     0.037 A 
ATOM     26  C   UNL A   1      38.339  32.053  30.639  1.00  0.00     0.037 A 
ATOM     27  C   UNL A   1      44.455  30.354  32.159  1.00  0.00     0.049 A 
ATOM     28  C   UNL A   1      39.412  32.699  31.468  1.00  0.00     0.074 A 
ATOM     29  C   UNL A   1      45.383  31.088  32.878  1.00  0.00     0.029 A 
ATOM     30  N   UNL A   1      43.288  31.105  32.135  1.00  0.00    -0.354 N 
ATOM     31  N   UNL A   1      40.634  32.289  31.702  1.00  0.00    -0.248 NA
ATOM     32  C   UNL A   1      39.068  33.970  32.117  1.00  0.00     0.031 C 
ATOM     33  C   UNL A   1      44.759  32.250  33.342  1.00  0.00     0.029 A 
ATOM     34  C   UNL A   1      43.465  32.278  32.852  1.00  0.00     0.049 A 
ATOM     35  H   UNL A   1      42.457  30.843  31.675  1.00  0.00     0.167 HD
ATOM     36  C   UNL A   1      41.215  33.264  32.501  1.00  0.00     0.074 A 
ATOM     37  C   UNL A   1      40.216  34.295  32.692  1.00  0.00     0.031 C 
ATOM     38  C   UNL A   1      42.463  33.300  33.029  1.00  0.00     0.037 A 
BRANCH  25  39
ATOM     39  C   UNL A   1      45.926  28.349  31.734  1.00  0.00     0.064 A 
ATOM     40  C   UNL A   1      46.118  27.403  32.753  1.00  0.00     0.173 A 
ATOM     41  C   UNL A   1      46.987  28.572  30.841  1.00  0.00     0.173 A 
ATOM     42  F   UNL A   1      45.143  27.156  33.638  1.00  0.00    -0.203 F 
ATOM     43  C   UNL A   1      47.329  26.726  32.883  1.00  0.00     0.198 A 
ATOM     44  C   UNL A   1      48.185  27.870  30.956  1.00  0.00     0.198 A 
ATOM     45  F   UNL A   1      46.856  29.460  29.844  1.00  0.00    -0.203 F 
ATOM     46  F   UNL A   1      47.505  25.859  33.890  1.00  0.00    -0.200 F 
ATOM     47  C   UNL A   1      48.358  26.953  31.981  1.00  0.00     0.200 A 
ATOM     48  F   UNL A   1      49.170  28.080  30.072  1.00  0.00    -0.200 F 
ATOM     49  F   UNL A   1      49.516  26.291  32.101  1.00  0.00    -0.200 F 
ENDBRANCH  25  39
BRANCH  26  50
ATOM     50  C   UNL A   1      37.002  32.686  30.481  1.00  0.00     0.064 A 
ATOM     51  C   UNL A   1      36.688  33.439  29.341  1.00  0.00     0.173 A 
ATOM     52  C   UNL A   1      36.015  32.555  31.469  1.00  0.00     0.173 A 
ATOM     53  F   UNL A   1      37.604  33.605  28.376  1.00  0.00    -0.203 F 
ATOM     54  C   UNL A   1      35.448  34.059  29.208  1.00  0.00     0.198 A 
ATOM     55  C   UNL A   1      34.763  33.144  31.317  1.00  0.00     0.198 A 
ATOM     56  F   UNL A   1      36.260  31.839  32.575  1.00  0.00    -0.203 F 
ATOM     57  F   UNL A   1      35.194  34.820  28.135  1.00  0.00    -0.200 F 
ATOM     58  C   UNL A   1      34.484  33.906  30.194  1.00  0.00     0.200 A 
ATOM     59  F   UNL A   1      33.827  32.976  32.262  1.00  0.00    -0.200 F 
ATOM     60  F   UNL A   1      33.290  34.501  30.064  1.00  0.00    -0.200 F 
ENDBRANCH  26  50
BRANCH  38  61
ATOM     61  C   UNL A   1      42.835  34.519  33.826  1.00  0.00     0.064 A 
ATOM     62  C   UNL A   1      43.262  35.704  33.210  1.00  0.00     0.173 A 
ATOM     63  C   UNL A   1      42.734  34.505  35.225  1.00  0.00     0.173 A 
ATOM     64  F   UNL A   1      43.393  35.765  31.876  1.00  0.00    -0.203 F 
ATOM     65  C   UNL A   1      43.607  36.821  33.969  1.00  0.00     0.198 A 
ATOM     66  C   UNL A   1      43.043  35.634  35.978  1.00  0.00     0.198 A 
ATOM     67  F   UNL A   1      42.325  33.399  35.864  1.00  0.00    -0.203 F 
ATOM     68  F   UNL A   1      44.068  37.923  33.362  1.00  0.00    -0.200 F 
ATOM     69  C   UNL A   1      43.489  36.788  35.350  1.00  0.00     0.200 A 
ATOM     70  F   UNL A   1      42.912  35.606  37.311  1.00  0.00    -0.200 F 
ATOM     71  F   UNL A   1      43.812  37.865  36.077  1.00  0.00    -0.200 F 
ENDBRANCH  38  61
ENDBRANCH  12  13
ENDBRANCH   5   7
ENDBRANCH   2   3
ENDBRANCH   1   2
BRANCH   1  72
ATOM     72  C   UNL A   1      43.135  22.874  26.828  1.00  0.00     0.118 C 
BRANCH  72  73
ATOM     73  N   UNL A   1      44.323  22.101  26.484  1.00  0.00    -0.352 N 
ATOM     74  C   UNL A   1      45.571  22.543  26.125  1.00  0.00     0.251 C 
ATOM     75  H   UNL A   1      44.212  21.123  26.514  1.00  0.00     0.163 HD
ATOM     76  O   UNL A   1      46.401  21.767  25.666  1.00  0.00    -0.269 OA
BRANCH  74  77
ATOM     77  C   UNL A   1      45.892  23.974  26.272  1.00  0.00     0.040 A 
ATOM     78  C   UNL A   1      46.080  24.503  27.547  1.00  0.00     0.018 A 
ATOM     79  C   UNL A   1      46.040  24.779  25.141  1.00  0.00     0.018 A 
ATOM     80  C   UNL A   1      46.547  25.814  27.684  1.00  0.00     0.053 A 
ATOM     81  C   UNL A   1      46.492  26.089  25.284  1.00  0.00     0.053 A 
ATOM     82  C   UNL A   1      46.804  26.601  26.552  1.00  0.00     0.136 A 
BRANCH  82  83
ATOM     83  N   UNL A   1      47.394  27.878  26.659  1.00  0.00    -0.154 N 
ATOM     84  C   UNL A   1      46.674  29.045  26.699  1.00  0.00     0.385 C 
ATOM     85  C   UNL A   1      48.722  28.217  26.699  1.00  0.00     0.295 C 
ATOM     86  O   UNL A   1      45.470  29.217  26.612  1.00  0.00    -0.236 OA
ATOM     87  C   UNL A   1      47.742  30.087  26.869  1.00  0.00     0.216 C 
ATOM     88  N   UNL A   1      48.981  29.489  26.811  1.00  0.00    -0.233 N 
ATOM     89  C   UNL A   1      47.554  31.389  27.129  1.00  0.00     0.068 C 
ATOM     90  H   UNL A   1      49.863  29.924  26.846  1.00  0.00     0.312 HD
BRANCH  85  91
ATOM     91  C   UNL A   1      49.806  27.238  26.529  1.00  0.00     0.065 A 
ATOM     92  C   UNL A   1      50.429  27.131  25.283  1.00  0.00     0.017 A 
ATOM     93  C   UNL A   1      50.141  26.366  27.571  1.00  0.00     0.017 A 
ATOM     94  C   UNL A   1      51.411  26.161  25.087  1.00  0.00     0.001 A 
ATOM     95  C   UNL A   1      51.120  25.394  27.366  1.00  0.00     0.001 A 
ATOM     96  C   UNL A   1      51.754  25.294  26.127  1.00  0.00     0.000 A 
ENDBRANCH  85  91
BRANCH  89  97
ATOM     97  C   UNL A   1      46.235  31.906  27.487  1.00  0.00    -0.017 A 
ATOM     98  C   UNL A   1      45.761  31.885  28.814  1.00  0.00     0.012 A 
ATOM     99  C   UNL A   1      45.535  32.603  26.490  1.00  0.00     0.059 A 
ATOM    100  C   UNL A   1      44.626  32.625  29.168  1.00  0.00     0.051 A 
ATOM    101  C   UNL A   1      44.461  33.363  26.882  1.00  0.00     0.166 A 
ATOM    102  C   UNL A   1      44.028  33.387  28.187  1.00  0.00     0.165 A 
ATOM    103  O   UNL A   1      43.778  34.230  26.088  1.00  0.00    -0.454 OA
ATOM    104  O   UNL A   1      43.017  34.282  28.366  1.00  0.00    -0.454 OA
ATOM    105  C   UNL A   1      43.061  34.967  27.095  1.00  0.00     0.468 C 
ENDBRANCH  89  97
ENDBRANCH  82  83
ENDBRANCH  74  77
ENDBRANCH  72  73
ENDBRANCH   1  72
TORSDOF 13
ENDMDL
MODEL 3
REMARK VINA RESULT:     -10.5      3.161      9.718
REMARK SMILES O=C(NCCCNC(=O)c1ccc(N2C(=O)/C(=C\c3ccc4c(c3)OCO4)[NH+]=C2c2ccccc2)cc1)c1ccc(-c2c3nc(c(-c4c(F)c(F)c(F)c(F)c4F)c4ccc([nH]4)c(-c4c(F)c(F)c(F)c(F)c4F)c4nc(c(-c5c(F)c(F)c(F)c(F)c5F)c5ccc2[nH]5)C=C4)C=C3)cc1
REMARK SMILES IDX 5 1 4 2 3 3 1 4 2 5 38 7 39 8 100 9 40 10 99 11 41 12 42 13
REMARK SMILES IDX 43 14 93 15 44 16 98 17 92 18 94 19 45 20 97 21 91 22 90 23
REMARK SMILES IDX 46 25 78 26 58 27 77 28 59 29 62 30 76 31 95 32 60 33 61 34
REMARK SMILES IDX 75 36 96 37 63 38 47 39 48 40 56 41 49 42 50 43 54 44 57 45
REMARK SMILES IDX 51 46 52 47 55 48 53 49 79 50 80 51 88 52 81 53 82 54 86 55
REMARK SMILES IDX 89 56 83 57 84 58 87 59 85 60 64 61 65 62 73 63 66 64 67 65
REMARK SMILES IDX 71 66 74 67 68 68 69 69 72 70 70 71 6 72 7 73 8 74 9 76
REMARK SMILES IDX 10 77 11 78 37 79 12 80 36 81 13 82 14 83 15 84 29 85 16 86
REMARK SMILES IDX 17 87 28 88 18 89 30 91 31 92 35 93 32 94 34 95 33 96 19 97
REMARK SMILES IDX 20 98 24 99 21 100 23 101 22 102 25 103 27 104 26 105
REMARK H PARENT 3 6 94 24 62 35 7 75 28 90
REMARK Flexibility Score: inf
ROOT
ATOM      1  C   UNL A   1      41.942  22.015  26.449  1.00  0.00     0.042 C 
ENDROOT
BRANCH   1   2
ATOM      2  C   UNL A   1      40.715  21.580  27.233  1.00  0.00     0.118 C 
BRANCH   2   3
ATOM      3  N   UNL A   1      39.468  21.849  26.528  1.00  0.00    -0.352 N 
ATOM      4  O   UNL A   1      37.607  22.972  25.938  1.00  0.00    -0.269 OA
ATOM      5  C   UNL A   1      38.726  23.003  26.440  1.00  0.00     0.251 C 
ATOM      6  H   UNL A   1      39.098  21.082  26.036  1.00  0.00     0.163 HD
BRANCH   5   7
ATOM      7  C   UNL A   1      39.261  24.275  26.968  1.00  0.00     0.039 A 
ATOM      8  C   UNL A   1      39.111  24.607  28.314  1.00  0.00     0.014 A 
ATOM      9  C   UNL A   1      39.941  25.143  26.107  1.00  0.00     0.014 A 
ATOM     10  C   UNL A   1      39.474  25.870  28.759  1.00  0.00     0.010 A 
ATOM     11  C   UNL A   1      40.413  26.368  26.586  1.00  0.00     0.010 A 
ATOM     12  C   UNL A   1      40.155  26.756  27.910  1.00  0.00    -0.014 A 
BRANCH  12  13
ATOM     13  C   UNL A   1      40.655  28.041  28.461  1.00  0.00     0.031 A 
ATOM     14  C   UNL A   1      42.122  28.282  28.679  1.00  0.00     0.074 A 
ATOM     15  C   UNL A   1      39.760  29.010  28.738  1.00  0.00     0.049 A 
ATOM     16  N   UNL A   1      42.721  29.349  29.144  1.00  0.00    -0.248 NA
ATOM     17  C   UNL A   1      43.039  27.182  28.340  1.00  0.00     0.031 C 
ATOM     18  C   UNL A   1      38.310  28.886  28.573  1.00  0.00     0.029 A 
ATOM     19  N   UNL A   1      39.931  30.289  29.200  1.00  0.00    -0.354 N 
ATOM     20  C   UNL A   1      44.077  29.047  29.170  1.00  0.00     0.074 A 
ATOM     21  C   UNL A   1      44.212  27.685  28.701  1.00  0.00     0.031 C 
ATOM     22  C   UNL A   1      37.729  30.052  28.882  1.00  0.00     0.029 A 
ATOM     23  C   UNL A   1      38.753  30.981  29.343  1.00  0.00     0.049 A 
ATOM     24  H   UNL A   1      40.812  30.675  29.408  1.00  0.00     0.167 HD
ATOM     25  C   UNL A   1      45.109  29.842  29.544  1.00  0.00     0.037 A 
ATOM     26  C   UNL A   1      38.517  32.215  29.821  1.00  0.00     0.037 A 
ATOM     27  C   UNL A   1      44.962  31.201  30.005  1.00  0.00     0.049 A 
ATOM     28  C   UNL A   1      39.679  33.052  30.273  1.00  0.00     0.074 A 
ATOM     29  C   UNL A   1      45.949  32.097  30.375  1.00  0.00     0.029 A 
ATOM     30  N   UNL A   1      43.749  31.854  30.170  1.00  0.00    -0.354 N 
ATOM     31  N   UNL A   1      40.959  32.770  30.252  1.00  0.00    -0.248 NA
ATOM     32  C   UNL A   1      39.364  34.379  30.817  1.00  0.00     0.031 C 
ATOM     33  C   UNL A   1      45.332  33.269  30.824  1.00  0.00     0.029 A 
ATOM     34  C   UNL A   1      43.963  33.132  30.666  1.00  0.00     0.049 A 
ATOM     35  H   UNL A   1      42.866  31.468  29.965  1.00  0.00     0.167 HD
ATOM     36  C   UNL A   1      41.603  33.892  30.752  1.00  0.00     0.074 A 
ATOM     37  C   UNL A   1      40.573  34.866  31.047  1.00  0.00     0.031 C 
ATOM     38  C   UNL A   1      42.929  34.095  30.950  1.00  0.00     0.037 A 
BRANCH  25  39
ATOM     39  C   UNL A   1      46.496  29.263  29.494  1.00  0.00     0.064 A 
ATOM     40  C   UNL A   1      47.308  29.381  28.356  1.00  0.00     0.173 A 
ATOM     41  C   UNL A   1      47.044  28.636  30.625  1.00  0.00     0.173 A 
ATOM     42  F   UNL A   1      46.833  29.962  27.245  1.00  0.00    -0.203 F 
ATOM     43  C   UNL A   1      48.606  28.874  28.345  1.00  0.00     0.198 A 
ATOM     44  C   UNL A   1      48.353  28.159  30.621  1.00  0.00     0.198 A 
ATOM     45  F   UNL A   1      46.315  28.502  31.743  1.00  0.00    -0.203 F 
ATOM     46  F   UNL A   1      49.347  28.960  27.231  1.00  0.00    -0.200 F 
ATOM     47  C   UNL A   1      49.130  28.272  29.479  1.00  0.00     0.200 A 
ATOM     48  F   UNL A   1      48.861  27.593  31.723  1.00  0.00    -0.200 F 
ATOM     49  F   UNL A   1      50.383  27.797  29.470  1.00  0.00    -0.200 F 
ENDBRANCH  25  39
BRANCH  26  50
ATOM     50  C   UNL A   1      37.121  32.721  29.914  1.00  0.00     0.064 A 
ATOM     51  C   UNL A   1      36.567  33.508  28.896  1.00  0.00     0.173 A 
ATOM     52  C   UNL A   1      36.316  32.431  31.027  1.00  0.00     0.173 A 
ATOM     53  F   UNL A   1      37.302  33.824  27.820  1.00  0.00    -0.203 F 
ATOM     54  C   UNL A   1      35.271  34.009  28.999  1.00  0.00     0.198 A 
ATOM     55  C   UNL A   1      35.009  32.902  31.111  1.00  0.00     0.198 A 
ATOM     56  F   UNL A   1      36.795  31.676  32.025  1.00  0.00    -0.203 F 
ATOM     57  F   UNL A   1      34.786  34.806  28.038  1.00  0.00    -0.200 F 
ATOM     58  C   UNL A   1      34.492  33.701  30.104  1.00  0.00     0.200 A 
ATOM     59  F   UNL A   1      34.251  32.583  32.170  1.00  0.00    -0.200 F 
ATOM     60  F   UNL A   1      33.244  34.181  30.201  1.00  0.00    -0.200 F 
ENDBRANCH  26  50
BRANCH  38  61
ATOM     61  C   UNL A   1      43.346  35.443  31.468  1.00  0.00     0.064 A 
ATOM     62  C   UNL A   1      43.716  36.485  30.606  1.00  0.00     0.173 A 
ATOM     63  C   UNL A   1      43.347  35.699  32.848  1.00  0.00     0.173 A 
ATOM     64  F   UNL A   1      43.749  36.287  29.280  1.00  0.00    -0.203 F 
ATOM     65  C   UNL A   1      44.103  37.726  31.109  1.00  0.00     0.198 A 
ATOM     66  C   UNL A   1      43.699  36.950  33.345  1.00  0.00     0.198 A 
ATOM     67  F   UNL A   1      42.996  34.738  33.715  1.00  0.00    -0.203 F 
ATOM     68  F   UNL A   1      44.509  38.688  30.270  1.00  0.00    -0.200 F 
ATOM     69  C   UNL A   1      44.086  37.960  32.476  1.00  0.00     0.200 A 
ATOM     70  F   UNL A   1      43.665  37.180  34.664  1.00  0.00    -0.200 F 
ATOM     71  F   UNL A   1      44.451  39.155  32.957  1.00  0.00    -0.200 F 
ENDBRANCH  38  61
ENDBRANCH  12  13
ENDBRANCH   5   7
ENDBRANCH   2   3
ENDBRANCH   1   2
BRANCH   1  72
ATOM     72  C   UNL A   1      42.792  23.050  27.173  1.00  0.00     0.118 C 
BRANCH  72  73
ATOM     73  N   UNL A   1      44.197  22.968  26.793  1.00  0.00    -0.352 N 
ATOM     74  C   UNL A   1      45.309  23.360  27.495  1.00  0.00     0.251 C 
ATOM     75  H   UNL A   1      44.372  22.577  25.907  1.00  0.00     0.163 HD
ATOM     76  O   UNL A   1      46.406  23.415  26.951  1.00  0.00    -0.269 OA
BRANCH  74  77
ATOM     77  C   UNL A   1      45.161  23.745  28.910  1.00  0.00     0.040 A 
ATOM     78  C   UNL A   1      45.949  24.775  29.423  1.00  0.00     0.018 A 
ATOM     79  C   UNL A   1      44.216  23.108  29.716  1.00  0.00     0.018 A 
ATOM     80  C   UNL A   1      45.697  25.255  30.711  1.00  0.00     0.053 A 
ATOM     81  C   UNL A   1      43.979  23.581  31.005  1.00  0.00     0.053 A 
ATOM     82  C   UNL A   1      44.677  24.695  31.494  1.00  0.00     0.136 A 
BRANCH  82  83
ATOM     83  N   UNL A   1      44.320  25.243  32.744  1.00  0.00    -0.154 N 
ATOM     84  C   UNL A   1      43.744  26.479  32.893  1.00  0.00     0.385 C 
ATOM     85  C   UNL A   1      44.498  24.722  34.000  1.00  0.00     0.295 C 
ATOM     86  O   UNL A   1      43.478  27.318  32.049  1.00  0.00    -0.236 OA
ATOM     87  C   UNL A   1      43.518  26.562  34.376  1.00  0.00     0.216 C 
ATOM     88  N   UNL A   1      44.059  25.453  34.986  1.00  0.00    -0.233 N 
ATOM     89  C   UNL A   1      42.826  27.508  35.027  1.00  0.00     0.068 C 
ATOM     90  H   UNL A   1      44.103  25.255  35.949  1.00  0.00     0.312 HD
BRANCH  85  91
ATOM     91  C   UNL A   1      45.224  23.468  34.255  1.00  0.00     0.065 A 
ATOM     92  C   UNL A   1      44.492  22.293  34.445  1.00  0.00     0.017 A 
ATOM     93  C   UNL A   1      46.615  23.473  34.397  1.00  0.00     0.017 A 
ATOM     94  C   UNL A   1      45.161  21.110  34.756  1.00  0.00     0.001 A 
ATOM     95  C   UNL A   1      47.278  22.287  34.713  1.00  0.00     0.001 A 
ATOM     96  C   UNL A   1      46.551  21.109  34.891  1.00  0.00     0.000 A 
ENDBRANCH  85  91
BRANCH  89  97
ATOM     97  C   UNL A   1      42.016  28.485  34.302  1.00  0.00    -0.017 A 
ATOM     98  C   UNL A   1      40.801  28.132  33.679  1.00  0.00     0.012 A 
ATOM     99  C   UNL A   1      42.395  29.831  34.415  1.00  0.00     0.059 A 
ATOM    100  C   UNL A   1      39.923  29.128  33.236  1.00  0.00     0.051 A 
ATOM    101  C   UNL A   1      41.486  30.782  34.023  1.00  0.00     0.166 A 
ATOM    102  C   UNL A   1      40.276  30.441  33.463  1.00  0.00     0.165 A 
ATOM    103  O   UNL A   1      41.613  32.122  34.218  1.00  0.00    -0.454 OA
ATOM    104  O   UNL A   1      39.495  31.536  33.245  1.00  0.00    -0.454 OA
ATOM    105  C   UNL A   1      40.258  32.534  33.958  1.00  0.00     0.468 C 
ENDBRANCH  89  97
ENDBRANCH  82  83
ENDBRANCH  74  77
ENDBRANCH  72  73
ENDBRANCH   1  72
TORSDOF 13
ENDMDL
