MODEL 1
REMARK VINA RESULT:      -9.9      0.000      0.000
REMARK SMILES CC(C)C[C@H](NC(=O)[C@H](Cc1ccccc1)NC(=O)CNC(=O)CNC(=O)OCc1ccccc1)C(=O)NCCCNC(=O)c1ccc(-c2c3nc(c(-c4c(F)c(F)c(F)c(F)c4F)c4ccc([nH]4)c(-c4c(F)c(F)c(F)c(F)c4F)c4nc(c(-c5c(F)c(F)c(F)c(F)c5F)c5ccc2[nH]5)C=C4)C=C3)cc1
REMARK SMILES IDX 6 1 7 2 8 3 5 5 4 6 2 7 1 8 3 9 36 10 37 11 38 12 39 14
REMARK SMILES IDX 40 15 41 16 42 17 43 18 44 20 45 21 46 22 107 23 47 24
REMARK SMILES IDX 106 25 48 26 49 27 50 28 100 29 51 30 105 31 99 32 101 33
REMARK SMILES IDX 52 34 104 35 98 36 97 37 53 39 85 40 65 41 84 42 66 43 69 44
REMARK SMILES IDX 83 45 102 46 67 47 68 48 82 50 103 51 70 52 54 53 55 54
REMARK SMILES IDX 63 55 56 56 57 57 61 58 64 59 58 60 59 61 62 62 60 63 86 64
REMARK SMILES IDX 87 65 95 66 88 67 89 68 93 69 96 70 90 71 91 72 94 73 92 74
REMARK SMILES IDX 71 75 72 76 80 77 73 78 74 79 78 80 81 81 75 82 76 83 79 84
REMARK SMILES IDX 77 85 9 86 17 87 18 88 19 90 20 91 21 92 22 93 23 95 24 96
REMARK SMILES IDX 25 97 26 98 27 100 28 101 29 102 30 103 31 104 35 105 32 106
REMARK SMILES IDX 34 107 33 108 10 109 11 110 12 111 16 112 13 113 15 114
REMARK SMILES IDX 14 115
REMARK H PARENT 6 4 38 13 42 19 101 38 69 49 17 89 21 94 25 99
REMARK Flexibility Score: inf
ROOT
ATOM      1  N   UNL A   1      44.166  28.164  25.646  1.00  0.00    -0.343 N 
ATOM      2  C   UNL A   1      42.897  27.753  25.440  1.00  0.00     0.243 C 
ATOM      3  O   UNL A   1      42.282  28.465  24.628  1.00  0.00    -0.273 OA
ATOM      4  H   UNL A   1      44.329  28.985  25.129  1.00  0.00     0.164 HD
ENDROOT
BRANCH   1   5
ATOM      5  C   UNL A   1      45.396  27.797  26.389  1.00  0.00     0.171 C 
BRANCH   5   6
ATOM      6  C   UNL A   1      46.648  27.657  25.529  1.00  0.00     0.038 C 
BRANCH   6   7
ATOM      7  C   UNL A   1      47.450  26.345  25.511  1.00  0.00    -0.015 C 
ATOM      8  C   UNL A   1      48.370  26.245  24.297  1.00  0.00     0.007 C 
ATOM      9  C   UNL A   1      48.313  26.279  26.781  1.00  0.00     0.007 C 
ENDBRANCH   6   7
ENDBRANCH   5   6
BRANCH   5  10
ATOM     10  C   UNL A   1      45.540  28.821  27.564  1.00  0.00     0.242 C 
ATOM     11  O   UNL A   1      45.539  30.036  27.357  1.00  0.00    -0.273 OA
ATOM     12  N   UNL A   1      45.601  28.388  28.866  1.00  0.00    -0.354 N 
ATOM     13  H   UNL A   1      45.802  29.061  29.556  1.00  0.00     0.163 HD
BRANCH  12  14
ATOM     14  C   UNL A   1      45.393  27.023  29.310  1.00  0.00     0.117 C 
BRANCH  14  15
ATOM     15  C   UNL A   1      44.407  26.660  30.652  1.00  0.00     0.042 C 
BRANCH  15  16
ATOM     16  C   UNL A   1      44.669  25.592  32.536  1.00  0.00     0.118 C 
BRANCH  16  17
ATOM     17  N   UNL A   1      43.789  25.425  33.886  1.00  0.00    -0.352 N 
ATOM     18  C   UNL A   1      43.084  26.412  34.556  1.00  0.00     0.251 C 
ATOM     19  H   UNL A   1      43.751  24.521  34.273  1.00  0.00     0.163 HD
ATOM     20  O   UNL A   1      42.479  26.175  35.594  1.00  0.00    -0.269 OA
BRANCH  18  21
ATOM     21  C   UNL A   1      43.087  27.774  33.981  1.00  0.00     0.039 A 
ATOM     22  C   UNL A   1      41.896  28.365  33.568  1.00  0.00     0.014 A 
ATOM     23  C   UNL A   1      44.267  28.519  34.034  1.00  0.00     0.014 A 
ATOM     24  C   UNL A   1      41.885  29.731  33.275  1.00  0.00     0.010 A 
ATOM     25  C   UNL A   1      44.205  29.899  33.932  1.00  0.00     0.010 A 
ATOM     26  C   UNL A   1      43.029  30.521  33.499  1.00  0.00    -0.014 A 
BRANCH  26  27
ATOM     27  C   UNL A   1      43.030  31.980  33.213  1.00  0.00     0.031 A 
ATOM     28  C   UNL A   1      42.812  32.965  34.337  1.00  0.00     0.074 A 
ATOM     29  C   UNL A   1      43.212  32.422  31.952  1.00  0.00     0.049 A 
ATOM     30  N   UNL A   1      42.846  34.273  34.312  1.00  0.00    -0.248 NA
ATOM     31  C   UNL A   1      42.466  32.413  35.659  1.00  0.00     0.031 C 
ATOM     32  C   UNL A   1      43.326  31.574  30.763  1.00  0.00     0.029 A 
ATOM     33  N   UNL A   1      43.356  33.696  31.461  1.00  0.00    -0.354 N 
ATOM     34  C   UNL A   1      42.518  34.684  35.598  1.00  0.00     0.074 A 
ATOM     35  C   UNL A   1      42.181  33.501  36.352  1.00  0.00     0.031 C 
ATOM     36  C   UNL A   1      43.600  32.344  29.697  1.00  0.00     0.029 A 
ATOM     37  C   UNL A   1      43.650  33.741  30.119  1.00  0.00     0.049 A 
ATOM     38  H   UNL A   1      43.258  34.502  32.019  1.00  0.00     0.167 HD
ATOM     39  C   UNL A   1      42.553  35.928  36.130  1.00  0.00     0.037 A 
ATOM     40  C   UNL A   1      43.953  34.789  29.330  1.00  0.00     0.037 A 
ATOM     41  C   UNL A   1      42.930  37.097  35.387  1.00  0.00     0.049 A 
ATOM     42  C   UNL A   1      44.024  36.162  29.949  1.00  0.00     0.074 A 
ATOM     43  C   UNL A   1      43.058  38.400  35.830  1.00  0.00     0.029 A 
ATOM     44  N   UNL A   1      43.244  37.097  34.035  1.00  0.00    -0.354 N 
ATOM     45  N   UNL A   1      43.811  36.523  31.193  1.00  0.00    -0.248 NA
ATOM     46  C   UNL A   1      44.397  37.267  29.058  1.00  0.00     0.031 C 
ATOM     47  C   UNL A   1      43.397  39.199  34.733  1.00  0.00     0.029 A 
ATOM     48  C   UNL A   1      43.547  38.382  33.622  1.00  0.00     0.049 A 
ATOM     49  H   UNL A   1      43.251  36.300  33.457  1.00  0.00     0.167 HD
ATOM     50  C   UNL A   1      44.052  37.890  31.239  1.00  0.00     0.074 A 
ATOM     51  C   UNL A   1      44.455  38.284  29.905  1.00  0.00     0.031 C 
ATOM     52  C   UNL A   1      43.947  38.746  32.287  1.00  0.00     0.037 A 
BRANCH  39  53
ATOM     53  C   UNL A   1      42.191  36.072  37.583  1.00  0.00     0.064 A 
ATOM     54  C   UNL A   1      43.150  35.932  38.601  1.00  0.00     0.173 A 
ATOM     55  C   UNL A   1      40.872  36.354  37.964  1.00  0.00     0.173 A 
ATOM     56  F   UNL A   1      44.424  35.644  38.296  1.00  0.00    -0.203 F 
ATOM     57  C   UNL A   1      42.792  36.030  39.944  1.00  0.00     0.198 A 
ATOM     58  C   UNL A   1      40.526  36.488  39.307  1.00  0.00     0.198 A 
ATOM     59  F   UNL A   1      39.914  36.496  37.036  1.00  0.00    -0.203 F 
ATOM     60  F   UNL A   1      43.711  35.823  40.896  1.00  0.00    -0.200 F 
ATOM     61  C   UNL A   1      41.482  36.315  40.296  1.00  0.00     0.200 A 
ATOM     62  F   UNL A   1      39.261  36.776  39.645  1.00  0.00    -0.200 F 
ATOM     63  F   UNL A   1      41.140  36.413  41.587  1.00  0.00    -0.200 F 
ENDBRANCH  39  53
BRANCH  40  64
ATOM     64  C   UNL A   1      44.274  34.580  27.891  1.00  0.00     0.064 A 
ATOM     65  C   UNL A   1      45.570  34.234  27.478  1.00  0.00     0.173 A 
ATOM     66  C   UNL A   1      43.297  34.735  26.895  1.00  0.00     0.173 A 
ATOM     67  F   UNL A   1      46.546  34.089  28.386  1.00  0.00    -0.203 F 
ATOM     68  C   UNL A   1      45.882  34.080  26.128  1.00  0.00     0.198 A 
ATOM     69  C   UNL A   1      43.602  34.547  25.548  1.00  0.00     0.198 A 
ATOM     70  F   UNL A   1      42.039  35.056  27.233  1.00  0.00    -0.203 F 
ATOM     71  F   UNL A   1      47.141  33.803  25.760  1.00  0.00    -0.200 F 
ATOM     72  C   UNL A   1      44.896  34.231  25.164  1.00  0.00     0.200 A 
ATOM     73  F   UNL A   1      42.642  34.676  24.622  1.00  0.00    -0.200 F 
ATOM     74  F   UNL A   1      45.195  34.080  23.867  1.00  0.00    -0.200 F 
ENDBRANCH  40  64
BRANCH  52  75
ATOM     75  C   UNL A   1      44.309  40.182  32.035  1.00  0.00     0.064 A 
ATOM     76  C   UNL A   1      43.353  41.125  31.628  1.00  0.00     0.173 A 
ATOM     77  C   UNL A   1      45.629  40.621  32.217  1.00  0.00     0.173 A 
ATOM     78  F   UNL A   1      42.078  40.754  31.433  1.00  0.00    -0.203 F 
ATOM     79  C   UNL A   1      43.716  42.442  31.365  1.00  0.00     0.198 A 
ATOM     80  C   UNL A   1      45.980  41.948  31.992  1.00  0.00     0.198 A 
ATOM     81  F   UNL A   1      46.578  39.763  32.619  1.00  0.00    -0.203 F 
ATOM     82  F   UNL A   1      42.800  43.308  30.907  1.00  0.00    -0.200 F 
ATOM     83  C   UNL A   1      45.027  42.854  31.553  1.00  0.00     0.200 A 
ATOM     84  F   UNL A   1      47.243  42.348  32.194  1.00  0.00    -0.200 F 
ATOM     85  F   UNL A   1      45.375  44.123  31.298  1.00  0.00    -0.200 F 
ENDBRANCH  52  75
ENDBRANCH  26  27
ENDBRANCH  18  21
ENDBRANCH  16  17
ENDBRANCH  15  16
ENDBRANCH  14  15
ENDBRANCH  12  14
ENDBRANCH   5  10
ENDBRANCH   1   5
BRANCH   2  86
ATOM     86  C   UNL A   1      42.210  26.456  25.953  1.00  0.00     0.175 C 
BRANCH  86  87
ATOM     87  N   UNL A   1      42.870  25.677  27.001  1.00  0.00    -0.342 N 
ATOM     88  C   UNL A   1      43.692  24.584  26.876  1.00  0.00     0.240 C 
ATOM     89  H   UNL A   1      42.702  25.979  27.923  1.00  0.00     0.164 HD
ATOM     90  O   UNL A   1      43.867  23.866  27.863  1.00  0.00    -0.273 OA
BRANCH  88  91
ATOM     91  C   UNL A   1      44.389  24.262  25.540  1.00  0.00     0.216 C 
BRANCH  91  92
ATOM     92  N   UNL A   1      45.400  23.228  25.644  1.00  0.00    -0.346 N 
ATOM     93  C   UNL A   1      45.317  21.869  25.609  1.00  0.00     0.239 C 
ATOM     94  H   UNL A   1      46.314  23.572  25.763  1.00  0.00     0.164 HD
ATOM     95  O   UNL A   1      46.377  21.238  25.667  1.00  0.00    -0.273 OA
BRANCH  93  96
ATOM     96  C   UNL A   1      43.993  21.122  25.385  1.00  0.00     0.219 C 
BRANCH  96  97
ATOM     97  N   UNL A   1      44.071  19.719  25.705  1.00  0.00    -0.312 N 
ATOM     98  C   UNL A   1      43.041  18.846  25.812  1.00  0.00     0.407 C 
ATOM     99  H   UNL A   1      44.972  19.356  25.864  1.00  0.00     0.167 HD
ATOM    100  O   UNL A   1      43.250  17.791  26.385  1.00  0.00    -0.225 OA
BRANCH  98 101
ATOM    101  O   UNL A   1      41.869  19.293  25.315  1.00  0.00    -0.445 OA
BRANCH 101 102
ATOM    102  C   UNL A   1      40.694  19.410  26.153  1.00  0.00     0.270 C 
BRANCH 102 103
ATOM    103  C   UNL A   1      40.061  20.775  26.297  1.00  0.00    -0.011 A 
ATOM    104  C   UNL A   1      40.832  22.046  27.364  1.00  0.00     0.007 A 
ATOM    105  C   UNL A   1      38.552  21.157  25.401  1.00  0.00     0.007 A 
ATOM    106  C   UNL A   1      39.997  23.632  27.622  1.00  0.00     0.000 A 
ATOM    107  C   UNL A   1      37.719  22.734  25.672  1.00  0.00     0.000 A 
ATOM    108  C   UNL A   1      38.468  23.988  26.716  1.00  0.00     0.000 A 
ENDBRANCH 102 103
ENDBRANCH 101 102
ENDBRANCH  98 101
ENDBRANCH  96  97
ENDBRANCH  93  96
ENDBRANCH  91  92
ENDBRANCH  88  91
ENDBRANCH  86  87
BRANCH  86 109
ATOM    109  C   UNL A   1      40.774  26.896  26.413  1.00  0.00     0.070 C 
BRANCH 109 110
ATOM    110  C   UNL A   1      40.631  27.319  27.858  1.00  0.00    -0.045 A 
ATOM    111  C   UNL A   1      41.581  28.144  28.462  1.00  0.00     0.004 A 
ATOM    112  C   UNL A   1      39.519  26.917  28.609  1.00  0.00     0.004 A 
ATOM    113  C   UNL A   1      41.354  28.692  29.723  1.00  0.00     0.000 A 
ATOM    114  C   UNL A   1      39.313  27.425  29.893  1.00  0.00     0.000 A 
ATOM    115  C   UNL A   1      40.210  28.344  30.433  1.00  0.00     0.000 A 
ENDBRANCH 109 110
ENDBRANCH  86 109
ENDBRANCH   2  86
TORSDOF 24
ENDMDL
MODEL 2
REMARK VINA RESULT:      -9.6      4.591      9.204
REMARK SMILES CC(C)C[C@H](NC(=O)[C@H](Cc1ccccc1)NC(=O)CNC(=O)CNC(=O)OCc1ccccc1)C(=O)NCCCNC(=O)c1ccc(-c2c3nc(c(-c4c(F)c(F)c(F)c(F)c4F)c4ccc([nH]4)c(-c4c(F)c(F)c(F)c(F)c4F)c4nc(c(-c5c(F)c(F)c(F)c(F)c5F)c5ccc2[nH]5)C=C4)C=C3)cc1
REMARK SMILES IDX 6 1 7 2 8 3 5 5 4 6 2 7 1 8 3 9 36 10 37 11 38 12 39 14
REMARK SMILES IDX 40 15 41 16 42 17 43 18 44 20 45 21 46 22 107 23 47 24
REMARK SMILES IDX 106 25 48 26 49 27 50 28 100 29 51 30 105 31 99 32 101 33
REMARK SMILES IDX 52 34 104 35 98 36 97 37 53 39 85 40 65 41 84 42 66 43 69 44
REMARK SMILES IDX 83 45 102 46 67 47 68 48 82 50 103 51 70 52 54 53 55 54
REMARK SMILES IDX 63 55 56 56 57 57 61 58 64 59 58 60 59 61 62 62 60 63 86 64
REMARK SMILES IDX 87 65 95 66 88 67 89 68 93 69 96 70 90 71 91 72 94 73 92 74
REMARK SMILES IDX 71 75 72 76 80 77 73 78 74 79 78 80 81 81 75 82 76 83 79 84
REMARK SMILES IDX 77 85 9 86 17 87 18 88 19 90 20 91 21 92 22 93 23 95 24 96
REMARK SMILES IDX 25 97 26 98 27 100 28 101 29 102 30 103 31 104 35 105 32 106
REMARK SMILES IDX 34 107 33 108 10 109 11 110 12 111 16 112 13 113 15 114
REMARK SMILES IDX 14 115
REMARK H PARENT 6 4 38 13 42 19 101 38 69 49 17 89 21 94 25 99
REMARK Flexibility Score: inf
ROOT
ATOM      1  N   UNL A   1      40.583  29.354  27.946  1.00  0.00    -0.343 N 
ATOM      2  C   UNL A   1      41.437  28.669  27.158  1.00  0.00     0.243 C 
ATOM      3  O   UNL A   1      41.168  28.769  25.949  1.00  0.00    -0.273 OA
ATOM      4  H   UNL A   1      39.885  29.766  27.389  1.00  0.00     0.164 HD
ENDROOT
BRANCH   1   5
ATOM      5  C   UNL A   1      40.341  29.696  29.369  1.00  0.00     0.171 C 
BRANCH   5   6
ATOM      6  C   UNL A   1      40.386  28.513  30.331  1.00  0.00     0.038 C 
BRANCH   6   7
ATOM      7  C   UNL A   1      39.108  27.736  30.686  1.00  0.00    -0.015 C 
ATOM      8  C   UNL A   1      37.865  28.622  30.657  1.00  0.00     0.007 C 
ATOM      9  C   UNL A   1      38.920  26.604  29.664  1.00  0.00     0.007 C 
ENDBRANCH   6   7
ENDBRANCH   5   6
BRANCH   5  10
ATOM     10  C   UNL A   1      41.331  30.852  29.733  1.00  0.00     0.242 C 
ATOM     11  O   UNL A   1      42.488  30.861  29.310  1.00  0.00    -0.273 OA
ATOM     12  N   UNL A   1      40.909  31.925  30.481  1.00  0.00    -0.354 N 
ATOM     13  H   UNL A   1      41.595  32.568  30.775  1.00  0.00     0.163 HD
BRANCH  12  14
ATOM     14  C   UNL A   1      39.538  32.192  30.873  1.00  0.00     0.117 C 
BRANCH  14  15
ATOM     15  C   UNL A   1      39.165  33.013  32.318  1.00  0.00     0.042 C 
BRANCH  15  16
ATOM     16  C   UNL A   1      37.679  32.791  33.899  1.00  0.00     0.118 C 
BRANCH  16  17
ATOM     17  N   UNL A   1      37.507  31.809  35.176  1.00  0.00    -0.352 N 
ATOM     18  C   UNL A   1      38.431  30.900  35.666  1.00  0.00     0.251 C 
ATOM     19  H   UNL A   1      36.650  31.863  35.657  1.00  0.00     0.163 HD
ATOM     20  O   UNL A   1      38.177  30.179  36.623  1.00  0.00    -0.269 OA
BRANCH  18  21
ATOM     21  C   UNL A   1      39.744  30.818  34.991  1.00  0.00     0.039 A 
ATOM     22  C   UNL A   1      40.866  31.411  35.563  1.00  0.00     0.014 A 
ATOM     23  C   UNL A   1      39.872  29.984  33.878  1.00  0.00     0.014 A 
ATOM     24  C   UNL A   1      42.129  31.103  35.050  1.00  0.00     0.010 A 
ATOM     25  C   UNL A   1      41.129  29.537  33.505  1.00  0.00     0.010 A 
ATOM     26  C   UNL A   1      42.275  30.127  34.046  1.00  0.00    -0.014 A 
BRANCH  26  27
ATOM     27  C   UNL A   1      43.613  29.771  33.503  1.00  0.00     0.031 A 
ATOM     28  C   UNL A   1      44.242  28.446  33.864  1.00  0.00     0.074 A 
ATOM     29  C   UNL A   1      44.269  30.634  32.700  1.00  0.00     0.049 A 
ATOM     30  N   UNL A   1      45.363  27.917  33.443  1.00  0.00    -0.248 NA
ATOM     31  C   UNL A   1      43.544  27.620  34.865  1.00  0.00     0.031 C 
ATOM     32  C   UNL A   1      43.821  31.987  32.362  1.00  0.00     0.029 A 
ATOM     33  N   UNL A   1      45.443  30.494  32.003  1.00  0.00    -0.354 N 
ATOM     34  C   UNL A   1      45.497  26.719  34.133  1.00  0.00     0.074 A 
ATOM     35  C   UNL A   1      44.410  26.645  35.078  1.00  0.00     0.031 C 
ATOM     36  C   UNL A   1      44.666  32.520  31.464  1.00  0.00     0.029 A 
ATOM     37  C   UNL A   1      45.732  31.562  31.187  1.00  0.00     0.049 A 
ATOM     38  H   UNL A   1      46.024  29.703  32.081  1.00  0.00     0.167 HD
ATOM     39  C   UNL A   1      46.407  25.733  33.958  1.00  0.00     0.037 A 
ATOM     40  C   UNL A   1      46.727  31.731  30.295  1.00  0.00     0.037 A 
ATOM     41  C   UNL A   1      47.463  25.791  32.986  1.00  0.00     0.049 A 
ATOM     42  C   UNL A   1      47.708  30.606  30.088  1.00  0.00     0.074 A 
ATOM     43  C   UNL A   1      48.409  24.833  32.676  1.00  0.00     0.029 A 
ATOM     44  N   UNL A   1      47.706  26.881  32.161  1.00  0.00    -0.354 N 
ATOM     45  N   UNL A   1      47.764  29.434  30.675  1.00  0.00    -0.248 NA
ATOM     46  C   UNL A   1      48.751  30.821  29.078  1.00  0.00     0.031 C 
ATOM     47  C   UNL A   1      49.260  25.363  31.701  1.00  0.00     0.029 A 
ATOM     48  C   UNL A   1      48.802  26.625  31.356  1.00  0.00     0.049 A 
ATOM     49  H   UNL A   1      47.177  27.710  32.151  1.00  0.00     0.167 HD
ATOM     50  C   UNL A   1      48.828  28.762  30.087  1.00  0.00     0.074 A 
ATOM     51  C   UNL A   1      49.368  29.649  29.077  1.00  0.00     0.031 C 
ATOM     52  C   UNL A   1      49.318  27.526  30.357  1.00  0.00     0.037 A 
BRANCH  39  53
ATOM     53  C   UNL A   1      46.279  24.509  34.823  1.00  0.00     0.064 A 
ATOM     54  C   UNL A   1      46.946  24.401  36.055  1.00  0.00     0.173 A 
ATOM     55  C   UNL A   1      45.481  23.430  34.417  1.00  0.00     0.173 A 
ATOM     56  F   UNL A   1      47.738  25.395  36.485  1.00  0.00    -0.203 F 
ATOM     57  C   UNL A   1      46.849  23.245  36.827  1.00  0.00     0.198 A 
ATOM     58  C   UNL A   1      45.356  22.291  35.210  1.00  0.00     0.198 A 
ATOM     59  F   UNL A   1      44.823  23.475  33.250  1.00  0.00    -0.203 F 
ATOM     60  F   UNL A   1      47.551  23.141  37.964  1.00  0.00    -0.200 F 
ATOM     61  C   UNL A   1      46.049  22.194  36.408  1.00  0.00     0.200 A 
ATOM     62  F   UNL A   1      44.573  21.280  34.809  1.00  0.00    -0.200 F 
ATOM     63  F   UNL A   1      45.953  21.085  37.153  1.00  0.00    -0.200 F 
ENDBRANCH  39  53
BRANCH  40  64
ATOM     64  C   UNL A   1      46.812  32.981  29.490  1.00  0.00     0.064 A 
ATOM     65  C   UNL A   1      46.167  33.091  28.248  1.00  0.00     0.173 A 
ATOM     66  C   UNL A   1      47.550  34.088  29.936  1.00  0.00     0.173 A 
ATOM     67  F   UNL A   1      45.462  32.057  27.767  1.00  0.00    -0.203 F 
ATOM     68  C   UNL A   1      46.281  34.244  27.473  1.00  0.00     0.198 A 
ATOM     69  C   UNL A   1      47.635  35.253  29.176  1.00  0.00     0.198 A 
ATOM     70  F   UNL A   1      48.179  34.042  31.120  1.00  0.00    -0.203 F 
ATOM     71  F   UNL A   1      45.700  34.298  26.267  1.00  0.00    -0.200 F 
ATOM     72  C   UNL A   1      47.011  35.327  27.941  1.00  0.00     0.200 A 
ATOM     73  F   UNL A   1      48.326  36.304  29.640  1.00  0.00    -0.200 F 
ATOM     74  F   UNL A   1      47.117  36.437  27.198  1.00  0.00    -0.200 F 
ENDBRANCH  40  64
BRANCH  52  75
ATOM     75  C   UNL A   1      50.474  27.053  29.523  1.00  0.00     0.064 A 
ATOM     76  C   UNL A   1      50.282  26.357  28.320  1.00  0.00     0.173 A 
ATOM     77  C   UNL A   1      51.792  27.313  29.928  1.00  0.00     0.173 A 
ATOM     78  F   UNL A   1      49.041  26.077  27.892  1.00  0.00    -0.203 F 
ATOM     79  C   UNL A   1      51.366  25.897  27.579  1.00  0.00     0.198 A 
ATOM     80  C   UNL A   1      52.874  26.887  29.164  1.00  0.00     0.198 A 
ATOM     81  F   UNL A   1      52.031  27.987  31.063  1.00  0.00    -0.203 F 
ATOM     82  F   UNL A   1      51.158  25.172  26.471  1.00  0.00    -0.200 F 
ATOM     83  C   UNL A   1      52.660  26.167  27.998  1.00  0.00     0.200 A 
ATOM     84  F   UNL A   1      54.123  27.167  29.560  1.00  0.00    -0.200 F 
ATOM     85  F   UNL A   1      53.704  25.722  27.284  1.00  0.00    -0.200 F 
ENDBRANCH  52  75
ENDBRANCH  26  27
ENDBRANCH  18  21
ENDBRANCH  16  17
ENDBRANCH  15  16
ENDBRANCH  14  15
ENDBRANCH  12  14
ENDBRANCH   5  10
ENDBRANCH   1   5
BRANCH   2  86
ATOM     86  C   UNL A   1      42.751  27.944  27.563  1.00  0.00     0.175 C 
BRANCH  86  87
ATOM     87  N   UNL A   1      44.013  28.681  27.486  1.00  0.00    -0.342 N 
ATOM     88  C   UNL A   1      45.239  28.250  27.040  1.00  0.00     0.240 C 
ATOM     89  H   UNL A   1      43.979  29.614  27.797  1.00  0.00     0.164 HD
ATOM     90  O   UNL A   1      46.240  28.888  27.369  1.00  0.00    -0.273 OA
BRANCH  88  91
ATOM     91  C   UNL A   1      45.365  27.004  26.141  1.00  0.00     0.216 C 
BRANCH  91  92
ATOM     92  N   UNL A   1      45.963  25.864  26.806  1.00  0.00    -0.346 N 
ATOM     93  C   UNL A   1      46.351  24.643  26.342  1.00  0.00     0.239 C 
ATOM     94  H   UNL A   1      46.118  25.996  27.768  1.00  0.00     0.164 HD
ATOM     95  O   UNL A   1      46.895  23.881  27.148  1.00  0.00    -0.273 OA
BRANCH  93  96
ATOM     96  C   UNL A   1      46.244  24.242  24.863  1.00  0.00     0.219 C 
BRANCH  96  97
ATOM     97  N   UNL A   1      46.744  22.917  24.596  1.00  0.00    -0.312 N 
ATOM     98  C   UNL A   1      46.034  21.764  24.574  1.00  0.00     0.407 C 
ATOM     99  H   UNL A   1      47.708  22.843  24.409  1.00  0.00     0.167 HD
ATOM    100  O   UNL A   1      46.654  20.716  24.640  1.00  0.00    -0.225 OA
BRANCH  98 101
ATOM    101  O   UNL A   1      44.695  21.926  24.547  1.00  0.00    -0.445 OA
BRANCH 101 102
ATOM    102  C   UNL A   1      43.884  21.676  25.721  1.00  0.00     0.270 C 
BRANCH 102 103
ATOM    103  C   UNL A   1      42.674  22.552  25.944  1.00  0.00    -0.011 A 
ATOM    104  C   UNL A   1      42.676  24.296  25.387  1.00  0.00     0.007 A 
ATOM    105  C   UNL A   1      41.217  21.873  26.745  1.00  0.00     0.007 A 
ATOM    106  C   UNL A   1      41.267  25.365  25.771  1.00  0.00     0.000 A 
ATOM    107  C   UNL A   1      39.821  22.947  27.134  1.00  0.00     0.000 A 
ATOM    108  C   UNL A   1      39.814  24.658  26.592  1.00  0.00     0.000 A 
ENDBRANCH 102 103
ENDBRANCH 101 102
ENDBRANCH  98 101
ENDBRANCH  96  97
ENDBRANCH  93  96
ENDBRANCH  91  92
ENDBRANCH  88  91
ENDBRANCH  86  87
BRANCH  86 109
ATOM    109  C   UNL A   1      42.507  27.418  29.023  1.00  0.00     0.070 C 
BRANCH 109 110
ATOM    110  C   UNL A   1      43.211  26.135  29.402  1.00  0.00    -0.045 A 
ATOM    111  C   UNL A   1      42.697  24.894  29.021  1.00  0.00     0.004 A 
ATOM    112  C   UNL A   1      44.416  26.169  30.115  1.00  0.00     0.004 A 
ATOM    113  C   UNL A   1      43.440  23.728  29.196  1.00  0.00     0.000 A 
ATOM    114  C   UNL A   1      45.140  24.996  30.337  1.00  0.00     0.000 A 
ATOM    115  C   UNL A   1      44.670  23.781  29.841  1.00  0.00     0.000 A 
ENDBRANCH 109 110
ENDBRANCH  86 109
ENDBRANCH   2  86
TORSDOF 24
ENDMDL
MODEL 3
REMARK VINA RESULT:      -9.5      4.687      7.179
REMARK SMILES CC(C)C[C@H](NC(=O)[C@H](Cc1ccccc1)NC(=O)CNC(=O)CNC(=O)OCc1ccccc1)C(=O)NCCCNC(=O)c1ccc(-c2c3nc(c(-c4c(F)c(F)c(F)c(F)c4F)c4ccc([nH]4)c(-c4c(F)c(F)c(F)c(F)c4F)c4nc(c(-c5c(F)c(F)c(F)c(F)c5F)c5ccc2[nH]5)C=C4)C=C3)cc1
REMARK SMILES IDX 6 1 7 2 8 3 5 5 4 6 2 7 1 8 3 9 36 10 37 11 38 12 39 14
REMARK SMILES IDX 40 15 41 16 42 17 43 18 44 20 45 21 46 22 107 23 47 24
REMARK SMILES IDX 106 25 48 26 49 27 50 28 100 29 51 30 105 31 99 32 101 33
REMARK SMILES IDX 52 34 104 35 98 36 97 37 53 39 85 40 65 41 84 42 66 43 69 44
REMARK SMILES IDX 83 45 102 46 67 47 68 48 82 50 103 51 70 52 54 53 55 54
REMARK SMILES IDX 63 55 56 56 57 57 61 58 64 59 58 60 59 61 62 62 60 63 86 64
REMARK SMILES IDX 87 65 95 66 88 67 89 68 93 69 96 70 90 71 91 72 94 73 92 74
REMARK SMILES IDX 71 75 72 76 80 77 73 78 74 79 78 80 81 81 75 82 76 83 79 84
REMARK SMILES IDX 77 85 9 86 17 87 18 88 19 90 20 91 21 92 22 93 23 95 24 96
REMARK SMILES IDX 25 97 26 98 27 100 28 101 29 102 30 103 31 104 35 105 32 106
REMARK SMILES IDX 34 107 33 108 10 109 11 110 12 111 16 112 13 113 15 114
REMARK SMILES IDX 14 115
REMARK H PARENT 6 4 38 13 42 19 101 38 69 49 17 89 21 94 25 99
REMARK Flexibility Score: inf
ROOT
ATOM      1  N   UNL A   1      46.123  26.276  24.972  1.00  0.00    -0.343 N 
ATOM      2  C   UNL A   1      45.187  25.419  25.430  1.00  0.00     0.243 C 
ATOM      3  O   UNL A   1      44.052  25.654  24.980  1.00  0.00    -0.273 OA
ATOM      4  H   UNL A   1      45.695  26.949  24.396  1.00  0.00     0.164 HD
ENDROOT
BRANCH   1   5
ATOM      5  C   UNL A   1      47.580  26.546  25.044  1.00  0.00     0.171 C 
BRANCH   5   6
ATOM      6  C   UNL A   1      48.367  26.167  23.793  1.00  0.00     0.038 C 
BRANCH   6   7
ATOM      7  C   UNL A   1      49.258  27.197  23.080  1.00  0.00    -0.015 C 
ATOM      8  C   UNL A   1      50.721  27.088  23.505  1.00  0.00     0.007 C 
ATOM      9  C   UNL A   1      49.174  26.955  21.565  1.00  0.00     0.007 C 
ENDBRANCH   6   7
ENDBRANCH   5   6
BRANCH   5  10
ATOM     10  C   UNL A   1      47.743  28.044  25.471  1.00  0.00     0.242 C 
ATOM     11  O   UNL A   1      46.991  28.918  25.038  1.00  0.00    -0.273 OA
ATOM     12  N   UNL A   1      48.691  28.407  26.397  1.00  0.00    -0.354 N 
ATOM     13  H   UNL A   1      48.827  29.370  26.548  1.00  0.00     0.163 HD
BRANCH  12  14
ATOM     14  C   UNL A   1      49.507  27.492  27.171  1.00  0.00     0.117 C 
BRANCH  14  15
ATOM     15  C   UNL A   1      49.325  27.342  28.859  1.00  0.00     0.042 C 
BRANCH  15  16
ATOM     16  C   UNL A   1      49.002  25.696  30.253  1.00  0.00     0.118 C 
BRANCH  16  17
ATOM     17  N   UNL A   1      49.864  25.025  31.449  1.00  0.00    -0.352 N 
ATOM     18  C   UNL A   1      49.634  25.133  32.811  1.00  0.00     0.251 C 
ATOM     19  H   UNL A   1      50.637  24.480  31.179  1.00  0.00     0.163 HD
ATOM     20  O   UNL A   1      50.377  24.609  33.631  1.00  0.00    -0.269 OA
BRANCH  18  21
ATOM     21  C   UNL A   1      48.458  25.913  33.254  1.00  0.00     0.039 A 
ATOM     22  C   UNL A   1      47.404  25.283  33.910  1.00  0.00     0.014 A 
ATOM     23  C   UNL A   1      48.509  27.306  33.170  1.00  0.00     0.014 A 
ATOM     24  C   UNL A   1      46.436  26.068  34.543  1.00  0.00     0.010 A 
ATOM     25  C   UNL A   1      47.662  28.067  33.958  1.00  0.00     0.010 A 
ATOM     26  C   UNL A   1      46.581  27.467  34.612  1.00  0.00    -0.014 A 
BRANCH  26  27
ATOM     27  C   UNL A   1      45.573  28.315  35.300  1.00  0.00     0.031 A 
ATOM     28  C   UNL A   1      45.765  28.682  36.752  1.00  0.00     0.074 A 
ATOM     29  C   UNL A   1      44.483  28.747  34.632  1.00  0.00     0.049 A 
ATOM     30  N   UNL A   1      45.043  29.466  37.513  1.00  0.00    -0.248 NA
ATOM     31  C   UNL A   1      46.893  28.053  37.463  1.00  0.00     0.031 C 
ATOM     32  C   UNL A   1      44.126  28.376  33.260  1.00  0.00     0.029 A 
ATOM     33  N   UNL A   1      43.485  29.611  35.009  1.00  0.00    -0.354 N 
ATOM     34  C   UNL A   1      45.625  29.408  38.773  1.00  0.00     0.074 A 
ATOM     35  C   UNL A   1      46.686  28.433  38.711  1.00  0.00     0.031 C 
ATOM     36  C   UNL A   1      43.036  29.067  32.886  1.00  0.00     0.029 A 
ATOM     37  C   UNL A   1      42.599  29.905  33.999  1.00  0.00     0.049 A 
ATOM     38  H   UNL A   1      43.410  29.983  35.917  1.00  0.00     0.167 HD
ATOM     39  C   UNL A   1      45.345  30.142  39.875  1.00  0.00     0.037 A 
ATOM     40  C   UNL A   1      41.572  30.774  33.970  1.00  0.00     0.037 A 
ATOM     41  C   UNL A   1      44.315  31.142  39.921  1.00  0.00     0.049 A 
ATOM     42  C   UNL A   1      41.300  31.611  35.195  1.00  0.00     0.074 A 
ATOM     43  C   UNL A   1      43.976  31.989  40.958  1.00  0.00     0.029 A 
ATOM     44  N   UNL A   1      43.455  31.427  38.869  1.00  0.00    -0.354 N 
ATOM     45  N   UNL A   1      41.924  31.620  36.350  1.00  0.00    -0.248 NA
ATOM     46  C   UNL A   1      40.196  32.573  35.102  1.00  0.00     0.031 C 
ATOM     47  C   UNL A   1      42.875  32.751  40.554  1.00  0.00     0.029 A 
ATOM     48  C   UNL A   1      42.572  32.425  39.241  1.00  0.00     0.049 A 
ATOM     49  H   UNL A   1      43.473  30.985  37.990  1.00  0.00     0.167 HD
ATOM     50  C   UNL A   1      41.306  32.604  37.110  1.00  0.00     0.074 A 
ATOM     51  C   UNL A   1      40.280  33.190  36.272  1.00  0.00     0.031 C 
ATOM     52  C   UNL A   1      41.560  32.991  38.386  1.00  0.00     0.037 A 
BRANCH  39  53
ATOM     53  C   UNL A   1      46.180  29.899  41.102  1.00  0.00     0.064 A 
ATOM     54  C   UNL A   1      47.362  30.619  41.347  1.00  0.00     0.173 A 
ATOM     55  C   UNL A   1      45.796  28.937  42.046  1.00  0.00     0.173 A 
ATOM     56  F   UNL A   1      47.789  31.539  40.468  1.00  0.00    -0.203 F 
ATOM     57  C   UNL A   1      48.146  30.355  42.468  1.00  0.00     0.198 A 
ATOM     58  C   UNL A   1      46.562  28.703  43.186  1.00  0.00     0.198 A 
ATOM     59  F   UNL A   1      44.678  28.218  41.865  1.00  0.00    -0.203 F 
ATOM     60  F   UNL A   1      49.304  31.006  42.641  1.00  0.00    -0.200 F 
ATOM     61  C   UNL A   1      47.742  29.402  43.390  1.00  0.00     0.200 A 
ATOM     62  F   UNL A   1      46.164  27.790  44.083  1.00  0.00    -0.200 F 
ATOM     63  F   UNL A   1      48.494  29.153  44.470  1.00  0.00    -0.200 F 
ENDBRANCH  39  53
BRANCH  40  64
ATOM     64  C   UNL A   1      40.765  30.947  32.730  1.00  0.00     0.064 A 
ATOM     65  C   UNL A   1      41.092  31.928  31.781  1.00  0.00     0.173 A 
ATOM     66  C   UNL A   1      39.643  30.145  32.472  1.00  0.00     0.173 A 
ATOM     67  F   UNL A   1      42.145  32.732  31.985  1.00  0.00    -0.203 F 
ATOM     68  C   UNL A   1      40.313  32.119  30.641  1.00  0.00     0.198 A 
ATOM     69  C   UNL A   1      38.886  30.314  31.315  1.00  0.00     0.198 A 
ATOM     70  F   UNL A   1      39.290  29.186  33.340  1.00  0.00    -0.203 F 
ATOM     71  F   UNL A   1      40.618  33.100  29.780  1.00  0.00    -0.200 F 
ATOM     72  C   UNL A   1      39.213  31.307  30.406  1.00  0.00     0.200 A 
ATOM     73  F   UNL A   1      37.834  29.516  31.083  1.00  0.00    -0.200 F 
ATOM     74  F   UNL A   1      38.467  31.489  29.308  1.00  0.00    -0.200 F 
ENDBRANCH  40  64
BRANCH  52  75
ATOM     75  C   UNL A   1      40.736  34.120  38.934  1.00  0.00     0.064 A 
ATOM     76  C   UNL A   1      41.068  35.462  38.696  1.00  0.00     0.173 A 
ATOM     77  C   UNL A   1      39.588  33.852  39.697  1.00  0.00     0.173 A 
ATOM     78  F   UNL A   1      42.159  35.771  37.978  1.00  0.00    -0.203 F 
ATOM     79  C   UNL A   1      40.310  36.493  39.242  1.00  0.00     0.198 A 
ATOM     80  C   UNL A   1      38.810  34.887  40.207  1.00  0.00     0.198 A 
ATOM     81  F   UNL A   1      39.218  32.586  39.942  1.00  0.00    -0.203 F 
ATOM     82  F   UNL A   1      40.689  37.766  39.061  1.00  0.00    -0.200 F 
ATOM     83  C   UNL A   1      39.180  36.205  39.992  1.00  0.00     0.200 A 
ATOM     84  F   UNL A   1      37.707  34.606  40.914  1.00  0.00    -0.200 F 
ATOM     85  F   UNL A   1      38.452  37.200  40.518  1.00  0.00    -0.200 F 
ENDBRANCH  52  75
ENDBRANCH  26  27
ENDBRANCH  18  21
ENDBRANCH  16  17
ENDBRANCH  15  16
ENDBRANCH  14  15
ENDBRANCH  12  14
ENDBRANCH   5  10
ENDBRANCH   1   5
BRANCH   2  86
ATOM     86  C   UNL A   1      45.391  24.135  26.282  1.00  0.00     0.175 C 
BRANCH  86  87
ATOM     87  N   UNL A   1      46.011  22.967  25.656  1.00  0.00    -0.342 N 
ATOM     88  C   UNL A   1      45.526  21.687  25.545  1.00  0.00     0.240 C 
ATOM     89  H   UNL A   1      46.899  23.120  25.259  1.00  0.00     0.164 HD
ATOM     90  O   UNL A   1      46.321  20.777  25.300  1.00  0.00    -0.273 OA
BRANCH  88  91
ATOM     91  C   UNL A   1      44.023  21.389  25.713  1.00  0.00     0.216 C 
BRANCH  91  92
ATOM     92  N   UNL A   1      43.693  19.982  25.606  1.00  0.00    -0.346 N 
ATOM     93  C   UNL A   1      42.711  19.233  26.183  1.00  0.00     0.239 C 
ATOM     94  H   UNL A   1      44.286  19.474  25.008  1.00  0.00     0.164 HD
ATOM     95  O   UNL A   1      42.641  18.045  25.852  1.00  0.00    -0.273 OA
BRANCH  93  96
ATOM     96  C   UNL A   1      41.647  19.832  27.115  1.00  0.00     0.219 C 
BRANCH  96  97
ATOM     97  N   UNL A   1      40.514  20.374  26.408  1.00  0.00    -0.312 N 
ATOM     98  C   UNL A   1      39.982  21.613  26.544  1.00  0.00     0.407 C 
ATOM     99  H   UNL A   1      40.079  19.779  25.756  1.00  0.00     0.167 HD
ATOM    100  O   UNL A   1      38.858  21.797  26.109  1.00  0.00    -0.225 OA
BRANCH  98 101
ATOM    101  O   UNL A   1      40.756  22.489  27.217  1.00  0.00    -0.445 OA
BRANCH 101 102
ATOM    102  C   UNL A   1      41.064  23.794  26.670  1.00  0.00     0.270 C 
BRANCH 102 103
ATOM    103  C   UNL A   1      40.973  24.987  27.592  1.00  0.00    -0.011 A 
ATOM    104  C   UNL A   1      42.474  25.940  28.027  1.00  0.00     0.007 A 
ATOM    105  C   UNL A   1      39.378  25.486  28.250  1.00  0.00     0.007 A 
ATOM    106  C   UNL A   1      42.368  27.290  29.227  1.00  0.00     0.000 A 
ATOM    107  C   UNL A   1      39.281  26.825  29.455  1.00  0.00     0.000 A 
ATOM    108  C   UNL A   1      40.748  27.765  29.888  1.00  0.00     0.000 A 
ENDBRANCH 102 103
ENDBRANCH 101 102
ENDBRANCH  98 101
ENDBRANCH  96  97
ENDBRANCH  93  96
ENDBRANCH  91  92
ENDBRANCH  88  91
ENDBRANCH  86  87
BRANCH  86 109
ATOM    109  C   UNL A   1      46.215  24.591  27.539  1.00  0.00     0.070 C 
BRANCH 109 110
ATOM    110  C   UNL A   1      45.493  24.558  28.866  1.00  0.00    -0.045 A 
ATOM    111  C   UNL A   1      44.660  23.490  29.203  1.00  0.00     0.004 A 
ATOM    112  C   UNL A   1      45.674  25.586  29.800  1.00  0.00     0.004 A 
ATOM    113  C   UNL A   1      44.151  23.360  30.495  1.00  0.00     0.000 A 
ATOM    114  C   UNL A   1      45.124  25.484  31.080  1.00  0.00     0.000 A 
ATOM    115  C   UNL A   1      44.397  24.350  31.438  1.00  0.00     0.000 A 
ENDBRANCH 109 110
ENDBRANCH  86 109
ENDBRANCH   2  86
TORSDOF 24
ENDMDL
