MODEL 1
REMARK VINA RESULT:     -11.6      0.000      0.000
REMARK SMILES C[C@]1(C(=O)NCc2ccc(C(=O)NCCCNC(=O)c3ccc(-c4c5nc(c(-c6c(F)c(F)c(F)c(F)c6F)c6ccc([nH]6)c(-c6c(F)c(F)c(F)c(F)c6F)c6nc(c(-c7c(F)c(F)c(F)c(F)c7F)c7ccc4[nH]7)C=C6)C=C5)cc3)o2)CCC[NH2+]C1
REMARK SMILES IDX 14 1 13 2 11 3 12 4 10 6 7 7 8 8 83 9 9 10 6 11 5 12 3 13
REMARK SMILES IDX 4 14 2 16 1 17 84 18 88 19 85 20 87 21 86 22 15 25 16 26
REMARK SMILES IDX 17 27 18 28 19 30 20 31 21 32 82 33 22 34 81 35 23 36 24 37
REMARK SMILES IDX 25 38 75 39 26 40 80 41 74 42 76 43 27 44 79 45 73 46 72 47
REMARK SMILES IDX 28 49 60 50 40 51 59 52 41 53 44 54 58 55 77 56 42 57 43 58
REMARK SMILES IDX 57 60 78 61 45 62 29 63 30 64 38 65 31 66 32 67 36 68 39 69
REMARK SMILES IDX 33 70 34 71 37 72 35 73 61 74 62 75 70 76 63 77 64 78 68 79
REMARK SMILES IDX 71 80 65 81 66 82 69 83 67 84 46 85 47 86 55 87 48 88 49 89
REMARK SMILES IDX 53 90 56 91 50 92 51 93 54 94 52 95
REMARK H PARENT 13 5 5 15 87 23 87 24 17 29 76 48 44 59
REMARK Flexibility Score: inf
ROOT
ATOM      1  C   UNL A   1      35.188  34.827  28.443  1.00  0.00     0.118 C 
ENDROOT
BRANCH   1   2
ATOM      2  N   UNL A   1      33.849  35.361  28.312  1.00  0.00    -0.349 N 
ATOM      3  C   UNL A   1      33.008  35.917  29.253  1.00  0.00     0.286 C 
ATOM      4  O   UNL A   1      32.007  36.480  28.804  1.00  0.00    -0.266 OA
ATOM      5  H   UNL A   1      33.476  35.321  27.401  1.00  0.00     0.163 HD
BRANCH   3   6
ATOM      6  C   UNL A   1      33.312  35.840  30.670  1.00  0.00     0.191 A 
ATOM      7  C   UNL A   1      33.743  34.722  32.539  1.00  0.00     0.124 A 
ATOM      8  C   UNL A   1      33.841  36.060  32.853  1.00  0.00     0.048 A 
ATOM      9  O   UNL A   1      33.394  34.586  31.226  1.00  0.00    -0.454 OA
ATOM     10  C   UNL A   1      33.598  36.773  31.652  1.00  0.00     0.056 A 
BRANCH   7  11
ATOM     11  C   UNL A   1      33.929  33.476  33.327  1.00  0.00     0.191 C 
BRANCH  11  12
ATOM     12  N   UNL A   1      34.897  33.683  34.379  1.00  0.00    -0.348 N 
ATOM     13  C   UNL A   1      36.235  33.533  34.477  1.00  0.00     0.232 C 
ATOM     14  O   UNL A   1      36.698  33.820  35.592  1.00  0.00    -0.274 OA
ATOM     15  H   UNL A   1      34.488  34.007  35.214  1.00  0.00     0.163 HD
BRANCH  13  16
ATOM     16  C   UNL A   1      37.198  33.197  33.311  1.00  0.00     0.095 C 
ATOM     17  C   UNL A   1      37.408  34.503  32.523  1.00  0.00     0.028 C 
ATOM     18  C   UNL A   1      38.557  32.760  33.933  1.00  0.00     0.028 C 
ATOM     19  C   UNL A   1      36.801  32.076  32.334  1.00  0.00     0.277 C 
ATOM     20  C   UNL A   1      38.430  31.384  34.597  1.00  0.00     0.063 C 
ATOM     21  N   UNL A   1      36.659  30.768  32.969  1.00  0.00    -0.345 N 
ATOM     22  C   UNL A   1      37.894  30.340  33.622  1.00  0.00     0.260 C 
ATOM     23  H   UNL A   1      35.918  30.819  33.667  1.00  0.00     0.346 HD
ATOM     24  H   UNL A   1      36.436  30.088  32.242  1.00  0.00     0.346 HD
ENDBRANCH  13  16
ENDBRANCH  11  12
ENDBRANCH   7  11
ENDBRANCH   3   6
ENDBRANCH   1   2
BRANCH   1  25
ATOM     25  C   UNL A   1      35.262  33.352  28.054  1.00  0.00     0.042 C 
BRANCH  25  26
ATOM     26  C   UNL A   1      34.467  32.427  28.979  1.00  0.00     0.118 C 
BRANCH  26  27
ATOM     27  N   UNL A   1      33.929  31.270  28.275  1.00  0.00    -0.352 N 
ATOM     28  C   UNL A   1      34.547  30.134  27.816  1.00  0.00     0.251 C 
ATOM     29  H   UNL A   1      32.961  31.309  28.102  1.00  0.00     0.163 HD
ATOM     30  O   UNL A   1      33.931  29.376  27.072  1.00  0.00    -0.269 OA
BRANCH  28  31
ATOM     31  C   UNL A   1      35.943  29.808  28.189  1.00  0.00     0.039 A 
ATOM     32  C   UNL A   1      36.192  29.312  29.473  1.00  0.00     0.014 A 
ATOM     33  C   UNL A   1      37.012  30.055  27.323  1.00  0.00     0.014 A 
ATOM     34  C   UNL A   1      37.498  29.012  29.870  1.00  0.00     0.010 A 
ATOM     35  C   UNL A   1      38.309  29.703  27.698  1.00  0.00     0.010 A 
ATOM     36  C   UNL A   1      38.567  29.181  28.976  1.00  0.00    -0.014 A 
BRANCH  36  37
ATOM     37  C   UNL A   1      39.957  28.826  29.360  1.00  0.00     0.031 A 
ATOM     38  C   UNL A   1      40.769  29.761  30.213  1.00  0.00     0.074 A 
ATOM     39  C   UNL A   1      40.508  27.687  28.898  1.00  0.00     0.049 A 
ATOM     40  N   UNL A   1      42.027  29.677  30.570  1.00  0.00    -0.248 NA
ATOM     41  C   UNL A   1      40.081  30.959  30.720  1.00  0.00     0.031 C 
ATOM     42  C   UNL A   1      39.833  26.707  28.044  1.00  0.00     0.029 A 
ATOM     43  N   UNL A   1      41.766  27.166  29.071  1.00  0.00    -0.354 N 
ATOM     44  C   UNL A   1      42.283  30.812  31.328  1.00  0.00     0.074 A 
ATOM     45  C   UNL A   1      41.063  31.591  31.346  1.00  0.00     0.031 C 
ATOM     46  C   UNL A   1      40.680  25.699  27.779  1.00  0.00     0.029 A 
ATOM     47  C   UNL A   1      41.966  25.978  28.410  1.00  0.00     0.049 A 
ATOM     48  H   UNL A   1      42.460  27.603  29.616  1.00  0.00     0.167 HD
ATOM     49  C   UNL A   1      43.425  31.163  31.966  1.00  0.00     0.037 A 
ATOM     50  C   UNL A   1      43.066  25.208  28.316  1.00  0.00     0.037 A 
ATOM     51  C   UNL A   1      44.632  30.378  31.967  1.00  0.00     0.049 A 
ATOM     52  C   UNL A   1      44.325  25.630  29.026  1.00  0.00     0.074 A 
ATOM     53  C   UNL A   1      45.835  30.642  32.600  1.00  0.00     0.029 A 
ATOM     54  N   UNL A   1      44.785  29.168  31.308  1.00  0.00    -0.354 N 
ATOM     55  N   UNL A   1      44.543  26.690  29.763  1.00  0.00    -0.248 NA
ATOM     56  C   UNL A   1      45.490  24.742  28.892  1.00  0.00     0.031 C 
ATOM     57  C   UNL A   1      46.724  29.604  32.305  1.00  0.00     0.029 A 
ATOM     58  C   UNL A   1      46.063  28.675  31.517  1.00  0.00     0.049 A 
ATOM     59  H   UNL A   1      44.089  28.725  30.771  1.00  0.00     0.167 HD
ATOM     60  C   UNL A   1      45.854  26.582  30.207  1.00  0.00     0.074 A 
ATOM     61  C   UNL A   1      46.379  25.347  29.666  1.00  0.00     0.031 C 
ATOM     62  C   UNL A   1      46.560  27.431  30.991  1.00  0.00     0.037 A 
BRANCH  49  63
ATOM     63  C   UNL A   1      43.424  32.451  32.734  1.00  0.00     0.064 A 
ATOM     64  C   UNL A   1      43.825  33.656  32.137  1.00  0.00     0.173 A 
ATOM     65  C   UNL A   1      42.963  32.496  34.058  1.00  0.00     0.173 A 
ATOM     66  F   UNL A   1      44.284  33.663  30.876  1.00  0.00    -0.203 F 
ATOM     67  C   UNL A   1      43.783  34.854  32.844  1.00  0.00     0.198 A 
ATOM     68  C   UNL A   1      42.898  33.701  34.753  1.00  0.00     0.198 A 
ATOM     69  F   UNL A   1      42.561  31.374  34.673  1.00  0.00    -0.203 F 
ATOM     70  F   UNL A   1      44.205  35.987  32.264  1.00  0.00    -0.200 F 
ATOM     71  C   UNL A   1      43.313  34.878  34.148  1.00  0.00     0.200 A 
ATOM     72  F   UNL A   1      42.433  33.724  36.011  1.00  0.00    -0.200 F 
ATOM     73  F   UNL A   1      43.262  36.035  34.823  1.00  0.00    -0.200 F 
ENDBRANCH  49  63
BRANCH  50  74
ATOM     74  C   UNL A   1      43.032  23.946  27.532  1.00  0.00     0.064 A 
ATOM     75  C   UNL A   1      43.390  23.933  26.177  1.00  0.00     0.173 A 
ATOM     76  C   UNL A   1      42.615  22.738  28.109  1.00  0.00     0.173 A 
ATOM     77  F   UNL A   1      43.773  25.069  25.575  1.00  0.00    -0.203 F 
ATOM     78  C   UNL A   1      43.305  22.765  25.421  1.00  0.00     0.198 A 
ATOM     79  C   UNL A   1      42.558  21.565  27.360  1.00  0.00     0.198 A 
ATOM     80  F   UNL A   1      42.266  22.696  29.404  1.00  0.00    -0.203 F 
ATOM     81  F   UNL A   1      43.601  22.794  24.115  1.00  0.00    -0.200 F 
ATOM     82  C   UNL A   1      42.892  21.582  26.014  1.00  0.00     0.200 A 
ATOM     83  F   UNL A   1      42.170  20.420  27.939  1.00  0.00    -0.200 F 
ATOM     84  F   UNL A   1      42.807  20.460  25.287  1.00  0.00    -0.200 F 
ENDBRANCH  50  74
BRANCH  62  85
ATOM     85  C   UNL A   1      47.959  27.030  31.354  1.00  0.00     0.064 A 
ATOM     86  C   UNL A   1      49.066  27.491  30.629  1.00  0.00     0.173 A 
ATOM     87  C   UNL A   1      48.192  26.200  32.460  1.00  0.00     0.173 A 
ATOM     88  F   UNL A   1      48.892  28.272  29.552  1.00  0.00    -0.203 F 
ATOM     89  C   UNL A   1      50.359  27.117  30.987  1.00  0.00     0.198 A 
ATOM     90  C   UNL A   1      49.487  25.848  32.830  1.00  0.00     0.198 A 
ATOM     91  F   UNL A   1      47.165  25.737  33.187  1.00  0.00    -0.203 F 
ATOM     92  F   UNL A   1      51.402  27.533  30.254  1.00  0.00    -0.200 F 
ATOM     93  C   UNL A   1      50.569  26.302  32.089  1.00  0.00     0.200 A 
ATOM     94  F   UNL A   1      49.689  25.069  33.901  1.00  0.00    -0.200 F 
ATOM     95  F   UNL A   1      51.814  25.946  32.433  1.00  0.00    -0.200 F 
ENDBRANCH  62  85
ENDBRANCH  36  37
ENDBRANCH  28  31
ENDBRANCH  26  27
ENDBRANCH  25  26
ENDBRANCH   1  25
TORSDOF 13
ENDMDL
MODEL 2
REMARK VINA RESULT:     -11.3      3.776      7.246
REMARK SMILES C[C@]1(C(=O)NCc2ccc(C(=O)NCCCNC(=O)c3ccc(-c4c5nc(c(-c6c(F)c(F)c(F)c(F)c6F)c6ccc([nH]6)c(-c6c(F)c(F)c(F)c(F)c6F)c6nc(c(-c7c(F)c(F)c(F)c(F)c7F)c7ccc4[nH]7)C=C6)C=C5)cc3)o2)CCC[NH2+]C1
REMARK SMILES IDX 14 1 13 2 11 3 12 4 10 6 7 7 8 8 83 9 9 10 6 11 5 12 3 13
REMARK SMILES IDX 4 14 2 16 1 17 84 18 88 19 85 20 87 21 86 22 15 25 16 26
REMARK SMILES IDX 17 27 18 28 19 30 20 31 21 32 82 33 22 34 81 35 23 36 24 37
REMARK SMILES IDX 25 38 75 39 26 40 80 41 74 42 76 43 27 44 79 45 73 46 72 47
REMARK SMILES IDX 28 49 60 50 40 51 59 52 41 53 44 54 58 55 77 56 42 57 43 58
REMARK SMILES IDX 57 60 78 61 45 62 29 63 30 64 38 65 31 66 32 67 36 68 39 69
REMARK SMILES IDX 33 70 34 71 37 72 35 73 61 74 62 75 70 76 63 77 64 78 68 79
REMARK SMILES IDX 71 80 65 81 66 82 69 83 67 84 46 85 47 86 55 87 48 88 49 89
REMARK SMILES IDX 53 90 56 91 50 92 51 93 54 94 52 95
REMARK H PARENT 13 5 5 15 87 23 87 24 17 29 76 48 44 59
REMARK Flexibility Score: inf
ROOT
ATOM      1  C   UNL A   1      34.136  34.581  27.917  1.00  0.00     0.118 C 
ENDROOT
BRANCH   1   2
ATOM      2  N   UNL A   1      35.497  34.249  28.284  1.00  0.00    -0.349 N 
ATOM      3  C   UNL A   1      36.180  33.053  28.216  1.00  0.00     0.286 C 
ATOM      4  O   UNL A   1      37.396  33.125  28.399  1.00  0.00    -0.266 OA
ATOM      5  H   UNL A   1      36.022  35.002  28.641  1.00  0.00     0.163 HD
BRANCH   3   6
ATOM      6  C   UNL A   1      35.488  31.809  27.931  1.00  0.00     0.191 A 
ATOM      7  C   UNL A   1      33.716  30.640  27.281  1.00  0.00     0.124 A 
ATOM      8  C   UNL A   1      34.721  29.728  27.516  1.00  0.00     0.048 A 
ATOM      9  O   UNL A   1      34.167  31.898  27.559  1.00  0.00    -0.454 OA
ATOM     10  C   UNL A   1      35.861  30.477  27.899  1.00  0.00     0.056 A 
BRANCH   7  11
ATOM     11  C   UNL A   1      32.310  30.509  26.814  1.00  0.00     0.191 C 
BRANCH  11  12
ATOM     12  N   UNL A   1      31.792  29.201  27.138  1.00  0.00    -0.348 N 
ATOM     13  C   UNL A   1      31.653  28.042  26.458  1.00  0.00     0.232 C 
ATOM     14  O   UNL A   1      31.137  27.126  27.116  1.00  0.00    -0.274 OA
ATOM     15  H   UNL A   1      31.464  29.139  28.065  1.00  0.00     0.163 HD
BRANCH  13  16
ATOM     16  C   UNL A   1      32.208  27.750  25.041  1.00  0.00     0.095 C 
ATOM     17  C   UNL A   1      33.614  27.155  25.233  1.00  0.00     0.028 C 
ATOM     18  C   UNL A   1      31.290  26.675  24.389  1.00  0.00     0.028 C 
ATOM     19  C   UNL A   1      32.284  28.910  24.032  1.00  0.00     0.277 C 
ATOM     20  C   UNL A   1      29.923  27.272  24.036  1.00  0.00     0.063 C 
ATOM     21  N   UNL A   1      30.983  29.494  23.711  1.00  0.00    -0.345 N 
ATOM     22  C   UNL A   1      30.064  28.507  23.150  1.00  0.00     0.260 C 
ATOM     23  H   UNL A   1      30.576  29.879  24.562  1.00  0.00     0.346 HD
ATOM     24  H   UNL A   1      31.130  30.221  23.010  1.00  0.00     0.346 HD
ENDBRANCH  13  16
ENDBRANCH  11  12
ENDBRANCH   7  11
ENDBRANCH   3   6
ENDBRANCH   1   2
BRANCH   1  25
ATOM     25  C   UNL A   1      33.243  34.787  29.138  1.00  0.00     0.042 C 
BRANCH  25  26
ATOM     26  C   UNL A   1      33.229  36.226  29.659  1.00  0.00     0.118 C 
BRANCH  26  27
ATOM     27  N   UNL A   1      32.427  36.369  30.868  1.00  0.00    -0.352 N 
ATOM     28  C   UNL A   1      32.573  35.808  32.112  1.00  0.00     0.251 C 
ATOM     29  H   UNL A   1      31.653  36.970  30.777  1.00  0.00     0.163 HD
ATOM     30  O   UNL A   1      31.661  35.915  32.927  1.00  0.00    -0.269 OA
BRANCH  28  31
ATOM     31  C   UNL A   1      33.798  35.068  32.487  1.00  0.00     0.039 A 
ATOM     32  C   UNL A   1      33.671  33.746  32.930  1.00  0.00     0.014 A 
ATOM     33  C   UNL A   1      35.056  35.677  32.483  1.00  0.00     0.014 A 
ATOM     34  C   UNL A   1      34.803  33.022  33.315  1.00  0.00     0.010 A 
ATOM     35  C   UNL A   1      36.192  34.938  32.811  1.00  0.00     0.010 A 
ATOM     36  C   UNL A   1      36.078  33.603  33.234  1.00  0.00    -0.014 A 
BRANCH  36  37
ATOM     37  C   UNL A   1      37.299  32.837  33.592  1.00  0.00     0.031 A 
ATOM     38  C   UNL A   1      38.025  33.126  34.877  1.00  0.00     0.074 A 
ATOM     39  C   UNL A   1      37.785  31.916  32.738  1.00  0.00     0.049 A 
ATOM     40  N   UNL A   1      39.157  32.638  35.318  1.00  0.00    -0.248 NA
ATOM     41  C   UNL A   1      37.403  34.109  35.780  1.00  0.00     0.031 C 
ATOM     42  C   UNL A   1      37.188  31.559  31.449  1.00  0.00     0.029 A 
ATOM     43  N   UNL A   1      38.902  31.122  32.817  1.00  0.00    -0.354 N 
ATOM     44  C   UNL A   1      39.390  33.261  36.537  1.00  0.00     0.074 A 
ATOM     45  C   UNL A   1      38.303  34.193  36.749  1.00  0.00     0.031 C 
ATOM     46  C   UNL A   1      37.936  30.608  30.867  1.00  0.00     0.029 A 
ATOM     47  C   UNL A   1      39.084  30.315  31.719  1.00  0.00     0.049 A 
ATOM     48  H   UNL A   1      39.515  31.129  33.588  1.00  0.00     0.167 HD
ATOM     49  C   UNL A   1      40.407  33.060  37.410  1.00  0.00     0.037 A 
ATOM     50  C   UNL A   1      40.072  29.448  31.429  1.00  0.00     0.037 A 
ATOM     51  C   UNL A   1      41.476  32.117  37.211  1.00  0.00     0.049 A 
ATOM     52  C   UNL A   1      41.196  29.255  32.413  1.00  0.00     0.074 A 
ATOM     53  C   UNL A   1      42.541  31.828  38.047  1.00  0.00     0.029 A 
ATOM     54  N   UNL A   1      41.609  31.301  36.098  1.00  0.00    -0.354 N 
ATOM     55  N   UNL A   1      41.386  29.829  33.575  1.00  0.00    -0.248 NA
ATOM     56  C   UNL A   1      42.240  28.288  32.043  1.00  0.00     0.031 C 
ATOM     57  C   UNL A   1      43.333  30.855  37.430  1.00  0.00     0.029 A 
ATOM     58  C   UNL A   1      42.741  30.511  36.225  1.00  0.00     0.049 A 
ATOM     59  H   UNL A   1      40.992  31.285  35.332  1.00  0.00     0.167 HD
ATOM     60  C   UNL A   1      42.549  29.270  34.088  1.00  0.00     0.074 A 
ATOM     61  C   UNL A   1      43.015  28.305  33.117  1.00  0.00     0.031 C 
ATOM     62  C   UNL A   1      43.176  29.537  35.260  1.00  0.00     0.037 A 
BRANCH  49  63
ATOM     63  C   UNL A   1      40.407  33.866  38.674  1.00  0.00     0.064 A 
ATOM     64  C   UNL A   1      41.113  35.076  38.767  1.00  0.00     0.173 A 
ATOM     65  C   UNL A   1      39.651  33.461  39.784  1.00  0.00     0.173 A 
ATOM     66  F   UNL A   1      41.860  35.501  37.737  1.00  0.00    -0.203 F 
ATOM     67  C   UNL A   1      41.076  35.839  39.930  1.00  0.00     0.198 A 
ATOM     68  C   UNL A   1      39.595  34.241  40.936  1.00  0.00     0.198 A 
ATOM     69  F   UNL A   1      38.952  32.317  39.744  1.00  0.00    -0.203 F 
ATOM     70  F   UNL A   1      41.786  36.974  40.007  1.00  0.00    -0.200 F 
ATOM     71  C   UNL A   1      40.312  35.426  41.011  1.00  0.00     0.200 A 
ATOM     72  F   UNL A   1      38.847  33.846  41.976  1.00  0.00    -0.200 F 
ATOM     73  F   UNL A   1      40.268  36.169  42.126  1.00  0.00    -0.200 F 
ENDBRANCH  49  63
BRANCH  50  74
ATOM     74  C   UNL A   1      40.044  28.679  30.159  1.00  0.00     0.064 A 
ATOM     75  C   UNL A   1      39.424  27.424  30.094  1.00  0.00     0.173 A 
ATOM     76  C   UNL A   1      40.658  29.165  28.995  1.00  0.00     0.173 A 
ATOM     77  F   UNL A   1      38.843  26.907  31.187  1.00  0.00    -0.203 F 
ATOM     78  C   UNL A   1      39.443  26.671  28.921  1.00  0.00     0.198 A 
ATOM     79  C   UNL A   1      40.652  28.424  27.816  1.00  0.00     0.198 A 
ATOM     80  F   UNL A   1      41.261  30.363  29.004  1.00  0.00    -0.203 F 
ATOM     81  F   UNL A   1      38.889  25.451  28.903  1.00  0.00    -0.200 F 
ATOM     82  C   UNL A   1      40.054  27.173  27.783  1.00  0.00     0.200 A 
ATOM     83  F   UNL A   1      41.233  28.918  26.714  1.00  0.00    -0.200 F 
ATOM     84  F   UNL A   1      40.076  26.448  26.656  1.00  0.00    -0.200 F 
ENDBRANCH  50  74
BRANCH  62  85
ATOM     85  C   UNL A   1      44.403  28.737  35.579  1.00  0.00     0.064 A 
ATOM     86  C   UNL A   1      45.679  29.160  35.182  1.00  0.00     0.173 A 
ATOM     87  C   UNL A   1      44.302  27.551  36.320  1.00  0.00     0.173 A 
ATOM     88  F   UNL A   1      45.825  30.279  34.456  1.00  0.00    -0.203 F 
ATOM     89  C   UNL A   1      46.810  28.411  35.497  1.00  0.00     0.198 A 
ATOM     90  C   UNL A   1      45.436  26.817  36.655  1.00  0.00     0.198 A 
ATOM     91  F   UNL A   1      43.103  27.107  36.726  1.00  0.00    -0.203 F 
ATOM     92  F   UNL A   1      48.016  28.810  35.071  1.00  0.00    -0.200 F 
ATOM     93  C   UNL A   1      46.689  27.244  36.238  1.00  0.00     0.200 A 
ATOM     94  F   UNL A   1      45.318  25.696  37.379  1.00  0.00    -0.200 F 
ATOM     95  F   UNL A   1      47.778  26.527  36.543  1.00  0.00    -0.200 F 
ENDBRANCH  62  85
ENDBRANCH  36  37
ENDBRANCH  28  31
ENDBRANCH  26  27
ENDBRANCH  25  26
ENDBRANCH   1  25
TORSDOF 13
ENDMDL
MODEL 3
REMARK VINA RESULT:     -11.2      0.325      7.371
REMARK SMILES C[C@]1(C(=O)NCc2ccc(C(=O)NCCCNC(=O)c3ccc(-c4c5nc(c(-c6c(F)c(F)c(F)c(F)c6F)c6ccc([nH]6)c(-c6c(F)c(F)c(F)c(F)c6F)c6nc(c(-c7c(F)c(F)c(F)c(F)c7F)c7ccc4[nH]7)C=C6)C=C5)cc3)o2)CCC[NH2+]C1
REMARK SMILES IDX 14 1 13 2 11 3 12 4 10 6 7 7 8 8 83 9 9 10 6 11 5 12 3 13
REMARK SMILES IDX 4 14 2 16 1 17 84 18 88 19 85 20 87 21 86 22 15 25 16 26
REMARK SMILES IDX 17 27 18 28 19 30 20 31 21 32 82 33 22 34 81 35 23 36 24 37
REMARK SMILES IDX 25 38 75 39 26 40 80 41 74 42 76 43 27 44 79 45 73 46 72 47
REMARK SMILES IDX 28 49 60 50 40 51 59 52 41 53 44 54 58 55 77 56 42 57 43 58
REMARK SMILES IDX 57 60 78 61 45 62 29 63 30 64 38 65 31 66 32 67 36 68 39 69
REMARK SMILES IDX 33 70 34 71 37 72 35 73 61 74 62 75 70 76 63 77 64 78 68 79
REMARK SMILES IDX 71 80 65 81 66 82 69 83 67 84 46 85 47 86 55 87 48 88 49 89
REMARK SMILES IDX 53 90 56 91 50 92 51 93 54 94 52 95
REMARK H PARENT 13 5 5 15 87 23 87 24 17 29 76 48 44 59
REMARK Flexibility Score: inf
ROOT
ATOM      1  C   UNL A   1      35.159  34.780  28.510  1.00  0.00     0.118 C 
ENDROOT
BRANCH   1   2
ATOM      2  N   UNL A   1      33.838  35.357  28.367  1.00  0.00    -0.349 N 
ATOM      3  C   UNL A   1      33.007  35.939  29.300  1.00  0.00     0.286 C 
ATOM      4  O   UNL A   1      32.029  36.534  28.842  1.00  0.00    -0.266 OA
ATOM      5  H   UNL A   1      33.473  35.329  27.453  1.00  0.00     0.163 HD
BRANCH   3   6
ATOM      6  C   UNL A   1      33.295  35.853  30.720  1.00  0.00     0.191 A 
ATOM      7  C   UNL A   1      33.753  34.724  32.576  1.00  0.00     0.124 A 
ATOM      8  C   UNL A   1      33.784  36.060  32.914  1.00  0.00     0.048 A 
ATOM      9  O   UNL A   1      33.429  34.594  31.256  1.00  0.00    -0.454 OA
ATOM     10  C   UNL A   1      33.523  36.780  31.721  1.00  0.00     0.056 A 
BRANCH   7  11
ATOM     11  C   UNL A   1      33.988  33.474  33.346  1.00  0.00     0.191 C 
BRANCH  11  12
ATOM     12  N   UNL A   1      35.004  33.683  34.349  1.00  0.00    -0.348 N 
ATOM     13  C   UNL A   1      36.344  33.515  34.390  1.00  0.00     0.232 C 
ATOM     14  O   UNL A   1      36.860  33.811  35.478  1.00  0.00    -0.274 OA
ATOM     15  H   UNL A   1      34.639  34.025  35.197  1.00  0.00     0.163 HD
BRANCH  13  16
ATOM     16  C   UNL A   1      37.248  33.148  33.187  1.00  0.00     0.095 C 
ATOM     17  C   UNL A   1      37.401  34.427  32.344  1.00  0.00     0.028 C 
ATOM     18  C   UNL A   1      38.643  32.746  33.751  1.00  0.00     0.028 C 
ATOM     19  C   UNL A   1      36.814  31.990  32.271  1.00  0.00     0.277 C 
ATOM     20  C   UNL A   1      38.567  31.393  34.468  1.00  0.00     0.063 C 
ATOM     21  N   UNL A   1      36.721  30.703  32.957  1.00  0.00    -0.345 N 
ATOM     22  C   UNL A   1      37.993  30.310  33.558  1.00  0.00     0.260 C 
ATOM     23  H   UNL A   1      36.017  30.771  33.691  1.00  0.00     0.346 HD
ATOM     24  H   UNL A   1      36.467  29.996  32.266  1.00  0.00     0.346 HD
ENDBRANCH  13  16
ENDBRANCH  11  12
ENDBRANCH   7  11
ENDBRANCH   3   6
ENDBRANCH   1   2
BRANCH   1  25
ATOM     25  C   UNL A   1      35.199  33.316  28.076  1.00  0.00     0.042 C 
BRANCH  25  26
ATOM     26  C   UNL A   1      34.531  32.359  29.066  1.00  0.00     0.118 C 
BRANCH  26  27
ATOM     27  N   UNL A   1      34.010  31.164  28.415  1.00  0.00    -0.352 N 
ATOM     28  C   UNL A   1      34.649  30.031  27.977  1.00  0.00     0.251 C 
ATOM     29  H   UNL A   1      33.037  31.170  28.266  1.00  0.00     0.163 HD
ATOM     30  O   UNL A   1      34.036  29.232  27.274  1.00  0.00    -0.269 OA
BRANCH  28  31
ATOM     31  C   UNL A   1      36.062  29.758  28.323  1.00  0.00     0.039 A 
ATOM     32  C   UNL A   1      37.039  29.945  27.338  1.00  0.00     0.014 A 
ATOM     33  C   UNL A   1      36.428  29.249  29.572  1.00  0.00     0.014 A 
ATOM     34  C   UNL A   1      38.381  29.677  27.620  1.00  0.00     0.010 A 
ATOM     35  C   UNL A   1      37.773  29.036  29.873  1.00  0.00     0.010 A 
ATOM     36  C   UNL A   1      38.764  29.244  28.900  1.00  0.00    -0.014 A 
BRANCH  36  37
ATOM     37  C   UNL A   1      40.190  28.997  29.236  1.00  0.00     0.031 A 
ATOM     38  C   UNL A   1      40.873  27.743  28.765  1.00  0.00     0.074 A 
ATOM     39  C   UNL A   1      40.856  29.876  30.009  1.00  0.00     0.049 A 
ATOM     40  N   UNL A   1      42.075  27.301  29.037  1.00  0.00    -0.248 NA
ATOM     41  C   UNL A   1      40.095  26.858  27.883  1.00  0.00     0.031 C 
ATOM     42  C   UNL A   1      40.300  31.119  30.549  1.00  0.00     0.029 A 
ATOM     43  N   UNL A   1      42.143  29.854  30.487  1.00  0.00    -0.354 N 
ATOM     44  C   UNL A   1      42.193  26.086  28.375  1.00  0.00     0.074 A 
ATOM     45  C   UNL A   1      40.925  25.839  27.720  1.00  0.00     0.031 C 
ATOM     46  C   UNL A   1      41.244  31.745  31.271  1.00  0.00     0.029 A 
ATOM     47  C   UNL A   1      42.456  30.932  31.279  1.00  0.00     0.049 A 
ATOM     48  H   UNL A   1      42.781  29.132  30.282  1.00  0.00     0.167 HD
ATOM     49  C   UNL A   1      43.266  25.262  28.303  1.00  0.00     0.037 A 
ATOM     50  C   UNL A   1      43.589  31.225  31.944  1.00  0.00     0.037 A 
ATOM     51  C   UNL A   1      44.533  25.519  28.934  1.00  0.00     0.049 A 
ATOM     52  C   UNL A   1      44.760  30.283  31.855  1.00  0.00     0.074 A 
ATOM     53  C   UNL A   1      45.686  24.751  28.904  1.00  0.00     0.029 A 
ATOM     54  N   UNL A   1      44.817  26.635  29.706  1.00  0.00    -0.354 N 
ATOM     55  N   UNL A   1      44.866  29.154  31.201  1.00  0.00    -0.248 NA
ATOM     56  C   UNL A   1      45.972  30.663  32.597  1.00  0.00     0.031 C 
ATOM     57  C   UNL A   1      46.660  25.391  29.675  1.00  0.00     0.029 A 
ATOM     58  C   UNL A   1      46.126  26.575  30.158  1.00  0.00     0.049 A 
ATOM     59  H   UNL A   1      44.185  27.361  29.902  1.00  0.00     0.167 HD
ATOM     60  C   UNL A   1      46.161  28.706  31.423  1.00  0.00     0.074 A 
ATOM     61  C   UNL A   1      46.808  29.690  32.264  1.00  0.00     0.031 C 
ATOM     62  C   UNL A   1      46.761  27.577  30.973  1.00  0.00     0.037 A 
BRANCH  49  63
ATOM     63  C   UNL A   1      43.122  24.005  27.498  1.00  0.00     0.064 A 
ATOM     64  C   UNL A   1      43.468  23.966  26.139  1.00  0.00     0.173 A 
ATOM     65  C   UNL A   1      42.692  22.813  28.101  1.00  0.00     0.173 A 
ATOM     66  F   UNL A   1      43.875  25.082  25.515  1.00  0.00    -0.203 F 
ATOM     67  C   UNL A   1      43.371  22.785  25.408  1.00  0.00     0.198 A 
ATOM     68  C   UNL A   1      42.621  21.628  27.373  1.00  0.00     0.198 A 
ATOM     69  F   UNL A   1      42.357  22.794  29.399  1.00  0.00    -0.203 F 
ATOM     70  F   UNL A   1      43.674  22.780  24.102  1.00  0.00    -0.200 F 
ATOM     71  C   UNL A   1      42.955  21.616  26.027  1.00  0.00     0.200 A 
ATOM     72  F   UNL A   1      42.229  20.495  27.974  1.00  0.00    -0.200 F 
ATOM     73  F   UNL A   1      42.873  20.477  25.324  1.00  0.00    -0.200 F 
ENDBRANCH  49  63
BRANCH  50  74
ATOM     74  C   UNL A   1      43.686  32.474  32.743  1.00  0.00     0.064 A 
ATOM     75  C   UNL A   1      43.347  32.483  34.104  1.00  0.00     0.173 A 
ATOM     76  C   UNL A   1      44.089  33.685  32.162  1.00  0.00     0.173 A 
ATOM     77  F   UNL A   1      42.934  31.354  34.698  1.00  0.00    -0.203 F 
ATOM     78  C   UNL A   1      43.381  33.662  34.846  1.00  0.00     0.198 A 
ATOM     79  C   UNL A   1      44.150  34.857  32.912  1.00  0.00     0.198 A 
ATOM     80  F   UNL A   1      44.429  33.728  30.865  1.00  0.00    -0.203 F 
ATOM     81  F   UNL A   1      42.999  33.652  36.130  1.00  0.00    -0.200 F 
ATOM     82  C   UNL A   1      43.785  34.846  34.251  1.00  0.00     0.200 A 
ATOM     83  F   UNL A   1      44.553  35.998  32.337  1.00  0.00    -0.200 F 
ATOM     84  F   UNL A   1      43.814  35.981  34.963  1.00  0.00    -0.200 F 
ENDBRANCH  50  74
BRANCH  62  85
ATOM     85  C   UNL A   1      48.201  27.372  31.336  1.00  0.00     0.064 A 
ATOM     86  C   UNL A   1      49.238  27.880  30.543  1.00  0.00     0.173 A 
ATOM     87  C   UNL A   1      48.543  26.688  32.511  1.00  0.00     0.173 A 
ATOM     88  F   UNL A   1      48.961  28.527  29.400  1.00  0.00    -0.203 F 
ATOM     89  C   UNL A   1      50.571  27.690  30.902  1.00  0.00     0.198 A 
ATOM     90  C   UNL A   1      49.875  26.521  32.880  1.00  0.00     0.198 A 
ATOM     91  F   UNL A   1      47.586  26.186  33.306  1.00  0.00    -0.203 F 
ATOM     92  F   UNL A   1      51.548  28.146  30.106  1.00  0.00    -0.200 F 
ATOM     93  C   UNL A   1      50.888  27.017  32.072  1.00  0.00     0.200 A 
ATOM     94  F   UNL A   1      50.179  25.878  34.016  1.00  0.00    -0.200 F 
ATOM     95  F   UNL A   1      52.170  26.838  32.417  1.00  0.00    -0.200 F 
ENDBRANCH  62  85
ENDBRANCH  36  37
ENDBRANCH  28  31
ENDBRANCH  26  27
ENDBRANCH  25  26
ENDBRANCH   1  25
TORSDOF 13
ENDMDL
