MODEL 1
REMARK VINA RESULT:     -12.9      0.000      0.000
REMARK SMILES O=C(NCCCNC(=O)c1c(F)cccc1NC(=O)C1CCCCC1)c1ccc(-c2c3nc(c(-c4c(F)c(F)c(F)c(F)c4F)c4ccc([nH]4)c(-c4c(F)c(F)c(F)c(F)c4F)c4nc(c(-c5c(F)c(F)c(F)c(F)c5F)c5ccc2[nH]5)C=C4)C=C3)cc1
REMARK SMILES IDX 5 1 4 2 3 3 1 4 2 5 26 7 27 8 88 9 28 10 87 11 29 12 30 13
REMARK SMILES IDX 31 14 81 15 32 16 86 17 80 18 82 19 33 20 85 21 79 22 78 23
REMARK SMILES IDX 34 25 66 26 46 27 65 28 47 29 50 30 64 31 83 32 48 33 49 34
REMARK SMILES IDX 63 36 84 37 51 38 35 39 36 40 44 41 37 42 38 43 42 44 45 45
REMARK SMILES IDX 39 46 40 47 43 48 41 49 67 50 68 51 76 52 69 53 70 54 74 55
REMARK SMILES IDX 77 56 71 57 72 58 75 59 73 60 52 61 53 62 61 63 54 64 55 65
REMARK SMILES IDX 59 66 62 67 56 68 57 69 60 70 58 71 6 72 7 73 8 74 9 76
REMARK SMILES IDX 10 77 11 78 16 79 12 80 13 81 15 82 14 83 17 84 18 85 19 87
REMARK SMILES IDX 20 88 21 89 25 90 22 91 24 92 23 93
REMARK H PARENT 3 6 82 24 50 35 7 75 17 86
REMARK Flexibility Score: inf
ROOT
ATOM      1  C   UNL A   1      34.050  28.955  24.103  1.00  0.00     0.042 C 
ENDROOT
BRANCH   1   2
ATOM      2  C   UNL A   1      33.214  28.822  25.367  1.00  0.00     0.118 C 
BRANCH   2   3
ATOM      3  N   UNL A   1      32.647  30.090  25.811  1.00  0.00    -0.352 N 
ATOM      4  O   UNL A   1      32.344  31.901  27.116  1.00  0.00    -0.269 OA
ATOM      5  C   UNL A   1      33.064  30.961  26.789  1.00  0.00     0.251 C 
ATOM      6  H   UNL A   1      31.833  30.367  25.331  1.00  0.00     0.163 HD
BRANCH   5   7
ATOM      7  C   UNL A   1      34.362  30.761  27.472  1.00  0.00     0.039 A 
ATOM      8  C   UNL A   1      34.733  29.502  27.938  1.00  0.00     0.014 A 
ATOM      9  C   UNL A   1      35.231  31.845  27.636  1.00  0.00     0.014 A 
ATOM     10  C   UNL A   1      35.861  29.366  28.734  1.00  0.00     0.010 A 
ATOM     11  C   UNL A   1      36.435  31.678  28.331  1.00  0.00     0.010 A 
ATOM     12  C   UNL A   1      36.743  30.444  28.921  1.00  0.00    -0.014 A 
BRANCH  12  13
ATOM     13  C   UNL A   1      38.001  30.200  29.674  1.00  0.00     0.031 A 
ATOM     14  C   UNL A   1      38.183  30.687  31.085  1.00  0.00     0.074 A 
ATOM     15  C   UNL A   1      38.951  29.443  29.091  1.00  0.00     0.049 A 
ATOM     16  N   UNL A   1      39.178  30.462  31.907  1.00  0.00    -0.248 NA
ATOM     17  C   UNL A   1      37.125  31.540  31.650  1.00  0.00     0.031 C 
ATOM     18  C   UNL A   1      38.888  28.928  27.720  1.00  0.00     0.029 A 
ATOM     19  N   UNL A   1      40.122  28.923  29.583  1.00  0.00    -0.354 N 
ATOM     20  C   UNL A   1      38.878  31.154  33.073  1.00  0.00     0.074 A 
ATOM     21  C   UNL A   1      37.616  31.827  32.849  1.00  0.00     0.031 C 
ATOM     22  C   UNL A   1      39.913  28.091  27.514  1.00  0.00     0.029 A 
ATOM     23  C   UNL A   1      40.749  28.068  28.708  1.00  0.00     0.049 A 
ATOM     24  H   UNL A   1      40.477  29.141  30.475  1.00  0.00     0.167 HD
ATOM     25  C   UNL A   1      39.588  31.210  34.224  1.00  0.00     0.037 A 
ATOM     26  C   UNL A   1      41.873  27.342  28.849  1.00  0.00     0.037 A 
ATOM     27  C   UNL A   1      40.829  30.514  34.449  1.00  0.00     0.049 A 
ATOM     28  C   UNL A   1      42.634  27.426  30.138  1.00  0.00     0.074 A 
ATOM     29  C   UNL A   1      41.610  30.497  35.592  1.00  0.00     0.029 A 
ATOM     30  N   UNL A   1      41.464  29.706  33.519  1.00  0.00    -0.354 N 
ATOM     31  N   UNL A   1      42.333  28.082  31.233  1.00  0.00    -0.248 NA
ATOM     32  C   UNL A   1      43.900  26.685  30.208  1.00  0.00     0.031 C 
ATOM     33  C   UNL A   1      42.738  29.709  35.341  1.00  0.00     0.029 A 
ATOM     34  C   UNL A   1      42.638  29.199  34.058  1.00  0.00     0.049 A 
ATOM     35  H   UNL A   1      41.133  29.520  32.611  1.00  0.00     0.167 HD
ATOM     36  C   UNL A   1      43.368  27.834  32.119  1.00  0.00     0.074 A 
ATOM     37  C   UNL A   1      44.290  26.939  31.449  1.00  0.00     0.031 C 
ATOM     38  C   UNL A   1      43.546  28.317  33.374  1.00  0.00     0.037 A 
BRANCH  25  39
ATOM     39  C   UNL A   1      39.056  32.052  35.346  1.00  0.00     0.064 A 
ATOM     40  C   UNL A   1      39.385  33.414  35.428  1.00  0.00     0.173 A 
ATOM     41  C   UNL A   1      38.318  31.490  36.396  1.00  0.00     0.173 A 
ATOM     42  F   UNL A   1      40.096  33.999  34.453  1.00  0.00    -0.203 F 
ATOM     43  C   UNL A   1      39.014  34.175  36.534  1.00  0.00     0.198 A 
ATOM     44  C   UNL A   1      37.929  32.259  37.491  1.00  0.00     0.198 A 
ATOM     45  F   UNL A   1      37.970  30.195  36.359  1.00  0.00    -0.203 F 
ATOM     46  F   UNL A   1      39.373  35.465  36.610  1.00  0.00    -0.200 F 
ATOM     47  C   UNL A   1      38.288  33.597  37.564  1.00  0.00     0.200 A 
ATOM     48  F   UNL A   1      37.213  31.705  38.478  1.00  0.00    -0.200 F 
ATOM     49  F   UNL A   1      37.935  34.329  38.630  1.00  0.00    -0.200 F 
ENDBRANCH  25  39
BRANCH  26  50
ATOM     50  C   UNL A   1      42.333  26.473  27.736  1.00  0.00     0.064 A 
ATOM     51  C   UNL A   1      43.280  26.922  26.804  1.00  0.00     0.173 A 
ATOM     52  C   UNL A   1      41.811  25.183  27.568  1.00  0.00     0.173 A 
ATOM     53  F   UNL A   1      43.805  28.150  26.919  1.00  0.00    -0.203 F 
ATOM     54  C   UNL A   1      43.669  26.123  25.731  1.00  0.00     0.198 A 
ATOM     55  C   UNL A   1      42.225  24.373  26.512  1.00  0.00     0.198 A 
ATOM     56  F   UNL A   1      40.918  24.701  28.445  1.00  0.00    -0.203 F 
ATOM     57  F   UNL A   1      44.543  26.593  24.832  1.00  0.00    -0.200 F 
ATOM     58  C   UNL A   1      43.145  24.847  25.590  1.00  0.00     0.200 A 
ATOM     59  F   UNL A   1      41.737  23.131  26.393  1.00  0.00    -0.200 F 
ATOM     60  F   UNL A   1      43.531  24.073  24.566  1.00  0.00    -0.200 F 
ENDBRANCH  26  50
BRANCH  38  61
ATOM     61  C   UNL A   1      44.785  27.888  34.100  1.00  0.00     0.064 A 
ATOM     62  C   UNL A   1      44.780  26.738  34.902  1.00  0.00     0.173 A 
ATOM     63  C   UNL A   1      45.965  28.644  34.033  1.00  0.00     0.173 A 
ATOM     64  F   UNL A   1      43.673  25.987  35.002  1.00  0.00    -0.203 F 
ATOM     65  C   UNL A   1      45.913  26.363  35.618  1.00  0.00     0.198 A 
ATOM     66  C   UNL A   1      47.103  28.251  34.730  1.00  0.00     0.198 A 
ATOM     67  F   UNL A   1      46.020  29.743  33.266  1.00  0.00    -0.203 F 
ATOM     68  F   UNL A   1      45.880  25.273  36.396  1.00  0.00    -0.200 F 
ATOM     69  C   UNL A   1      47.075  27.115  35.527  1.00  0.00     0.200 A 
ATOM     70  F   UNL A   1      48.232  28.964  34.621  1.00  0.00    -0.200 F 
ATOM     71  F   UNL A   1      48.170  26.743  36.202  1.00  0.00    -0.200 F 
ENDBRANCH  38  61
ENDBRANCH  12  13
ENDBRANCH   5   7
ENDBRANCH   2   3
ENDBRANCH   1   2
BRANCH   1  72
ATOM     72  C   UNL A   1      33.228  28.961  22.825  1.00  0.00     0.118 C 
BRANCH  72  73
ATOM     73  N   UNL A   1      33.481  27.783  22.006  1.00  0.00    -0.352 N 
ATOM     74  C   UNL A   1      33.084  26.483  22.190  1.00  0.00     0.256 C 
ATOM     75  H   UNL A   1      34.019  27.945  21.198  1.00  0.00     0.163 HD
ATOM     76  O   UNL A   1      33.561  25.597  21.484  1.00  0.00    -0.269 OA
BRANCH  74  77
ATOM     77  C   UNL A   1      32.141  26.116  23.263  1.00  0.00     0.099 A 
ATOM     78  C   UNL A   1      30.806  26.524  23.153  1.00  0.00     0.138 A 
ATOM     79  C   UNL A   1      32.573  25.357  24.376  1.00  0.00     0.057 A 
ATOM     80  F   UNL A   1      30.374  27.189  22.070  1.00  0.00    -0.206 F 
ATOM     81  C   UNL A   1      29.895  26.281  24.168  1.00  0.00     0.040 A 
ATOM     82  C   UNL A   1      31.619  25.083  25.364  1.00  0.00     0.027 A 
ATOM     83  C   UNL A   1      30.305  25.562  25.279  1.00  0.00     0.005 A 
BRANCH  79  84
ATOM     84  N   UNL A   1      33.921  24.907  24.417  1.00  0.00    -0.325 N 
ATOM     85  C   UNL A   1      34.548  23.690  24.385  1.00  0.00     0.227 C 
ATOM     86  H   UNL A   1      34.559  25.652  24.486  1.00  0.00     0.169 HD
ATOM     87  O   UNL A   1      35.783  23.681  24.361  1.00  0.00    -0.274 OA
BRANCH  85  88
ATOM     88  C   UNL A   1      33.767  22.387  24.428  1.00  0.00     0.079 C 
ATOM     89  C   UNL A   1      33.044  22.046  23.116  1.00  0.00     0.013 C 
ATOM     90  C   UNL A   1      34.676  21.208  24.797  1.00  0.00     0.013 C 
ATOM     91  C   UNL A   1      32.177  20.798  23.314  1.00  0.00     0.001 C 
ATOM     92  C   UNL A   1      33.837  19.962  25.054  1.00  0.00     0.001 C 
ATOM     93  C   UNL A   1      32.978  19.607  23.842  1.00  0.00     0.000 C 
ENDBRANCH  85  88
ENDBRANCH  79  84
ENDBRANCH  74  77
ENDBRANCH  72  73
ENDBRANCH   1  72
TORSDOF 12
ENDMDL
MODEL 2
REMARK VINA RESULT:     -12.7      4.861      9.599
REMARK SMILES O=C(NCCCNC(=O)c1c(F)cccc1NC(=O)C1CCCCC1)c1ccc(-c2c3nc(c(-c4c(F)c(F)c(F)c(F)c4F)c4ccc([nH]4)c(-c4c(F)c(F)c(F)c(F)c4F)c4nc(c(-c5c(F)c(F)c(F)c(F)c5F)c5ccc2[nH]5)C=C4)C=C3)cc1
REMARK SMILES IDX 5 1 4 2 3 3 1 4 2 5 26 7 27 8 88 9 28 10 87 11 29 12 30 13
REMARK SMILES IDX 31 14 81 15 32 16 86 17 80 18 82 19 33 20 85 21 79 22 78 23
REMARK SMILES IDX 34 25 66 26 46 27 65 28 47 29 50 30 64 31 83 32 48 33 49 34
REMARK SMILES IDX 63 36 84 37 51 38 35 39 36 40 44 41 37 42 38 43 42 44 45 45
REMARK SMILES IDX 39 46 40 47 43 48 41 49 67 50 68 51 76 52 69 53 70 54 74 55
REMARK SMILES IDX 77 56 71 57 72 58 75 59 73 60 52 61 53 62 61 63 54 64 55 65
REMARK SMILES IDX 59 66 62 67 56 68 57 69 60 70 58 71 6 72 7 73 8 74 9 76
REMARK SMILES IDX 10 77 11 78 16 79 12 80 13 81 15 82 14 83 17 84 18 85 19 87
REMARK SMILES IDX 20 88 21 89 25 90 22 91 24 92 23 93
REMARK H PARENT 3 6 82 24 50 35 7 75 17 86
REMARK Flexibility Score: inf
ROOT
ATOM      1  C   UNL A   1      38.020  19.710  24.743  1.00  0.00     0.042 C 
ENDROOT
BRANCH   1   2
ATOM      2  C   UNL A   1      39.075  20.049  25.784  1.00  0.00     0.118 C 
BRANCH   2   3
ATOM      3  N   UNL A   1      40.178  19.095  25.808  1.00  0.00    -0.352 N 
ATOM      4  O   UNL A   1      42.309  18.363  25.848  1.00  0.00    -0.269 OA
ATOM      5  C   UNL A   1      41.520  19.287  26.035  1.00  0.00     0.251 C 
ATOM      6  H   UNL A   1      39.919  18.162  25.635  1.00  0.00     0.163 HD
BRANCH   5   7
ATOM      7  C   UNL A   1      42.028  20.605  26.476  1.00  0.00     0.039 A 
ATOM      8  C   UNL A   1      42.197  20.885  27.831  1.00  0.00     0.014 A 
ATOM      9  C   UNL A   1      42.359  21.573  25.522  1.00  0.00     0.014 A 
ATOM     10  C   UNL A   1      42.496  22.177  28.236  1.00  0.00     0.010 A 
ATOM     11  C   UNL A   1      42.786  22.843  25.932  1.00  0.00     0.010 A 
ATOM     12  C   UNL A   1      42.821  23.168  27.294  1.00  0.00    -0.014 A 
BRANCH  12  13
ATOM     13  C   UNL A   1      43.261  24.497  27.796  1.00  0.00     0.031 A 
ATOM     14  C   UNL A   1      44.709  24.901  27.796  1.00  0.00     0.074 A 
ATOM     15  C   UNL A   1      42.312  25.379  28.168  1.00  0.00     0.049 A 
ATOM     16  N   UNL A   1      45.236  26.060  28.102  1.00  0.00    -0.248 NA
ATOM     17  C   UNL A   1      45.698  23.880  27.413  1.00  0.00     0.031 C 
ATOM     18  C   UNL A   1      40.876  25.090  28.223  1.00  0.00     0.029 A 
ATOM     19  N   UNL A   1      42.394  26.703  28.514  1.00  0.00    -0.354 N 
ATOM     20  C   UNL A   1      46.609  25.906  27.966  1.00  0.00     0.074 A 
ATOM     21  C   UNL A   1      46.842  24.534  27.570  1.00  0.00     0.031 C 
ATOM     22  C   UNL A   1      40.208  26.222  28.481  1.00  0.00     0.029 A 
ATOM     23  C   UNL A   1      41.168  27.299  28.687  1.00  0.00     0.049 A 
ATOM     24  H   UNL A   1      43.248  27.181  28.626  1.00  0.00     0.167 HD
ATOM     25  C   UNL A   1      47.581  26.832  28.146  1.00  0.00     0.037 A 
ATOM     26  C   UNL A   1      40.847  28.573  28.978  1.00  0.00     0.037 A 
ATOM     27  C   UNL A   1      47.340  28.204  28.513  1.00  0.00     0.049 A 
ATOM     28  C   UNL A   1      41.948  29.573  29.170  1.00  0.00     0.074 A 
ATOM     29  C   UNL A   1      48.263  29.220  28.700  1.00  0.00     0.029 A 
ATOM     30  N   UNL A   1      46.088  28.756  28.738  1.00  0.00    -0.354 N 
ATOM     31  N   UNL A   1      43.241  29.412  29.033  1.00  0.00    -0.248 NA
ATOM     32  C   UNL A   1      41.549  30.927  29.573  1.00  0.00     0.031 C 
ATOM     33  C   UNL A   1      47.573  30.376  29.075  1.00  0.00     0.029 A 
ATOM     34  C   UNL A   1      46.217  30.094  29.080  1.00  0.00     0.049 A 
ATOM     35  H   UNL A   1      45.235  28.271  28.668  1.00  0.00     0.167 HD
ATOM     36  C   UNL A   1      43.810  30.638  29.332  1.00  0.00     0.074 A 
ATOM     37  C   UNL A   1      42.720  31.547  29.625  1.00  0.00     0.031 C 
ATOM     38  C   UNL A   1      45.121  30.980  29.374  1.00  0.00     0.037 A 
BRANCH  25  39
ATOM     39  C   UNL A   1      49.008  26.410  27.956  1.00  0.00     0.064 A 
ATOM     40  C   UNL A   1      49.838  26.192  29.067  1.00  0.00     0.173 A 
ATOM     41  C   UNL A   1      49.584  26.331  26.681  1.00  0.00     0.173 A 
ATOM     42  F   UNL A   1      49.337  26.262  30.309  1.00  0.00    -0.203 F 
ATOM     43  C   UNL A   1      51.197  25.933  28.907  1.00  0.00     0.198 A 
ATOM     44  C   UNL A   1      50.940  26.051  26.523  1.00  0.00     0.198 A 
ATOM     45  F   UNL A   1      48.831  26.522  25.587  1.00  0.00    -0.203 F 
ATOM     46  F   UNL A   1      51.978  25.767  29.983  1.00  0.00    -0.200 F 
ATOM     47  C   UNL A   1      51.746  25.865  27.636  1.00  0.00     0.200 A 
ATOM     48  F   UNL A   1      51.467  25.969  25.294  1.00  0.00    -0.200 F 
ATOM     49  F   UNL A   1      53.055  25.622  27.483  1.00  0.00    -0.200 F 
ENDBRANCH  25  39
BRANCH  26  50
ATOM     50  C   UNL A   1      39.419  28.965  29.097  1.00  0.00     0.064 A 
ATOM     51  C   UNL A   1      38.749  28.910  30.328  1.00  0.00     0.173 A 
ATOM     52  C   UNL A   1      38.689  29.375  27.974  1.00  0.00     0.173 A 
ATOM     53  F   UNL A   1      39.402  28.520  31.432  1.00  0.00    -0.203 F 
ATOM     54  C   UNL A   1      37.396  29.227  30.426  1.00  0.00     0.198 A 
ATOM     55  C   UNL A   1      37.343  29.722  28.078  1.00  0.00     0.198 A 
ATOM     56  F   UNL A   1      39.291  29.462  26.778  1.00  0.00    -0.203 F 
ATOM     57  F   UNL A   1      36.771  29.127  31.606  1.00  0.00    -0.200 F 
ATOM     58  C   UNL A   1      36.696  29.639  29.302  1.00  0.00     0.200 A 
ATOM     59  F   UNL A   1      36.677  30.145  26.996  1.00  0.00    -0.200 F 
ATOM     60  F   UNL A   1      35.399  29.958  29.399  1.00  0.00    -0.200 F 
ENDBRANCH  26  50
BRANCH  38  61
ATOM     61  C   UNL A   1      45.447  32.392  29.753  1.00  0.00     0.064 A 
ATOM     62  C   UNL A   1      45.547  33.389  28.773  1.00  0.00     0.173 A 
ATOM     63  C   UNL A   1      45.702  32.748  31.086  1.00  0.00     0.173 A 
ATOM     64  F   UNL A   1      45.318  33.097  27.484  1.00  0.00    -0.203 F 
ATOM     65  C   UNL A   1      45.897  34.693  29.113  1.00  0.00     0.198 A 
ATOM     66  C   UNL A   1      46.026  34.057  31.426  1.00  0.00     0.198 A 
ATOM     67  F   UNL A   1      45.603  31.830  32.060  1.00  0.00    -0.203 F 
ATOM     68  F   UNL A   1      46.009  35.626  28.157  1.00  0.00    -0.200 F 
ATOM     69  C   UNL A   1      46.130  35.027  30.439  1.00  0.00     0.200 A 
ATOM     70  F   UNL A   1      46.226  34.385  32.709  1.00  0.00    -0.200 F 
ATOM     71  F   UNL A   1      46.450  36.286  30.767  1.00  0.00    -0.200 F 
ENDBRANCH  38  61
ENDBRANCH  12  13
ENDBRANCH   5   7
ENDBRANCH   2   3
ENDBRANCH   1   2
BRANCH   1  72
ATOM     72  C   UNL A   1      36.655  20.311  25.039  1.00  0.00     0.118 C 
BRANCH  72  73
ATOM     73  N   UNL A   1      36.344  21.425  24.155  1.00  0.00    -0.352 N 
ATOM     74  C   UNL A   1      35.311  22.327  24.205  1.00  0.00     0.256 C 
ATOM     75  H   UNL A   1      36.971  21.552  23.406  1.00  0.00     0.163 HD
ATOM     76  O   UNL A   1      35.116  23.080  23.254  1.00  0.00    -0.269 OA
BRANCH  74  77
ATOM     77  C   UNL A   1      34.387  22.366  25.354  1.00  0.00     0.099 A 
ATOM     78  C   UNL A   1      34.846  22.893  26.568  1.00  0.00     0.138 A 
ATOM     79  C   UNL A   1      33.060  21.892  25.231  1.00  0.00     0.057 A 
ATOM     80  F   UNL A   1      36.083  23.402  26.676  1.00  0.00    -0.206 F 
ATOM     81  C   UNL A   1      34.052  22.879  27.703  1.00  0.00     0.040 A 
ATOM     82  C   UNL A   1      32.262  21.936  26.381  1.00  0.00     0.027 A 
ATOM     83  C   UNL A   1      32.757  22.395  27.610  1.00  0.00     0.005 A 
BRANCH  79  84
ATOM     84  N   UNL A   1      32.613  21.426  23.964  1.00  0.00    -0.325 N 
ATOM     85  C   UNL A   1      32.508  20.206  23.350  1.00  0.00     0.227 C 
ATOM     86  H   UNL A   1      32.303  22.160  23.387  1.00  0.00     0.169 HD
ATOM     87  O   UNL A   1      31.984  20.170  22.233  1.00  0.00    -0.274 OA
BRANCH  85  88
ATOM     88  C   UNL A   1      33.060  18.942  23.987  1.00  0.00     0.079 C 
ATOM     89  C   UNL A   1      32.200  18.392  25.136  1.00  0.00     0.013 C 
ATOM     90  C   UNL A   1      33.240  17.830  22.946  1.00  0.00     0.013 C 
ATOM     91  C   UNL A   1      32.916  17.209  25.796  1.00  0.00     0.001 C 
ATOM     92  C   UNL A   1      33.999  16.658  23.557  1.00  0.00     0.001 C 
ATOM     93  C   UNL A   1      33.284  16.114  24.793  1.00  0.00     0.000 C 
ENDBRANCH  85  88
ENDBRANCH  79  84
ENDBRANCH  74  77
ENDBRANCH  72  73
ENDBRANCH   1  72
TORSDOF 12
ENDMDL
MODEL 3
REMARK VINA RESULT:     -12.7      0.301      1.984
REMARK SMILES O=C(NCCCNC(=O)c1c(F)cccc1NC(=O)C1CCCCC1)c1ccc(-c2c3nc(c(-c4c(F)c(F)c(F)c(F)c4F)c4ccc([nH]4)c(-c4c(F)c(F)c(F)c(F)c4F)c4nc(c(-c5c(F)c(F)c(F)c(F)c5F)c5ccc2[nH]5)C=C4)C=C3)cc1
REMARK SMILES IDX 5 1 4 2 3 3 1 4 2 5 26 7 27 8 88 9 28 10 87 11 29 12 30 13
REMARK SMILES IDX 31 14 81 15 32 16 86 17 80 18 82 19 33 20 85 21 79 22 78 23
REMARK SMILES IDX 34 25 66 26 46 27 65 28 47 29 50 30 64 31 83 32 48 33 49 34
REMARK SMILES IDX 63 36 84 37 51 38 35 39 36 40 44 41 37 42 38 43 42 44 45 45
REMARK SMILES IDX 39 46 40 47 43 48 41 49 67 50 68 51 76 52 69 53 70 54 74 55
REMARK SMILES IDX 77 56 71 57 72 58 75 59 73 60 52 61 53 62 61 63 54 64 55 65
REMARK SMILES IDX 59 66 62 67 56 68 57 69 60 70 58 71 6 72 7 73 8 74 9 76
REMARK SMILES IDX 10 77 11 78 16 79 12 80 13 81 15 82 14 83 17 84 18 85 19 87
REMARK SMILES IDX 20 88 21 89 25 90 22 91 24 92 23 93
REMARK H PARENT 3 6 82 24 50 35 7 75 17 86
REMARK Flexibility Score: inf
ROOT
ATOM      1  C   UNL A   1      34.034  29.161  23.957  1.00  0.00     0.042 C 
ENDROOT
BRANCH   1   2
ATOM      2  C   UNL A   1      33.345  28.963  25.299  1.00  0.00     0.118 C 
BRANCH   2   3
ATOM      3  N   UNL A   1      32.774  30.193  25.833  1.00  0.00    -0.352 N 
ATOM      4  O   UNL A   1      32.475  31.912  27.260  1.00  0.00    -0.269 OA
ATOM      5  C   UNL A   1      33.198  31.001  26.862  1.00  0.00     0.251 C 
ATOM      6  H   UNL A   1      31.952  30.495  25.384  1.00  0.00     0.163 HD
BRANCH   5   7
ATOM      7  C   UNL A   1      34.506  30.767  27.514  1.00  0.00     0.039 A 
ATOM      8  C   UNL A   1      34.846  29.503  27.990  1.00  0.00     0.014 A 
ATOM      9  C   UNL A   1      35.416  31.822  27.636  1.00  0.00     0.014 A 
ATOM     10  C   UNL A   1      35.990  29.340  28.758  1.00  0.00     0.010 A 
ATOM     11  C   UNL A   1      36.632  31.624  28.302  1.00  0.00     0.010 A 
ATOM     12  C   UNL A   1      36.913  30.389  28.904  1.00  0.00    -0.014 A 
BRANCH  12  13
ATOM     13  C   UNL A   1      38.182  30.114  29.627  1.00  0.00     0.031 A 
ATOM     14  C   UNL A   1      38.411  30.600  31.031  1.00  0.00     0.074 A 
ATOM     15  C   UNL A   1      39.097  29.329  29.024  1.00  0.00     0.049 A 
ATOM     16  N   UNL A   1      39.420  30.350  31.830  1.00  0.00    -0.248 NA
ATOM     17  C   UNL A   1      37.390  31.483  31.619  1.00  0.00     0.031 C 
ATOM     18  C   UNL A   1      38.987  28.813  27.657  1.00  0.00     0.029 A 
ATOM     19  N   UNL A   1      40.264  28.780  29.489  1.00  0.00    -0.354 N 
ATOM     20  C   UNL A   1      39.166  31.053  33.000  1.00  0.00     0.074 A 
ATOM     21  C   UNL A   1      37.918  31.759  32.805  1.00  0.00     0.031 C 
ATOM     22  C   UNL A   1      39.984  27.948  27.429  1.00  0.00     0.029 A 
ATOM     23  C   UNL A   1      40.847  27.906  28.603  1.00  0.00     0.049 A 
ATOM     24  H   UNL A   1      40.647  28.990  30.372  1.00  0.00     0.167 HD
ATOM     25  C   UNL A   1      39.905  31.094  34.134  1.00  0.00     0.037 A 
ATOM     26  C   UNL A   1      41.955  27.150  28.719  1.00  0.00     0.037 A 
ATOM     27  C   UNL A   1      41.132  30.365  34.331  1.00  0.00     0.049 A 
ATOM     28  C   UNL A   1      42.749  27.217  29.989  1.00  0.00     0.074 A 
ATOM     29  C   UNL A   1      41.940  30.329  35.455  1.00  0.00     0.029 A 
ATOM     30  N   UNL A   1      41.723  29.537  33.389  1.00  0.00    -0.354 N 
ATOM     31  N   UNL A   1      42.492  27.883  31.088  1.00  0.00    -0.248 NA
ATOM     32  C   UNL A   1      43.995  26.442  30.031  1.00  0.00     0.031 C 
ATOM     33  C   UNL A   1      43.039  29.511  35.180  1.00  0.00     0.029 A 
ATOM     34  C   UNL A   1      42.894  29.000  33.901  1.00  0.00     0.049 A 
ATOM     35  H   UNL A   1      41.364  29.357  32.490  1.00  0.00     0.167 HD
ATOM     36  C   UNL A   1      43.540  27.610  31.951  1.00  0.00     0.074 A 
ATOM     37  C   UNL A   1      44.422  26.689  31.262  1.00  0.00     0.031 C 
ATOM     38  C   UNL A   1      43.762  28.091  33.199  1.00  0.00     0.037 A 
BRANCH  25  39
ATOM     39  C   UNL A   1      39.424  31.953  35.265  1.00  0.00     0.064 A 
ATOM     40  C   UNL A   1      38.579  31.419  36.252  1.00  0.00     0.173 A 
ATOM     41  C   UNL A   1      39.704  33.325  35.313  1.00  0.00     0.173 A 
ATOM     42  F   UNL A   1      38.275  30.113  36.247  1.00  0.00    -0.203 F 
ATOM     43  C   UNL A   1      38.015  32.235  37.230  1.00  0.00     0.198 A 
ATOM     44  C   UNL A   1      39.156  34.134  36.306  1.00  0.00     0.198 A 
ATOM     45  F   UNL A   1      40.514  33.881  34.399  1.00  0.00    -0.203 F 
ATOM     46  F   UNL A   1      37.181  31.710  38.138  1.00  0.00    -0.200 F 
ATOM     47  C   UNL A   1      38.303  33.590  37.255  1.00  0.00     0.200 A 
ATOM     48  F   UNL A   1      39.447  35.441  36.340  1.00  0.00    -0.200 F 
ATOM     49  F   UNL A   1      37.756  34.375  38.194  1.00  0.00    -0.200 F 
ENDBRANCH  25  39
BRANCH  26  50
ATOM     50  C   UNL A   1      42.363  26.265  27.598  1.00  0.00     0.064 A 
ATOM     51  C   UNL A   1      41.816  24.983  27.445  1.00  0.00     0.173 A 
ATOM     52  C   UNL A   1      43.333  26.676  26.674  1.00  0.00     0.173 A 
ATOM     53  F   UNL A   1      40.888  24.542  28.306  1.00  0.00    -0.203 F 
ATOM     54  C   UNL A   1      42.240  24.136  26.424  1.00  0.00     0.198 A 
ATOM     55  C   UNL A   1      43.735  25.839  25.634  1.00  0.00     0.198 A 
ATOM     56  F   UNL A   1      43.872  27.901  26.767  1.00  0.00    -0.203 F 
ATOM     57  F   UNL A   1      41.731  22.901  26.326  1.00  0.00    -0.200 F 
ATOM     58  C   UNL A   1      43.195  24.567  25.516  1.00  0.00     0.200 A 
ATOM     59  F   UNL A   1      44.638  26.269  24.743  1.00  0.00    -0.200 F 
ATOM     60  F   UNL A   1      43.593  23.758  24.525  1.00  0.00    -0.200 F 
ENDBRANCH  26  50
BRANCH  38  61
ATOM     61  C   UNL A   1      45.006  27.632  33.896  1.00  0.00     0.064 A 
ATOM     62  C   UNL A   1      46.207  28.341  33.754  1.00  0.00     0.173 A 
ATOM     63  C   UNL A   1      45.015  26.463  34.672  1.00  0.00     0.173 A 
ATOM     64  F   UNL A   1      46.249  29.461  33.018  1.00  0.00    -0.203 F 
ATOM     65  C   UNL A   1      47.377  27.891  34.360  1.00  0.00     0.198 A 
ATOM     66  C   UNL A   1      46.181  26.031  35.297  1.00  0.00     0.198 A 
ATOM     67  F   UNL A   1      43.886  25.760  34.848  1.00  0.00    -0.203 F 
ATOM     68  F   UNL A   1      48.519  28.572  34.193  1.00  0.00    -0.200 F 
ATOM     69  C   UNL A   1      47.362  26.741  35.135  1.00  0.00     0.200 A 
ATOM     70  F   UNL A   1      46.160  24.935  36.066  1.00  0.00    -0.200 F 
ATOM     71  F   UNL A   1      48.484  26.320  35.732  1.00  0.00    -0.200 F 
ENDBRANCH  38  61
ENDBRANCH  12  13
ENDBRANCH   5   7
ENDBRANCH   2   3
ENDBRANCH   1   2
BRANCH   1  72
ATOM     72  C   UNL A   1      33.110  28.983  22.764  1.00  0.00     0.118 C 
BRANCH  72  73
ATOM     73  N   UNL A   1      33.414  27.774  22.012  1.00  0.00    -0.352 N 
ATOM     74  C   UNL A   1      33.059  26.471  22.260  1.00  0.00     0.256 C 
ATOM     75  H   UNL A   1      33.956  27.911  21.202  1.00  0.00     0.163 HD
ATOM     76  O   UNL A   1      33.576  25.567  21.608  1.00  0.00    -0.269 OA
BRANCH  74  77
ATOM     77  C   UNL A   1      32.116  26.129  23.342  1.00  0.00     0.099 A 
ATOM     78  C   UNL A   1      30.781  26.536  23.222  1.00  0.00     0.138 A 
ATOM     79  C   UNL A   1      32.547  25.395  24.471  1.00  0.00     0.057 A 
ATOM     80  F   UNL A   1      30.350  27.177  22.125  1.00  0.00    -0.206 F 
ATOM     81  C   UNL A   1      29.870  26.316  24.243  1.00  0.00     0.040 A 
ATOM     82  C   UNL A   1      31.593  25.144  25.465  1.00  0.00     0.027 A 
ATOM     83  C   UNL A   1      30.279  25.622  25.369  1.00  0.00     0.005 A 
BRANCH  79  84
ATOM     84  N   UNL A   1      33.895  24.945  24.523  1.00  0.00    -0.325 N 
ATOM     85  C   UNL A   1      34.523  23.729  24.476  1.00  0.00     0.227 C 
ATOM     86  H   UNL A   1      34.532  25.689  24.614  1.00  0.00     0.169 HD
ATOM     87  O   UNL A   1      35.758  23.722  24.469  1.00  0.00    -0.274 OA
BRANCH  85  88
ATOM     88  C   UNL A   1      33.742  22.425  24.483  1.00  0.00     0.079 C 
ATOM     89  C   UNL A   1      33.082  22.082  23.139  1.00  0.00     0.013 C 
ATOM     90  C   UNL A   1      34.635  21.248  24.896  1.00  0.00     0.013 C 
ATOM     91  C   UNL A   1      32.208  20.834  23.297  1.00  0.00     0.001 C 
ATOM     92  C   UNL A   1      33.787  20.000  25.114  1.00  0.00     0.001 C 
ATOM     93  C   UNL A   1      32.985  19.644  23.863  1.00  0.00     0.000 C 
ENDBRANCH  85  88
ENDBRANCH  79  84
ENDBRANCH  74  77
ENDBRANCH  72  73
ENDBRANCH   1  72
TORSDOF 12
ENDMDL
