MODEL 1
REMARK VINA RESULT:     -12.1      0.000      0.000
REMARK SMILES CC(C)CC[C@H](C(=O)NCCCNC(=O)c1ccc(-c2c3nc(c(-c4c(F)c(F)c(F)c(F)c4F)c4ccc([nH]4)c(-c4c(F)c(F)c(F)c(F)c4F)c4nc(c(-c5c(F)c(F)c(F)c(F)c5F)c5ccc2[nH]5)C=C4)C=C3)cc1)c1ccc(F)cc1
REMARK SMILES IDX 10 1 9 2 7 3 8 4 6 6 5 7 4 8 2 9 1 10 3 11 79 12 80 13 85 14
REMARK SMILES IDX 81 15 84 16 82 17 83 18 11 19 12 20 13 21 14 22 15 24 16 25
REMARK SMILES IDX 17 26 78 27 18 28 77 29 19 30 20 31 21 32 71 33 22 34 76 35
REMARK SMILES IDX 70 36 72 37 23 38 75 39 69 40 68 41 24 43 56 44 36 45 55 46
REMARK SMILES IDX 37 47 40 48 54 49 73 50 38 51 39 52 53 54 74 55 41 56 25 57
REMARK SMILES IDX 26 58 34 59 27 60 28 61 32 62 35 63 29 64 30 65 33 66 31 67
REMARK SMILES IDX 57 68 58 69 66 70 59 71 60 72 64 73 67 74 61 75 62 76 65 77
REMARK SMILES IDX 63 78 42 79 43 80 51 81 44 82 45 83 49 84 52 85 46 86 47 87
REMARK SMILES IDX 50 88 48 89
REMARK H PARENT 9 5 13 23 72 42 40 53
REMARK Flexibility Score: inf
ROOT
ATOM      1  C   UNL A   1      31.628  30.511  26.469  1.00  0.00     0.117 C 
ENDROOT
BRANCH   1   2
ATOM      2  N   UNL A   1      32.466  30.051  25.378  1.00  0.00    -0.356 N 
ATOM      3  C   UNL A   1      32.156  29.268  24.302  1.00  0.00     0.227 C 
ATOM      4  O   UNL A   1      33.051  29.091  23.472  1.00  0.00    -0.274 OA
ATOM      5  H   UNL A   1      33.404  30.349  25.419  1.00  0.00     0.163 HD
BRANCH   3   6
ATOM      6  C   UNL A   1      30.760  28.636  24.183  1.00  0.00     0.108 C 
BRANCH   6   7
ATOM      7  C   UNL A   1      29.962  29.012  22.900  1.00  0.00     0.018 C 
BRANCH   7   8
ATOM      8  C   UNL A   1      28.424  29.047  22.941  1.00  0.00     0.004 C 
BRANCH   8   9
ATOM      9  C   UNL A   1      27.751  30.395  22.653  1.00  0.00    -0.017 C 
ATOM     10  C   UNL A   1      28.217  31.461  23.645  1.00  0.00     0.007 C 
ATOM     11  C   UNL A   1      28.058  30.845  21.222  1.00  0.00     0.007 C 
ENDBRANCH   8   9
ENDBRANCH   7   8
ENDBRANCH   6   7
BRANCH   6  12
ATOM     12  C   UNL A   1      30.778  27.127  24.466  1.00  0.00    -0.035 A 
ATOM     13  C   UNL A   1      30.670  26.212  23.401  1.00  0.00     0.007 A 
ATOM     14  C   UNL A   1      30.873  26.609  25.768  1.00  0.00     0.007 A 
ATOM     15  C   UNL A   1      30.691  24.833  23.637  1.00  0.00     0.039 A 
ATOM     16  C   UNL A   1      30.898  25.235  26.005  1.00  0.00     0.039 A 
ATOM     17  C   UNL A   1      30.812  24.358  24.936  1.00  0.00     0.123 A 
ATOM     18  F   UNL A   1      30.841  23.038  25.161  1.00  0.00    -0.207 F 
ENDBRANCH   6  12
ENDBRANCH   3   6
ENDBRANCH   1   2
BRANCH   1  19
ATOM     19  C   UNL A   1      31.497  32.023  26.521  1.00  0.00     0.042 C 
BRANCH  19  20
ATOM     20  C   UNL A   1      32.633  32.733  27.245  1.00  0.00     0.118 C 
BRANCH  20  21
ATOM     21  N   UNL A   1      32.344  34.119  27.592  1.00  0.00    -0.352 N 
ATOM     22  C   UNL A   1      32.945  34.938  28.522  1.00  0.00     0.251 C 
ATOM     23  H   UNL A   1      31.608  34.531  27.086  1.00  0.00     0.163 HD
ATOM     24  O   UNL A   1      32.491  36.050  28.749  1.00  0.00    -0.269 OA
BRANCH  22  25
ATOM     25  C   UNL A   1      34.124  34.453  29.276  1.00  0.00     0.039 A 
ATOM     26  C   UNL A   1      33.931  33.832  30.512  1.00  0.00     0.014 A 
ATOM     27  C   UNL A   1      35.413  34.592  28.758  1.00  0.00     0.014 A 
ATOM     28  C   UNL A   1      35.022  33.277  31.186  1.00  0.00     0.010 A 
ATOM     29  C   UNL A   1      36.478  33.947  29.375  1.00  0.00     0.010 A 
ATOM     30  C   UNL A   1      36.298  33.293  30.602  1.00  0.00    -0.014 A 
BRANCH  30  31
ATOM     31  C   UNL A   1      37.471  32.666  31.267  1.00  0.00     0.031 A 
ATOM     32  C   UNL A   1      38.202  31.543  30.582  1.00  0.00     0.074 A 
ATOM     33  C   UNL A   1      37.827  33.046  32.511  1.00  0.00     0.049 A 
ATOM     34  N   UNL A   1      39.172  30.788  31.031  1.00  0.00    -0.248 NA
ATOM     35  C   UNL A   1      37.757  31.195  29.221  1.00  0.00     0.031 C 
ATOM     36  C   UNL A   1      37.161  34.080  33.307  1.00  0.00     0.029 A 
ATOM     37  N   UNL A   1      38.832  32.594  33.331  1.00  0.00    -0.354 N 
ATOM     38  C   UNL A   1      39.424  29.860  30.028  1.00  0.00     0.074 A 
ATOM     39  C   UNL A   1      38.472  30.110  28.969  1.00  0.00     0.031 C 
ATOM     40  C   UNL A   1      37.789  34.198  34.489  1.00  0.00     0.029 A 
ATOM     41  C   UNL A   1      38.877  33.227  34.550  1.00  0.00     0.049 A 
ATOM     42  H   UNL A   1      39.461  31.885  33.068  1.00  0.00     0.167 HD
ATOM     43  C   UNL A   1      40.383  28.906  29.980  1.00  0.00     0.037 A 
ATOM     44  C   UNL A   1      39.701  33.038  35.599  1.00  0.00     0.037 A 
ATOM     45  C   UNL A   1      41.367  28.700  31.008  1.00  0.00     0.049 A 
ATOM     46  C   UNL A   1      40.788  32.000  35.498  1.00  0.00     0.074 A 
ATOM     47  C   UNL A   1      42.425  27.808  31.023  1.00  0.00     0.029 A 
ATOM     48  N   UNL A   1      41.418  29.405  32.200  1.00  0.00    -0.354 N 
ATOM     49  N   UNL A   1      41.059  31.178  34.514  1.00  0.00    -0.248 NA
ATOM     50  C   UNL A   1      41.692  31.873  36.650  1.00  0.00     0.031 C 
ATOM     51  C   UNL A   1      43.098  27.950  32.240  1.00  0.00     0.029 A 
ATOM     52  C   UNL A   1      42.488  28.965  32.961  1.00  0.00     0.049 A 
ATOM     53  H   UNL A   1      40.790  30.115  32.465  1.00  0.00     0.167 HD
ATOM     54  C   UNL A   1      42.186  30.468  34.909  1.00  0.00     0.074 A 
ATOM     55  C   UNL A   1      42.553  30.963  36.218  1.00  0.00     0.031 C 
ATOM     56  C   UNL A   1      42.856  29.493  34.249  1.00  0.00     0.037 A 
BRANCH  43  57
ATOM     57  C   UNL A   1      40.430  28.022  28.767  1.00  0.00     0.064 A 
ATOM     58  C   UNL A   1      41.186  28.365  27.636  1.00  0.00     0.173 A 
ATOM     59  C   UNL A   1      39.753  26.794  28.757  1.00  0.00     0.173 A 
ATOM     60  F   UNL A   1      41.840  29.535  27.590  1.00  0.00    -0.203 F 
ATOM     61  C   UNL A   1      41.243  27.521  26.530  1.00  0.00     0.198 A 
ATOM     62  C   UNL A   1      39.838  25.938  27.661  1.00  0.00     0.198 A 
ATOM     63  F   UNL A   1      39.019  26.415  29.814  1.00  0.00    -0.203 F 
ATOM     64  F   UNL A   1      41.936  27.889  25.444  1.00  0.00    -0.200 F 
ATOM     65  C   UNL A   1      40.578  26.305  26.548  1.00  0.00     0.200 A 
ATOM     66  F   UNL A   1      39.205  24.756  27.685  1.00  0.00    -0.200 F 
ATOM     67  F   UNL A   1      40.646  25.487  25.488  1.00  0.00    -0.200 F 
ENDBRANCH  43  57
BRANCH  44  68
ATOM     68  C   UNL A   1      39.559  33.867  36.826  1.00  0.00     0.064 A 
ATOM     69  C   UNL A   1      38.803  33.414  37.918  1.00  0.00     0.173 A 
ATOM     70  C   UNL A   1      40.144  35.138  36.922  1.00  0.00     0.173 A 
ATOM     71  F   UNL A   1      38.208  32.213  37.866  1.00  0.00    -0.203 F 
ATOM     72  C   UNL A   1      38.609  34.213  39.041  1.00  0.00     0.198 A 
ATOM     73  C   UNL A   1      39.975  35.923  38.060  1.00  0.00     0.198 A 
ATOM     74  F   UNL A   1      40.884  35.615  35.910  1.00  0.00    -0.203 F 
ATOM     75  F   UNL A   1      37.832  33.779  40.043  1.00  0.00    -0.200 F 
ATOM     76  C   UNL A   1      39.197  35.466  39.113  1.00  0.00     0.200 A 
ATOM     77  F   UNL A   1      40.557  37.128  38.132  1.00  0.00    -0.200 F 
ATOM     78  F   UNL A   1      39.006  36.237  40.193  1.00  0.00    -0.200 F 
ENDBRANCH  44  68
BRANCH  56  79
ATOM     79  C   UNL A   1      44.092  28.943  34.897  1.00  0.00     0.064 A 
ATOM     80  C   UNL A   1      44.048  27.828  35.746  1.00  0.00     0.173 A 
ATOM     81  C   UNL A   1      45.343  29.520  34.630  1.00  0.00     0.173 A 
ATOM     82  F   UNL A   1      42.874  27.250  36.043  1.00  0.00    -0.203 F 
ATOM     83  C   UNL A   1      45.210  27.328  36.327  1.00  0.00     0.198 A 
ATOM     84  C   UNL A   1      46.505  28.997  35.187  1.00  0.00     0.198 A 
ATOM     85  F   UNL A   1      45.438  30.583  33.817  1.00  0.00    -0.203 F 
ATOM     86  F   UNL A   1      45.140  26.292  37.175  1.00  0.00    -0.200 F 
ATOM     87  C   UNL A   1      46.438  27.907  36.042  1.00  0.00     0.200 A 
ATOM     88  F   UNL A   1      47.693  29.549  34.898  1.00  0.00    -0.200 F 
ATOM     89  F   UNL A   1      47.555  27.419  36.596  1.00  0.00    -0.200 F 
ENDBRANCH  56  79
ENDBRANCH  30  31
ENDBRANCH  22  25
ENDBRANCH  20  21
ENDBRANCH  19  20
ENDBRANCH   1  19
TORSDOF 14
ENDMDL
MODEL 2
REMARK VINA RESULT:     -12.0      6.182     11.559
REMARK SMILES CC(C)CC[C@H](C(=O)NCCCNC(=O)c1ccc(-c2c3nc(c(-c4c(F)c(F)c(F)c(F)c4F)c4ccc([nH]4)c(-c4c(F)c(F)c(F)c(F)c4F)c4nc(c(-c5c(F)c(F)c(F)c(F)c5F)c5ccc2[nH]5)C=C4)C=C3)cc1)c1ccc(F)cc1
REMARK SMILES IDX 10 1 9 2 7 3 8 4 6 6 5 7 4 8 2 9 1 10 3 11 79 12 80 13 85 14
REMARK SMILES IDX 81 15 84 16 82 17 83 18 11 19 12 20 13 21 14 22 15 24 16 25
REMARK SMILES IDX 17 26 78 27 18 28 77 29 19 30 20 31 21 32 71 33 22 34 76 35
REMARK SMILES IDX 70 36 72 37 23 38 75 39 69 40 68 41 24 43 56 44 36 45 55 46
REMARK SMILES IDX 37 47 40 48 54 49 73 50 38 51 39 52 53 54 74 55 41 56 25 57
REMARK SMILES IDX 26 58 34 59 27 60 28 61 32 62 35 63 29 64 30 65 33 66 31 67
REMARK SMILES IDX 57 68 58 69 66 70 59 71 60 72 64 73 67 74 61 75 62 76 65 77
REMARK SMILES IDX 63 78 42 79 43 80 51 81 44 82 45 83 49 84 52 85 46 86 47 87
REMARK SMILES IDX 50 88 48 89
REMARK H PARENT 9 5 13 23 72 42 40 53
REMARK Flexibility Score: inf
ROOT
ATOM      1  C   UNL A   1      36.977  20.945  24.725  1.00  0.00     0.117 C 
ENDROOT
BRANCH   1   2
ATOM      2  N   UNL A   1      36.234  21.378  25.893  1.00  0.00    -0.356 N 
ATOM      3  C   UNL A   1      34.897  21.300  26.162  1.00  0.00     0.227 C 
ATOM      4  O   UNL A   1      34.536  21.677  27.280  1.00  0.00    -0.274 OA
ATOM      5  H   UNL A   1      36.777  21.792  26.602  1.00  0.00     0.163 HD
BRANCH   3   6
ATOM      6  C   UNL A   1      33.921  20.788  25.091  1.00  0.00     0.108 C 
BRANCH   6   7
ATOM      7  C   UNL A   1      32.920  19.693  25.565  1.00  0.00     0.018 C 
BRANCH   7   8
ATOM      8  C   UNL A   1      33.089  18.242  25.079  1.00  0.00     0.004 C 
BRANCH   8   9
ATOM      9  C   UNL A   1      33.513  18.043  23.619  1.00  0.00    -0.017 C 
ATOM     10  C   UNL A   1      34.030  16.623  23.389  1.00  0.00     0.007 C 
ATOM     11  C   UNL A   1      32.336  18.326  22.682  1.00  0.00     0.007 C 
ENDBRANCH   8   9
ENDBRANCH   7   8
ENDBRANCH   6   7
BRANCH   6  12
ATOM     12  C   UNL A   1      33.248  21.933  24.321  1.00  0.00    -0.035 A 
ATOM     13  C   UNL A   1      31.924  22.300  24.626  1.00  0.00     0.007 A 
ATOM     14  C   UNL A   1      33.900  22.626  23.288  1.00  0.00     0.007 A 
ATOM     15  C   UNL A   1      31.294  23.345  23.941  1.00  0.00     0.039 A 
ATOM     16  C   UNL A   1      33.275  23.671  22.607  1.00  0.00     0.039 A 
ATOM     17  C   UNL A   1      31.979  24.025  22.942  1.00  0.00     0.123 A 
ATOM     18  F   UNL A   1      31.380  25.031  22.292  1.00  0.00    -0.207 F 
ENDBRANCH   6  12
ENDBRANCH   3   6
ENDBRANCH   1   2
BRANCH   1  19
ATOM     19  C   UNL A   1      37.923  19.794  25.014  1.00  0.00     0.042 C 
BRANCH  19  20
ATOM     20  C   UNL A   1      39.200  20.192  25.742  1.00  0.00     0.118 C 
BRANCH  20  21
ATOM     21  N   UNL A   1      40.187  19.124  25.840  1.00  0.00    -0.352 N 
ATOM     22  C   UNL A   1      41.539  19.194  26.097  1.00  0.00     0.251 C 
ATOM     23  H   UNL A   1      39.835  18.215  25.701  1.00  0.00     0.163 HD
ATOM     24  O   UNL A   1      42.231  18.187  26.034  1.00  0.00    -0.269 OA
BRANCH  22  25
ATOM     25  C   UNL A   1      42.160  20.499  26.414  1.00  0.00     0.039 A 
ATOM     26  C   UNL A   1      42.640  21.294  25.370  1.00  0.00     0.014 A 
ATOM     27  C   UNL A   1      42.252  20.948  27.733  1.00  0.00     0.014 A 
ATOM     28  C   UNL A   1      43.134  22.573  25.644  1.00  0.00     0.010 A 
ATOM     29  C   UNL A   1      42.641  22.257  27.991  1.00  0.00     0.010 A 
ATOM     30  C   UNL A   1      43.099  23.081  26.952  1.00  0.00    -0.014 A 
BRANCH  30  31
ATOM     31  C   UNL A   1      43.568  24.455  27.270  1.00  0.00     0.031 A 
ATOM     32  C   UNL A   1      42.594  25.465  27.819  1.00  0.00     0.074 A 
ATOM     33  C   UNL A   1      44.836  24.819  26.994  1.00  0.00     0.049 A 
ATOM     34  N   UNL A   1      42.766  26.740  28.056  1.00  0.00    -0.248 NA
ATOM     35  C   UNL A   1      41.231  24.984  28.102  1.00  0.00     0.031 C 
ATOM     36  C   UNL A   1      45.860  23.952  26.404  1.00  0.00     0.029 A 
ATOM     37  N   UNL A   1      45.478  26.022  27.160  1.00  0.00    -0.354 N 
ATOM     38  C   UNL A   1      41.532  27.215  28.478  1.00  0.00     0.074 A 
ATOM     39  C   UNL A   1      40.605  26.108  28.415  1.00  0.00     0.031 C 
ATOM     40  C   UNL A   1      47.004  24.644  26.280  1.00  0.00     0.029 A 
ATOM     41  C   UNL A   1      46.788  26.011  26.745  1.00  0.00     0.049 A 
ATOM     42  H   UNL A   1      45.040  26.816  27.541  1.00  0.00     0.167 HD
ATOM     43  C   UNL A   1      41.206  28.457  28.910  1.00  0.00     0.037 A 
ATOM     44  C   UNL A   1      47.707  26.996  26.737  1.00  0.00     0.037 A 
ATOM     45  C   UNL A   1      42.144  29.540  29.031  1.00  0.00     0.049 A 
ATOM     46  C   UNL A   1      47.328  28.354  27.267  1.00  0.00     0.074 A 
ATOM     47  C   UNL A   1      41.931  30.814  29.525  1.00  0.00     0.029 A 
ATOM     48  N   UNL A   1      43.478  29.469  28.661  1.00  0.00    -0.354 N 
ATOM     49  N   UNL A   1      46.174  28.771  27.730  1.00  0.00    -0.248 NA
ATOM     50  C   UNL A   1      48.384  29.377  27.286  1.00  0.00     0.031 C 
ATOM     51  C   UNL A   1      43.129  31.528  29.424  1.00  0.00     0.029 A 
ATOM     52  C   UNL A   1      44.100  30.681  28.912  1.00  0.00     0.049 A 
ATOM     53  H   UNL A   1      43.918  28.676  28.279  1.00  0.00     0.167 HD
ATOM     54  C   UNL A   1      46.376  30.085  28.132  1.00  0.00     0.074 A 
ATOM     55  C   UNL A   1      47.765  30.393  27.867  1.00  0.00     0.031 C 
ATOM     56  C   UNL A   1      45.492  30.958  28.671  1.00  0.00     0.037 A 
BRANCH  43  57
ATOM     57  C   UNL A   1      39.780  28.707  29.306  1.00  0.00     0.064 A 
ATOM     58  C   UNL A   1      39.332  28.495  30.617  1.00  0.00     0.173 A 
ATOM     59  C   UNL A   1      38.864  29.216  28.373  1.00  0.00     0.173 A 
ATOM     60  F   UNL A   1      40.164  27.996  31.543  1.00  0.00    -0.203 F 
ATOM     61  C   UNL A   1      38.013  28.760  30.976  1.00  0.00     0.198 A 
ATOM     62  C   UNL A   1      37.553  29.510  28.744  1.00  0.00     0.198 A 
ATOM     63  F   UNL A   1      39.241  29.443  27.106  1.00  0.00    -0.203 F 
ATOM     64  F   UNL A   1      37.596  28.508  32.225  1.00  0.00    -0.200 F 
ATOM     65  C   UNL A   1      37.128  29.277  30.043  1.00  0.00     0.200 A 
ATOM     66  F   UNL A   1      36.702  30.023  27.843  1.00  0.00    -0.200 F 
ATOM     67  F   UNL A   1      35.862  29.545  30.393  1.00  0.00    -0.200 F 
ENDBRANCH  43  57
BRANCH  44  68
ATOM     68  C   UNL A   1      49.085  26.735  26.243  1.00  0.00     0.064 A 
ATOM     69  C   UNL A   1      49.437  27.010  24.913  1.00  0.00     0.173 A 
ATOM     70  C   UNL A   1      50.067  26.178  27.074  1.00  0.00     0.173 A 
ATOM     71  F   UNL A   1      48.527  27.526  24.074  1.00  0.00    -0.203 F 
ATOM     72  C   UNL A   1      50.705  26.705  24.425  1.00  0.00     0.198 A 
ATOM     73  C   UNL A   1      51.345  25.901  26.592  1.00  0.00     0.198 A 
ATOM     74  F   UNL A   1      49.785  25.903  28.357  1.00  0.00    -0.203 F 
ATOM     75  F   UNL A   1      50.994  26.921  23.135  1.00  0.00    -0.200 F 
ATOM     76  C   UNL A   1      51.659  26.153  25.265  1.00  0.00     0.200 A 
ATOM     77  F   UNL A   1      52.269  25.382  27.412  1.00  0.00    -0.200 F 
ATOM     78  F   UNL A   1      52.878  25.854  24.795  1.00  0.00    -0.200 F 
ENDBRANCH  44  68
BRANCH  56  79
ATOM     79  C   UNL A   1      46.011  32.307  29.073  1.00  0.00     0.064 A 
ATOM     80  C   UNL A   1      46.558  32.540  30.342  1.00  0.00     0.173 A 
ATOM     81  C   UNL A   1      45.995  33.370  28.156  1.00  0.00     0.173 A 
ATOM     82  F   UNL A   1      46.583  31.560  31.258  1.00  0.00    -0.203 F 
ATOM     83  C   UNL A   1      47.045  33.798  30.689  1.00  0.00     0.198 A 
ATOM     84  C   UNL A   1      46.513  34.615  28.495  1.00  0.00     0.198 A 
ATOM     85  F   UNL A   1      45.490  33.194  26.925  1.00  0.00    -0.203 F 
ATOM     86  F   UNL A   1      47.519  34.013  31.924  1.00  0.00    -0.200 F 
ATOM     87  C   UNL A   1      47.029  34.832  29.764  1.00  0.00     0.200 A 
ATOM     88  F   UNL A   1      46.510  35.609  27.595  1.00  0.00    -0.200 F 
ATOM     89  F   UNL A   1      47.506  36.038  30.098  1.00  0.00    -0.200 F 
ENDBRANCH  56  79
ENDBRANCH  30  31
ENDBRANCH  22  25
ENDBRANCH  20  21
ENDBRANCH  19  20
ENDBRANCH   1  19
TORSDOF 14
ENDMDL
MODEL 3
REMARK VINA RESULT:     -11.9      0.691      7.701
REMARK SMILES CC(C)CC[C@H](C(=O)NCCCNC(=O)c1ccc(-c2c3nc(c(-c4c(F)c(F)c(F)c(F)c4F)c4ccc([nH]4)c(-c4c(F)c(F)c(F)c(F)c4F)c4nc(c(-c5c(F)c(F)c(F)c(F)c5F)c5ccc2[nH]5)C=C4)C=C3)cc1)c1ccc(F)cc1
REMARK SMILES IDX 10 1 9 2 7 3 8 4 6 6 5 7 4 8 2 9 1 10 3 11 79 12 80 13 85 14
REMARK SMILES IDX 81 15 84 16 82 17 83 18 11 19 12 20 13 21 14 22 15 24 16 25
REMARK SMILES IDX 17 26 78 27 18 28 77 29 19 30 20 31 21 32 71 33 22 34 76 35
REMARK SMILES IDX 70 36 72 37 23 38 75 39 69 40 68 41 24 43 56 44 36 45 55 46
REMARK SMILES IDX 37 47 40 48 54 49 73 50 38 51 39 52 53 54 74 55 41 56 25 57
REMARK SMILES IDX 26 58 34 59 27 60 28 61 32 62 35 63 29 64 30 65 33 66 31 67
REMARK SMILES IDX 57 68 58 69 66 70 59 71 60 72 64 73 67 74 61 75 62 76 65 77
REMARK SMILES IDX 63 78 42 79 43 80 51 81 44 82 45 83 49 84 52 85 46 86 47 87
REMARK SMILES IDX 50 88 48 89
REMARK H PARENT 9 5 13 23 72 42 40 53
REMARK Flexibility Score: inf
ROOT
ATOM      1  C   UNL A   1      31.491  30.418  26.351  1.00  0.00     0.117 C 
ENDROOT
BRANCH   1   2
ATOM      2  N   UNL A   1      32.320  30.023  25.228  1.00  0.00    -0.356 N 
ATOM      3  C   UNL A   1      32.019  29.249  24.143  1.00  0.00     0.227 C 
ATOM      4  O   UNL A   1      32.899  29.134  23.287  1.00  0.00    -0.274 OA
ATOM      5  H   UNL A   1      33.243  30.366  25.251  1.00  0.00     0.163 HD
BRANCH   3   6
ATOM      6  C   UNL A   1      30.653  28.552  24.047  1.00  0.00     0.108 C 
BRANCH   6   7
ATOM      7  C   UNL A   1      29.861  28.812  22.732  1.00  0.00     0.018 C 
BRANCH   7   8
ATOM      8  C   UNL A   1      28.336  29.019  22.787  1.00  0.00     0.004 C 
BRANCH   8   9
ATOM      9  C   UNL A   1      27.824  30.457  22.644  1.00  0.00    -0.017 C 
ATOM     10  C   UNL A   1      28.537  31.391  23.622  1.00  0.00     0.007 C 
ATOM     11  C   UNL A   1      28.028  30.952  21.209  1.00  0.00     0.007 C 
ENDBRANCH   8   9
ENDBRANCH   7   8
ENDBRANCH   6   7
BRANCH   6  12
ATOM     12  C   UNL A   1      30.729  27.066  24.425  1.00  0.00    -0.035 A 
ATOM     13  C   UNL A   1      31.000  26.693  25.755  1.00  0.00     0.007 A 
ATOM     14  C   UNL A   1      30.561  26.042  23.478  1.00  0.00     0.007 A 
ATOM     15  C   UNL A   1      31.066  25.344  26.122  1.00  0.00     0.039 A 
ATOM     16  C   UNL A   1      30.622  24.697  23.842  1.00  0.00     0.039 A 
ATOM     17  C   UNL A   1      30.869  24.359  25.163  1.00  0.00     0.123 A 
ATOM     18  F   UNL A   1      30.923  23.068  25.515  1.00  0.00    -0.207 F 
ENDBRANCH   6  12
ENDBRANCH   3   6
ENDBRANCH   1   2
BRANCH   1  19
ATOM     19  C   UNL A   1      31.419  31.923  26.537  1.00  0.00     0.042 C 
BRANCH  19  20
ATOM     20  C   UNL A   1      32.666  32.546  27.148  1.00  0.00     0.118 C 
BRANCH  20  21
ATOM     21  N   UNL A   1      32.507  33.942  27.535  1.00  0.00    -0.352 N 
ATOM     22  C   UNL A   1      33.174  34.673  28.494  1.00  0.00     0.251 C 
ATOM     23  H   UNL A   1      31.817  34.438  27.037  1.00  0.00     0.163 HD
ATOM     24  O   UNL A   1      32.824  35.817  28.750  1.00  0.00    -0.269 OA
BRANCH  22  25
ATOM     25  C   UNL A   1      34.294  34.058  29.240  1.00  0.00     0.039 A 
ATOM     26  C   UNL A   1      34.016  33.076  30.194  1.00  0.00     0.014 A 
ATOM     27  C   UNL A   1      35.615  34.430  28.987  1.00  0.00     0.014 A 
ATOM     28  C   UNL A   1      35.067  32.412  30.832  1.00  0.00     0.010 A 
ATOM     29  C   UNL A   1      36.658  33.697  29.540  1.00  0.00     0.010 A 
ATOM     30  C   UNL A   1      36.397  32.687  30.478  1.00  0.00    -0.014 A 
BRANCH  30  31
ATOM     31  C   UNL A   1      37.538  31.963  31.098  1.00  0.00     0.031 A 
ATOM     32  C   UNL A   1      37.988  32.335  32.487  1.00  0.00     0.074 A 
ATOM     33  C   UNL A   1      38.216  31.037  30.391  1.00  0.00     0.049 A 
ATOM     34  N   UNL A   1      39.025  31.911  33.164  1.00  0.00    -0.248 NA
ATOM     35  C   UNL A   1      37.188  33.349  33.194  1.00  0.00     0.031 C 
ATOM     36  C   UNL A   1      37.919  30.631  29.016  1.00  0.00     0.029 A 
ATOM     37  N   UNL A   1      39.309  30.278  30.730  1.00  0.00    -0.354 N 
ATOM     38  C   UNL A   1      39.018  32.630  34.352  1.00  0.00     0.074 A 
ATOM     39  C   UNL A   1      37.909  33.554  34.284  1.00  0.00     0.031 C 
ATOM     40  C   UNL A   1      38.791  29.683  28.638  1.00  0.00     0.029 A 
ATOM     41  C   UNL A   1      39.731  29.438  29.728  1.00  0.00     0.049 A 
ATOM     42  H   UNL A   1      39.748  30.329  31.610  1.00  0.00     0.167 HD
ATOM     43  C   UNL A   1      39.844  32.509  35.418  1.00  0.00     0.037 A 
ATOM     44  C   UNL A   1      40.765  28.575  29.692  1.00  0.00     0.037 A 
ATOM     45  C   UNL A   1      40.908  31.546  35.508  1.00  0.00     0.049 A 
ATOM     46  C   UNL A   1      41.639  28.429  30.910  1.00  0.00     0.074 A 
ATOM     47  C   UNL A   1      41.755  31.294  36.573  1.00  0.00     0.029 A 
ATOM     48  N   UNL A   1      41.263  30.669  34.495  1.00  0.00    -0.354 N 
ATOM     49  N   UNL A   1      41.577  29.065  32.055  1.00  0.00    -0.248 NA
ATOM     50  C   UNL A   1      42.718  27.434  30.837  1.00  0.00     0.031 C 
ATOM     51  C   UNL A   1      42.646  30.286  36.191  1.00  0.00     0.029 A 
ATOM     52  C   UNL A   1      42.321  29.877  34.907  1.00  0.00     0.049 A 
ATOM     53  H   UNL A   1      40.826  30.616  33.614  1.00  0.00     0.167 HD
ATOM     54  C   UNL A   1      42.578  28.520  32.849  1.00  0.00     0.074 A 
ATOM     55  C   UNL A   1      43.226  27.495  32.059  1.00  0.00     0.031 C 
ATOM     56  C   UNL A   1      42.931  28.840  34.117  1.00  0.00     0.037 A 
BRANCH  43  57
ATOM     57  C   UNL A   1      39.618  33.425  36.585  1.00  0.00     0.064 A 
ATOM     58  C   UNL A   1      38.763  33.077  37.641  1.00  0.00     0.173 A 
ATOM     59  C   UNL A   1      40.306  34.645  36.674  1.00  0.00     0.173 A 
ATOM     60  F   UNL A   1      38.071  31.928  37.597  1.00  0.00    -0.203 F 
ATOM     61  C   UNL A   1      38.586  33.924  38.731  1.00  0.00     0.198 A 
ATOM     62  C   UNL A   1      40.151  35.476  37.781  1.00  0.00     0.198 A 
ATOM     63  F   UNL A   1      41.140  35.025  35.695  1.00  0.00    -0.203 F 
ATOM     64  F   UNL A   1      37.730  33.589  39.706  1.00  0.00    -0.200 F 
ATOM     65  C   UNL A   1      39.287  35.118  38.805  1.00  0.00     0.200 A 
ATOM     66  F   UNL A   1      40.840  36.624  37.857  1.00  0.00    -0.200 F 
ATOM     67  F   UNL A   1      39.127  35.927  39.862  1.00  0.00    -0.200 F 
ENDBRANCH  43  57
BRANCH  44  68
ATOM     68  C   UNL A   1      41.018  27.754  28.478  1.00  0.00     0.064 A 
ATOM     69  C   UNL A   1      41.880  28.208  27.468  1.00  0.00     0.173 A 
ATOM     70  C   UNL A   1      40.383  26.519  28.284  1.00  0.00     0.173 A 
ATOM     71  F   UNL A   1      42.497  29.392  27.599  1.00  0.00    -0.203 F 
ATOM     72  C   UNL A   1      42.069  27.477  26.298  1.00  0.00     0.198 A 
ATOM     73  C   UNL A   1      40.596  25.774  27.126  1.00  0.00     0.198 A 
ATOM     74  F   UNL A   1      39.555  26.035  29.222  1.00  0.00    -0.203 F 
ATOM     75  F   UNL A   1      42.849  27.965  25.324  1.00  0.00    -0.200 F 
ATOM     76  C   UNL A   1      41.429  26.260  26.128  1.00  0.00     0.200 A 
ATOM     77  F   UNL A   1      39.988  24.591  26.973  1.00  0.00    -0.200 F 
ATOM     78  F   UNL A   1      41.606  25.558  25.000  1.00  0.00    -0.200 F 
ENDBRANCH  44  68
BRANCH  56  79
ATOM     79  C   UNL A   1      44.022  28.031  34.756  1.00  0.00     0.064 A 
ATOM     80  C   UNL A   1      45.363  28.433  34.710  1.00  0.00     0.173 A 
ATOM     81  C   UNL A   1      43.708  26.857  35.458  1.00  0.00     0.173 A 
ATOM     82  F   UNL A   1      45.715  29.541  34.039  1.00  0.00    -0.203 F 
ATOM     83  C   UNL A   1      46.358  27.673  35.320  1.00  0.00     0.198 A 
ATOM     84  C   UNL A   1      44.700  26.118  36.094  1.00  0.00     0.198 A 
ATOM     85  F   UNL A   1      42.437  26.436  35.539  1.00  0.00    -0.203 F 
ATOM     86  F   UNL A   1      47.640  28.048  35.222  1.00  0.00    -0.200 F 
ATOM     87  C   UNL A   1      46.025  26.521  36.018  1.00  0.00     0.200 A 
ATOM     88  F   UNL A   1      44.374  25.013  36.781  1.00  0.00    -0.200 F 
ATOM     89  F   UNL A   1      46.981  25.795  36.611  1.00  0.00    -0.200 F 
ENDBRANCH  56  79
ENDBRANCH  30  31
ENDBRANCH  22  25
ENDBRANCH  20  21
ENDBRANCH  19  20
ENDBRANCH   1  19
TORSDOF 14
ENDMDL
