MODEL 1
REMARK VINA RESULT:     -12.2      0.000      0.000
REMARK SMILES Cc1cc(N2CC[C@H](CC(=O)NCCCNC(=O)c3ccc(-c4c5nc(c(-c6c(F)c(F)c(F)c(F)c6F)c6ccc([nH]6)c(-c6c(F)c(F)c(F)c(F)c6F)c6nc(c(-c7c(F)c(F)c(F)c(F)c7F)c7ccc4[nH]7)C=C6)C=C5)cc3)C2)ncc1[N+](=O)[O-]
REMARK SMILES IDX 13 1 12 2 10 3 11 4 9 6 8 7 5 8 6 9 82 10 7 11 4 12 1 13
REMARK SMILES IDX 2 14 3 15 85 16 84 17 83 18 86 19 87 20 88 21 14 22 15 23
REMARK SMILES IDX 16 24 17 25 18 27 19 28 20 29 81 30 21 31 80 32 22 33 23 34
REMARK SMILES IDX 24 35 74 36 25 37 79 38 73 39 75 40 26 41 78 42 72 43 71 44
REMARK SMILES IDX 27 46 59 47 39 48 58 49 40 50 43 51 57 52 76 53 41 54 42 55
REMARK SMILES IDX 56 57 77 58 44 59 28 60 29 61 37 62 30 63 31 64 35 65 38 66
REMARK SMILES IDX 32 67 33 68 36 69 34 70 60 71 61 72 69 73 62 74 63 75 67 76
REMARK SMILES IDX 70 77 64 78 65 79 68 80 66 81 45 82 46 83 54 84 47 85 48 86
REMARK SMILES IDX 52 87 55 88 49 89 50 90 53 91 51 92
REMARK H PARENT 12 5 16 26 75 45 43 56
REMARK Flexibility Score: inf
ROOT
ATOM      1  C   UNL A   1      31.165  30.579  25.544  1.00  0.00     0.117 C 
ENDROOT
BRANCH   1   2
ATOM      2  N   UNL A   1      30.514  30.520  24.242  1.00  0.00    -0.356 N 
ATOM      3  C   UNL A   1      30.177  29.455  23.461  1.00  0.00     0.220 C 
ATOM      4  O   UNL A   1      29.690  29.680  22.352  1.00  0.00    -0.275 OA
ATOM      5  H   UNL A   1      30.277  31.396  23.863  1.00  0.00     0.163 HD
BRANCH   3   6
ATOM      6  C   UNL A   1      30.399  28.033  23.935  1.00  0.00     0.105 C 
BRANCH   6   7
ATOM      7  C   UNL A   1      31.060  27.149  22.877  1.00  0.00     0.019 C 
ATOM      8  N   UNL A   1      32.317  25.161  22.622  1.00  0.00    -0.356 N 
ATOM      9  C   UNL A   1      33.147  26.226  22.084  1.00  0.00     0.118 C 
ATOM     10  C   UNL A   1      31.138  25.679  23.311  1.00  0.00     0.122 C 
ATOM     11  C   UNL A   1      32.523  27.496  22.629  1.00  0.00     0.027 C 
BRANCH   8  12
ATOM     12  C   UNL A   1      32.979  24.105  23.218  1.00  0.00     0.129 A 
ATOM     13  C   UNL A   1      36.538  22.868  23.204  1.00  0.00     0.052 C 
ATOM     14  C   UNL A   1      35.083  22.927  23.561  1.00  0.00     0.032 A 
ATOM     15  C   UNL A   1      34.320  23.905  22.902  1.00  0.00     0.057 A 
ATOM     16  C   UNL A   1      34.414  22.126  24.495  1.00  0.00     0.290 A 
ATOM     17  C   UNL A   1      33.066  22.368  24.743  1.00  0.00     0.199 A 
ATOM     18  N   UNL A   1      32.346  23.342  24.131  1.00  0.00    -0.232 NA
BRANCH  16  19
ATOM     19  N   UNL A   1      35.041  21.042  25.241  1.00  0.00     0.064 N 
ATOM     20  O   UNL A   1      35.554  21.326  26.332  1.00  0.00    -0.258 OA
ATOM     21  O   UNL A   1      34.996  19.901  24.765  1.00  0.00    -0.258 OA
ENDBRANCH  16  19
ENDBRANCH   8  12
ENDBRANCH   6   7
ENDBRANCH   3   6
ENDBRANCH   1   2
BRANCH   1  22
ATOM     22  C   UNL A   1      31.103  31.983  26.145  1.00  0.00     0.042 C 
BRANCH  22  23
ATOM     23  C   UNL A   1      32.328  32.369  26.960  1.00  0.00     0.118 C 
BRANCH  23  24
ATOM     24  N   UNL A   1      32.304  33.770  27.344  1.00  0.00    -0.352 N 
ATOM     25  C   UNL A   1      33.014  34.438  28.312  1.00  0.00     0.251 C 
ATOM     26  H   UNL A   1      31.679  34.329  26.829  1.00  0.00     0.163 HD
ATOM     27  O   UNL A   1      32.670  35.574  28.627  1.00  0.00    -0.269 OA
BRANCH  25  28
ATOM     28  C   UNL A   1      34.178  33.815  28.995  1.00  0.00     0.039 A 
ATOM     29  C   UNL A   1      35.457  34.315  28.723  1.00  0.00     0.014 A 
ATOM     30  C   UNL A   1      34.040  32.710  29.838  1.00  0.00     0.014 A 
ATOM     31  C   UNL A   1      36.580  33.740  29.328  1.00  0.00     0.010 A 
ATOM     32  C   UNL A   1      35.150  32.194  30.508  1.00  0.00     0.010 A 
ATOM     33  C   UNL A   1      36.436  32.691  30.248  1.00  0.00    -0.014 A 
BRANCH  33  34
ATOM     34  C   UNL A   1      37.615  32.082  30.920  1.00  0.00     0.031 A 
ATOM     35  C   UNL A   1      38.436  31.036  30.212  1.00  0.00     0.074 A 
ATOM     36  C   UNL A   1      37.921  32.426  32.186  1.00  0.00     0.049 A 
ATOM     37  N   UNL A   1      39.450  30.335  30.655  1.00  0.00    -0.248 NA
ATOM     38  C   UNL A   1      38.048  30.716  28.829  1.00  0.00     0.031 C 
ATOM     39  C   UNL A   1      37.186  33.396  33.000  1.00  0.00     0.029 A 
ATOM     40  N   UNL A   1      38.925  31.991  33.017  1.00  0.00    -0.354 N 
ATOM     41  C   UNL A   1      39.804  29.482  29.618  1.00  0.00     0.074 A 
ATOM     42  C   UNL A   1      38.868  29.716  28.540  1.00  0.00     0.031 C 
ATOM     43  C   UNL A   1      37.775  33.497  34.202  1.00  0.00     0.029 A 
ATOM     44  C   UNL A   1      38.903  32.572  34.261  1.00  0.00     0.049 A 
ATOM     45  H   UNL A   1      39.597  31.324  32.746  1.00  0.00     0.167 HD
ATOM     46  C   UNL A   1      40.831  28.600  29.557  1.00  0.00     0.037 A 
ATOM     47  C   UNL A   1      39.697  32.377  35.332  1.00  0.00     0.037 A 
ATOM     48  C   UNL A   1      41.786  28.393  30.614  1.00  0.00     0.049 A 
ATOM     49  C   UNL A   1      40.829  31.390  35.241  1.00  0.00     0.074 A 
ATOM     50  C   UNL A   1      42.900  27.572  30.623  1.00  0.00     0.029 A 
ATOM     51  N   UNL A   1      41.739  29.015  31.853  1.00  0.00    -0.354 N 
ATOM     52  N   UNL A   1      41.191  30.636  34.231  1.00  0.00    -0.248 NA
ATOM     53  C   UNL A   1      41.667  31.231  36.438  1.00  0.00     0.031 C 
ATOM     54  C   UNL A   1      43.501  27.662  31.883  1.00  0.00     0.029 A 
ATOM     55  C   UNL A   1      42.791  28.577  32.643  1.00  0.00     0.049 A 
ATOM     56  H   UNL A   1      41.058  29.670  32.132  1.00  0.00     0.167 HD
ATOM     57  C   UNL A   1      42.310  29.936  34.660  1.00  0.00     0.074 A 
ATOM     58  C   UNL A   1      42.578  30.364  36.017  1.00  0.00     0.031 C 
ATOM     59  C   UNL A   1      43.050  29.019  33.988  1.00  0.00     0.037 A 
BRANCH  46  60
ATOM     60  C   UNL A   1      40.982  27.792  28.301  1.00  0.00     0.064 A 
ATOM     61  C   UNL A   1      41.769  28.238  27.228  1.00  0.00     0.173 A 
ATOM     62  C   UNL A   1      40.366  26.537  28.183  1.00  0.00     0.173 A 
ATOM     63  F   UNL A   1      42.372  29.435  27.284  1.00  0.00    -0.203 F 
ATOM     64  C   UNL A   1      41.906  27.473  26.072  1.00  0.00     0.198 A 
ATOM     65  C   UNL A   1      40.531  25.760  27.038  1.00  0.00     0.198 A 
ATOM     66  F   UNL A   1      39.609  26.059  29.182  1.00  0.00    -0.203 F 
ATOM     67  F   UNL A   1      42.623  27.942  25.041  1.00  0.00    -0.200 F 
ATOM     68  C   UNL A   1      41.294  26.232  25.981  1.00  0.00     0.200 A 
ATOM     69  F   UNL A   1      39.949  24.556  26.958  1.00  0.00    -0.200 F 
ATOM     70  F   UNL A   1      41.434  25.493  24.872  1.00  0.00    -0.200 F 
ENDBRANCH  46  60
BRANCH  47  71
ATOM     71  C   UNL A   1      39.460  33.148  36.580  1.00  0.00     0.064 A 
ATOM     72  C   UNL A   1      38.565  32.682  37.554  1.00  0.00     0.173 A 
ATOM     73  C   UNL A   1      40.118  34.362  36.825  1.00  0.00     0.173 A 
ATOM     74  F   UNL A   1      37.896  31.537  37.356  1.00  0.00    -0.203 F 
ATOM     75  C   UNL A   1      38.323  33.413  38.716  1.00  0.00     0.198 A 
ATOM     76  C   UNL A   1      39.895  35.076  38.001  1.00  0.00     0.198 A 
ATOM     77  F   UNL A   1      40.986  34.850  35.927  1.00  0.00    -0.203 F 
ATOM     78  F   UNL A   1      37.428  32.966  39.609  1.00  0.00    -0.200 F 
ATOM     79  C   UNL A   1      38.993  34.606  38.941  1.00  0.00     0.200 A 
ATOM     80  F   UNL A   1      40.554  36.223  38.221  1.00  0.00    -0.200 F 
ATOM     81  F   UNL A   1      38.761  35.304  40.061  1.00  0.00    -0.200 F 
ENDBRANCH  47  71
BRANCH  59  82
ATOM     82  C   UNL A   1      44.240  28.440  34.697  1.00  0.00     0.064 A 
ATOM     83  C   UNL A   1      45.497  29.058  34.651  1.00  0.00     0.173 A 
ATOM     84  C   UNL A   1      44.107  27.276  35.469  1.00  0.00     0.173 A 
ATOM     85  F   UNL A   1      45.678  30.165  33.914  1.00  0.00    -0.203 F 
ATOM     86  C   UNL A   1      46.584  28.520  35.334  1.00  0.00     0.198 A 
ATOM     87  C   UNL A   1      45.188  26.757  36.175  1.00  0.00     0.198 A 
ATOM     88  F   UNL A   1      42.923  26.649  35.551  1.00  0.00    -0.203 F 
ATOM     89  F   UNL A   1      47.787  29.103  35.241  1.00  0.00    -0.200 F 
ATOM     90  C   UNL A   1      46.428  27.375  36.102  1.00  0.00     0.200 A 
ATOM     91  F   UNL A   1      45.033  25.658  36.926  1.00  0.00    -0.200 F 
ATOM     92  F   UNL A   1      47.472  26.864  36.766  1.00  0.00    -0.200 F 
ENDBRANCH  59  82
ENDBRANCH  33  34
ENDBRANCH  25  28
ENDBRANCH  23  24
ENDBRANCH  22  23
ENDBRANCH   1  22
TORSDOF 13
ENDMDL
MODEL 2
REMARK VINA RESULT:     -12.2      0.308      2.049
REMARK SMILES Cc1cc(N2CC[C@H](CC(=O)NCCCNC(=O)c3ccc(-c4c5nc(c(-c6c(F)c(F)c(F)c(F)c6F)c6ccc([nH]6)c(-c6c(F)c(F)c(F)c(F)c6F)c6nc(c(-c7c(F)c(F)c(F)c(F)c7F)c7ccc4[nH]7)C=C6)C=C5)cc3)C2)ncc1[N+](=O)[O-]
REMARK SMILES IDX 13 1 12 2 10 3 11 4 9 6 8 7 5 8 6 9 82 10 7 11 4 12 1 13
REMARK SMILES IDX 2 14 3 15 85 16 84 17 83 18 86 19 87 20 88 21 14 22 15 23
REMARK SMILES IDX 16 24 17 25 18 27 19 28 20 29 81 30 21 31 80 32 22 33 23 34
REMARK SMILES IDX 24 35 74 36 25 37 79 38 73 39 75 40 26 41 78 42 72 43 71 44
REMARK SMILES IDX 27 46 59 47 39 48 58 49 40 50 43 51 57 52 76 53 41 54 42 55
REMARK SMILES IDX 56 57 77 58 44 59 28 60 29 61 37 62 30 63 31 64 35 65 38 66
REMARK SMILES IDX 32 67 33 68 36 69 34 70 60 71 61 72 69 73 62 74 63 75 67 76
REMARK SMILES IDX 70 77 64 78 65 79 68 80 66 81 45 82 46 83 54 84 47 85 48 86
REMARK SMILES IDX 52 87 55 88 49 89 50 90 53 91 51 92
REMARK H PARENT 12 5 16 26 75 45 43 56
REMARK Flexibility Score: inf
ROOT
ATOM      1  C   UNL A   1      31.282  30.593  25.504  1.00  0.00     0.117 C 
ENDROOT
BRANCH   1   2
ATOM      2  N   UNL A   1      30.515  30.563  24.265  1.00  0.00    -0.356 N 
ATOM      3  C   UNL A   1      30.110  29.516  23.492  1.00  0.00     0.220 C 
ATOM      4  O   UNL A   1      29.523  29.766  22.438  1.00  0.00    -0.275 OA
ATOM      5  H   UNL A   1      30.241  31.447  23.932  1.00  0.00     0.163 HD
BRANCH   3   6
ATOM      6  C   UNL A   1      30.379  28.083  23.907  1.00  0.00     0.105 C 
BRANCH   6   7
ATOM      7  C   UNL A   1      31.201  27.310  22.877  1.00  0.00     0.019 C 
ATOM      8  N   UNL A   1      32.520  25.363  22.618  1.00  0.00    -0.356 N 
ATOM      9  C   UNL A   1      33.396  26.479  22.307  1.00  0.00     0.118 C 
ATOM     10  C   UNL A   1      31.245  25.805  23.177  1.00  0.00     0.122 C 
ATOM     11  C   UNL A   1      32.677  27.688  22.874  1.00  0.00     0.027 C 
BRANCH   8  12
ATOM     12  C   UNL A   1      33.111  24.258  23.201  1.00  0.00     0.129 A 
ATOM     13  C   UNL A   1      36.591  22.814  23.203  1.00  0.00     0.052 C 
ATOM     14  C   UNL A   1      35.137  22.952  23.544  1.00  0.00     0.032 A 
ATOM     15  C   UNL A   1      34.441  23.986  22.896  1.00  0.00     0.057 A 
ATOM     16  C   UNL A   1      34.411  22.174  24.455  1.00  0.00     0.290 A 
ATOM     17  C   UNL A   1      33.077  22.490  24.691  1.00  0.00     0.199 A 
ATOM     18  N   UNL A   1      32.422  23.516  24.091  1.00  0.00    -0.232 NA
BRANCH  16  19
ATOM     19  N   UNL A   1      34.964  21.041  25.186  1.00  0.00     0.064 N 
ATOM     20  O   UNL A   1      35.615  21.289  26.210  1.00  0.00    -0.258 OA
ATOM     21  O   UNL A   1      34.726  19.902  24.768  1.00  0.00    -0.258 OA
ENDBRANCH  16  19
ENDBRANCH   8  12
ENDBRANCH   6   7
ENDBRANCH   3   6
ENDBRANCH   1   2
BRANCH   1  22
ATOM     22  C   UNL A   1      31.101  31.914  26.251  1.00  0.00     0.042 C 
BRANCH  22  23
ATOM     23  C   UNL A   1      32.321  32.356  27.044  1.00  0.00     0.118 C 
BRANCH  23  24
ATOM     24  N   UNL A   1      32.271  33.770  27.372  1.00  0.00    -0.352 N 
ATOM     25  C   UNL A   1      32.994  34.496  28.288  1.00  0.00     0.251 C 
ATOM     26  H   UNL A   1      31.615  34.291  26.856  1.00  0.00     0.163 HD
ATOM     27  O   UNL A   1      32.629  35.635  28.568  1.00  0.00    -0.269 OA
BRANCH  25  28
ATOM     28  C   UNL A   1      34.197  33.933  28.954  1.00  0.00     0.039 A 
ATOM     29  C   UNL A   1      34.025  32.886  29.868  1.00  0.00     0.014 A 
ATOM     30  C   UNL A   1      35.474  34.460  28.750  1.00  0.00     0.014 A 
ATOM     31  C   UNL A   1      35.130  32.344  30.534  1.00  0.00     0.010 A 
ATOM     32  C   UNL A   1      36.585  33.862  29.348  1.00  0.00     0.010 A 
ATOM     33  C   UNL A   1      36.425  32.809  30.260  1.00  0.00    -0.014 A 
BRANCH  33  34
ATOM     34  C   UNL A   1      37.616  32.231  30.940  1.00  0.00     0.031 A 
ATOM     35  C   UNL A   1      38.420  31.147  30.270  1.00  0.00     0.074 A 
ATOM     36  C   UNL A   1      37.947  32.638  32.180  1.00  0.00     0.049 A 
ATOM     37  N   UNL A   1      39.440  30.465  30.728  1.00  0.00    -0.248 NA
ATOM     38  C   UNL A   1      38.004  30.759  28.913  1.00  0.00     0.031 C 
ATOM     39  C   UNL A   1      37.231  33.651  32.957  1.00  0.00     0.029 A 
ATOM     40  N   UNL A   1      38.965  32.242  33.012  1.00  0.00    -0.354 N 
ATOM     41  C   UNL A   1      39.772  29.559  29.729  1.00  0.00     0.074 A 
ATOM     42  C   UNL A   1      38.815  29.742  28.660  1.00  0.00     0.031 C 
ATOM     43  C   UNL A   1      37.843  33.811  34.141  1.00  0.00     0.029 A 
ATOM     44  C   UNL A   1      38.969  32.886  34.226  1.00  0.00     0.049 A 
ATOM     45  H   UNL A   1      39.631  31.560  32.763  1.00  0.00     0.167 HD
ATOM     46  C   UNL A   1      40.795  28.672  29.695  1.00  0.00     0.037 A 
ATOM     47  C   UNL A   1      39.783  32.742  35.289  1.00  0.00     0.037 A 
ATOM     48  C   UNL A   1      41.769  28.515  30.742  1.00  0.00     0.049 A 
ATOM     49  C   UNL A   1      40.911  31.748  35.227  1.00  0.00     0.074 A 
ATOM     50  C   UNL A   1      42.881  27.691  30.772  1.00  0.00     0.029 A 
ATOM     51  N   UNL A   1      41.748  29.200  31.949  1.00  0.00    -0.354 N 
ATOM     52  N   UNL A   1      41.251  30.942  34.251  1.00  0.00    -0.248 NA
ATOM     53  C   UNL A   1      41.772  31.647  36.415  1.00  0.00     0.031 C 
ATOM     54  C   UNL A   1      43.507  27.843  32.014  1.00  0.00     0.029 A 
ATOM     55  C   UNL A   1      42.814  28.799  32.739  1.00  0.00     0.049 A 
ATOM     56  H   UNL A   1      41.075  29.871  32.206  1.00  0.00     0.167 HD
ATOM     57  C   UNL A   1      42.376  30.260  34.693  1.00  0.00     0.074 A 
ATOM     58  C   UNL A   1      42.672  30.756  36.021  1.00  0.00     0.031 C 
ATOM     59  C   UNL A   1      43.101  29.308  34.055  1.00  0.00     0.037 A 
BRANCH  46  60
ATOM     60  C   UNL A   1      40.919  27.800  28.478  1.00  0.00     0.064 A 
ATOM     61  C   UNL A   1      40.269  26.559  28.392  1.00  0.00     0.173 A 
ATOM     62  C   UNL A   1      41.665  28.227  27.369  1.00  0.00     0.173 A 
ATOM     63  F   UNL A   1      39.552  26.099  29.428  1.00  0.00    -0.203 F 
ATOM     64  C   UNL A   1      40.386  25.766  27.254  1.00  0.00     0.198 A 
ATOM     65  C   UNL A   1      41.755  27.444  26.220  1.00  0.00     0.198 A 
ATOM     66  F   UNL A   1      42.300  29.408  27.395  1.00  0.00    -0.203 F 
ATOM     67  F   UNL A   1      39.796  24.563  27.214  1.00  0.00    -0.200 F 
ATOM     68  C   UNL A   1      41.122  26.212  26.166  1.00  0.00     0.200 A 
ATOM     69  F   UNL A   1      42.455  27.883  25.165  1.00  0.00    -0.200 F 
ATOM     70  F   UNL A   1      41.228  25.450  25.068  1.00  0.00    -0.200 F 
ENDBRANCH  46  60
BRANCH  47  71
ATOM     71  C   UNL A   1      39.573  33.577  36.501  1.00  0.00     0.064 A 
ATOM     72  C   UNL A   1      40.189  34.830  36.627  1.00  0.00     0.173 A 
ATOM     73  C   UNL A   1      38.759  33.140  37.557  1.00  0.00     0.173 A 
ATOM     74  F   UNL A   1      40.993  35.281  35.654  1.00  0.00    -0.203 F 
ATOM     75  C   UNL A   1      40.014  35.606  37.772  1.00  0.00     0.198 A 
ATOM     76  C   UNL A   1      38.563  33.930  38.688  1.00  0.00     0.198 A 
ATOM     77  F   UNL A   1      38.145  31.950  37.485  1.00  0.00    -0.203 F 
ATOM     78  F   UNL A   1      40.650  36.780  37.885  1.00  0.00    -0.200 F 
ATOM     79  C   UNL A   1      39.196  35.158  38.798  1.00  0.00     0.200 A 
ATOM     80  F   UNL A   1      37.761  33.500  39.673  1.00  0.00    -0.200 F 
ATOM     81  F   UNL A   1      39.025  35.907  39.896  1.00  0.00    -0.200 F 
ENDBRANCH  47  71
BRANCH  59  82
ATOM     82  C   UNL A   1      44.302  28.761  34.769  1.00  0.00     0.064 A 
ATOM     83  C   UNL A   1      44.225  27.608  35.562  1.00  0.00     0.173 A 
ATOM     84  C   UNL A   1      45.555  29.375  34.619  1.00  0.00     0.173 A 
ATOM     85  F   UNL A   1      43.046  26.994  35.748  1.00  0.00    -0.203 F 
ATOM     86  C   UNL A   1      45.355  27.101  36.198  1.00  0.00     0.198 A 
ATOM     87  C   UNL A   1      46.689  28.848  35.233  1.00  0.00     0.198 A 
ATOM     88  F   UNL A   1      45.684  30.477  33.866  1.00  0.00    -0.203 F 
ATOM     89  F   UNL A   1      45.250  26.022  36.987  1.00  0.00    -0.200 F 
ATOM     90  C   UNL A   1      46.587  27.715  36.027  1.00  0.00     0.200 A 
ATOM     91  F   UNL A   1      47.880  29.436  35.056  1.00  0.00    -0.200 F 
ATOM     92  F   UNL A   1      47.674  27.220  36.632  1.00  0.00    -0.200 F 
ENDBRANCH  59  82
ENDBRANCH  33  34
ENDBRANCH  25  28
ENDBRANCH  23  24
ENDBRANCH  22  23
ENDBRANCH   1  22
TORSDOF 13
ENDMDL
MODEL 3
REMARK VINA RESULT:     -12.1      5.656     10.861
REMARK SMILES Cc1cc(N2CC[C@H](CC(=O)NCCCNC(=O)c3ccc(-c4c5nc(c(-c6c(F)c(F)c(F)c(F)c6F)c6ccc([nH]6)c(-c6c(F)c(F)c(F)c(F)c6F)c6nc(c(-c7c(F)c(F)c(F)c(F)c7F)c7ccc4[nH]7)C=C6)C=C5)cc3)C2)ncc1[N+](=O)[O-]
REMARK SMILES IDX 13 1 12 2 10 3 11 4 9 6 8 7 5 8 6 9 82 10 7 11 4 12 1 13
REMARK SMILES IDX 2 14 3 15 85 16 84 17 83 18 86 19 87 20 88 21 14 22 15 23
REMARK SMILES IDX 16 24 17 25 18 27 19 28 20 29 81 30 21 31 80 32 22 33 23 34
REMARK SMILES IDX 24 35 74 36 25 37 79 38 73 39 75 40 26 41 78 42 72 43 71 44
REMARK SMILES IDX 27 46 59 47 39 48 58 49 40 50 43 51 57 52 76 53 41 54 42 55
REMARK SMILES IDX 56 57 77 58 44 59 28 60 29 61 37 62 30 63 31 64 35 65 38 66
REMARK SMILES IDX 32 67 33 68 36 69 34 70 60 71 61 72 69 73 62 74 63 75 67 76
REMARK SMILES IDX 70 77 64 78 65 79 68 80 66 81 45 82 46 83 54 84 47 85 48 86
REMARK SMILES IDX 52 87 55 88 49 89 50 90 53 91 51 92
REMARK H PARENT 12 5 16 26 75 45 43 56
REMARK Flexibility Score: inf
ROOT
ATOM      1  C   UNL A   1      37.452  20.866  24.416  1.00  0.00     0.117 C 
ENDROOT
BRANCH   1   2
ATOM      2  N   UNL A   1      37.306  21.910  25.422  1.00  0.00    -0.356 N 
ATOM      3  C   UNL A   1      36.548  23.043  25.429  1.00  0.00     0.220 C 
ATOM      4  O   UNL A   1      36.658  23.809  26.387  1.00  0.00    -0.275 OA
ATOM      5  H   UNL A   1      37.843  21.773  26.235  1.00  0.00     0.163 HD
BRANCH   3   6
ATOM      6  C   UNL A   1      35.601  23.360  24.288  1.00  0.00     0.105 C 
BRANCH   6   7
ATOM      7  C   UNL A   1      34.185  22.838  24.529  1.00  0.00     0.019 C 
ATOM      8  N   UNL A   1      32.963  20.844  24.885  1.00  0.00    -0.356 N 
ATOM      9  C   UNL A   1      32.415  21.433  23.675  1.00  0.00     0.118 C 
ATOM     10  C   UNL A   1      34.174  21.528  25.330  1.00  0.00     0.122 C 
ATOM     11  C   UNL A   1      33.460  22.446  23.248  1.00  0.00     0.027 C 
BRANCH   8  12
ATOM     12  C   UNL A   1      32.960  19.464  24.955  1.00  0.00     0.129 A 
ATOM     13  C   UNL A   1      34.244  16.700  22.739  1.00  0.00     0.052 C 
ATOM     14  C   UNL A   1      33.602  17.351  23.928  1.00  0.00     0.032 A 
ATOM     15  C   UNL A   1      33.464  18.748  23.873  1.00  0.00     0.057 A 
ATOM     16  C   UNL A   1      33.148  16.716  25.090  1.00  0.00     0.290 A 
ATOM     17  C   UNL A   1      32.634  17.494  26.123  1.00  0.00     0.199 A 
ATOM     18  N   UNL A   1      32.542  18.847  26.079  1.00  0.00    -0.232 NA
BRANCH  16  19
ATOM     19  N   UNL A   1      33.180  15.274  25.300  1.00  0.00     0.064 N 
ATOM     20  O   UNL A   1      32.092  14.687  25.379  1.00  0.00    -0.258 OA
ATOM     21  O   UNL A   1      34.282  14.714  25.351  1.00  0.00    -0.258 OA
ENDBRANCH  16  19
ENDBRANCH   8  12
ENDBRANCH   6   7
ENDBRANCH   3   6
ENDBRANCH   1   2
BRANCH   1  22
ATOM     22  C   UNL A   1      38.224  19.663  24.956  1.00  0.00     0.042 C 
BRANCH  22  23
ATOM     23  C   UNL A   1      39.195  19.996  26.078  1.00  0.00     0.118 C 
BRANCH  23  24
ATOM     24  N   UNL A   1      40.374  19.146  26.045  1.00  0.00    -0.352 N 
ATOM     25  C   UNL A   1      41.707  19.475  26.076  1.00  0.00     0.251 C 
ATOM     26  H   UNL A   1      40.186  18.182  25.991  1.00  0.00     0.163 HD
ATOM     27  O   UNL A   1      42.540  18.615  25.801  1.00  0.00    -0.269 OA
BRANCH  25  28
ATOM     28  C   UNL A   1      42.164  20.846  26.420  1.00  0.00     0.039 A 
ATOM     29  C   UNL A   1      42.315  21.779  25.387  1.00  0.00     0.014 A 
ATOM     30  C   UNL A   1      42.512  21.208  27.724  1.00  0.00     0.014 A 
ATOM     31  C   UNL A   1      42.765  23.074  25.667  1.00  0.00     0.010 A 
ATOM     32  C   UNL A   1      42.877  22.523  28.015  1.00  0.00     0.010 A 
ATOM     33  C   UNL A   1      43.025  23.467  26.989  1.00  0.00    -0.014 A 
BRANCH  33  34
ATOM     34  C   UNL A   1      43.482  24.846  27.311  1.00  0.00     0.031 A 
ATOM     35  C   UNL A   1      42.526  25.840  27.915  1.00  0.00     0.074 A 
ATOM     36  C   UNL A   1      44.740  25.226  27.013  1.00  0.00     0.049 A 
ATOM     37  N   UNL A   1      42.710  27.107  28.196  1.00  0.00    -0.248 NA
ATOM     38  C   UNL A   1      41.171  25.354  28.220  1.00  0.00     0.031 C 
ATOM     39  C   UNL A   1      45.755  24.374  26.391  1.00  0.00     0.029 A 
ATOM     40  N   UNL A   1      45.378  26.430  27.184  1.00  0.00    -0.354 N 
ATOM     41  C   UNL A   1      41.496  27.568  28.688  1.00  0.00     0.074 A 
ATOM     42  C   UNL A   1      40.566  26.462  28.621  1.00  0.00     0.031 C 
ATOM     43  C   UNL A   1      46.892  25.075  26.252  1.00  0.00     0.029 A 
ATOM     44  C   UNL A   1      46.677  26.435  26.736  1.00  0.00     0.049 A 
ATOM     45  H   UNL A   1      44.945  27.216  27.589  1.00  0.00     0.167 HD
ATOM     46  C   UNL A   1      41.189  28.795  29.173  1.00  0.00     0.037 A 
ATOM     47  C   UNL A   1      47.588  27.426  26.711  1.00  0.00     0.037 A 
ATOM     48  C   UNL A   1      42.123  29.886  29.273  1.00  0.00     0.049 A 
ATOM     49  C   UNL A   1      47.222  28.781  27.253  1.00  0.00     0.074 A 
ATOM     50  C   UNL A   1      41.926  31.145  29.812  1.00  0.00     0.029 A 
ATOM     51  N   UNL A   1      43.435  29.845  28.824  1.00  0.00    -0.354 N 
ATOM     52  N   UNL A   1      46.089  29.186  27.773  1.00  0.00    -0.248 NA
ATOM     53  C   UNL A   1      48.264  29.817  27.210  1.00  0.00     0.031 C 
ATOM     54  C   UNL A   1      43.104  31.882  29.648  1.00  0.00     0.029 A 
ATOM     55  C   UNL A   1      44.051  31.065  29.053  1.00  0.00     0.049 A 
ATOM     56  H   UNL A   1      43.865  29.065  28.405  1.00  0.00     0.167 HD
ATOM     57  C   UNL A   1      46.289  30.509  28.142  1.00  0.00     0.074 A 
ATOM     58  C   UNL A   1      47.657  30.837  27.800  1.00  0.00     0.031 C 
ATOM     59  C   UNL A   1      45.416  31.374  28.715  1.00  0.00     0.037 A 
BRANCH  46  60
ATOM     60  C   UNL A   1      39.781  29.027  29.640  1.00  0.00     0.064 A 
ATOM     61  C   UNL A   1      39.408  28.835  30.980  1.00  0.00     0.173 A 
ATOM     62  C   UNL A   1      38.800  29.483  28.747  1.00  0.00     0.173 A 
ATOM     63  F   UNL A   1      40.305  28.390  31.873  1.00  0.00    -0.203 F 
ATOM     64  C   UNL A   1      38.100  29.063  31.400  1.00  0.00     0.198 A 
ATOM     65  C   UNL A   1      37.500  29.739  29.177  1.00  0.00     0.198 A 
ATOM     66  F   UNL A   1      39.103  29.690  27.457  1.00  0.00    -0.203 F 
ATOM     67  F   UNL A   1      37.757  28.826  32.674  1.00  0.00    -0.200 F 
ATOM     68  C   UNL A   1      37.149  29.521  30.501  1.00  0.00     0.200 A 
ATOM     69  F   UNL A   1      36.586  30.195  28.310  1.00  0.00    -0.200 F 
ATOM     70  F   UNL A   1      35.893  29.747  30.908  1.00  0.00    -0.200 F 
ENDBRANCH  46  60
BRANCH  47  71
ATOM     71  C   UNL A   1      48.948  27.169  26.168  1.00  0.00     0.064 A 
ATOM     72  C   UNL A   1      49.998  26.781  27.012  1.00  0.00     0.173 A 
ATOM     73  C   UNL A   1      49.227  27.307  24.800  1.00  0.00     0.173 A 
ATOM     74  F   UNL A   1      49.786  26.656  28.330  1.00  0.00    -0.203 F 
ATOM     75  C   UNL A   1      51.280  26.561  26.511  1.00  0.00     0.198 A 
ATOM     76  C   UNL A   1      50.503  27.058  24.297  1.00  0.00     0.198 A 
ATOM     77  F   UNL A   1      48.256  27.673  23.949  1.00  0.00    -0.203 F 
ATOM     78  F   UNL A   1      52.275  26.235  27.348  1.00  0.00    -0.200 F 
ATOM     79  C   UNL A   1      51.530  26.694  25.154  1.00  0.00     0.200 A 
ATOM     80  F   UNL A   1      50.737  27.175  22.983  1.00  0.00    -0.200 F 
ATOM     81  F   UNL A   1      52.762  26.477  24.673  1.00  0.00    -0.200 F 
ENDBRANCH  47  71
BRANCH  59  82
ATOM     82  C   UNL A   1      45.921  32.751  29.037  1.00  0.00     0.064 A 
ATOM     83  C   UNL A   1      45.786  33.814  28.134  1.00  0.00     0.173 A 
ATOM     84  C   UNL A   1      46.506  33.017  30.284  1.00  0.00     0.173 A 
ATOM     85  F   UNL A   1      45.247  33.607  26.923  1.00  0.00    -0.203 F 
ATOM     86  C   UNL A   1      46.239  35.090  28.459  1.00  0.00     0.198 A 
ATOM     87  C   UNL A   1      46.931  34.300  30.617  1.00  0.00     0.198 A 
ATOM     88  F   UNL A   1      46.653  32.035  31.186  1.00  0.00    -0.203 F 
ATOM     89  F   UNL A   1      46.139  36.083  27.564  1.00  0.00    -0.200 F 
ATOM     90  C   UNL A   1      46.803  35.334  29.703  1.00  0.00     0.200 A 
ATOM     91  F   UNL A   1      47.465  34.536  31.824  1.00  0.00    -0.200 F 
ATOM     92  F   UNL A   1      47.229  36.565  30.017  1.00  0.00    -0.200 F 
ENDBRANCH  59  82
ENDBRANCH  33  34
ENDBRANCH  25  28
ENDBRANCH  23  24
ENDBRANCH  22  23
ENDBRANCH   1  22
TORSDOF 13
ENDMDL
