MODEL 1
REMARK VINA RESULT:     -12.6      0.000      0.000
REMARK SMILES O=C(NCCCNC(=O)c1cccnc1-c1ccccn1)c1ccc(-c2c3nc(c(-c4c(F)c(F)c(F)c(F)c4F)c4ccc([nH]4)c(-c4c(F)c(F)c(F)c(F)c4F)c4nc(c(-c5c(F)c(F)c(F)c(F)c5F)c5ccc2[nH]5)C=C4)C=C3)cc1
REMARK SMILES IDX 4 1 3 2 1 3 2 4 22 6 23 7 84 8 24 9 83 10 25 11 26 12 27 13
REMARK SMILES IDX 77 14 28 15 82 16 76 17 78 18 29 19 81 20 75 21 74 22 30 24
REMARK SMILES IDX 62 25 42 26 61 27 43 28 46 29 60 30 79 31 44 32 45 33 59 35
REMARK SMILES IDX 80 36 47 37 31 38 32 39 40 40 33 41 34 42 38 43 41 44 35 45
REMARK SMILES IDX 36 46 39 47 37 48 63 49 64 50 72 51 65 52 66 53 70 54 73 55
REMARK SMILES IDX 67 56 68 57 71 58 69 59 48 60 49 61 57 62 50 63 51 64 55 65
REMARK SMILES IDX 58 66 52 67 53 68 56 69 54 70 5 71 6 72 7 73 8 74 9 76 10 77
REMARK SMILES IDX 11 78 15 79 12 80 14 81 13 82 16 83 17 84 21 85 18 86 20 87
REMARK SMILES IDX 19 88
REMARK H PARENT 3 5 78 23 46 34 7 75
REMARK Flexibility Score: inf
ROOT
ATOM      1  C   UNL A   1      38.758  20.146  25.750  1.00  0.00     0.118 C 
ENDROOT
BRANCH   1   2
ATOM      2  N   UNL A   1      39.880  19.226  25.866  1.00  0.00    -0.352 N 
ATOM      3  O   UNL A   1      42.014  18.537  25.982  1.00  0.00    -0.269 OA
ATOM      4  C   UNL A   1      41.210  19.457  26.107  1.00  0.00     0.251 C 
ATOM      5  H   UNL A   1      39.644  18.277  25.753  1.00  0.00     0.163 HD
BRANCH   4   6
ATOM      6  C   UNL A   1      41.697  20.800  26.493  1.00  0.00     0.039 A 
ATOM      7  C   UNL A   1      42.033  21.107  27.813  1.00  0.00     0.014 A 
ATOM      8  C   UNL A   1      41.883  21.757  25.489  1.00  0.00     0.014 A 
ATOM      9  C   UNL A   1      42.426  22.400  28.151  1.00  0.00     0.010 A 
ATOM     10  C   UNL A   1      42.352  23.032  25.816  1.00  0.00     0.010 A 
ATOM     11  C   UNL A   1      42.599  23.372  27.155  1.00  0.00    -0.014 A 
BRANCH  11  12
ATOM     12  C   UNL A   1      43.093  24.726  27.507  1.00  0.00     0.031 A 
ATOM     13  C   UNL A   1      42.163  25.758  28.075  1.00  0.00     0.074 A 
ATOM     14  C   UNL A   1      44.384  25.033  27.280  1.00  0.00     0.049 A 
ATOM     15  N   UNL A   1      42.399  27.012  28.369  1.00  0.00    -0.248 NA
ATOM     16  C   UNL A   1      40.782  25.328  28.338  1.00  0.00     0.031 C 
ATOM     17  C   UNL A   1      45.378  24.119  26.717  1.00  0.00     0.029 A 
ATOM     18  N   UNL A   1      45.077  26.200  27.478  1.00  0.00    -0.354 N 
ATOM     19  C   UNL A   1      41.193  27.528  28.826  1.00  0.00     0.074 A 
ATOM     20  C   UNL A   1      40.222  26.457  28.751  1.00  0.00     0.031 C 
ATOM     21  C   UNL A   1      46.554  24.756  26.619  1.00  0.00     0.029 A 
ATOM     22  C   UNL A   1      46.382  26.137  27.059  1.00  0.00     0.049 A 
ATOM     23  H   UNL A   1      44.677  27.004  27.881  1.00  0.00     0.167 HD
ATOM     24  C   UNL A   1      40.926  28.780  29.269  1.00  0.00     0.037 A 
ATOM     25  C   UNL A   1      47.330  27.091  27.003  1.00  0.00     0.037 A 
ATOM     26  C   UNL A   1      41.904  29.835  29.357  1.00  0.00     0.049 A 
ATOM     27  C   UNL A   1      47.008  28.477  27.482  1.00  0.00     0.074 A 
ATOM     28  C   UNL A   1      41.747  31.117  29.853  1.00  0.00     0.029 A 
ATOM     29  N   UNL A   1      43.220  29.730  28.928  1.00  0.00    -0.354 N 
ATOM     30  N   UNL A   1      45.878  28.940  27.958  1.00  0.00    -0.248 NA
ATOM     31  C   UNL A   1      48.087  29.469  27.417  1.00  0.00     0.031 C 
ATOM     32  C   UNL A   1      42.953  31.804  29.679  1.00  0.00     0.029 A 
ATOM     33  C   UNL A   1      43.877  30.934  29.120  1.00  0.00     0.049 A 
ATOM     34  H   UNL A   1      43.626  28.920  28.544  1.00  0.00     0.167 HD
ATOM     35  C   UNL A   1      46.111  30.272  28.265  1.00  0.00     0.074 A 
ATOM     36  C   UNL A   1      47.495  30.542  27.929  1.00  0.00     0.031 C 
ATOM     37  C   UNL A   1      45.255  31.186  28.781  1.00  0.00     0.037 A 
BRANCH  24  38
ATOM     38  C   UNL A   1      39.513  29.087  29.670  1.00  0.00     0.064 A 
ATOM     39  C   UNL A   1      38.559  29.527  28.740  1.00  0.00     0.173 A 
ATOM     40  C   UNL A   1      39.101  28.913  31.000  1.00  0.00     0.173 A 
ATOM     41  F   UNL A   1      38.905  29.720  27.458  1.00  0.00    -0.203 F 
ATOM     42  C   UNL A   1      37.255  29.815  29.134  1.00  0.00     0.198 A 
ATOM     43  C   UNL A   1      37.789  29.175  31.385  1.00  0.00     0.198 A 
ATOM     44  F   UNL A   1      39.971  28.486  31.927  1.00  0.00    -0.203 F 
ATOM     45  F   UNL A   1      36.374  30.285  28.239  1.00  0.00    -0.200 F 
ATOM     46  C   UNL A   1      36.870  29.634  30.454  1.00  0.00     0.200 A 
ATOM     47  F   UNL A   1      37.415  28.989  32.659  1.00  0.00    -0.200 F 
ATOM     48  F   UNL A   1      35.614  29.912  30.832  1.00  0.00    -0.200 F 
ENDBRANCH  24  38
BRANCH  25  49
ATOM     49  C   UNL A   1      48.665  26.747  26.455  1.00  0.00     0.064 A 
ATOM     50  C   UNL A   1      49.644  26.151  27.258  1.00  0.00     0.173 A 
ATOM     51  C   UNL A   1      48.962  26.951  25.098  1.00  0.00     0.173 A 
ATOM     52  F   UNL A   1      49.409  25.951  28.563  1.00  0.00    -0.203 F 
ATOM     53  C   UNL A   1      50.873  25.767  26.724  1.00  0.00     0.198 A 
ATOM     54  C   UNL A   1      50.180  26.544  24.561  1.00  0.00     0.198 A 
ATOM     55  F   UNL A   1      48.052  27.512  24.289  1.00  0.00    -0.203 F 
ATOM     56  F   UNL A   1      51.800  25.212  27.516  1.00  0.00    -0.200 F 
ATOM     57  C   UNL A   1      51.135  25.954  25.374  1.00  0.00     0.200 A 
ATOM     58  F   UNL A   1      50.422  26.710  23.254  1.00  0.00    -0.200 F 
ATOM     59  F   UNL A   1      52.308  25.564  24.858  1.00  0.00    -0.200 F 
ENDBRANCH  25  49
BRANCH  37  60
ATOM     60  C   UNL A   1      45.791  32.563  29.041  1.00  0.00     0.064 A 
ATOM     61  C   UNL A   1      45.650  33.594  28.101  1.00  0.00     0.173 A 
ATOM     62  C   UNL A   1      46.393  32.868  30.271  1.00  0.00     0.173 A 
ATOM     63  F   UNL A   1      45.095  33.345  26.905  1.00  0.00    -0.203 F 
ATOM     64  C   UNL A   1      46.100  34.881  28.381  1.00  0.00     0.198 A 
ATOM     65  C   UNL A   1      46.821  34.162  30.556  1.00  0.00     0.198 A 
ATOM     66  F   UNL A   1      46.547  31.916  31.202  1.00  0.00    -0.203 F 
ATOM     67  F   UNL A   1      45.981  35.846  27.459  1.00  0.00    -0.200 F 
ATOM     68  C   UNL A   1      46.676  35.165  29.611  1.00  0.00     0.200 A 
ATOM     69  F   UNL A   1      47.367  34.437  31.748  1.00  0.00    -0.200 F 
ATOM     70  F   UNL A   1      47.096  36.409  29.883  1.00  0.00    -0.200 F 
ENDBRANCH  37  60
ENDBRANCH  11  12
ENDBRANCH   4   6
ENDBRANCH   1   2
BRANCH   1  71
ATOM     71  C   UNL A   1      37.629  19.600  24.884  1.00  0.00     0.042 C 
BRANCH  71  72
ATOM     72  C   UNL A   1      36.492  20.582  24.628  1.00  0.00     0.118 C 
BRANCH  72  73
ATOM     73  N   UNL A   1      35.573  20.681  25.751  1.00  0.00    -0.352 N 
ATOM     74  C   UNL A   1      34.220  20.910  25.782  1.00  0.00     0.253 C 
ATOM     75  H   UNL A   1      35.990  20.564  26.635  1.00  0.00     0.163 HD
ATOM     76  O   UNL A   1      33.667  21.037  26.874  1.00  0.00    -0.269 OA
BRANCH  74  77
ATOM     77  C   UNL A   1      33.446  20.985  24.532  1.00  0.00     0.067 A 
ATOM     78  C   UNL A   1      33.263  22.229  23.913  1.00  0.00     0.018 A 
ATOM     79  C   UNL A   1      32.938  19.843  23.909  1.00  0.00     0.101 A 
ATOM     80  C   UNL A   1      32.517  22.315  22.744  1.00  0.00     0.021 A 
ATOM     81  N   UNL A   1      32.178  19.929  22.774  1.00  0.00    -0.254 NA
ATOM     82  C   UNL A   1      31.991  21.148  22.223  1.00  0.00     0.112 A 
BRANCH  79  83
ATOM     83  C   UNL A   1      33.165  18.472  24.396  1.00  0.00     0.089 A 
ATOM     84  C   UNL A   1      34.250  17.702  23.978  1.00  0.00     0.031 A 
ATOM     85  N   UNL A   1      32.252  18.004  25.290  1.00  0.00    -0.255 NA
ATOM     86  C   UNL A   1      34.393  16.408  24.476  1.00  0.00     0.004 A 
ATOM     87  C   UNL A   1      32.412  16.745  25.750  1.00  0.00     0.112 A 
ATOM     88  C   UNL A   1      33.455  15.917  25.376  1.00  0.00     0.020 A 
ENDBRANCH  79  83
ENDBRANCH  74  77
ENDBRANCH  72  73
ENDBRANCH  71  72
ENDBRANCH   1  71
TORSDOF 11
ENDMDL
MODEL 2
REMARK VINA RESULT:     -12.6      0.231      1.655
REMARK SMILES O=C(NCCCNC(=O)c1cccnc1-c1ccccn1)c1ccc(-c2c3nc(c(-c4c(F)c(F)c(F)c(F)c4F)c4ccc([nH]4)c(-c4c(F)c(F)c(F)c(F)c4F)c4nc(c(-c5c(F)c(F)c(F)c(F)c5F)c5ccc2[nH]5)C=C4)C=C3)cc1
REMARK SMILES IDX 4 1 3 2 1 3 2 4 22 6 23 7 84 8 24 9 83 10 25 11 26 12 27 13
REMARK SMILES IDX 77 14 28 15 82 16 76 17 78 18 29 19 81 20 75 21 74 22 30 24
REMARK SMILES IDX 62 25 42 26 61 27 43 28 46 29 60 30 79 31 44 32 45 33 59 35
REMARK SMILES IDX 80 36 47 37 31 38 32 39 40 40 33 41 34 42 38 43 41 44 35 45
REMARK SMILES IDX 36 46 39 47 37 48 63 49 64 50 72 51 65 52 66 53 70 54 73 55
REMARK SMILES IDX 67 56 68 57 71 58 69 59 48 60 49 61 57 62 50 63 51 64 55 65
REMARK SMILES IDX 58 66 52 67 53 68 56 69 54 70 5 71 6 72 7 73 8 74 9 76 10 77
REMARK SMILES IDX 11 78 15 79 12 80 14 81 13 82 16 83 17 84 21 85 18 86 20 87
REMARK SMILES IDX 19 88
REMARK H PARENT 3 5 78 23 46 34 7 75
REMARK Flexibility Score: inf
ROOT
ATOM      1  C   UNL A   1      38.790  20.192  25.753  1.00  0.00     0.118 C 
ENDROOT
BRANCH   1   2
ATOM      2  N   UNL A   1      39.900  19.255  25.850  1.00  0.00    -0.352 N 
ATOM      3  O   UNL A   1      42.025  18.536  25.937  1.00  0.00    -0.269 OA
ATOM      4  C   UNL A   1      41.236  19.467  26.077  1.00  0.00     0.251 C 
ATOM      5  H   UNL A   1      39.649  18.311  25.734  1.00  0.00     0.163 HD
BRANCH   4   6
ATOM      6  C   UNL A   1      41.746  20.801  26.464  1.00  0.00     0.039 A 
ATOM      7  C   UNL A   1      42.149  21.080  27.771  1.00  0.00     0.014 A 
ATOM      8  C   UNL A   1      41.885  21.777  25.471  1.00  0.00     0.014 A 
ATOM      9  C   UNL A   1      42.564  22.366  28.114  1.00  0.00     0.010 A 
ATOM     10  C   UNL A   1      42.374  23.043  25.799  1.00  0.00     0.010 A 
ATOM     11  C   UNL A   1      42.690  23.356  27.130  1.00  0.00    -0.014 A 
BRANCH  11  12
ATOM     12  C   UNL A   1      43.205  24.702  27.484  1.00  0.00     0.031 A 
ATOM     13  C   UNL A   1      42.298  25.740  28.076  1.00  0.00     0.074 A 
ATOM     14  C   UNL A   1      44.495  24.996  27.235  1.00  0.00     0.049 A 
ATOM     15  N   UNL A   1      42.553  26.989  28.375  1.00  0.00    -0.248 NA
ATOM     16  C   UNL A   1      40.916  25.324  28.360  1.00  0.00     0.031 C 
ATOM     17  C   UNL A   1      45.469  24.075  26.648  1.00  0.00     0.029 A 
ATOM     18  N   UNL A   1      45.205  26.153  27.430  1.00  0.00    -0.354 N 
ATOM     19  C   UNL A   1      41.362  27.515  28.857  1.00  0.00     0.074 A 
ATOM     20  C   UNL A   1      40.377  26.456  28.792  1.00  0.00     0.031 C 
ATOM     21  C   UNL A   1      46.650  24.698  26.534  1.00  0.00     0.029 A 
ATOM     22  C   UNL A   1      46.503  26.078  26.988  1.00  0.00     0.049 A 
ATOM     23  H   UNL A   1      44.822  26.959  27.847  1.00  0.00     0.167 HD
ATOM     24  C   UNL A   1      41.118  28.767  29.315  1.00  0.00     0.037 A 
ATOM     25  C   UNL A   1      47.460  27.022  26.922  1.00  0.00     0.037 A 
ATOM     26  C   UNL A   1      42.109  29.809  29.393  1.00  0.00     0.049 A 
ATOM     27  C   UNL A   1      47.162  28.407  27.417  1.00  0.00     0.074 A 
ATOM     28  C   UNL A   1      41.976  31.090  29.901  1.00  0.00     0.029 A 
ATOM     29  N   UNL A   1      43.416  29.693  28.940  1.00  0.00    -0.354 N 
ATOM     30  N   UNL A   1      46.047  28.880  27.916  1.00  0.00    -0.248 NA
ATOM     31  C   UNL A   1      48.251  29.388  27.340  1.00  0.00     0.031 C 
ATOM     32  C   UNL A   1      43.187  31.764  29.711  1.00  0.00     0.029 A 
ATOM     33  C   UNL A   1      44.090  30.888  29.129  1.00  0.00     0.049 A 
ATOM     34  H   UNL A   1      43.805  28.881  28.542  1.00  0.00     0.167 HD
ATOM     35  C   UNL A   1      46.301  30.207  28.229  1.00  0.00     0.074 A 
ATOM     36  C   UNL A   1      47.682  30.464  27.871  1.00  0.00     0.031 C 
ATOM     37  C   UNL A   1      45.465  31.127  28.767  1.00  0.00     0.037 A 
BRANCH  24  38
ATOM     38  C   UNL A   1      39.715  29.086  29.743  1.00  0.00     0.064 A 
ATOM     39  C   UNL A   1      38.762  29.584  28.842  1.00  0.00     0.173 A 
ATOM     40  C   UNL A   1      39.313  28.868  31.070  1.00  0.00     0.173 A 
ATOM     41  F   UNL A   1      39.098  29.821  27.565  1.00  0.00    -0.203 F 
ATOM     42  C   UNL A   1      37.468  29.882  29.262  1.00  0.00     0.198 A 
ATOM     43  C   UNL A   1      38.011  29.142  31.479  1.00  0.00     0.198 A 
ATOM     44  F   UNL A   1      40.183  28.386  31.969  1.00  0.00    -0.203 F 
ATOM     45  F   UNL A   1      36.588  30.406  28.395  1.00  0.00    -0.200 F 
ATOM     46  C   UNL A   1      37.092  29.657  30.578  1.00  0.00     0.200 A 
ATOM     47  F   UNL A   1      37.647  28.913  32.748  1.00  0.00    -0.200 F 
ATOM     48  F   UNL A   1      35.847  29.946  30.980  1.00  0.00    -0.200 F 
ENDBRANCH  24  38
BRANCH  25  49
ATOM     49  C   UNL A   1      48.781  26.667  26.347  1.00  0.00     0.064 A 
ATOM     50  C   UNL A   1      49.078  26.925  25.004  1.00  0.00     0.173 A 
ATOM     51  C   UNL A   1      49.795  26.122  27.152  1.00  0.00     0.173 A 
ATOM     52  F   UNL A   1      48.136  27.431  24.196  1.00  0.00    -0.203 F 
ATOM     53  C   UNL A   1      50.342  26.653  24.485  1.00  0.00     0.198 A 
ATOM     54  C   UNL A   1      51.064  25.874  26.637  1.00  0.00     0.198 A 
ATOM     55  F   UNL A   1      49.558  25.866  28.446  1.00  0.00    -0.203 F 
ATOM     56  F   UNL A   1      50.598  26.894  23.191  1.00  0.00    -0.200 F 
ATOM     57  C   UNL A   1      51.336  26.138  25.304  1.00  0.00     0.200 A 
ATOM     58  F   UNL A   1      52.026  25.395  27.437  1.00  0.00    -0.200 F 
ATOM     59  F   UNL A   1      52.558  25.899  24.808  1.00  0.00    -0.200 F 
ENDBRANCH  25  49
BRANCH  37  60
ATOM     60  C   UNL A   1      46.021  32.495  29.028  1.00  0.00     0.064 A 
ATOM     61  C   UNL A   1      46.693  32.797  30.221  1.00  0.00     0.173 A 
ATOM     62  C   UNL A   1      45.939  33.493  28.046  1.00  0.00     0.173 A 
ATOM     63  F   UNL A   1      46.783  31.880  31.195  1.00  0.00    -0.203 F 
ATOM     64  C   UNL A   1      47.256  34.054  30.424  1.00  0.00     0.198 A 
ATOM     65  C   UNL A   1      46.523  34.741  28.243  1.00  0.00     0.198 A 
ATOM     66  F   UNL A   1      45.309  33.249  26.887  1.00  0.00    -0.203 F 
ATOM     67  F   UNL A   1      47.870  34.333  31.583  1.00  0.00    -0.200 F 
ATOM     68  C   UNL A   1      47.178  35.021  29.432  1.00  0.00     0.200 A 
ATOM     69  F   UNL A   1      46.455  35.670  27.280  1.00  0.00    -0.200 F 
ATOM     70  F   UNL A   1      47.733  36.226  29.624  1.00  0.00    -0.200 F 
ENDBRANCH  37  60
ENDBRANCH  11  12
ENDBRANCH   4   6
ENDBRANCH   1   2
BRANCH   1  71
ATOM     71  C   UNL A   1      37.641  19.665  24.901  1.00  0.00     0.042 C 
BRANCH  71  72
ATOM     72  C   UNL A   1      36.509  20.660  24.674  1.00  0.00     0.118 C 
BRANCH  72  73
ATOM     73  N   UNL A   1      35.587  20.727  25.798  1.00  0.00    -0.352 N 
ATOM     74  C   UNL A   1      34.229  20.917  25.829  1.00  0.00     0.253 C 
ATOM     75  H   UNL A   1      36.008  20.619  26.681  1.00  0.00     0.163 HD
ATOM     76  O   UNL A   1      33.672  21.022  26.922  1.00  0.00    -0.269 OA
BRANCH  74  77
ATOM     77  C   UNL A   1      33.453  20.974  24.579  1.00  0.00     0.067 A 
ATOM     78  C   UNL A   1      33.242  22.215  23.961  1.00  0.00     0.018 A 
ATOM     79  C   UNL A   1      32.970  19.821  23.956  1.00  0.00     0.101 A 
ATOM     80  C   UNL A   1      32.493  22.284  22.792  1.00  0.00     0.021 A 
ATOM     81  N   UNL A   1      32.208  19.891  22.821  1.00  0.00    -0.254 NA
ATOM     82  C   UNL A   1      31.994  21.105  22.270  1.00  0.00     0.112 A 
BRANCH  79  83
ATOM     83  C   UNL A   1      33.229  18.456  24.442  1.00  0.00     0.089 A 
ATOM     84  C   UNL A   1      34.336  17.714  24.031  1.00  0.00     0.031 A 
ATOM     85  N   UNL A   1      32.321  17.963  25.330  1.00  0.00    -0.255 NA
ATOM     86  C   UNL A   1      34.508  16.423  24.527  1.00  0.00     0.004 A 
ATOM     87  C   UNL A   1      32.510  16.709  25.788  1.00  0.00     0.112 A 
ATOM     88  C   UNL A   1      33.577  15.907  25.420  1.00  0.00     0.020 A 
ENDBRANCH  79  83
ENDBRANCH  74  77
ENDBRANCH  72  73
ENDBRANCH  71  72
ENDBRANCH   1  71
TORSDOF 11
ENDMDL
MODEL 3
REMARK VINA RESULT:     -12.6      6.458     11.642
REMARK SMILES O=C(NCCCNC(=O)c1cccnc1-c1ccccn1)c1ccc(-c2c3nc(c(-c4c(F)c(F)c(F)c(F)c4F)c4ccc([nH]4)c(-c4c(F)c(F)c(F)c(F)c4F)c4nc(c(-c5c(F)c(F)c(F)c(F)c5F)c5ccc2[nH]5)C=C4)C=C3)cc1
REMARK SMILES IDX 4 1 3 2 1 3 2 4 22 6 23 7 84 8 24 9 83 10 25 11 26 12 27 13
REMARK SMILES IDX 77 14 28 15 82 16 76 17 78 18 29 19 81 20 75 21 74 22 30 24
REMARK SMILES IDX 62 25 42 26 61 27 43 28 46 29 60 30 79 31 44 32 45 33 59 35
REMARK SMILES IDX 80 36 47 37 31 38 32 39 40 40 33 41 34 42 38 43 41 44 35 45
REMARK SMILES IDX 36 46 39 47 37 48 63 49 64 50 72 51 65 52 66 53 70 54 73 55
REMARK SMILES IDX 67 56 68 57 71 58 69 59 48 60 49 61 57 62 50 63 51 64 55 65
REMARK SMILES IDX 58 66 52 67 53 68 56 69 54 70 5 71 6 72 7 73 8 74 9 76 10 77
REMARK SMILES IDX 11 78 15 79 12 80 14 81 13 82 16 83 17 84 21 85 18 86 20 87
REMARK SMILES IDX 19 88
REMARK H PARENT 3 5 78 23 46 34 7 75
REMARK Flexibility Score: inf
ROOT
ATOM      1  C   UNL A   1      32.636  32.239  26.912  1.00  0.00     0.118 C 
ENDROOT
BRANCH   1   2
ATOM      2  N   UNL A   1      32.502  33.605  27.395  1.00  0.00    -0.352 N 
ATOM      3  O   UNL A   1      32.777  35.383  28.738  1.00  0.00    -0.269 OA
ATOM      4  C   UNL A   1      33.184  34.283  28.373  1.00  0.00     0.251 C 
ATOM      5  H   UNL A   1      31.804  34.131  26.942  1.00  0.00     0.163 HD
BRANCH   4   6
ATOM      6  C   UNL A   1      34.387  33.703  29.010  1.00  0.00     0.039 A 
ATOM      7  C   UNL A   1      35.665  34.201  28.751  1.00  0.00     0.014 A 
ATOM      8  C   UNL A   1      34.218  32.675  29.944  1.00  0.00     0.014 A 
ATOM      9  C   UNL A   1      36.781  33.590  29.320  1.00  0.00     0.010 A 
ATOM     10  C   UNL A   1      35.331  32.113  30.573  1.00  0.00     0.010 A 
ATOM     11  C   UNL A   1      36.624  32.547  30.244  1.00  0.00    -0.014 A 
BRANCH  11  12
ATOM     12  C   UNL A   1      37.809  31.949  30.906  1.00  0.00     0.031 A 
ATOM     13  C   UNL A   1      38.615  30.883  30.223  1.00  0.00     0.074 A 
ATOM     14  C   UNL A   1      38.138  32.350  32.149  1.00  0.00     0.049 A 
ATOM     15  N   UNL A   1      39.632  30.195  30.677  1.00  0.00    -0.248 NA
ATOM     16  C   UNL A   1      38.220  30.537  28.850  1.00  0.00     0.031 C 
ATOM     17  C   UNL A   1      37.421  33.366  32.921  1.00  0.00     0.029 A 
ATOM     18  N   UNL A   1      39.145  31.943  32.987  1.00  0.00    -0.354 N 
ATOM     19  C   UNL A   1      39.982  29.317  29.660  1.00  0.00     0.074 A 
ATOM     20  C   UNL A   1      39.055  29.546  28.570  1.00  0.00     0.031 C 
ATOM     21  C   UNL A   1      38.012  33.507  34.116  1.00  0.00     0.029 A 
ATOM     22  C   UNL A   1      39.113  32.554  34.215  1.00  0.00     0.049 A 
ATOM     23  H   UNL A   1      39.824  31.278  32.731  1.00  0.00     0.167 HD
ATOM     24  C   UNL A   1      40.986  28.409  29.638  1.00  0.00     0.037 A 
ATOM     25  C   UNL A   1      39.864  32.350  35.313  1.00  0.00     0.037 A 
ATOM     26  C   UNL A   1      41.915  28.201  30.720  1.00  0.00     0.049 A 
ATOM     27  C   UNL A   1      40.960  31.325  35.274  1.00  0.00     0.074 A 
ATOM     28  C   UNL A   1      43.005  27.351  30.770  1.00  0.00     0.029 A 
ATOM     29  N   UNL A   1      41.853  28.845  31.948  1.00  0.00    -0.354 N 
ATOM     30  N   UNL A   1      41.313  30.536  34.290  1.00  0.00    -0.248 NA
ATOM     31  C   UNL A   1      41.760  31.162  36.494  1.00  0.00     0.031 C 
ATOM     32  C   UNL A   1      43.575  27.444  32.044  1.00  0.00     0.029 A 
ATOM     33  C   UNL A   1      42.869  28.388  32.773  1.00  0.00     0.049 A 
ATOM     34  H   UNL A   1      41.187  29.526  32.197  1.00  0.00     0.167 HD
ATOM     35  C   UNL A   1      42.385  29.794  34.762  1.00  0.00     0.074 A 
ATOM     36  C   UNL A   1      42.631  30.232  36.121  1.00  0.00     0.031 C 
ATOM     37  C   UNL A   1      43.100  28.836  34.123  1.00  0.00     0.037 A 
BRANCH  24  38
ATOM     38  C   UNL A   1      41.119  27.551  28.415  1.00  0.00     0.064 A 
ATOM     39  C   UNL A   1      40.380  26.368  28.257  1.00  0.00     0.173 A 
ATOM     40  C   UNL A   1      41.979  27.930  27.373  1.00  0.00     0.173 A 
ATOM     41  F   UNL A   1      39.551  25.955  29.227  1.00  0.00    -0.203 F 
ATOM     42  C   UNL A   1      40.524  25.581  27.117  1.00  0.00     0.198 A 
ATOM     43  C   UNL A   1      42.100  27.155  26.223  1.00  0.00     0.198 A 
ATOM     44  F   UNL A   1      42.703  29.055  27.470  1.00  0.00    -0.203 F 
ATOM     45  F   UNL A   1      39.847  24.429  27.011  1.00  0.00    -0.200 F 
ATOM     46  C   UNL A   1      41.380  25.977  26.100  1.00  0.00     0.200 A 
ATOM     47  F   UNL A   1      42.919  27.545  25.237  1.00  0.00    -0.200 F 
ATOM     48  F   UNL A   1      41.517  25.218  25.004  1.00  0.00    -0.200 F 
ENDBRANCH  24  38
BRANCH  25  49
ATOM     49  C   UNL A   1      39.577  33.137  36.538  1.00  0.00     0.064 A 
ATOM     50  C   UNL A   1      40.161  34.392  36.744  1.00  0.00     0.173 A 
ATOM     51  C   UNL A   1      38.659  32.674  37.494  1.00  0.00     0.173 A 
ATOM     52  F   UNL A   1      41.054  34.867  35.864  1.00  0.00    -0.203 F 
ATOM     53  C   UNL A   1      39.837  35.159  37.862  1.00  0.00     0.198 A 
ATOM     54  C   UNL A   1      38.318  33.452  38.597  1.00  0.00     0.198 A 
ATOM     55  F   UNL A   1      38.069  31.481  37.334  1.00  0.00    -0.203 F 
ATOM     56  F   UNL A   1      40.421  36.350  38.046  1.00  0.00    -0.200 F 
ATOM     57  C   UNL A   1      38.908  34.692  38.781  1.00  0.00     0.200 A 
ATOM     58  F   UNL A   1      37.407  33.006  39.472  1.00  0.00    -0.200 F 
ATOM     59  F   UNL A   1      38.580  35.441  39.843  1.00  0.00    -0.200 F 
ENDBRANCH  25  49
BRANCH  37  60
ATOM     60  C   UNL A   1      44.239  28.210  34.875  1.00  0.00     0.064 A 
ATOM     61  C   UNL A   1      44.070  27.027  35.606  1.00  0.00     0.173 A 
ATOM     62  C   UNL A   1      45.524  28.767  34.805  1.00  0.00     0.173 A 
ATOM     63  F   UNL A   1      42.856  26.467  35.713  1.00  0.00    -0.203 F 
ATOM     64  C   UNL A   1      45.149  26.425  36.249  1.00  0.00     0.198 A 
ATOM     65  C   UNL A   1      46.604  28.151  35.430  1.00  0.00     0.198 A 
ATOM     66  F   UNL A   1      45.735  29.897  34.114  1.00  0.00    -0.203 F 
ATOM     67  F   UNL A   1      44.962  25.309  36.966  1.00  0.00    -0.200 F 
ATOM     68  C   UNL A   1      46.416  26.983  36.152  1.00  0.00     0.200 A 
ATOM     69  F   UNL A   1      47.829  28.685  35.327  1.00  0.00    -0.200 F 
ATOM     70  F   UNL A   1      47.455  26.395  36.761  1.00  0.00    -0.200 F 
ENDBRANCH  37  60
ENDBRANCH  11  12
ENDBRANCH   4   6
ENDBRANCH   1   2
BRANCH   1  71
ATOM     71  C   UNL A   1      31.325  31.661  26.391  1.00  0.00     0.042 C 
BRANCH  71  72
ATOM     72  C   UNL A   1      31.404  30.206  25.944  1.00  0.00     0.118 C 
BRANCH  72  73
ATOM     73  N   UNL A   1      31.992  30.057  24.621  1.00  0.00    -0.352 N 
ATOM     74  C   UNL A   1      31.687  29.194  23.599  1.00  0.00     0.253 C 
ATOM     75  H   UNL A   1      32.732  30.677  24.428  1.00  0.00     0.163 HD
ATOM     76  O   UNL A   1      32.392  29.200  22.590  1.00  0.00    -0.269 OA
BRANCH  74  77
ATOM     77  C   UNL A   1      30.527  28.293  23.703  1.00  0.00     0.067 A 
ATOM     78  C   UNL A   1      30.690  27.033  24.297  1.00  0.00     0.018 A 
ATOM     79  C   UNL A   1      29.252  28.678  23.283  1.00  0.00     0.101 A 
ATOM     80  C   UNL A   1      29.608  26.165  24.381  1.00  0.00     0.021 A 
ATOM     81  N   UNL A   1      28.193  27.814  23.339  1.00  0.00    -0.254 NA
ATOM     82  C   UNL A   1      28.392  26.594  23.884  1.00  0.00     0.112 A 
BRANCH  79  83
ATOM     83  C   UNL A   1      28.931  30.015  22.756  1.00  0.00     0.089 A 
ATOM     84  C   UNL A   1      28.725  31.115  23.588  1.00  0.00     0.031 A 
ATOM     85  N   UNL A   1      28.856  30.113  21.400  1.00  0.00    -0.255 NA
ATOM     86  C   UNL A   1      28.414  32.347  23.015  1.00  0.00     0.004 A 
ATOM     87  C   UNL A   1      28.547  31.316  20.875  1.00  0.00     0.112 A 
ATOM     88  C   UNL A   1      28.319  32.451  21.633  1.00  0.00     0.020 A 
ENDBRANCH  79  83
ENDBRANCH  74  77
ENDBRANCH  72  73
ENDBRANCH  71  72
ENDBRANCH   1  71
TORSDOF 11
ENDMDL
