MODEL 1
REMARK VINA RESULT:     -13.1      0.000      0.000
REMARK SMILES Cc1c(C[C@@H](C)O)c(=O)oc2cc(OCC(=O)NCCCNC(=O)c3ccc(-c4c5nc(c(-c6c(F)c(F)c(F)c(F)c6F)c6ccc([nH]6)c(-c6c(F)c(F)c(F)c(F)c6F)c6nc(c(-c7c(F)c(F)c(F)c(F)c7F)c7ccc4[nH]7)C=C6)C=C5)cc3)ccc12
REMARK SMILES IDX 16 1 17 2 18 3 15 5 14 6 13 7 1 8 2 9 3 10 90 11 8 12 11 13
REMARK SMILES IDX 89 14 9 15 10 16 12 17 88 18 4 19 5 20 6 21 7 22 19 24 20 25
REMARK SMILES IDX 21 26 22 27 23 28 24 30 25 31 26 32 87 33 27 34 86 35 28 36
REMARK SMILES IDX 29 37 30 38 80 39 31 40 85 41 79 42 81 43 32 44 84 45 78 46
REMARK SMILES IDX 77 47 33 49 65 50 45 51 64 52 46 53 49 54 63 55 82 56 47 57
REMARK SMILES IDX 48 58 62 60 83 61 50 62 34 63 35 64 43 65 36 66 37 67 41 68
REMARK SMILES IDX 44 69 38 70 39 71 42 72 40 73 66 74 67 75 75 76 68 77 69 78
REMARK SMILES IDX 73 79 76 80 70 81 71 82 74 83 72 84 51 85 52 86 60 87 53 88
REMARK SMILES IDX 54 89 58 90 61 91 55 92 56 93 59 94 57 95
REMARK H PARENT 18 4 7 23 22 29 81 48 49 59
REMARK Flexibility Score: inf
ROOT
ATOM      1  C   UNL A   1      31.199  29.163  24.266  1.00  0.00     0.257 C 
ATOM      2  O   UNL A   1      30.895  29.133  23.073  1.00  0.00    -0.271 OA
ATOM      3  N   UNL A   1      31.330  30.377  24.875  1.00  0.00    -0.353 N 
ATOM      4  H   UNL A   1      31.203  31.164  24.295  1.00  0.00     0.163 HD
ENDROOT
BRANCH   1   5
ATOM      5  C   UNL A   1      31.395  27.880  25.078  1.00  0.00     0.329 C 
BRANCH   5   6
ATOM      6  O   UNL A   1      30.507  26.816  24.778  1.00  0.00    -0.484 OA
BRANCH   6   7
ATOM      7  C   UNL A   1      31.032  25.566  24.615  1.00  0.00     0.123 A 
ATOM      8  C   UNL A   1      32.015  20.917  22.507  1.00  0.00     0.046 C 
ATOM      9  C   UNL A   1      32.407  21.567  23.809  1.00  0.00    -0.030 A 
ATOM     10  C   UNL A   1      33.179  20.980  24.752  1.00  0.00     0.044 A 
ATOM     11  C   UNL A   1      31.897  22.927  24.054  1.00  0.00     0.021 A 
ATOM     12  C   UNL A   1      33.618  21.733  25.966  1.00  0.00     0.339 A 
ATOM     13  C   UNL A   1      32.412  23.658  25.119  1.00  0.00     0.142 A 
ATOM     14  C   UNL A   1      30.904  23.536  23.279  1.00  0.00     0.016 A 
ATOM     15  O   UNL A   1      34.252  21.194  26.867  1.00  0.00    -0.246 OA
ATOM     16  O   UNL A   1      33.333  23.086  26.010  1.00  0.00    -0.422 OA
ATOM     17  C   UNL A   1      32.017  24.971  25.395  1.00  0.00     0.094 A 
ATOM     18  C   UNL A   1      30.474  24.838  23.562  1.00  0.00     0.047 A 
BRANCH  10  19
ATOM     19  C   UNL A   1      33.712  19.563  24.681  1.00  0.00     0.075 C 
BRANCH  19  20
ATOM     20  C   UNL A   1      32.741  18.485  25.200  1.00  0.00     0.116 C 
ATOM     21  C   UNL A   1      33.026  17.079  24.681  1.00  0.00     0.038 C 
BRANCH  20  22
ATOM     22  O   UNL A   1      32.818  18.444  26.627  1.00  0.00    -0.393 OA
ATOM     23  H   UNL A   1      31.922  18.414  26.999  1.00  0.00     0.210 HD
ENDBRANCH  20  22
ENDBRANCH  19  20
ENDBRANCH  10  19
ENDBRANCH   6   7
ENDBRANCH   5   6
ENDBRANCH   1   5
BRANCH   3  24
ATOM     24  C   UNL A   1      31.631  30.663  26.265  1.00  0.00     0.117 C 
BRANCH  24  25
ATOM     25  C   UNL A   1      31.421  32.130  26.620  1.00  0.00     0.042 C 
BRANCH  25  26
ATOM     26  C   UNL A   1      32.632  32.801  27.260  1.00  0.00     0.118 C 
BRANCH  26  27
ATOM     27  N   UNL A   1      32.384  34.186  27.642  1.00  0.00    -0.352 N 
ATOM     28  C   UNL A   1      32.989  34.963  28.601  1.00  0.00     0.251 C 
ATOM     29  H   UNL A   1      31.672  34.635  27.133  1.00  0.00     0.163 HD
ATOM     30  O   UNL A   1      32.527  36.063  28.878  1.00  0.00    -0.269 OA
BRANCH  28  31
ATOM     31  C   UNL A   1      34.184  34.466  29.318  1.00  0.00     0.039 A 
ATOM     32  C   UNL A   1      34.017  33.832  30.552  1.00  0.00     0.014 A 
ATOM     33  C   UNL A   1      35.462  34.632  28.783  1.00  0.00     0.014 A 
ATOM     34  C   UNL A   1      35.127  33.297  31.213  1.00  0.00     0.010 A 
ATOM     35  C   UNL A   1      36.553  34.030  29.401  1.00  0.00     0.010 A 
ATOM     36  C   UNL A   1      36.399  33.356  30.622  1.00  0.00    -0.014 A 
BRANCH  36  37
ATOM     37  C   UNL A   1      37.591  32.740  31.260  1.00  0.00     0.031 A 
ATOM     38  C   UNL A   1      38.297  31.601  30.576  1.00  0.00     0.074 A 
ATOM     39  C   UNL A   1      37.984  33.140  32.485  1.00  0.00     0.049 A 
ATOM     40  N   UNL A   1      39.250  30.824  31.026  1.00  0.00    -0.248 NA
ATOM     41  C   UNL A   1      37.852  31.276  29.211  1.00  0.00     0.031 C 
ATOM     42  C   UNL A   1      37.372  34.218  33.263  1.00  0.00     0.029 A 
ATOM     43  N   UNL A   1      38.983  32.669  33.303  1.00  0.00    -0.354 N 
ATOM     44  C   UNL A   1      39.502  29.912  30.009  1.00  0.00     0.074 A 
ATOM     45  C   UNL A   1      38.568  30.195  28.942  1.00  0.00     0.031 C 
ATOM     46  C   UNL A   1      38.013  34.334  34.437  1.00  0.00     0.029 A 
ATOM     47  C   UNL A   1      39.048  33.308  34.518  1.00  0.00     0.049 A 
ATOM     48  H   UNL A   1      39.595  31.943  33.042  1.00  0.00     0.167 HD
ATOM     49  C   UNL A   1      40.445  28.941  29.961  1.00  0.00     0.037 A 
ATOM     50  C   UNL A   1      39.836  33.074  35.585  1.00  0.00     0.037 A 
ATOM     51  C   UNL A   1      41.386  28.675  31.017  1.00  0.00     0.049 A 
ATOM     52  C   UNL A   1      40.848  31.958  35.521  1.00  0.00     0.074 A 
ATOM     53  C   UNL A   1      42.399  27.732  31.052  1.00  0.00     0.029 A 
ATOM     54  N   UNL A   1      41.432  29.357  32.224  1.00  0.00    -0.354 N 
ATOM     55  N   UNL A   1      41.105  31.128  34.539  1.00  0.00    -0.248 NA
ATOM     56  C   UNL A   1      41.682  31.749  36.713  1.00  0.00     0.031 C 
ATOM     57  C   UNL A   1      43.025  27.810  32.299  1.00  0.00     0.029 A 
ATOM     58  C   UNL A   1      42.446  28.844  33.016  1.00  0.00     0.049 A 
ATOM     59  H   UNL A   1      40.831  30.095  32.479  1.00  0.00     0.167 HD
ATOM     60  C   UNL A   1      42.159  30.335  34.975  1.00  0.00     0.074 A 
ATOM     61  C   UNL A   1      42.496  30.785  36.309  1.00  0.00     0.031 C 
ATOM     62  C   UNL A   1      42.794  29.329  34.328  1.00  0.00     0.037 A 
BRANCH  49  63
ATOM     63  C   UNL A   1      40.512  28.094  28.723  1.00  0.00     0.064 A 
ATOM     64  C   UNL A   1      41.293  28.468  27.618  1.00  0.00     0.173 A 
ATOM     65  C   UNL A   1      39.832  26.868  28.658  1.00  0.00     0.173 A 
ATOM     66  F   UNL A   1      41.956  29.635  27.624  1.00  0.00    -0.203 F 
ATOM     67  C   UNL A   1      41.369  27.659  26.487  1.00  0.00     0.198 A 
ATOM     68  C   UNL A   1      39.937  26.047  27.539  1.00  0.00     0.198 A 
ATOM     69  F   UNL A   1      39.077  26.458  29.689  1.00  0.00    -0.203 F 
ATOM     70  F   UNL A   1      42.084  28.062  25.427  1.00  0.00    -0.200 F 
ATOM     71  C   UNL A   1      40.700  26.446  26.453  1.00  0.00     0.200 A 
ATOM     72  F   UNL A   1      39.304  24.865  27.514  1.00  0.00    -0.200 F 
ATOM     73  F   UNL A   1      40.786  25.663  25.368  1.00  0.00    -0.200 F 
ENDBRANCH  49  63
BRANCH  50  74
ATOM     74  C   UNL A   1      39.716  33.912  36.810  1.00  0.00     0.064 A 
ATOM     75  C   UNL A   1      38.920  33.497  37.888  1.00  0.00     0.173 A 
ATOM     76  C   UNL A   1      40.354  35.156  36.914  1.00  0.00     0.173 A 
ATOM     77  F   UNL A   1      38.272  32.325  37.830  1.00  0.00    -0.203 F 
ATOM     78  C   UNL A   1      38.739  34.311  39.005  1.00  0.00     0.198 A 
ATOM     79  C   UNL A   1      40.200  35.953  38.046  1.00  0.00     0.198 A 
ATOM     80  F   UNL A   1      41.131  35.599  35.915  1.00  0.00    -0.203 F 
ATOM     81  F   UNL A   1      37.919  33.918  39.990  1.00  0.00    -0.200 F 
ATOM     82  C   UNL A   1      39.381  35.536  39.085  1.00  0.00     0.200 A 
ATOM     83  F   UNL A   1      40.836  37.130  38.126  1.00  0.00    -0.200 F 
ATOM     84  F   UNL A   1      39.202  36.321  40.156  1.00  0.00    -0.200 F 
ENDBRANCH  50  74
BRANCH  62  85
ATOM     85  C   UNL A   1      43.970  28.691  35.010  1.00  0.00     0.064 A 
ATOM     86  C   UNL A   1      43.832  27.565  35.834  1.00  0.00     0.173 A 
ATOM     87  C   UNL A   1      45.264  29.183  34.782  1.00  0.00     0.173 A 
ATOM     88  F   UNL A   1      42.615  27.064  36.095  1.00  0.00    -0.203 F 
ATOM     89  C   UNL A   1      44.945  26.969  36.423  1.00  0.00     0.198 A 
ATOM     90  C   UNL A   1      46.377  28.565  35.344  1.00  0.00     0.198 A 
ATOM     91  F   UNL A   1      45.452  30.254  33.996  1.00  0.00    -0.203 F 
ATOM     92  F   UNL A   1      44.786  25.922  37.243  1.00  0.00    -0.200 F 
ATOM     93  C   UNL A   1      46.216  27.463  36.169  1.00  0.00     0.200 A 
ATOM     94  F   UNL A   1      47.605  29.034  35.083  1.00  0.00    -0.200 F 
ATOM     95  F   UNL A   1      47.287  26.879  36.723  1.00  0.00    -0.200 F 
ENDBRANCH  62  85
ENDBRANCH  36  37
ENDBRANCH  28  31
ENDBRANCH  26  27
ENDBRANCH  25  26
ENDBRANCH  24  25
ENDBRANCH   3  24
TORSDOF 15
ENDMDL
MODEL 2
REMARK VINA RESULT:     -12.9      6.600     11.397
REMARK SMILES Cc1c(C[C@@H](C)O)c(=O)oc2cc(OCC(=O)NCCCNC(=O)c3ccc(-c4c5nc(c(-c6c(F)c(F)c(F)c(F)c6F)c6ccc([nH]6)c(-c6c(F)c(F)c(F)c(F)c6F)c6nc(c(-c7c(F)c(F)c(F)c(F)c7F)c7ccc4[nH]7)C=C6)C=C5)cc3)ccc12
REMARK SMILES IDX 16 1 17 2 18 3 15 5 14 6 13 7 1 8 2 9 3 10 90 11 8 12 11 13
REMARK SMILES IDX 89 14 9 15 10 16 12 17 88 18 4 19 5 20 6 21 7 22 19 24 20 25
REMARK SMILES IDX 21 26 22 27 23 28 24 30 25 31 26 32 87 33 27 34 86 35 28 36
REMARK SMILES IDX 29 37 30 38 80 39 31 40 85 41 79 42 81 43 32 44 84 45 78 46
REMARK SMILES IDX 77 47 33 49 65 50 45 51 64 52 46 53 49 54 63 55 82 56 47 57
REMARK SMILES IDX 48 58 62 60 83 61 50 62 34 63 35 64 43 65 36 66 37 67 41 68
REMARK SMILES IDX 44 69 38 70 39 71 42 72 40 73 66 74 67 75 75 76 68 77 69 78
REMARK SMILES IDX 73 79 76 80 70 81 71 82 74 83 72 84 51 85 52 86 60 87 53 88
REMARK SMILES IDX 54 89 58 90 61 91 55 92 56 93 59 94 57 95
REMARK H PARENT 18 4 7 23 22 29 81 48 49 59
REMARK Flexibility Score: inf
ROOT
ATOM      1  C   UNL A   1      42.332  22.136  28.356  1.00  0.00     0.257 C 
ATOM      2  O   UNL A   1      43.168  22.907  28.829  1.00  0.00    -0.271 OA
ATOM      3  N   UNL A   1      42.653  20.815  28.242  1.00  0.00    -0.353 N 
ATOM      4  H   UNL A   1      43.565  20.570  28.523  1.00  0.00     0.163 HD
ENDROOT
BRANCH   1   5
ATOM      5  C   UNL A   1      40.944  22.621  27.929  1.00  0.00     0.329 C 
BRANCH   5   6
ATOM      6  O   UNL A   1      40.606  22.409  26.568  1.00  0.00    -0.484 OA
BRANCH   6   7
ATOM      7  C   UNL A   1      39.296  22.536  26.203  1.00  0.00     0.123 A 
ATOM      8  C   UNL A   1      34.698  24.742  25.194  1.00  0.00     0.046 C 
ATOM      9  C   UNL A   1      35.179  23.313  25.213  1.00  0.00    -0.030 A 
ATOM     10  C   UNL A   1      34.402  22.244  24.929  1.00  0.00     0.044 A 
ATOM     11  C   UNL A   1      36.589  23.091  25.579  1.00  0.00     0.021 A 
ATOM     12  C   UNL A   1      34.981  20.868  24.858  1.00  0.00     0.339 A 
ATOM     13  C   UNL A   1      37.143  21.830  25.387  1.00  0.00     0.142 A 
ATOM     14  C   UNL A   1      37.416  24.078  26.125  1.00  0.00     0.016 A 
ATOM     15  O   UNL A   1      34.279  19.878  24.678  1.00  0.00    -0.246 OA
ATOM     16  O   UNL A   1      36.358  20.755  24.944  1.00  0.00    -0.422 OA
ATOM     17  C   UNL A   1      38.484  21.544  25.664  1.00  0.00     0.094 A 
ATOM     18  C   UNL A   1      38.752  23.800  26.438  1.00  0.00     0.047 A 
BRANCH  10  19
ATOM     19  C   UNL A   1      32.921  22.304  24.614  1.00  0.00     0.075 C 
BRANCH  19  20
ATOM     20  C   UNL A   1      31.997  22.049  25.821  1.00  0.00     0.116 C 
ATOM     21  C   UNL A   1      30.791  22.981  25.898  1.00  0.00     0.038 C 
BRANCH  20  22
ATOM     22  O   UNL A   1      31.505  20.708  25.748  1.00  0.00    -0.393 OA
ATOM     23  H   UNL A   1      30.757  20.605  26.358  1.00  0.00     0.210 HD
ENDBRANCH  20  22
ENDBRANCH  19  20
ENDBRANCH  10  19
ENDBRANCH   6   7
ENDBRANCH   5   6
ENDBRANCH   1   5
BRANCH   3  24
ATOM     24  C   UNL A   1      41.827  19.723  27.764  1.00  0.00     0.117 C 
BRANCH  24  25
ATOM     25  C   UNL A   1      42.578  18.791  26.820  1.00  0.00     0.042 C 
BRANCH  25  26
ATOM     26  C   UNL A   1      42.634  19.275  25.375  1.00  0.00     0.118 C 
BRANCH  26  27
ATOM     27  N   UNL A   1      43.786  18.762  24.643  1.00  0.00    -0.352 N 
ATOM     28  C   UNL A   1      44.900  19.415  24.170  1.00  0.00     0.251 C 
ATOM     29  H   UNL A   1      43.763  17.795  24.459  1.00  0.00     0.163 HD
ATOM     30  O   UNL A   1      45.686  18.830  23.436  1.00  0.00    -0.269 OA
BRANCH  28  31
ATOM     31  C   UNL A   1      45.139  20.831  24.524  1.00  0.00     0.039 A 
ATOM     32  C   UNL A   1      44.854  21.822  23.581  1.00  0.00     0.014 A 
ATOM     33  C   UNL A   1      45.651  21.181  25.774  1.00  0.00     0.014 A 
ATOM     34  C   UNL A   1      45.011  23.169  23.920  1.00  0.00     0.010 A 
ATOM     35  C   UNL A   1      45.730  22.521  26.138  1.00  0.00     0.010 A 
ATOM     36  C   UNL A   1      45.411  23.530  25.216  1.00  0.00    -0.014 A 
BRANCH  36  37
ATOM     37  C   UNL A   1      45.525  24.951  25.637  1.00  0.00     0.031 A 
ATOM     38  C   UNL A   1      46.863  25.635  25.593  1.00  0.00     0.074 A 
ATOM     39  C   UNL A   1      44.453  25.595  26.138  1.00  0.00     0.049 A 
ATOM     40  N   UNL A   1      47.212  26.808  26.058  1.00  0.00    -0.248 NA
ATOM     41  C   UNL A   1      47.964  24.888  24.964  1.00  0.00     0.031 C 
ATOM     42  C   UNL A   1      43.104  25.036  26.254  1.00  0.00     0.029 A 
ATOM     43  N   UNL A   1      44.333  26.858  26.667  1.00  0.00    -0.354 N 
ATOM     44  C   UNL A   1      48.571  26.929  25.795  1.00  0.00     0.074 A 
ATOM     45  C   UNL A   1      48.996  25.691  25.179  1.00  0.00     0.031 C 
ATOM     46  C   UNL A   1      42.293  25.954  26.805  1.00  0.00     0.029 A 
ATOM     47  C   UNL A   1      43.071  27.145  27.129  1.00  0.00     0.049 A 
ATOM     48  H   UNL A   1      45.081  27.496  26.708  1.00  0.00     0.167 HD
ATOM     49  C   UNL A   1      49.385  27.986  26.024  1.00  0.00     0.037 A 
ATOM     50  C   UNL A   1      42.603  28.237  27.764  1.00  0.00     0.037 A 
ATOM     51  C   UNL A   1      48.954  29.224  26.618  1.00  0.00     0.049 A 
ATOM     52  C   UNL A   1      43.543  29.383  28.046  1.00  0.00     0.074 A 
ATOM     53  C   UNL A   1      49.696  30.366  26.866  1.00  0.00     0.029 A 
ATOM     54  N   UNL A   1      47.663  29.482  27.055  1.00  0.00    -0.354 N 
ATOM     55  N   UNL A   1      44.815  29.501  27.756  1.00  0.00    -0.248 NA
ATOM     56  C   UNL A   1      42.977  30.548  28.741  1.00  0.00     0.031 C 
ATOM     57  C   UNL A   1      48.868  31.296  27.498  1.00  0.00     0.029 A 
ATOM     58  C   UNL A   1      47.593  30.760  27.585  1.00  0.00     0.049 A 
ATOM     59  H   UNL A   1      46.910  28.851  26.998  1.00  0.00     0.167 HD
ATOM     60  C   UNL A   1      45.189  30.768  28.187  1.00  0.00     0.074 A 
ATOM     61  C   UNL A   1      44.007  31.381  28.755  1.00  0.00     0.031 C 
ATOM     62  C   UNL A   1      46.399  31.371  28.113  1.00  0.00     0.037 A 
BRANCH  49  63
ATOM     63  C   UNL A   1      50.827  27.856  25.625  1.00  0.00     0.064 A 
ATOM     64  C   UNL A   1      51.247  28.081  24.305  1.00  0.00     0.173 A 
ATOM     65  C   UNL A   1      51.808  27.556  26.583  1.00  0.00     0.173 A 
ATOM     66  F   UNL A   1      50.349  28.361  23.349  1.00  0.00    -0.203 F 
ATOM     67  C   UNL A   1      52.591  27.984  23.955  1.00  0.00     0.198 A 
ATOM     68  C   UNL A   1      53.155  27.494  26.235  1.00  0.00     0.198 A 
ATOM     69  F   UNL A   1      51.463  27.340  27.861  1.00  0.00    -0.203 F 
ATOM     70  F   UNL A   1      52.962  28.157  22.678  1.00  0.00    -0.200 F 
ATOM     71  C   UNL A   1      53.544  27.701  24.921  1.00  0.00     0.200 A 
ATOM     72  F   UNL A   1      54.077  27.238  27.174  1.00  0.00    -0.200 F 
ATOM     73  F   UNL A   1      54.839  27.624  24.584  1.00  0.00    -0.200 F 
ENDBRANCH  49  63
BRANCH  50  74
ATOM     74  C   UNL A   1      41.175  28.315  28.177  1.00  0.00     0.064 A 
ATOM     75  C   UNL A   1      40.211  28.874  27.326  1.00  0.00     0.173 A 
ATOM     76  C   UNL A   1      40.751  27.875  29.439  1.00  0.00     0.173 A 
ATOM     77  F   UNL A   1      40.568  29.328  26.116  1.00  0.00    -0.203 F 
ATOM     78  C   UNL A   1      38.887  29.023  27.735  1.00  0.00     0.198 A 
ATOM     79  C   UNL A   1      39.420  27.993  29.834  1.00  0.00     0.198 A 
ATOM     80  F   UNL A   1      41.630  27.328  30.292  1.00  0.00    -0.203 F 
ATOM     81  F   UNL A   1      38.002  29.621  26.926  1.00  0.00    -0.200 F 
ATOM     82  C   UNL A   1      38.492  28.580  28.987  1.00  0.00     0.200 A 
ATOM     83  F   UNL A   1      39.039  27.549  31.041  1.00  0.00    -0.200 F 
ATOM     84  F   UNL A   1      37.220  28.729  29.384  1.00  0.00    -0.200 F 
ENDBRANCH  50  74
BRANCH  62  85
ATOM     85  C   UNL A   1      46.501  32.793  28.584  1.00  0.00     0.064 A 
ATOM     86  C   UNL A   1      46.883  33.119  29.893  1.00  0.00     0.173 A 
ATOM     87  C   UNL A   1      46.271  33.847  27.686  1.00  0.00     0.173 A 
ATOM     88  F   UNL A   1      47.101  32.148  30.794  1.00  0.00    -0.203 F 
ATOM     89  C   UNL A   1      47.009  34.447  30.292  1.00  0.00     0.198 A 
ATOM     90  C   UNL A   1      46.430  35.173  28.078  1.00  0.00     0.198 A 
ATOM     91  F   UNL A   1      45.910  33.590  26.420  1.00  0.00    -0.203 F 
ATOM     92  F   UNL A   1      47.331  34.736  31.560  1.00  0.00    -0.200 F 
ATOM     93  C   UNL A   1      46.793  35.472  29.383  1.00  0.00     0.200 A 
ATOM     94  F   UNL A   1      46.238  36.160  27.193  1.00  0.00    -0.200 F 
ATOM     95  F   UNL A   1      46.929  36.749  29.764  1.00  0.00    -0.200 F 
ENDBRANCH  62  85
ENDBRANCH  36  37
ENDBRANCH  28  31
ENDBRANCH  26  27
ENDBRANCH  25  26
ENDBRANCH  24  25
ENDBRANCH   3  24
TORSDOF 15
ENDMDL
MODEL 3
REMARK VINA RESULT:     -12.8      5.526     11.340
REMARK SMILES Cc1c(C[C@@H](C)O)c(=O)oc2cc(OCC(=O)NCCCNC(=O)c3ccc(-c4c5nc(c(-c6c(F)c(F)c(F)c(F)c6F)c6ccc([nH]6)c(-c6c(F)c(F)c(F)c(F)c6F)c6nc(c(-c7c(F)c(F)c(F)c(F)c7F)c7ccc4[nH]7)C=C6)C=C5)cc3)ccc12
REMARK SMILES IDX 16 1 17 2 18 3 15 5 14 6 13 7 1 8 2 9 3 10 90 11 8 12 11 13
REMARK SMILES IDX 89 14 9 15 10 16 12 17 88 18 4 19 5 20 6 21 7 22 19 24 20 25
REMARK SMILES IDX 21 26 22 27 23 28 24 30 25 31 26 32 87 33 27 34 86 35 28 36
REMARK SMILES IDX 29 37 30 38 80 39 31 40 85 41 79 42 81 43 32 44 84 45 78 46
REMARK SMILES IDX 77 47 33 49 65 50 45 51 64 52 46 53 49 54 63 55 82 56 47 57
REMARK SMILES IDX 48 58 62 60 83 61 50 62 34 63 35 64 43 65 36 66 37 67 41 68
REMARK SMILES IDX 44 69 38 70 39 71 42 72 40 73 66 74 67 75 75 76 68 77 69 78
REMARK SMILES IDX 73 79 76 80 70 81 71 82 74 83 72 84 51 85 52 86 60 87 53 88
REMARK SMILES IDX 54 89 58 90 61 91 55 92 56 93 59 94 57 95
REMARK H PARENT 18 4 7 23 22 29 81 48 49 59
REMARK Flexibility Score: inf
ROOT
ATOM      1  C   UNL A   1      34.171  20.229  24.935  1.00  0.00     0.257 C 
ATOM      2  O   UNL A   1      33.284  19.380  24.830  1.00  0.00    -0.271 OA
ATOM      3  N   UNL A   1      35.467  19.812  25.014  1.00  0.00    -0.353 N 
ATOM      4  H   UNL A   1      35.605  18.837  25.017  1.00  0.00     0.163 HD
ENDROOT
BRANCH   1   5
ATOM      5  C   UNL A   1      33.851  21.726  24.942  1.00  0.00     0.329 C 
BRANCH   5   6
ATOM      6  O   UNL A   1      33.425  22.274  23.704  1.00  0.00    -0.484 OA
BRANCH   6   7
ATOM      7  C   UNL A   1      32.719  23.443  23.726  1.00  0.00     0.123 A 
ATOM      8  C   UNL A   1      28.674  26.704  23.873  1.00  0.00     0.046 C 
ATOM      9  C   UNL A   1      30.161  26.905  23.718  1.00  0.00    -0.030 A 
ATOM     10  C   UNL A   1      30.757  28.110  23.584  1.00  0.00     0.044 A 
ATOM     11  C   UNL A   1      30.997  25.692  23.703  1.00  0.00     0.021 A 
ATOM     12  C   UNL A   1      32.246  28.234  23.549  1.00  0.00     0.339 A 
ATOM     13  C   UNL A   1      32.378  25.826  23.799  1.00  0.00     0.142 A 
ATOM     14  C   UNL A   1      30.485  24.395  23.589  1.00  0.00     0.016 A 
ATOM     15  O   UNL A   1      32.802  29.308  23.350  1.00  0.00    -0.246 OA
ATOM     16  O   UNL A   1      32.983  27.091  23.811  1.00  0.00    -0.422 OA
ATOM     17  C   UNL A   1      33.242  24.726  23.839  1.00  0.00     0.094 A 
ATOM     18  C   UNL A   1      31.339  23.285  23.594  1.00  0.00     0.047 A 
BRANCH  10  19
ATOM     19  C   UNL A   1      30.029  29.437  23.501  1.00  0.00     0.075 C 
BRANCH  19  20
ATOM     20  C   UNL A   1      29.513  29.799  22.094  1.00  0.00     0.116 C 
ATOM     21  C   UNL A   1      28.592  31.015  22.056  1.00  0.00     0.038 C 
BRANCH  20  22
ATOM     22  O   UNL A   1      30.634  30.079  21.251  1.00  0.00    -0.393 OA
ATOM     23  H   UNL A   1      30.652  31.027  21.042  1.00  0.00     0.210 HD
ENDBRANCH  20  22
ENDBRANCH  19  20
ENDBRANCH  10  19
ENDBRANCH   6   7
ENDBRANCH   5   6
ENDBRANCH   1   5
BRANCH   3  24
ATOM     24  C   UNL A   1      36.671  20.617  25.094  1.00  0.00     0.117 C 
BRANCH  24  25
ATOM     25  C   UNL A   1      37.938  19.798  24.879  1.00  0.00     0.042 C 
BRANCH  25  26
ATOM     26  C   UNL A   1      39.124  20.240  25.730  1.00  0.00     0.118 C 
BRANCH  26  27
ATOM     27  N   UNL A   1      40.134  19.202  25.889  1.00  0.00    -0.352 N 
ATOM     28  C   UNL A   1      41.484  19.307  26.129  1.00  0.00     0.251 C 
ATOM     29  H   UNL A   1      39.797  18.281  25.812  1.00  0.00     0.163 HD
ATOM     30  O   UNL A   1      42.194  18.311  26.071  1.00  0.00    -0.269 OA
BRANCH  28  31
ATOM     31  C   UNL A   1      42.086  20.623  26.432  1.00  0.00     0.039 A 
ATOM     32  C   UNL A   1      42.422  21.474  25.376  1.00  0.00     0.014 A 
ATOM     33  C   UNL A   1      42.330  21.014  27.750  1.00  0.00     0.014 A 
ATOM     34  C   UNL A   1      42.930  22.748  25.645  1.00  0.00     0.010 A 
ATOM     35  C   UNL A   1      42.759  22.309  28.018  1.00  0.00     0.010 A 
ATOM     36  C   UNL A   1      43.064  23.191  26.970  1.00  0.00    -0.014 A 
BRANCH  36  37
ATOM     37  C   UNL A   1      43.537  24.562  27.297  1.00  0.00     0.031 A 
ATOM     38  C   UNL A   1      42.564  25.577  27.830  1.00  0.00     0.074 A 
ATOM     39  C   UNL A   1      44.809  24.918  27.034  1.00  0.00     0.049 A 
ATOM     40  N   UNL A   1      42.728  26.861  28.028  1.00  0.00    -0.248 NA
ATOM     41  C   UNL A   1      41.216  25.087  28.158  1.00  0.00     0.031 C 
ATOM     42  C   UNL A   1      45.845  24.033  26.498  1.00  0.00     0.029 A 
ATOM     43  N   UNL A   1      45.444  26.130  27.162  1.00  0.00    -0.354 N 
ATOM     44  C   UNL A   1      41.504  27.331  28.485  1.00  0.00     0.074 A 
ATOM     45  C   UNL A   1      40.590  26.209  28.483  1.00  0.00     0.031 C 
ATOM     46  C   UNL A   1      46.986  24.726  26.354  1.00  0.00     0.029 A 
ATOM     47  C   UNL A   1      46.752  26.115  26.738  1.00  0.00     0.049 A 
ATOM     48  H   UNL A   1      45.004  26.932  27.524  1.00  0.00     0.167 HD
ATOM     49  C   UNL A   1      41.178  28.580  28.893  1.00  0.00     0.037 A 
ATOM     50  C   UNL A   1      47.650  27.114  26.648  1.00  0.00     0.037 A 
ATOM     51  C   UNL A   1      42.094  29.689  28.913  1.00  0.00     0.049 A 
ATOM     52  C   UNL A   1      47.247  28.506  27.067  1.00  0.00     0.074 A 
ATOM     53  C   UNL A   1      41.868  30.988  29.335  1.00  0.00     0.029 A 
ATOM     54  N   UNL A   1      43.416  29.628  28.494  1.00  0.00    -0.354 N 
ATOM     55  N   UNL A   1      46.098  28.930  27.536  1.00  0.00    -0.248 NA
ATOM     56  C   UNL A   1      48.268  29.556  26.948  1.00  0.00     0.031 C 
ATOM     57  C   UNL A   1      43.037  31.725  29.125  1.00  0.00     0.029 A 
ATOM     58  C   UNL A   1      44.011  30.871  28.634  1.00  0.00     0.049 A 
ATOM     59  H   UNL A   1      43.862  28.822  28.147  1.00  0.00     0.167 HD
ATOM     60  C   UNL A   1      46.273  30.279  27.813  1.00  0.00     0.074 A 
ATOM     61  C   UNL A   1      47.640  30.604  27.463  1.00  0.00     0.031 C 
ATOM     62  C   UNL A   1      45.385  31.169  28.316  1.00  0.00     0.037 A 
BRANCH  49  63
ATOM     63  C   UNL A   1      39.769  28.817  29.358  1.00  0.00     0.064 A 
ATOM     64  C   UNL A   1      39.399  28.636  30.700  1.00  0.00     0.173 A 
ATOM     65  C   UNL A   1      38.791  29.282  28.466  1.00  0.00     0.173 A 
ATOM     66  F   UNL A   1      40.293  28.184  31.592  1.00  0.00    -0.203 F 
ATOM     67  C   UNL A   1      38.096  28.887  31.123  1.00  0.00     0.198 A 
ATOM     68  C   UNL A   1      37.499  29.564  28.900  1.00  0.00     0.198 A 
ATOM     69  F   UNL A   1      39.093  29.480  27.173  1.00  0.00    -0.203 F 
ATOM     70  F   UNL A   1      37.756  28.661  32.400  1.00  0.00    -0.200 F 
ATOM     71  C   UNL A   1      37.151  29.359  30.227  1.00  0.00     0.200 A 
ATOM     72  F   UNL A   1      36.590  30.038  28.036  1.00  0.00    -0.200 F 
ATOM     73  F   UNL A   1      35.902  29.614  30.640  1.00  0.00    -0.200 F 
ENDBRANCH  49  63
BRANCH  50  74
ATOM     74  C   UNL A   1      49.027  26.848  26.147  1.00  0.00     0.064 A 
ATOM     75  C   UNL A   1      49.347  27.036  24.795  1.00  0.00     0.173 A 
ATOM     76  C   UNL A   1      50.035  26.364  26.993  1.00  0.00     0.173 A 
ATOM     77  F   UNL A   1      48.414  27.479  23.940  1.00  0.00    -0.203 F 
ATOM     78  C   UNL A   1      50.611  26.715  24.302  1.00  0.00     0.198 A 
ATOM     79  C   UNL A   1      51.307  26.075  26.505  1.00  0.00     0.198 A 
ATOM     80  F   UNL A   1      49.784  26.170  28.296  1.00  0.00    -0.203 F 
ATOM     81  F   UNL A   1      50.868  26.841  22.993  1.00  0.00    -0.200 F 
ATOM     82  C   UNL A   1      51.591  26.238  25.158  1.00  0.00     0.200 A 
ATOM     83  F   UNL A   1      52.257  25.629  27.340  1.00  0.00    -0.200 F 
ATOM     84  F   UNL A   1      52.804  25.922  24.683  1.00  0.00    -0.200 F 
ENDBRANCH  50  74
BRANCH  62  85
ATOM     85  C   UNL A   1      45.872  32.561  28.598  1.00  0.00     0.064 A 
ATOM     86  C   UNL A   1      46.433  32.917  29.833  1.00  0.00     0.173 A 
ATOM     87  C   UNL A   1      45.832  33.536  27.590  1.00  0.00     0.173 A 
ATOM     88  F   UNL A   1      46.482  32.026  30.836  1.00  0.00    -0.203 F 
ATOM     89  C   UNL A   1      46.914  34.206  30.055  1.00  0.00     0.198 A 
ATOM     90  C   UNL A   1      46.345  34.812  27.803  1.00  0.00     0.198 A 
ATOM     91  F   UNL A   1      45.312  33.245  26.388  1.00  0.00    -0.203 F 
ATOM     92  F   UNL A   1      47.403  34.538  31.257  1.00  0.00    -0.200 F 
ATOM     93  C   UNL A   1      46.879  35.148  29.037  1.00  0.00     0.200 A 
ATOM     94  F   UNL A   1      46.326  35.715  26.813  1.00  0.00    -0.200 F 
ATOM     95  F   UNL A   1      47.357  36.382  29.247  1.00  0.00    -0.200 F 
ENDBRANCH  62  85
ENDBRANCH  36  37
ENDBRANCH  28  31
ENDBRANCH  26  27
ENDBRANCH  25  26
ENDBRANCH  24  25
ENDBRANCH   3  24
TORSDOF 15
ENDMDL
