MODEL 1
REMARK VINA RESULT:     -13.5      0.000      0.000
REMARK SMILES O=C(NCCCNC(=O)c1cccn2c(=O)c3ccc(Cl)cc3nc12)c1ccc(-c2c3nc(c(-c4c(F)c(F)c(F)c(F)c4F)c4ccc([nH]4)c(-c4c(F)c(F)c(F)c(F)c4F)c4nc(c(-c5c(F)c(F)c(F)c(F)c5F)c5ccc2[nH]5)C=C4)C=C3)cc1
REMARK SMILES IDX 4 1 3 2 1 3 2 4 26 6 27 7 88 8 28 9 87 10 29 11 30 12 31 13
REMARK SMILES IDX 81 14 32 15 86 16 80 17 82 18 33 19 85 20 79 21 78 22 34 24
REMARK SMILES IDX 66 25 46 26 65 27 47 28 50 29 64 30 83 31 48 32 49 33 63 35
REMARK SMILES IDX 84 36 51 37 35 38 36 39 44 40 37 41 38 42 42 43 45 44 39 45
REMARK SMILES IDX 40 46 43 47 41 48 67 49 68 50 76 51 69 52 70 53 74 54 77 55
REMARK SMILES IDX 71 56 72 57 75 58 73 59 52 60 53 61 61 62 54 63 55 64 59 65
REMARK SMILES IDX 62 66 56 67 57 68 60 69 58 70 5 71 6 72 7 73 8 74 9 76 10 77
REMARK SMILES IDX 11 78 25 79 12 80 14 81 24 82 13 83 15 84 23 85 16 86 17 87
REMARK SMILES IDX 22 88 18 89 20 90 19 91 21 92
REMARK H PARENT 3 5 82 23 50 34 7 75
REMARK Flexibility Score: inf
ROOT
ATOM      1  C   UNL A   1      33.091  29.162  25.253  1.00  0.00     0.118 C 
ENDROOT
BRANCH   1   2
ATOM      2  N   UNL A   1      32.606  30.441  25.751  1.00  0.00    -0.352 N 
ATOM      3  O   UNL A   1      32.346  32.183  27.139  1.00  0.00    -0.269 OA
ATOM      4  C   UNL A   1      33.038  31.225  26.787  1.00  0.00     0.251 C 
ATOM      5  H   UNL A   1      31.834  30.805  25.259  1.00  0.00     0.163 HD
BRANCH   4   6
ATOM      6  C   UNL A   1      34.310  30.955  27.494  1.00  0.00     0.039 A 
ATOM      7  C   UNL A   1      34.546  29.661  27.973  1.00  0.00     0.014 A 
ATOM      8  C   UNL A   1      35.227  31.972  27.774  1.00  0.00     0.014 A 
ATOM      9  C   UNL A   1      35.710  29.379  28.695  1.00  0.00     0.010 A 
ATOM     10  C   UNL A   1      36.418  31.677  28.438  1.00  0.00     0.010 A 
ATOM     11  C   UNL A   1      36.664  30.383  28.920  1.00  0.00    -0.014 A 
BRANCH  11  12
ATOM     12  C   UNL A   1      37.890  30.122  29.714  1.00  0.00     0.031 A 
ATOM     13  C   UNL A   1      38.977  29.255  29.142  1.00  0.00     0.074 A 
ATOM     14  C   UNL A   1      38.017  30.631  30.955  1.00  0.00     0.049 A 
ATOM     15  N   UNL A   1      40.060  28.793  29.716  1.00  0.00    -0.248 NA
ATOM     16  C   UNL A   1      38.818  28.838  27.738  1.00  0.00     0.031 C 
ATOM     17  C   UNL A   1      37.042  31.495  31.622  1.00  0.00     0.029 A 
ATOM     18  N   UNL A   1      39.023  30.489  31.879  1.00  0.00    -0.354 N 
ATOM     19  C   UNL A   1      40.696  28.019  28.754  1.00  0.00     0.074 A 
ATOM     20  C   UNL A   1      39.867  28.046  27.569  1.00  0.00     0.031 C 
ATOM     21  C   UNL A   1      37.507  31.823  32.838  1.00  0.00     0.029 A 
ATOM     22  C   UNL A   1      38.790  31.160  33.055  1.00  0.00     0.049 A 
ATOM     23  H   UNL A   1      39.833  29.955  31.715  1.00  0.00     0.167 HD
ATOM     24  C   UNL A   1      41.874  27.361  28.846  1.00  0.00     0.037 A 
ATOM     25  C   UNL A   1      39.526  31.223  34.181  1.00  0.00     0.037 A 
ATOM     26  C   UNL A   1      42.717  27.358  30.012  1.00  0.00     0.049 A 
ATOM     27  C   UNL A   1      40.824  30.467  34.260  1.00  0.00     0.074 A 
ATOM     28  C   UNL A   1      43.920  26.703  30.207  1.00  0.00     0.029 A 
ATOM     29  N   UNL A   1      42.450  28.064  31.175  1.00  0.00    -0.354 N 
ATOM     30  N   UNL A   1      41.401  29.717  33.354  1.00  0.00    -0.248 NA
ATOM     31  C   UNL A   1      41.572  30.563  35.523  1.00  0.00     0.031 C 
ATOM     32  C   UNL A   1      44.378  27.003  31.493  1.00  0.00     0.029 A 
ATOM     33  C   UNL A   1      43.474  27.870  32.087  1.00  0.00     0.049 A 
ATOM     34  H   UNL A   1      41.653  28.619  31.329  1.00  0.00     0.167 HD
ATOM     35  C   UNL A   1      42.590  29.281  33.922  1.00  0.00     0.074 A 
ATOM     36  C   UNL A   1      42.658  29.854  35.249  1.00  0.00     0.031 C 
ATOM     37  C   UNL A   1      43.541  28.475  33.389  1.00  0.00     0.037 A 
BRANCH  24  38
ATOM     38  C   UNL A   1      42.342  26.596  27.644  1.00  0.00     0.064 A 
ATOM     39  C   UNL A   1      43.272  27.146  26.751  1.00  0.00     0.173 A 
ATOM     40  C   UNL A   1      41.914  25.279  27.425  1.00  0.00     0.173 A 
ATOM     41  F   UNL A   1      43.698  28.407  26.913  1.00  0.00    -0.203 F 
ATOM     42  C   UNL A   1      43.752  26.405  25.675  1.00  0.00     0.198 A 
ATOM     43  C   UNL A   1      42.414  24.534  26.361  1.00  0.00     0.198 A 
ATOM     44  F   UNL A   1      41.028  24.708  28.255  1.00  0.00    -0.203 F 
ATOM     45  F   UNL A   1      44.623  26.958  24.819  1.00  0.00    -0.200 F 
ATOM     46  C   UNL A   1      43.331  25.098  25.486  1.00  0.00     0.200 A 
ATOM     47  F   UNL A   1      42.014  23.267  26.185  1.00  0.00    -0.200 F 
ATOM     48  F   UNL A   1      43.809  24.381  24.460  1.00  0.00    -0.200 F 
ENDBRANCH  24  38
BRANCH  25  49
ATOM     49  C   UNL A   1      39.068  32.056  35.323  1.00  0.00     0.064 A 
ATOM     50  C   UNL A   1      39.388  33.420  35.383  1.00  0.00     0.173 A 
ATOM     51  C   UNL A   1      38.324  31.511  36.378  1.00  0.00     0.173 A 
ATOM     52  F   UNL A   1      40.120  33.979  34.408  1.00  0.00    -0.203 F 
ATOM     53  C   UNL A   1      38.993  34.203  36.465  1.00  0.00     0.198 A 
ATOM     54  C   UNL A   1      37.909  32.301  37.447  1.00  0.00     0.198 A 
ATOM     55  F   UNL A   1      37.993  30.212  36.365  1.00  0.00    -0.203 F 
ATOM     56  F   UNL A   1      39.348  35.495  36.518  1.00  0.00    -0.200 F 
ATOM     57  C   UNL A   1      38.250  33.645  37.493  1.00  0.00     0.200 A 
ATOM     58  F   UNL A   1      37.183  31.761  38.436  1.00  0.00    -0.200 F 
ATOM     59  F   UNL A   1      37.870  34.400  38.534  1.00  0.00    -0.200 F 
ENDBRANCH  25  49
BRANCH  37  60
ATOM     60  C   UNL A   1      44.763  28.209  34.213  1.00  0.00     0.064 A 
ATOM     61  C   UNL A   1      45.878  29.056  34.166  1.00  0.00     0.173 A 
ATOM     62  C   UNL A   1      44.790  27.128  35.108  1.00  0.00     0.173 A 
ATOM     63  F   UNL A   1      45.901  30.095  33.317  1.00  0.00    -0.203 F 
ATOM     64  C   UNL A   1      46.986  28.823  34.977  1.00  0.00     0.198 A 
ATOM     65  C   UNL A   1      45.890  26.910  35.931  1.00  0.00     0.198 A 
ATOM     66  F   UNL A   1      43.743  26.294  35.192  1.00  0.00    -0.203 F 
ATOM     67  F   UNL A   1      48.054  29.627  34.896  1.00  0.00    -0.200 F 
ATOM     68  C   UNL A   1      46.987  27.755  35.863  1.00  0.00     0.200 A 
ATOM     69  F   UNL A   1      45.886  25.885  36.794  1.00  0.00    -0.200 F 
ATOM     70  F   UNL A   1      48.051  27.538  36.649  1.00  0.00    -0.200 F 
ENDBRANCH  37  60
ENDBRANCH  11  12
ENDBRANCH   4   6
ENDBRANCH   1   2
BRANCH   1  71
ATOM     71  C   UNL A   1      33.062  29.072  23.731  1.00  0.00     0.042 C 
BRANCH  71  72
ATOM     72  C   UNL A   1      33.896  27.941  23.140  1.00  0.00     0.118 C 
BRANCH  72  73
ATOM     73  N   UNL A   1      33.249  27.285  22.014  1.00  0.00    -0.352 N 
ATOM     74  C   UNL A   1      32.213  26.390  21.995  1.00  0.00     0.255 C 
ATOM     75  H   UNL A   1      33.613  27.519  21.130  1.00  0.00     0.163 HD
ATOM     76  O   UNL A   1      31.824  25.944  20.916  1.00  0.00    -0.269 OA
BRANCH  74  77
ATOM     77  C   UNL A   1      31.562  26.018  23.271  1.00  0.00     0.083 A 
ATOM     78  C   UNL A   1      30.339  26.514  23.524  1.00  0.00     0.019 A 
ATOM     79  C   UNL A   1      32.171  25.035  24.226  1.00  0.00     0.153 A 
ATOM     80  C   UNL A   1      29.672  26.234  24.765  1.00  0.00     0.019 A 
ATOM     81  N   UNL A   1      31.470  24.807  25.417  1.00  0.00    -0.267 N 
ATOM     82  N   UNL A   1      33.296  24.452  23.944  1.00  0.00    -0.229 NA
ATOM     83  C   UNL A   1      30.248  25.426  25.659  1.00  0.00     0.096 A 
ATOM     84  C   UNL A   1      31.983  23.957  26.400  1.00  0.00     0.265 A 
ATOM     85  C   UNL A   1      33.807  23.496  24.827  1.00  0.00     0.080 A 
ATOM     86  O   UNL A   1      31.477  23.780  27.510  1.00  0.00    -0.268 OA
ATOM     87  C   UNL A   1      33.212  23.224  26.056  1.00  0.00     0.066 A 
ATOM     88  C   UNL A   1      34.941  22.771  24.451  1.00  0.00     0.049 A 
ATOM     89  C   UNL A   1      33.743  22.259  26.921  1.00  0.00     0.017 A 
ATOM     90  C   UNL A   1      35.467  21.796  25.302  1.00  0.00     0.043 A 
ATOM     91  C   UNL A   1      34.876  21.540  26.539  1.00  0.00     0.021 A 
ATOM     92  Cl  UNL A   1      36.850  20.895  24.819  1.00  0.00    -0.084 Cl
ENDBRANCH  74  77
ENDBRANCH  72  73
ENDBRANCH  71  72
ENDBRANCH   1  71
TORSDOF 10
ENDMDL
MODEL 2
REMARK VINA RESULT:     -13.2      4.009      9.402
REMARK SMILES O=C(NCCCNC(=O)c1cccn2c(=O)c3ccc(Cl)cc3nc12)c1ccc(-c2c3nc(c(-c4c(F)c(F)c(F)c(F)c4F)c4ccc([nH]4)c(-c4c(F)c(F)c(F)c(F)c4F)c4nc(c(-c5c(F)c(F)c(F)c(F)c5F)c5ccc2[nH]5)C=C4)C=C3)cc1
REMARK SMILES IDX 4 1 3 2 1 3 2 4 26 6 27 7 88 8 28 9 87 10 29 11 30 12 31 13
REMARK SMILES IDX 81 14 32 15 86 16 80 17 82 18 33 19 85 20 79 21 78 22 34 24
REMARK SMILES IDX 66 25 46 26 65 27 47 28 50 29 64 30 83 31 48 32 49 33 63 35
REMARK SMILES IDX 84 36 51 37 35 38 36 39 44 40 37 41 38 42 42 43 45 44 39 45
REMARK SMILES IDX 40 46 43 47 41 48 67 49 68 50 76 51 69 52 70 53 74 54 77 55
REMARK SMILES IDX 71 56 72 57 75 58 73 59 52 60 53 61 61 62 54 63 55 64 59 65
REMARK SMILES IDX 62 66 56 67 57 68 60 69 58 70 5 71 6 72 7 73 8 74 9 76 10 77
REMARK SMILES IDX 11 78 25 79 12 80 14 81 24 82 13 83 15 84 23 85 16 86 17 87
REMARK SMILES IDX 22 88 18 89 20 90 19 91 21 92
REMARK H PARENT 3 5 82 23 50 34 7 75
REMARK Flexibility Score: inf
ROOT
ATOM      1  C   UNL A   1      35.814  22.303  26.126  1.00  0.00     0.118 C 
ENDROOT
BRANCH   1   2
ATOM      2  N   UNL A   1      36.817  21.283  25.855  1.00  0.00    -0.352 N 
ATOM      3  O   UNL A   1      38.819  20.393  25.376  1.00  0.00    -0.269 OA
ATOM      4  C   UNL A   1      38.183  21.355  25.816  1.00  0.00     0.251 C 
ATOM      5  H   UNL A   1      36.450  20.389  25.668  1.00  0.00     0.163 HD
BRANCH   4   6
ATOM      6  C   UNL A   1      38.918  22.552  26.283  1.00  0.00     0.039 A 
ATOM      7  C   UNL A   1      38.568  23.800  25.753  1.00  0.00     0.014 A 
ATOM      8  C   UNL A   1      40.002  22.454  27.161  1.00  0.00     0.014 A 
ATOM      9  C   UNL A   1      39.275  24.947  26.128  1.00  0.00     0.010 A 
ATOM     10  C   UNL A   1      40.665  23.606  27.584  1.00  0.00     0.010 A 
ATOM     11  C   UNL A   1      40.320  24.861  27.060  1.00  0.00    -0.014 A 
BRANCH  11  12
ATOM     12  C   UNL A   1      41.112  26.055  27.448  1.00  0.00     0.031 A 
ATOM     13  C   UNL A   1      40.469  27.140  28.268  1.00  0.00     0.074 A 
ATOM     14  C   UNL A   1      42.389  26.185  27.041  1.00  0.00     0.049 A 
ATOM     15  N   UNL A   1      40.935  28.318  28.598  1.00  0.00    -0.248 NA
ATOM     16  C   UNL A   1      39.113  26.868  28.774  1.00  0.00     0.031 C 
ATOM     17  C   UNL A   1      43.133  25.203  26.252  1.00  0.00     0.029 A 
ATOM     18  N   UNL A   1      43.288  27.206  27.234  1.00  0.00    -0.354 N 
ATOM     19  C   UNL A   1      39.926  28.932  29.328  1.00  0.00     0.074 A 
ATOM     20  C   UNL A   1      38.811  28.013  29.369  1.00  0.00     0.031 C 
ATOM     21  C   UNL A   1      44.379  25.657  26.047  1.00  0.00     0.029 A 
ATOM     22  C   UNL A   1      44.511  26.980  26.651  1.00  0.00     0.049 A 
ATOM     23  H   UNL A   1      43.075  28.022  27.741  1.00  0.00     0.167 HD
ATOM     24  C   UNL A   1      39.938  30.146  29.925  1.00  0.00     0.037 A 
ATOM     25  C   UNL A   1      45.609  27.759  26.605  1.00  0.00     0.037 A 
ATOM     26  C   UNL A   1      41.056  31.050  29.912  1.00  0.00     0.049 A 
ATOM     27  C   UNL A   1      45.586  29.111  27.263  1.00  0.00     0.074 A 
ATOM     28  C   UNL A   1      41.154  32.312  30.472  1.00  0.00     0.029 A 
ATOM     29  N   UNL A   1      42.281  30.776  29.323  1.00  0.00    -0.354 N 
ATOM     30  N   UNL A   1      44.617  29.692  27.927  1.00  0.00    -0.248 NA
ATOM     31  C   UNL A   1      46.810  29.919  27.162  1.00  0.00     0.031 C 
ATOM     32  C   UNL A   1      42.436  32.807  30.213  1.00  0.00     0.029 A 
ATOM     33  C   UNL A   1      43.145  31.840  29.518  1.00  0.00     0.049 A 
ATOM     34  H   UNL A   1      42.503  29.948  28.839  1.00  0.00     0.167 HD
ATOM     35  C   UNL A   1      45.123  30.913  28.350  1.00  0.00     0.074 A 
ATOM     36  C   UNL A   1      46.488  30.991  27.873  1.00  0.00     0.031 C 
ATOM     37  C   UNL A   1      44.509  31.885  29.067  1.00  0.00     0.037 A 
BRANCH  24  38
ATOM     38  C   UNL A   1      38.704  30.571  30.665  1.00  0.00     0.064 A 
ATOM     39  C   UNL A   1      38.607  30.426  32.055  1.00  0.00     0.173 A 
ATOM     40  C   UNL A   1      37.645  31.194  29.989  1.00  0.00     0.173 A 
ATOM     41  F   UNL A   1      39.589  29.823  32.741  1.00  0.00    -0.203 F 
ATOM     42  C   UNL A   1      37.487  30.884  32.744  1.00  0.00     0.198 A 
ATOM     43  C   UNL A   1      36.537  31.670  30.684  1.00  0.00     0.198 A 
ATOM     44  F   UNL A   1      37.694  31.359  28.658  1.00  0.00    -0.203 F 
ATOM     45  F   UNL A   1      37.403  30.714  34.070  1.00  0.00    -0.200 F 
ATOM     46  C   UNL A   1      36.458  31.514  32.060  1.00  0.00     0.200 A 
ATOM     47  F   UNL A   1      35.548  32.288  30.023  1.00  0.00    -0.200 F 
ATOM     48  F   UNL A   1      35.389  31.970  32.727  1.00  0.00    -0.200 F 
ENDBRANCH  24  38
BRANCH  25  49
ATOM     49  C   UNL A   1      46.840  27.270  25.930  1.00  0.00     0.064 A 
ATOM     50  C   UNL A   1      47.808  26.553  26.647  1.00  0.00     0.173 A 
ATOM     51  C   UNL A   1      47.082  27.521  24.573  1.00  0.00     0.173 A 
ATOM     52  F   UNL A   1      47.630  26.311  27.954  1.00  0.00    -0.203 F 
ATOM     53  C   UNL A   1      48.980  26.119  26.033  1.00  0.00     0.198 A 
ATOM     54  C   UNL A   1      48.244  27.065  23.955  1.00  0.00     0.198 A 
ATOM     55  F   UNL A   1      46.185  28.203  23.846  1.00  0.00    -0.203 F 
ATOM     56  F   UNL A   1      49.909  25.471  26.752  1.00  0.00    -0.200 F 
ATOM     57  C   UNL A   1      49.195  26.371  24.687  1.00  0.00     0.200 A 
ATOM     58  F   UNL A   1      48.445  27.302  22.651  1.00  0.00    -0.200 F 
ATOM     59  F   UNL A   1      50.324  25.952  24.097  1.00  0.00    -0.200 F 
ENDBRANCH  25  49
BRANCH  37  60
ATOM     60  C   UNL A   1      45.318  33.090  29.433  1.00  0.00     0.064 A 
ATOM     61  C   UNL A   1      46.093  33.127  30.601  1.00  0.00     0.173 A 
ATOM     62  C   UNL A   1      45.369  34.196  28.571  1.00  0.00     0.173 A 
ATOM     63  F   UNL A   1      46.066  32.097  31.461  1.00  0.00    -0.203 F 
ATOM     64  C   UNL A   1      46.880  34.236  30.901  1.00  0.00     0.198 A 
ATOM     65  C   UNL A   1      46.173  35.293  28.863  1.00  0.00     0.198 A 
ATOM     66  F   UNL A   1      44.651  34.203  27.439  1.00  0.00    -0.203 F 
ATOM     67  F   UNL A   1      47.589  34.264  32.037  1.00  0.00    -0.200 F 
ATOM     68  C   UNL A   1      46.925  35.314  30.028  1.00  0.00     0.200 A 
ATOM     69  F   UNL A   1      46.223  36.330  28.015  1.00  0.00    -0.200 F 
ATOM     70  F   UNL A   1      47.690  36.376  30.314  1.00  0.00    -0.200 F 
ENDBRANCH  37  60
ENDBRANCH  11  12
ENDBRANCH   4   6
ENDBRANCH   1   2
BRANCH   1  71
ATOM     71  C   UNL A   1      34.556  21.735  26.776  1.00  0.00     0.042 C 
BRANCH  71  72
ATOM     72  C   UNL A   1      33.604  22.778  27.348  1.00  0.00     0.118 C 
BRANCH  72  73
ATOM     73  N   UNL A   1      32.202  22.430  27.170  1.00  0.00    -0.352 N 
ATOM     74  C   UNL A   1      31.415  22.499  26.053  1.00  0.00     0.255 C 
ATOM     75  H   UNL A   1      31.751  22.093  27.977  1.00  0.00     0.163 HD
ATOM     76  O   UNL A   1      30.234  22.160  26.126  1.00  0.00    -0.269 OA
BRANCH  74  77
ATOM     77  C   UNL A   1      32.018  22.940  24.775  1.00  0.00     0.083 A 
ATOM     78  C   UNL A   1      32.160  22.031  23.796  1.00  0.00     0.019 A 
ATOM     79  C   UNL A   1      32.373  24.372  24.507  1.00  0.00     0.153 A 
ATOM     80  C   UNL A   1      32.784  22.379  22.551  1.00  0.00     0.019 A 
ATOM     81  N   UNL A   1      32.979  24.645  23.274  1.00  0.00    -0.267 N 
ATOM     82  N   UNL A   1      32.133  25.289  25.395  1.00  0.00    -0.229 NA
ATOM     83  C   UNL A   1      33.182  23.636  22.337  1.00  0.00     0.096 A 
ATOM     84  C   UNL A   1      33.404  25.936  22.952  1.00  0.00     0.265 A 
ATOM     85  C   UNL A   1      32.420  26.623  25.092  1.00  0.00     0.080 A 
ATOM     86  O   UNL A   1      34.028  26.238  21.934  1.00  0.00    -0.268 OA
ATOM     87  C   UNL A   1      33.059  26.997  23.913  1.00  0.00     0.066 A 
ATOM     88  C   UNL A   1      32.029  27.617  25.993  1.00  0.00     0.049 A 
ATOM     89  C   UNL A   1      33.331  28.342  23.631  1.00  0.00     0.017 A 
ATOM     90  C   UNL A   1      32.284  28.961  25.711  1.00  0.00     0.043 A 
ATOM     91  C   UNL A   1      32.939  29.328  24.536  1.00  0.00     0.021 A 
ATOM     92  Cl  UNL A   1      31.778  30.178  26.817  1.00  0.00    -0.084 Cl
ENDBRANCH  74  77
ENDBRANCH  72  73
ENDBRANCH  71  72
ENDBRANCH   1  71
TORSDOF 10
ENDMDL
MODEL 3
REMARK VINA RESULT:     -13.2      3.718      6.727
REMARK SMILES O=C(NCCCNC(=O)c1cccn2c(=O)c3ccc(Cl)cc3nc12)c1ccc(-c2c3nc(c(-c4c(F)c(F)c(F)c(F)c4F)c4ccc([nH]4)c(-c4c(F)c(F)c(F)c(F)c4F)c4nc(c(-c5c(F)c(F)c(F)c(F)c5F)c5ccc2[nH]5)C=C4)C=C3)cc1
REMARK SMILES IDX 4 1 3 2 1 3 2 4 26 6 27 7 88 8 28 9 87 10 29 11 30 12 31 13
REMARK SMILES IDX 81 14 32 15 86 16 80 17 82 18 33 19 85 20 79 21 78 22 34 24
REMARK SMILES IDX 66 25 46 26 65 27 47 28 50 29 64 30 83 31 48 32 49 33 63 35
REMARK SMILES IDX 84 36 51 37 35 38 36 39 44 40 37 41 38 42 42 43 45 44 39 45
REMARK SMILES IDX 40 46 43 47 41 48 67 49 68 50 76 51 69 52 70 53 74 54 77 55
REMARK SMILES IDX 71 56 72 57 75 58 73 59 52 60 53 61 61 62 54 63 55 64 59 65
REMARK SMILES IDX 62 66 56 67 57 68 60 69 58 70 5 71 6 72 7 73 8 74 9 76 10 77
REMARK SMILES IDX 11 78 25 79 12 80 14 81 24 82 13 83 15 84 23 85 16 86 17 87
REMARK SMILES IDX 22 88 18 89 20 90 19 91 21 92
REMARK H PARENT 3 5 82 23 50 34 7 75
REMARK Flexibility Score: inf
ROOT
ATOM      1  C   UNL A   1      37.068  23.731  24.928  1.00  0.00     0.118 C 
ENDROOT
BRANCH   1   2
ATOM      2  N   UNL A   1      38.045  22.774  25.426  1.00  0.00    -0.352 N 
ATOM      3  O   UNL A   1      39.950  22.006  26.326  1.00  0.00    -0.269 OA
ATOM      4  C   UNL A   1      39.170  22.952  26.185  1.00  0.00     0.251 C 
ATOM      5  H   UNL A   1      37.867  21.839  25.173  1.00  0.00     0.163 HD
BRANCH   4   6
ATOM      6  C   UNL A   1      39.477  24.243  26.841  1.00  0.00     0.039 A 
ATOM      7  C   UNL A   1      40.193  25.205  26.118  1.00  0.00     0.014 A 
ATOM      8  C   UNL A   1      39.153  24.484  28.179  1.00  0.00     0.014 A 
ATOM      9  C   UNL A   1      40.549  26.415  26.720  1.00  0.00     0.010 A 
ATOM     10  C   UNL A   1      39.453  25.717  28.759  1.00  0.00     0.010 A 
ATOM     11  C   UNL A   1      40.169  26.688  28.043  1.00  0.00    -0.014 A 
BRANCH  11  12
ATOM     12  C   UNL A   1      40.566  27.948  28.720  1.00  0.00     0.031 A 
ATOM     13  C   UNL A   1      41.989  28.135  29.167  1.00  0.00     0.074 A 
ATOM     14  C   UNL A   1      39.651  28.905  28.963  1.00  0.00     0.049 A 
ATOM     15  N   UNL A   1      42.512  29.092  29.891  1.00  0.00    -0.248 NA
ATOM     16  C   UNL A   1      42.951  27.098  28.757  1.00  0.00     0.031 C 
ATOM     17  C   UNL A   1      38.242  28.852  28.572  1.00  0.00     0.029 A 
ATOM     18  N   UNL A   1      39.773  30.113  29.605  1.00  0.00    -0.354 N 
ATOM     19  C   UNL A   1      43.854  28.763  30.039  1.00  0.00     0.074 A 
ATOM     20  C   UNL A   1      44.061  27.504  29.358  1.00  0.00     0.031 C 
ATOM     21  C   UNL A   1      37.635  29.985  28.962  1.00  0.00     0.029 A 
ATOM     22  C   UNL A   1      38.599  30.825  29.669  1.00  0.00     0.049 A 
ATOM     23  H   UNL A   1      40.620  30.437  29.986  1.00  0.00     0.167 HD
ATOM     24  C   UNL A   1      44.827  29.458  30.671  1.00  0.00     0.037 A 
ATOM     25  C   UNL A   1      38.333  32.015  30.240  1.00  0.00     0.037 A 
ATOM     26  C   UNL A   1      44.631  30.726  31.322  1.00  0.00     0.049 A 
ATOM     27  C   UNL A   1      39.432  32.756  30.951  1.00  0.00     0.074 A 
ATOM     28  C   UNL A   1      45.554  31.497  32.008  1.00  0.00     0.029 A 
ATOM     29  N   UNL A   1      43.431  31.418  31.349  1.00  0.00    -0.354 N 
ATOM     30  N   UNL A   1      40.689  32.422  31.107  1.00  0.00    -0.248 NA
ATOM     31  C   UNL A   1      39.074  34.043  31.568  1.00  0.00     0.031 C 
ATOM     32  C   UNL A   1      44.909  32.652  32.460  1.00  0.00     0.029 A 
ATOM     33  C   UNL A   1      43.593  32.613  32.029  1.00  0.00     0.049 A 
ATOM     34  H   UNL A   1      42.589  31.106  30.946  1.00  0.00     0.167 HD
ATOM     35  C   UNL A   1      41.277  33.466  31.808  1.00  0.00     0.074 A 
ATOM     36  C   UNL A   1      40.242  34.450  32.044  1.00  0.00     0.031 C 
ATOM     37  C   UNL A   1      42.560  33.595  32.223  1.00  0.00     0.037 A 
BRANCH  24  38
ATOM     38  C   UNL A   1      46.208  28.875  30.678  1.00  0.00     0.064 A 
ATOM     39  C   UNL A   1      47.140  29.203  29.683  1.00  0.00     0.173 A 
ATOM     40  C   UNL A   1      46.626  28.041  31.725  1.00  0.00     0.173 A 
ATOM     41  F   UNL A   1      46.781  29.985  28.655  1.00  0.00    -0.203 F 
ATOM     42  C   UNL A   1      48.441  28.711  29.733  1.00  0.00     0.198 A 
ATOM     43  C   UNL A   1      47.934  27.569  31.784  1.00  0.00     0.198 A 
ATOM     44  F   UNL A   1      45.772  27.702  32.703  1.00  0.00    -0.203 F 
ATOM     45  F   UNL A   1      49.308  29.018  28.759  1.00  0.00    -0.200 F 
ATOM     46  C   UNL A   1      48.840  27.903  30.787  1.00  0.00     0.200 A 
ATOM     47  F   UNL A   1      48.322  26.797  32.808  1.00  0.00    -0.200 F 
ATOM     48  F   UNL A   1      50.098  27.445  30.842  1.00  0.00    -0.200 F 
ENDBRANCH  24  38
BRANCH  25  49
ATOM     49  C   UNL A   1      36.970  32.599  30.144  1.00  0.00     0.064 A 
ATOM     50  C   UNL A   1      36.599  33.359  29.026  1.00  0.00     0.173 A 
ATOM     51  C   UNL A   1      36.024  32.426  31.163  1.00  0.00     0.173 A 
ATOM     52  F   UNL A   1      37.480  33.570  28.038  1.00  0.00    -0.203 F 
ATOM     53  C   UNL A   1      35.335  33.938  28.940  1.00  0.00     0.198 A 
ATOM     54  C   UNL A   1      34.752  32.986  31.064  1.00  0.00     0.198 A 
ATOM     55  F   UNL A   1      36.333  31.707  32.251  1.00  0.00    -0.203 F 
ATOM     56  F   UNL A   1      35.020  34.696  27.879  1.00  0.00    -0.200 F 
ATOM     57  C   UNL A   1      34.412  33.748  29.956  1.00  0.00     0.200 A 
ATOM     58  F   UNL A   1      33.859  32.794  32.044  1.00  0.00    -0.200 F 
ATOM     59  F   UNL A   1      33.196  34.307  29.872  1.00  0.00    -0.200 F 
ENDBRANCH  25  49
BRANCH  37  60
ATOM     60  C   UNL A   1      42.938  34.865  32.920  1.00  0.00     0.064 A 
ATOM     61  C   UNL A   1      43.375  35.991  32.209  1.00  0.00     0.173 A 
ATOM     62  C   UNL A   1      42.797  34.976  34.312  1.00  0.00     0.173 A 
ATOM     63  F   UNL A   1      43.535  35.928  30.878  1.00  0.00    -0.203 F 
ATOM     64  C   UNL A   1      43.673  37.180  32.868  1.00  0.00     0.198 A 
ATOM     65  C   UNL A   1      43.076  36.172  34.965  1.00  0.00     0.198 A 
ATOM     66  F   UNL A   1      42.376  33.927  35.034  1.00  0.00    -0.203 F 
ATOM     67  F   UNL A   1      44.118  38.236  32.174  1.00  0.00    -0.200 F 
ATOM     68  C   UNL A   1      43.516  37.272  34.244  1.00  0.00     0.200 A 
ATOM     69  F   UNL A   1      42.915  36.262  36.293  1.00  0.00    -0.200 F 
ATOM     70  F   UNL A   1      43.794  38.421  34.876  1.00  0.00    -0.200 F 
ENDBRANCH  37  60
ENDBRANCH  11  12
ENDBRANCH   4   6
ENDBRANCH   1   2
BRANCH   1  71
ATOM     71  C   UNL A   1      35.828  23.823  25.812  1.00  0.00     0.042 C 
BRANCH  71  72
ATOM     72  C   UNL A   1      34.872  22.642  25.699  1.00  0.00     0.118 C 
BRANCH  72  73
ATOM     73  N   UNL A   1      33.907  22.584  26.787  1.00  0.00    -0.352 N 
ATOM     74  C   UNL A   1      32.629  23.070  26.853  1.00  0.00     0.255 C 
ATOM     75  H   UNL A   1      34.221  22.126  27.599  1.00  0.00     0.163 HD
ATOM     76  O   UNL A   1      31.982  22.919  27.889  1.00  0.00    -0.269 OA
BRANCH  74  77
ATOM     77  C   UNL A   1      32.046  23.726  25.661  1.00  0.00     0.083 A 
ATOM     78  C   UNL A   1      31.285  22.983  24.840  1.00  0.00     0.019 A 
ATOM     79  C   UNL A   1      32.190  25.196  25.403  1.00  0.00     0.153 A 
ATOM     80  C   UNL A   1      30.731  23.542  23.640  1.00  0.00     0.019 A 
ATOM     81  N   UNL A   1      31.628  25.678  24.214  1.00  0.00    -0.267 N 
ATOM     82  N   UNL A   1      32.820  25.955  26.247  1.00  0.00    -0.229 NA
ATOM     83  C   UNL A   1      30.927  24.834  23.358  1.00  0.00     0.096 A 
ATOM     84  C   UNL A   1      31.760  27.021  23.850  1.00  0.00     0.265 A 
ATOM     85  C   UNL A   1      32.885  27.331  26.008  1.00  0.00     0.080 A 
ATOM     86  O   UNL A   1      31.379  27.500  22.781  1.00  0.00    -0.268 OA
ATOM     87  C   UNL A   1      32.395  27.907  24.839  1.00  0.00     0.066 A 
ATOM     88  C   UNL A   1      33.439  28.159  26.988  1.00  0.00     0.049 A 
ATOM     89  C   UNL A   1      32.469  29.290  24.625  1.00  0.00     0.017 A 
ATOM     90  C   UNL A   1      33.503  29.540  26.788  1.00  0.00     0.043 A 
ATOM     91  C   UNL A   1      33.025  30.109  25.608  1.00  0.00     0.021 A 
ATOM     92  Cl  UNL A   1      34.167  30.552  28.011  1.00  0.00    -0.084 Cl
ENDBRANCH  74  77
ENDBRANCH  72  73
ENDBRANCH  71  72
ENDBRANCH   1  71
TORSDOF 10
ENDMDL
