MODEL 1
REMARK VINA RESULT:     -13.3      0.000      0.000
REMARK SMILES Cc1nn(-c2ccccc2)c(C)c1CNC(=O)CCCC(=O)NCCCNC(=O)c1ccc(-c2c3nc(c(-c4c(F)c(F)c(F)c(F)c4F)c4ccc([nH]4)c(-c4c(F)c(F)c(F)c(F)c4F)c4nc(c(-c5c(F)c(F)c(F)c(F)c5F)c5ccc2[nH]5)C=C4)C=C3)cc1
REMARK SMILES IDX 21 1 22 2 23 3 20 5 19 6 18 7 16 8 15 9 17 11 14 12 13 13
REMARK SMILES IDX 1 14 2 15 3 16 4 17 11 18 12 19 5 20 6 21 10 22 7 23 9 24
REMARK SMILES IDX 8 25 24 26 25 27 26 28 27 29 28 30 29 32 30 33 31 34 92 35
REMARK SMILES IDX 32 36 91 37 33 38 34 39 35 40 85 41 36 42 90 43 84 44 86 45
REMARK SMILES IDX 37 46 89 47 83 48 82 49 38 51 70 52 50 53 69 54 51 55 54 56
REMARK SMILES IDX 68 57 87 58 52 59 53 60 67 62 88 63 55 64 39 65 40 66 48 67
REMARK SMILES IDX 41 68 42 69 46 70 49 71 43 72 44 73 47 74 45 75 71 76 72 77
REMARK SMILES IDX 80 78 73 79 74 80 78 81 81 82 75 83 76 84 79 85 77 86 56 87
REMARK SMILES IDX 57 88 65 89 58 90 59 91 63 92 66 93 60 94 61 95 64 96 62 97
REMARK H PARENT 23 4 15 10 27 31 86 50 54 61
REMARK Flexibility Score: inf
ROOT
ATOM      1  C   UNL A   1      36.349  22.934  23.884  1.00  0.00     0.220 C 
ATOM      2  O   UNL A   1      36.284  23.015  22.654  1.00  0.00    -0.275 OA
ATOM      3  N   UNL A   1      37.557  22.602  24.412  1.00  0.00    -0.356 N 
ATOM      4  H   UNL A   1      38.263  22.447  23.744  1.00  0.00     0.163 HD
ENDROOT
BRANCH   1   5
ATOM      5  C   UNL A   1      35.142  23.282  24.737  1.00  0.00     0.100 C 
BRANCH   5   6
ATOM      6  C   UNL A   1      34.821  24.739  25.014  1.00  0.00     0.020 C 
BRANCH   6   7
ATOM      7  C   UNL A   1      33.904  25.572  24.122  1.00  0.00     0.100 C 
BRANCH   7   8
ATOM      8  C   UNL A   1      33.205  25.240  22.797  1.00  0.00     0.220 C 
ATOM      9  N   UNL A   1      32.062  24.571  22.564  1.00  0.00    -0.352 N 
ATOM     10  H   UNL A   1      31.868  24.541  21.600  1.00  0.00     0.163 HD
ATOM     11  O   UNL A   1      33.796  25.580  21.758  1.00  0.00    -0.275 OA
BRANCH   9  12
ATOM     12  C   UNL A   1      31.034  23.884  23.314  1.00  0.00     0.155 C 
BRANCH  12  13
ATOM     13  C   UNL A   1      31.527  22.647  23.979  1.00  0.00     0.016 A 
ATOM     14  C   UNL A   1      30.913  23.275  26.453  1.00  0.00     0.069 C 
ATOM     15  C   UNL A   1      31.441  22.385  25.382  1.00  0.00     0.065 A 
ATOM     16  N   UNL A   1      31.864  21.157  25.694  1.00  0.00    -0.173 NA
ATOM     17  N   UNL A   1      32.366  20.668  24.541  1.00  0.00    -0.237 N 
ATOM     18  C   UNL A   1      32.049  21.472  23.457  1.00  0.00     0.046 A 
ATOM     19  C   UNL A   1      32.199  20.972  22.063  1.00  0.00     0.067 C 
BRANCH  17  20
ATOM     20  C   UNL A   1      32.995  19.403  24.470  1.00  0.00     0.065 A 
ATOM     21  C   UNL A   1      32.270  18.298  24.028  1.00  0.00     0.028 A 
ATOM     22  C   UNL A   1      34.379  19.311  24.686  1.00  0.00     0.028 A 
ATOM     23  C   UNL A   1      32.959  17.132  23.691  1.00  0.00     0.002 A 
ATOM     24  C   UNL A   1      35.057  18.142  24.361  1.00  0.00     0.002 A 
ATOM     25  C   UNL A   1      34.348  17.062  23.839  1.00  0.00     0.000 A 
ENDBRANCH  17  20
ENDBRANCH  12  13
ENDBRANCH   9  12
ENDBRANCH   7   8
ENDBRANCH   6   7
ENDBRANCH   5   6
ENDBRANCH   1   5
BRANCH   3  26
ATOM     26  C   UNL A   1      37.989  22.441  25.784  1.00  0.00     0.117 C 
BRANCH  26  27
ATOM     27  C   UNL A   1      39.062  21.367  25.946  1.00  0.00     0.042 C 
BRANCH  27  28
ATOM     28  C   UNL A   1      40.124  21.731  26.955  1.00  0.00     0.118 C 
BRANCH  28  29
ATOM     29  N   UNL A   1      41.414  21.982  26.319  1.00  0.00    -0.352 N 
ATOM     30  C   UNL A   1      42.024  23.206  26.131  1.00  0.00     0.251 C 
ATOM     31  H   UNL A   1      41.901  21.193  25.987  1.00  0.00     0.163 HD
ATOM     32  O   UNL A   1      42.936  23.358  25.341  1.00  0.00    -0.269 OA
BRANCH  30  33
ATOM     33  C   UNL A   1      41.484  24.336  26.904  1.00  0.00     0.039 A 
ATOM     34  C   UNL A   1      42.083  24.677  28.113  1.00  0.00     0.014 A 
ATOM     35  C   UNL A   1      40.541  25.162  26.294  1.00  0.00     0.014 A 
ATOM     36  C   UNL A   1      41.813  25.929  28.655  1.00  0.00     0.010 A 
ATOM     37  C   UNL A   1      40.361  26.444  26.779  1.00  0.00     0.010 A 
ATOM     38  C   UNL A   1      40.996  26.843  27.958  1.00  0.00    -0.014 A 
BRANCH  38  39
ATOM     39  C   UNL A   1      40.962  28.242  28.408  1.00  0.00     0.031 A 
ATOM     40  C   UNL A   1      42.079  29.105  27.917  1.00  0.00     0.074 A 
ATOM     41  C   UNL A   1      39.951  28.830  29.082  1.00  0.00     0.049 A 
ATOM     42  N   UNL A   1      43.009  29.656  28.625  1.00  0.00    -0.248 NA
ATOM     43  C   UNL A   1      42.230  29.321  26.470  1.00  0.00     0.031 C 
ATOM     44  C   UNL A   1      38.635  28.270  29.399  1.00  0.00     0.029 A 
ATOM     45  N   UNL A   1      39.864  30.113  29.559  1.00  0.00    -0.354 N 
ATOM     46  C   UNL A   1      43.765  30.433  27.748  1.00  0.00     0.074 A 
ATOM     47  C   UNL A   1      43.323  30.087  26.423  1.00  0.00     0.031 C 
ATOM     48  C   UNL A   1      37.812  29.257  29.811  1.00  0.00     0.029 A 
ATOM     49  C   UNL A   1      38.589  30.473  29.969  1.00  0.00     0.049 A 
ATOM     50  H   UNL A   1      40.635  30.723  29.606  1.00  0.00     0.167 HD
ATOM     51  C   UNL A   1      44.524  31.464  28.216  1.00  0.00     0.037 A 
ATOM     52  C   UNL A   1      38.171  31.669  30.442  1.00  0.00     0.037 A 
ATOM     53  C   UNL A   1      44.664  31.391  29.647  1.00  0.00     0.049 A 
ATOM     54  C   UNL A   1      39.338  32.383  30.999  1.00  0.00     0.074 A 
ATOM     55  C   UNL A   1      45.403  30.678  30.563  1.00  0.00     0.029 A 
ATOM     56  N   UNL A   1      43.652  32.003  30.331  1.00  0.00    -0.354 N 
ATOM     57  N   UNL A   1      39.954  32.019  32.089  1.00  0.00    -0.248 NA
ATOM     58  C   UNL A   1      40.019  33.401  30.207  1.00  0.00     0.031 C 
ATOM     59  C   UNL A   1      44.685  30.746  31.797  1.00  0.00     0.029 A 
ATOM     60  C   UNL A   1      43.537  31.508  31.600  1.00  0.00     0.049 A 
ATOM     61  H   UNL A   1      43.079  32.712  29.957  1.00  0.00     0.167 HD
ATOM     62  C   UNL A   1      41.256  32.415  31.885  1.00  0.00     0.074 A 
ATOM     63  C   UNL A   1      41.193  33.428  30.843  1.00  0.00     0.031 C 
ATOM     64  C   UNL A   1      42.291  31.638  32.317  1.00  0.00     0.037 A 
BRANCH  51  65
ATOM     65  C   UNL A   1      44.751  32.793  27.512  1.00  0.00     0.064 A 
ATOM     66  C   UNL A   1      45.999  33.024  26.886  1.00  0.00     0.173 A 
ATOM     67  C   UNL A   1      43.966  33.944  27.728  1.00  0.00     0.173 A 
ATOM     68  F   UNL A   1      46.834  32.006  26.628  1.00  0.00    -0.203 F 
ATOM     69  C   UNL A   1      46.461  34.312  26.600  1.00  0.00     0.198 A 
ATOM     70  C   UNL A   1      44.411  35.224  27.394  1.00  0.00     0.198 A 
ATOM     71  F   UNL A   1      42.793  33.894  28.369  1.00  0.00    -0.203 F 
ATOM     72  F   UNL A   1      47.705  34.486  26.133  1.00  0.00    -0.200 F 
ATOM     73  C   UNL A   1      45.671  35.413  26.865  1.00  0.00     0.200 A 
ATOM     74  F   UNL A   1      43.637  36.283  27.673  1.00  0.00    -0.200 F 
ATOM     75  F   UNL A   1      46.136  36.652  26.657  1.00  0.00    -0.200 F 
ENDBRANCH  51  65
BRANCH  52  76
ATOM     76  C   UNL A   1      36.823  32.271  30.425  1.00  0.00     0.064 A 
ATOM     77  C   UNL A   1      35.958  32.154  31.524  1.00  0.00     0.173 A 
ATOM     78  C   UNL A   1      36.460  33.198  29.430  1.00  0.00     0.173 A 
ATOM     79  F   UNL A   1      36.246  31.312  32.526  1.00  0.00    -0.203 F 
ATOM     80  C   UNL A   1      34.819  32.952  31.645  1.00  0.00     0.198 A 
ATOM     81  C   UNL A   1      35.317  33.987  29.547  1.00  0.00     0.198 A 
ATOM     82  F   UNL A   1      37.258  33.417  28.375  1.00  0.00    -0.203 F 
ATOM     83  F   UNL A   1      34.056  32.864  32.744  1.00  0.00    -0.200 F 
ATOM     84  C   UNL A   1      34.506  33.878  30.663  1.00  0.00     0.200 A 
ATOM     85  F   UNL A   1      35.037  34.899  28.604  1.00  0.00    -0.200 F 
ATOM     86  F   UNL A   1      33.451  34.690  30.811  1.00  0.00    -0.200 F 
ENDBRANCH  52  76
BRANCH  64  87
ATOM     87  C   UNL A   1      42.023  30.741  33.484  1.00  0.00     0.064 A 
ATOM     88  C   UNL A   1      42.083  31.143  34.828  1.00  0.00     0.173 A 
ATOM     89  C   UNL A   1      41.678  29.409  33.219  1.00  0.00     0.173 A 
ATOM     90  F   UNL A   1      42.322  32.420  35.158  1.00  0.00    -0.203 F 
ATOM     91  C   UNL A   1      41.875  30.229  35.859  1.00  0.00     0.198 A 
ATOM     92  C   UNL A   1      41.429  28.509  34.250  1.00  0.00     0.198 A 
ATOM     93  F   UNL A   1      41.564  28.982  31.951  1.00  0.00    -0.203 F 
ATOM     94  F   UNL A   1      41.982  30.623  37.137  1.00  0.00    -0.200 F 
ATOM     95  C   UNL A   1      41.547  28.914  35.568  1.00  0.00     0.200 A 
ATOM     96  F   UNL A   1      41.072  27.250  33.962  1.00  0.00    -0.200 F 
ATOM     97  F   UNL A   1      41.330  28.039  36.560  1.00  0.00    -0.200 F 
ENDBRANCH  64  87
ENDBRANCH  38  39
ENDBRANCH  30  33
ENDBRANCH  28  29
ENDBRANCH  27  28
ENDBRANCH  26  27
ENDBRANCH   3  26
TORSDOF 16
ENDMDL
MODEL 2
REMARK VINA RESULT:     -12.9      4.126      9.478
REMARK SMILES Cc1nn(-c2ccccc2)c(C)c1CNC(=O)CCCC(=O)NCCCNC(=O)c1ccc(-c2c3nc(c(-c4c(F)c(F)c(F)c(F)c4F)c4ccc([nH]4)c(-c4c(F)c(F)c(F)c(F)c4F)c4nc(c(-c5c(F)c(F)c(F)c(F)c5F)c5ccc2[nH]5)C=C4)C=C3)cc1
REMARK SMILES IDX 21 1 22 2 23 3 20 5 19 6 18 7 16 8 15 9 17 11 14 12 13 13
REMARK SMILES IDX 1 14 2 15 3 16 4 17 11 18 12 19 5 20 6 21 10 22 7 23 9 24
REMARK SMILES IDX 8 25 24 26 25 27 26 28 27 29 28 30 29 32 30 33 31 34 92 35
REMARK SMILES IDX 32 36 91 37 33 38 34 39 35 40 85 41 36 42 90 43 84 44 86 45
REMARK SMILES IDX 37 46 89 47 83 48 82 49 38 51 70 52 50 53 69 54 51 55 54 56
REMARK SMILES IDX 68 57 87 58 52 59 53 60 67 62 88 63 55 64 39 65 40 66 48 67
REMARK SMILES IDX 41 68 42 69 46 70 49 71 43 72 44 73 47 74 45 75 71 76 72 77
REMARK SMILES IDX 80 78 73 79 74 80 78 81 81 82 75 83 76 84 79 85 77 86 56 87
REMARK SMILES IDX 57 88 65 89 58 90 59 91 63 92 66 93 60 94 61 95 64 96 62 97
REMARK H PARENT 23 4 15 10 27 31 86 50 54 61
REMARK Flexibility Score: inf
ROOT
ATOM      1  C   UNL A   1      31.943  28.276  27.210  1.00  0.00     0.220 C 
ATOM      2  O   UNL A   1      31.105  27.850  28.009  1.00  0.00    -0.275 OA
ATOM      3  N   UNL A   1      32.719  29.309  27.630  1.00  0.00    -0.356 N 
ATOM      4  H   UNL A   1      32.518  29.623  28.541  1.00  0.00     0.163 HD
ENDROOT
BRANCH   1   5
ATOM      5  C   UNL A   1      32.131  27.595  25.866  1.00  0.00     0.100 C 
BRANCH   5   6
ATOM      6  C   UNL A   1      33.142  26.470  25.736  1.00  0.00     0.020 C 
BRANCH   6   7
ATOM      7  C   UNL A   1      32.828  25.024  26.110  1.00  0.00     0.100 C 
BRANCH   7   8
ATOM      8  C   UNL A   1      31.506  24.246  26.129  1.00  0.00     0.220 C 
ATOM      9  N   UNL A   1      30.692  23.896  25.117  1.00  0.00    -0.352 N 
ATOM     10  H   UNL A   1      29.923  23.381  25.452  1.00  0.00     0.163 HD
ATOM     11  O   UNL A   1      31.065  23.929  27.247  1.00  0.00    -0.275 OA
BRANCH   9  12
ATOM     12  C   UNL A   1      30.614  24.055  23.682  1.00  0.00     0.155 C 
BRANCH  12  13
ATOM     13  C   UNL A   1      30.524  25.479  23.257  1.00  0.00     0.016 A 
ATOM     14  C   UNL A   1      32.619  25.534  21.674  1.00  0.00     0.069 C 
ATOM     15  C   UNL A   1      31.418  26.113  22.339  1.00  0.00     0.065 A 
ATOM     16  N   UNL A   1      31.045  27.364  22.055  1.00  0.00    -0.173 NA
ATOM     17  N   UNL A   1      30.012  27.608  22.888  1.00  0.00    -0.237 N 
ATOM     18  C   UNL A   1      29.573  26.454  23.519  1.00  0.00     0.046 A 
ATOM     19  C   UNL A   1      28.255  26.413  24.209  1.00  0.00     0.067 C 
BRANCH  17  20
ATOM     20  C   UNL A   1      29.381  28.872  22.954  1.00  0.00     0.065 A 
ATOM     21  C   UNL A   1      28.065  29.009  22.515  1.00  0.00     0.028 A 
ATOM     22  C   UNL A   1      30.029  29.929  23.612  1.00  0.00     0.028 A 
ATOM     23  C   UNL A   1      27.363  30.170  22.844  1.00  0.00     0.002 A 
ATOM     24  C   UNL A   1      29.327  31.088  23.924  1.00  0.00     0.002 A 
ATOM     25  C   UNL A   1      27.987  31.195  23.562  1.00  0.00     0.000 A 
ENDBRANCH  17  20
ENDBRANCH  12  13
ENDBRANCH   9  12
ENDBRANCH   7   8
ENDBRANCH   6   7
ENDBRANCH   5   6
ENDBRANCH   1   5
BRANCH   3  26
ATOM     26  C   UNL A   1      33.791  30.028  26.976  1.00  0.00     0.117 C 
BRANCH  26  27
ATOM     27  C   UNL A   1      35.170  29.442  27.275  1.00  0.00     0.042 C 
BRANCH  27  28
ATOM     28  C   UNL A   1      36.162  30.469  27.763  1.00  0.00     0.118 C 
BRANCH  28  29
ATOM     29  N   UNL A   1      35.532  31.468  28.621  1.00  0.00    -0.352 N 
ATOM     30  C   UNL A   1      35.728  31.643  29.977  1.00  0.00     0.251 C 
ATOM     31  H   UNL A   1      34.897  32.083  28.187  1.00  0.00     0.163 HD
ATOM     32  O   UNL A   1      34.957  32.286  30.663  1.00  0.00    -0.269 OA
BRANCH  30  33
ATOM     33  C   UNL A   1      36.898  30.972  30.564  1.00  0.00     0.039 A 
ATOM     34  C   UNL A   1      36.793  29.639  30.948  1.00  0.00     0.014 A 
ATOM     35  C   UNL A   1      38.131  31.623  30.506  1.00  0.00     0.014 A 
ATOM     36  C   UNL A   1      37.962  28.917  31.162  1.00  0.00     0.010 A 
ATOM     37  C   UNL A   1      39.288  30.874  30.613  1.00  0.00     0.010 A 
ATOM     38  C   UNL A   1      39.218  29.517  30.938  1.00  0.00    -0.014 A 
BRANCH  38  39
ATOM     39  C   UNL A   1      40.410  28.659  30.894  1.00  0.00     0.031 A 
ATOM     40  C   UNL A   1      41.122  28.476  32.194  1.00  0.00     0.074 A 
ATOM     41  C   UNL A   1      40.814  27.922  29.837  1.00  0.00     0.049 A 
ATOM     42  N   UNL A   1      42.312  28.880  32.498  1.00  0.00    -0.248 NA
ATOM     43  C   UNL A   1      40.410  27.840  33.313  1.00  0.00     0.031 C 
ATOM     44  C   UNL A   1      40.111  27.706  28.570  1.00  0.00     0.029 A 
ATOM     45  N   UNL A   1      41.926  27.129  29.712  1.00  0.00    -0.354 N 
ATOM     46  C   UNL A   1      42.575  28.403  33.781  1.00  0.00     0.074 A 
ATOM     47  C   UNL A   1      41.329  27.885  34.281  1.00  0.00     0.031 C 
ATOM     48  C   UNL A   1      40.687  26.684  27.903  1.00  0.00     0.029 A 
ATOM     49  C   UNL A   1      41.904  26.304  28.598  1.00  0.00     0.049 A 
ATOM     50  H   UNL A   1      42.671  27.143  30.356  1.00  0.00     0.167 HD
ATOM     51  C   UNL A   1      43.859  28.269  34.219  1.00  0.00     0.037 A 
ATOM     52  C   UNL A   1      42.822  25.385  28.222  1.00  0.00     0.037 A 
ATOM     53  C   UNL A   1      44.774  28.960  33.348  1.00  0.00     0.049 A 
ATOM     54  C   UNL A   1      44.119  25.747  28.829  1.00  0.00     0.074 A 
ATOM     55  C   UNL A   1      45.184  30.254  33.123  1.00  0.00     0.029 A 
ATOM     56  N   UNL A   1      45.199  28.209  32.289  1.00  0.00    -0.354 N 
ATOM     57  N   UNL A   1      44.820  26.786  28.468  1.00  0.00    -0.248 NA
ATOM     58  C   UNL A   1      44.565  25.086  30.050  1.00  0.00     0.031 C 
ATOM     59  C   UNL A   1      45.719  30.278  31.797  1.00  0.00     0.029 A 
ATOM     60  C   UNL A   1      45.630  28.998  31.259  1.00  0.00     0.049 A 
ATOM     61  H   UNL A   1      45.196  27.224  32.271  1.00  0.00     0.167 HD
ATOM     62  C   UNL A   1      45.481  27.158  29.617  1.00  0.00     0.074 A 
ATOM     63  C   UNL A   1      45.463  25.981  30.472  1.00  0.00     0.031 C 
ATOM     64  C   UNL A   1      45.663  28.477  29.913  1.00  0.00     0.037 A 
BRANCH  51  65
ATOM     65  C   UNL A   1      44.381  27.159  35.118  1.00  0.00     0.064 A 
ATOM     66  C   UNL A   1      44.151  25.815  34.738  1.00  0.00     0.173 A 
ATOM     67  C   UNL A   1      44.760  27.346  36.463  1.00  0.00     0.173 A 
ATOM     68  F   UNL A   1      43.785  25.511  33.484  1.00  0.00    -0.203 F 
ATOM     69  C   UNL A   1      44.195  24.764  35.659  1.00  0.00     0.198 A 
ATOM     70  C   UNL A   1      44.852  26.285  37.367  1.00  0.00     0.198 A 
ATOM     71  F   UNL A   1      44.946  28.562  36.987  1.00  0.00    -0.203 F 
ATOM     72  F   UNL A   1      43.836  23.529  35.279  1.00  0.00    -0.200 F 
ATOM     73  C   UNL A   1      44.534  25.001  36.976  1.00  0.00     0.200 A 
ATOM     74  F   UNL A   1      45.168  26.537  38.646  1.00  0.00    -0.200 F 
ATOM     75  F   UNL A   1      44.510  24.009  37.876  1.00  0.00    -0.200 F 
ENDBRANCH  51  65
BRANCH  52  76
ATOM     76  C   UNL A   1      42.660  24.177  27.389  1.00  0.00     0.064 A 
ATOM     77  C   UNL A   1      43.028  24.171  26.034  1.00  0.00     0.173 A 
ATOM     78  C   UNL A   1      42.387  22.928  27.976  1.00  0.00     0.173 A 
ATOM     79  F   UNL A   1      43.329  25.317  25.409  1.00  0.00    -0.203 F 
ATOM     80  C   UNL A   1      43.160  22.979  25.320  1.00  0.00     0.198 A 
ATOM     81  C   UNL A   1      42.510  21.739  27.258  1.00  0.00     0.198 A 
ATOM     82  F   UNL A   1      42.085  22.835  29.279  1.00  0.00    -0.203 F 
ATOM     83  F   UNL A   1      43.585  23.008  24.048  1.00  0.00    -0.200 F 
ATOM     84  C   UNL A   1      42.915  21.763  25.935  1.00  0.00     0.200 A 
ATOM     85  F   UNL A   1      42.295  20.565  27.870  1.00  0.00    -0.200 F 
ATOM     86  F   UNL A   1      43.107  20.616  25.269  1.00  0.00    -0.200 F 
ENDBRANCH  52  76
BRANCH  64  87
ATOM     87  C   UNL A   1      45.702  29.431  28.762  1.00  0.00     0.064 A 
ATOM     88  C   UNL A   1      46.869  29.801  28.074  1.00  0.00     0.173 A 
ATOM     89  C   UNL A   1      44.490  29.986  28.332  1.00  0.00     0.173 A 
ATOM     90  F   UNL A   1      48.052  29.247  28.370  1.00  0.00    -0.203 F 
ATOM     91  C   UNL A   1      46.826  30.742  27.046  1.00  0.00     0.198 A 
ATOM     92  C   UNL A   1      44.444  30.893  27.278  1.00  0.00     0.198 A 
ATOM     93  F   UNL A   1      43.339  29.634  28.926  1.00  0.00    -0.203 F 
ATOM     94  F   UNL A   1      47.958  31.116  26.431  1.00  0.00    -0.200 F 
ATOM     95  C   UNL A   1      45.614  31.285  26.649  1.00  0.00     0.200 A 
ATOM     96  F   UNL A   1      43.265  31.384  26.872  1.00  0.00    -0.200 F 
ATOM     97  F   UNL A   1      45.571  32.177  25.649  1.00  0.00    -0.200 F 
ENDBRANCH  64  87
ENDBRANCH  38  39
ENDBRANCH  30  33
ENDBRANCH  28  29
ENDBRANCH  27  28
ENDBRANCH  26  27
ENDBRANCH   3  26
TORSDOF 16
ENDMDL
MODEL 3
REMARK VINA RESULT:     -12.8      2.040      4.035
REMARK SMILES Cc1nn(-c2ccccc2)c(C)c1CNC(=O)CCCC(=O)NCCCNC(=O)c1ccc(-c2c3nc(c(-c4c(F)c(F)c(F)c(F)c4F)c4ccc([nH]4)c(-c4c(F)c(F)c(F)c(F)c4F)c4nc(c(-c5c(F)c(F)c(F)c(F)c5F)c5ccc2[nH]5)C=C4)C=C3)cc1
REMARK SMILES IDX 21 1 22 2 23 3 20 5 19 6 18 7 16 8 15 9 17 11 14 12 13 13
REMARK SMILES IDX 1 14 2 15 3 16 4 17 11 18 12 19 5 20 6 21 10 22 7 23 9 24
REMARK SMILES IDX 8 25 24 26 25 27 26 28 27 29 28 30 29 32 30 33 31 34 92 35
REMARK SMILES IDX 32 36 91 37 33 38 34 39 35 40 85 41 36 42 90 43 84 44 86 45
REMARK SMILES IDX 37 46 89 47 83 48 82 49 38 51 70 52 50 53 69 54 51 55 54 56
REMARK SMILES IDX 68 57 87 58 52 59 53 60 67 62 88 63 55 64 39 65 40 66 48 67
REMARK SMILES IDX 41 68 42 69 46 70 49 71 43 72 44 73 47 74 45 75 71 76 72 77
REMARK SMILES IDX 80 78 73 79 74 80 78 81 81 82 75 83 76 84 79 85 77 86 56 87
REMARK SMILES IDX 57 88 65 89 58 90 59 91 63 92 66 93 60 94 61 95 64 96 62 97
REMARK H PARENT 23 4 15 10 27 31 86 50 54 61
REMARK Flexibility Score: inf
ROOT
ATOM      1  C   UNL A   1      36.373  23.029  23.597  1.00  0.00     0.220 C 
ATOM      2  O   UNL A   1      36.509  22.904  22.377  1.00  0.00    -0.275 OA
ATOM      3  N   UNL A   1      37.430  22.667  24.371  1.00  0.00    -0.356 N 
ATOM      4  H   UNL A   1      38.203  22.325  23.867  1.00  0.00     0.163 HD
ENDROOT
BRANCH   1   5
ATOM      5  C   UNL A   1      35.107  23.645  24.164  1.00  0.00     0.100 C 
BRANCH   5   6
ATOM      6  C   UNL A   1      33.930  23.912  23.243  1.00  0.00     0.020 C 
BRANCH   6   7
ATOM      7  C   UNL A   1      33.395  25.313  22.963  1.00  0.00     0.100 C 
BRANCH   7   8
ATOM      8  C   UNL A   1      32.740  25.917  21.713  1.00  0.00     0.220 C 
ATOM      9  N   UNL A   1      31.669  26.723  21.600  1.00  0.00    -0.352 N 
ATOM     10  H   UNL A   1      31.508  26.955  20.658  1.00  0.00     0.163 HD
ATOM     11  O   UNL A   1      33.217  25.577  20.618  1.00  0.00    -0.275 OA
BRANCH   9  12
ATOM     12  C   UNL A   1      30.686  27.349  22.456  1.00  0.00     0.155 C 
BRANCH  12  13
ATOM     13  C   UNL A   1      31.196  27.622  23.827  1.00  0.00     0.016 A 
ATOM     14  C   UNL A   1      29.661  25.949  25.145  1.00  0.00     0.069 C 
ATOM     15  C   UNL A   1      30.740  26.968  25.013  1.00  0.00     0.065 A 
ATOM     16  N   UNL A   1      31.442  27.329  26.091  1.00  0.00    -0.173 NA
ATOM     17  N   UNL A   1      32.246  28.321  25.656  1.00  0.00    -0.237 N 
ATOM     18  C   UNL A   1      32.236  28.426  24.274  1.00  0.00     0.046 A 
ATOM     19  C   UNL A   1      33.282  29.206  23.557  1.00  0.00     0.067 C 
BRANCH  17  20
ATOM     20  C   UNL A   1      33.100  29.036  26.528  1.00  0.00     0.065 A 
ATOM     21  C   UNL A   1      34.351  28.511  26.849  1.00  0.00     0.028 A 
ATOM     22  C   UNL A   1      32.745  30.334  26.925  1.00  0.00     0.028 A 
ATOM     23  C   UNL A   1      35.289  29.339  27.468  1.00  0.00     0.002 A 
ATOM     24  C   UNL A   1      33.682  31.149  27.553  1.00  0.00     0.002 A 
ATOM     25  C   UNL A   1      34.961  30.657  27.800  1.00  0.00     0.000 A 
ENDBRANCH  17  20
ENDBRANCH  12  13
ENDBRANCH   9  12
ENDBRANCH   7   8
ENDBRANCH   6   7
ENDBRANCH   5   6
ENDBRANCH   1   5
BRANCH   3  26
ATOM     26  C   UNL A   1      37.620  22.698  25.805  1.00  0.00     0.117 C 
BRANCH  26  27
ATOM     27  C   UNL A   1      38.100  24.057  26.312  1.00  0.00     0.042 C 
BRANCH  27  28
ATOM     28  C   UNL A   1      39.244  23.959  27.291  1.00  0.00     0.118 C 
BRANCH  28  29
ATOM     29  N   UNL A   1      40.323  23.117  26.783  1.00  0.00    -0.352 N 
ATOM     30  C   UNL A   1      41.551  23.535  26.308  1.00  0.00     0.251 C 
ATOM     31  H   UNL A   1      40.157  22.147  26.778  1.00  0.00     0.163 HD
ATOM     32  O   UNL A   1      42.262  22.813  25.636  1.00  0.00    -0.269 OA
BRANCH  30  33
ATOM     33  C   UNL A   1      41.939  24.920  26.617  1.00  0.00     0.039 A 
ATOM     34  C   UNL A   1      41.397  25.958  25.867  1.00  0.00     0.014 A 
ATOM     35  C   UNL A   1      42.655  25.159  27.790  1.00  0.00     0.014 A 
ATOM     36  C   UNL A   1      41.478  27.251  26.372  1.00  0.00     0.010 A 
ATOM     37  C   UNL A   1      42.636  26.427  28.338  1.00  0.00     0.010 A 
ATOM     38  C   UNL A   1      42.046  27.484  27.641  1.00  0.00    -0.014 A 
BRANCH  38  39
ATOM     39  C   UNL A   1      41.860  28.802  28.265  1.00  0.00     0.031 A 
ATOM     40  C   UNL A   1      42.955  29.790  28.025  1.00  0.00     0.074 A 
ATOM     41  C   UNL A   1      40.743  29.228  28.890  1.00  0.00     0.049 A 
ATOM     42  N   UNL A   1      43.761  30.292  28.902  1.00  0.00    -0.248 NA
ATOM     43  C   UNL A   1      43.241  30.216  26.646  1.00  0.00     0.031 C 
ATOM     44  C   UNL A   1      39.447  28.551  28.978  1.00  0.00     0.029 A 
ATOM     45  N   UNL A   1      40.509  30.424  29.521  1.00  0.00    -0.354 N 
ATOM     46  C   UNL A   1      44.545  31.228  28.229  1.00  0.00     0.074 A 
ATOM     47  C   UNL A   1      44.272  31.046  26.827  1.00  0.00     0.031 C 
ATOM     48  C   UNL A   1      38.513  29.419  29.419  1.00  0.00     0.029 A 
ATOM     49  C   UNL A   1      39.175  30.646  29.825  1.00  0.00     0.049 A 
ATOM     50  H   UNL A   1      41.223  31.066  29.737  1.00  0.00     0.167 HD
ATOM     51  C   UNL A   1      45.171  32.226  28.914  1.00  0.00     0.037 A 
ATOM     52  C   UNL A   1      38.620  31.736  30.402  1.00  0.00     0.037 A 
ATOM     53  C   UNL A   1      45.164  31.963  30.328  1.00  0.00     0.049 A 
ATOM     54  C   UNL A   1      39.665  32.434  31.179  1.00  0.00     0.074 A 
ATOM     55  C   UNL A   1      45.854  31.173  31.220  1.00  0.00     0.029 A 
ATOM     56  N   UNL A   1      44.042  32.410  30.967  1.00  0.00    -0.354 N 
ATOM     57  N   UNL A   1      40.188  31.958  32.275  1.00  0.00    -0.248 NA
ATOM     58  C   UNL A   1      40.348  33.592  30.613  1.00  0.00     0.031 C 
ATOM     59  C   UNL A   1      45.006  31.025  32.362  1.00  0.00     0.029 A 
ATOM     60  C   UNL A   1      43.831  31.737  32.137  1.00  0.00     0.049 A 
ATOM     61  H   UNL A   1      43.460  33.129  30.627  1.00  0.00     0.167 HD
ATOM     62  C   UNL A   1      41.472  32.456  32.276  1.00  0.00     0.074 A 
ATOM     63  C   UNL A   1      41.443  33.600  31.377  1.00  0.00     0.031 C 
ATOM     64  C   UNL A   1      42.510  31.689  32.717  1.00  0.00     0.037 A 
BRANCH  51  65
ATOM     65  C   UNL A   1      45.370  33.652  28.423  1.00  0.00     0.064 A 
ATOM     66  C   UNL A   1      44.237  34.385  27.995  1.00  0.00     0.173 A 
ATOM     67  C   UNL A   1      46.613  34.184  28.026  1.00  0.00     0.173 A 
ATOM     68  F   UNL A   1      42.998  33.979  28.311  1.00  0.00    -0.203 F 
ATOM     69  C   UNL A   1      44.344  35.496  27.151  1.00  0.00     0.198 A 
ATOM     70  C   UNL A   1      46.717  35.323  27.225  1.00  0.00     0.198 A 
ATOM     71  F   UNL A   1      47.768  33.567  28.296  1.00  0.00    -0.203 F 
ATOM     72  F   UNL A   1      43.237  36.072  26.664  1.00  0.00    -0.200 F 
ATOM     73  C   UNL A   1      45.585  35.957  26.757  1.00  0.00     0.200 A 
ATOM     74  F   UNL A   1      47.929  35.748  26.839  1.00  0.00    -0.200 F 
ATOM     75  F   UNL A   1      45.691  36.976  25.895  1.00  0.00    -0.200 F 
ENDBRANCH  51  65
BRANCH  52  76
ATOM     76  C   UNL A   1      37.240  32.252  30.310  1.00  0.00     0.064 A 
ATOM     77  C   UNL A   1      36.303  32.013  31.327  1.00  0.00     0.173 A 
ATOM     78  C   UNL A   1      36.894  33.215  29.344  1.00  0.00     0.173 A 
ATOM     79  F   UNL A   1      36.569  31.130  32.299  1.00  0.00    -0.203 F 
ATOM     80  C   UNL A   1      35.107  32.730  31.400  1.00  0.00     0.198 A 
ATOM     81  C   UNL A   1      35.695  33.923  29.413  1.00  0.00     0.198 A 
ATOM     82  F   UNL A   1      37.755  33.550  28.371  1.00  0.00    -0.203 F 
ATOM     83  F   UNL A   1      34.270  32.525  32.427  1.00  0.00    -0.200 F 
ATOM     84  C   UNL A   1      34.810  33.694  30.451  1.00  0.00     0.200 A 
ATOM     85  F   UNL A   1      35.428  34.873  28.504  1.00  0.00    -0.200 F 
ATOM     86  F   UNL A   1      33.694  34.428  30.560  1.00  0.00    -0.200 F 
ENDBRANCH  52  76
BRANCH  64  87
ATOM     87  C   UNL A   1      42.189  30.624  33.716  1.00  0.00     0.064 A 
ATOM     88  C   UNL A   1      41.743  29.333  33.389  1.00  0.00     0.173 A 
ATOM     89  C   UNL A   1      42.355  30.929  35.073  1.00  0.00     0.173 A 
ATOM     90  F   UNL A   1      41.643  28.939  32.112  1.00  0.00    -0.203 F 
ATOM     91  C   UNL A   1      41.412  28.416  34.384  1.00  0.00     0.198 A 
ATOM     92  C   UNL A   1      42.064  29.997  36.064  1.00  0.00     0.198 A 
ATOM     93  F   UNL A   1      42.820  32.134  35.441  1.00  0.00    -0.203 F 
ATOM     94  F   UNL A   1      40.944  27.203  34.051  1.00  0.00    -0.200 F 
ATOM     95  C   UNL A   1      41.574  28.749  35.720  1.00  0.00     0.200 A 
ATOM     96  F   UNL A   1      42.262  30.310  37.352  1.00  0.00    -0.200 F 
ATOM     97  F   UNL A   1      41.272  27.860  36.677  1.00  0.00    -0.200 F 
ENDBRANCH  64  87
ENDBRANCH  38  39
ENDBRANCH  30  33
ENDBRANCH  28  29
ENDBRANCH  27  28
ENDBRANCH  26  27
ENDBRANCH   3  26
TORSDOF 16
ENDMDL
