MODEL 1
REMARK VINA RESULT:     -13.6      0.000      0.000
REMARK SMILES NC(=O)[C@H]1CN(C(=O)CSc2ccccc2C(=O)NCCCNC(=O)c2ccc(-c3c4nc(c(-c5c(F)c(F)c(F)c(F)c5F)c5ccc([nH]5)c(-c5c(F)c(F)c(F)c(F)c5F)c5nc(c(-c6c(F)c(F)c(F)c(F)c6F)c6ccc3[nH]6)C=C5)C=C4)cc2)c2ccccc2O1
REMARK SMILES IDX 17 1 18 2 19 3 16 5 11 6 12 7 13 8 15 9 14 10 10 11 9 12
REMARK SMILES IDX 7 13 8 14 6 15 4 16 5 17 95 18 94 19 89 20 93 21 90 22 92 23
REMARK SMILES IDX 91 24 2 25 1 26 3 29 20 30 21 31 22 32 23 33 24 34 25 36
REMARK SMILES IDX 26 37 27 38 88 39 28 40 87 41 29 42 30 43 31 44 81 45 32 46
REMARK SMILES IDX 86 47 80 48 82 49 33 50 85 51 79 52 78 53 34 55 66 56 46 57
REMARK SMILES IDX 65 58 47 59 50 60 64 61 83 62 48 63 49 64 63 66 84 67 51 68
REMARK SMILES IDX 35 69 36 70 44 71 37 72 38 73 42 74 45 75 39 76 40 77 43 78
REMARK SMILES IDX 41 79 67 80 68 81 76 82 69 83 70 84 74 85 77 86 71 87 72 88
REMARK SMILES IDX 75 89 73 90 52 91 53 92 61 93 54 94 55 95 59 96 62 97 56 98
REMARK SMILES IDX 57 99 60 100 58 101
REMARK H PARENT 19 4 1 27 1 28 23 35 82 54 50 65
REMARK Flexibility Score: inf
ROOT
ATOM      1  C   UNL A   1      31.808  28.427  26.844  1.00  0.00     0.252 C 
ATOM      2  O   UNL A   1      31.708  27.816  27.917  1.00  0.00    -0.269 OA
ATOM      3  N   UNL A   1      31.672  29.771  27.013  1.00  0.00    -0.352 N 
ATOM      4  H   UNL A   1      31.482  30.029  27.944  1.00  0.00     0.163 HD
ENDROOT
BRANCH   1   5
ATOM      5  C   UNL A   1      32.129  27.655  25.584  1.00  0.00     0.053 A 
ATOM      6  C   UNL A   1      31.496  26.575  24.914  1.00  0.00     0.020 A 
ATOM      7  C   UNL A   1      32.138  26.020  23.775  1.00  0.00     0.016 A 
ATOM      8  C   UNL A   1      33.363  26.482  23.296  1.00  0.00     0.001 A 
ATOM      9  C   UNL A   1      33.375  28.102  25.050  1.00  0.00     0.015 A 
ATOM     10  C   UNL A   1      33.990  27.522  23.943  1.00  0.00     0.001 A 
BRANCH   6  11
ATOM     11  S   UNL A   1      30.141  25.516  25.457  1.00  0.00    -0.115 SA
BRANCH  11  12
ATOM     12  C   UNL A   1      30.741  23.759  25.346  1.00  0.00     0.175 C 
BRANCH  12  13
ATOM     13  C   UNL A   1      31.685  23.266  26.433  1.00  0.00     0.237 C 
ATOM     14  O   UNL A   1      31.491  23.671  27.584  1.00  0.00    -0.274 OA
BRANCH  13  15
ATOM     15  N   UNL A   1      32.687  22.336  26.112  1.00  0.00    -0.304 N 
ATOM     16  C   UNL A   1      32.985  20.198  24.939  1.00  0.00     0.281 C 
ATOM     17  C   UNL A   1      32.643  20.865  26.272  1.00  0.00     0.181 C 
ATOM     18  O   UNL A   1      34.302  20.536  24.501  1.00  0.00    -0.477 OA
ATOM     19  C   UNL A   1      34.701  21.814  24.797  1.00  0.00     0.144 A 
ATOM     20  C   UNL A   1      33.947  22.742  25.544  1.00  0.00     0.086 A 
ATOM     21  C   UNL A   1      35.962  22.149  24.297  1.00  0.00     0.049 A 
ATOM     22  C   UNL A   1      34.507  24.004  25.781  1.00  0.00     0.030 A 
ATOM     23  C   UNL A   1      36.500  23.409  24.541  1.00  0.00     0.004 A 
ATOM     24  C   UNL A   1      35.774  24.332  25.287  1.00  0.00     0.002 A 
BRANCH  16  25
ATOM     25  C   UNL A   1      32.963  18.676  25.100  1.00  0.00     0.260 C 
ATOM     26  N   UNL A   1      32.811  18.193  26.371  1.00  0.00    -0.366 N 
ATOM     27  H   UNL A   1      32.789  17.222  26.529  1.00  0.00     0.159 HD
ATOM     28  H   UNL A   1      32.721  18.817  27.128  1.00  0.00     0.159 HD
ATOM     29  O   UNL A   1      33.083  17.884  24.171  1.00  0.00    -0.271 OA
ENDBRANCH  16  25
ENDBRANCH  13  15
ENDBRANCH  12  13
ENDBRANCH  11  12
ENDBRANCH   6  11
ENDBRANCH   1   5
BRANCH   3  30
ATOM     30  C   UNL A   1      31.746  30.880  26.126  1.00  0.00     0.118 C 
BRANCH  30  31
ATOM     31  C   UNL A   1      31.408  32.192  26.801  1.00  0.00     0.042 C 
BRANCH  31  32
ATOM     32  C   UNL A   1      32.670  32.833  27.364  1.00  0.00     0.118 C 
BRANCH  32  33
ATOM     33  N   UNL A   1      32.478  34.259  27.651  1.00  0.00    -0.352 N 
ATOM     34  C   UNL A   1      33.006  35.045  28.640  1.00  0.00     0.251 C 
ATOM     35  H   UNL A   1      31.872  34.726  27.033  1.00  0.00     0.163 HD
ATOM     36  O   UNL A   1      32.504  36.140  28.884  1.00  0.00    -0.269 OA
BRANCH  34  37
ATOM     37  C   UNL A   1      34.162  34.569  29.416  1.00  0.00     0.039 A 
ATOM     38  C   UNL A   1      33.961  34.028  30.687  1.00  0.00     0.014 A 
ATOM     39  C   UNL A   1      35.444  34.647  28.875  1.00  0.00     0.014 A 
ATOM     40  C   UNL A   1      35.045  33.484  31.375  1.00  0.00     0.010 A 
ATOM     41  C   UNL A   1      36.492  33.989  29.498  1.00  0.00     0.010 A 
ATOM     42  C   UNL A   1      36.305  33.414  30.761  1.00  0.00    -0.014 A 
BRANCH  42  43
ATOM     43  C   UNL A   1      37.456  32.754  31.422  1.00  0.00     0.031 A 
ATOM     44  C   UNL A   1      38.134  31.591  30.752  1.00  0.00     0.074 A 
ATOM     45  C   UNL A   1      37.822  33.144  32.658  1.00  0.00     0.049 A 
ATOM     46  N   UNL A   1      39.088  30.818  31.204  1.00  0.00    -0.248 NA
ATOM     47  C   UNL A   1      37.648  31.217  29.413  1.00  0.00     0.031 C 
ATOM     48  C   UNL A   1      37.185  34.210  33.434  1.00  0.00     0.029 A 
ATOM     49  N   UNL A   1      38.810  32.678  33.486  1.00  0.00    -0.354 N 
ATOM     50  C   UNL A   1      39.292  29.859  30.221  1.00  0.00     0.074 A 
ATOM     51  C   UNL A   1      38.323  30.103  29.178  1.00  0.00     0.031 C 
ATOM     52  C   UNL A   1      37.818  34.338  34.612  1.00  0.00     0.029 A 
ATOM     53  C   UNL A   1      38.871  33.332  34.694  1.00  0.00     0.049 A 
ATOM     54  H   UNL A   1      39.419  31.945  33.240  1.00  0.00     0.167 HD
ATOM     55  C   UNL A   1      40.224  28.879  30.182  1.00  0.00     0.037 A 
ATOM     56  C   UNL A   1      39.682  33.133  35.750  1.00  0.00     0.037 A 
ATOM     57  C   UNL A   1      41.214  28.676  31.205  1.00  0.00     0.049 A 
ATOM     58  C   UNL A   1      40.727  32.051  35.666  1.00  0.00     0.074 A 
ATOM     59  C   UNL A   1      42.262  27.774  31.222  1.00  0.00     0.029 A 
ATOM     60  N   UNL A   1      41.274  29.386  32.395  1.00  0.00    -0.354 N 
ATOM     61  N   UNL A   1      40.973  31.212  34.690  1.00  0.00    -0.248 NA
ATOM     62  C   UNL A   1      41.612  31.899  36.827  1.00  0.00     0.031 C 
ATOM     63  C   UNL A   1      42.920  27.898  32.449  1.00  0.00     0.029 A 
ATOM     64  C   UNL A   1      42.324  28.922  33.169  1.00  0.00     0.049 A 
ATOM     65  H   UNL A   1      40.661  30.113  32.652  1.00  0.00     0.167 HD
ATOM     66  C   UNL A   1      42.058  30.452  35.105  1.00  0.00     0.074 A 
ATOM     67  C   UNL A   1      42.435  30.946  36.413  1.00  0.00     0.031 C 
ATOM     68  C   UNL A   1      42.687  29.435  34.464  1.00  0.00     0.037 A 
BRANCH  55  69
ATOM     69  C   UNL A   1      40.226  27.958  28.996  1.00  0.00     0.064 A 
ATOM     70  C   UNL A   1      40.958  28.247  27.834  1.00  0.00     0.173 A 
ATOM     71  C   UNL A   1      39.518  26.748  29.039  1.00  0.00     0.173 A 
ATOM     72  F   UNL A   1      41.640  29.398  27.733  1.00  0.00    -0.203 F 
ATOM     73  C   UNL A   1      40.962  27.371  26.752  1.00  0.00     0.198 A 
ATOM     74  C   UNL A   1      39.551  25.858  27.969  1.00  0.00     0.198 A 
ATOM     75  F   UNL A   1      38.802  26.420  30.126  1.00  0.00    -0.203 F 
ATOM     76  F   UNL A   1      41.628  27.691  25.634  1.00  0.00    -0.200 F 
ATOM     77  C   UNL A   1      40.266  26.173  26.824  1.00  0.00     0.200 A 
ATOM     78  F   UNL A   1      38.891  24.694  28.047  1.00  0.00    -0.200 F 
ATOM     79  F   UNL A   1      40.282  25.324  25.787  1.00  0.00    -0.200 F 
ENDBRANCH  55  69
BRANCH  56  80
ATOM     80  C   UNL A   1      39.551  33.980  36.965  1.00  0.00     0.064 A 
ATOM     81  C   UNL A   1      38.791  33.555  38.063  1.00  0.00     0.173 A 
ATOM     82  C   UNL A   1      40.165  35.238  37.046  1.00  0.00     0.173 A 
ATOM     83  F   UNL A   1      38.171  32.366  38.029  1.00  0.00    -0.203 F 
ATOM     84  C   UNL A   1      38.621  34.369  39.182  1.00  0.00     0.198 A 
ATOM     85  C   UNL A   1      40.023  36.037  38.178  1.00  0.00     0.198 A 
ATOM     86  F   UNL A   1      40.912  35.689  36.028  1.00  0.00    -0.203 F 
ATOM     87  F   UNL A   1      37.841  33.963  40.192  1.00  0.00    -0.200 F 
ATOM     88  C   UNL A   1      39.241  35.608  39.240  1.00  0.00     0.200 A 
ATOM     89  F   UNL A   1      40.640  37.226  38.239  1.00  0.00    -0.200 F 
ATOM     90  F   UNL A   1      39.079  36.391  40.316  1.00  0.00    -0.200 F 
ENDBRANCH  56  80
BRANCH  68  91
ATOM     91  C   UNL A   1      43.871  28.820  35.150  1.00  0.00     0.064 A 
ATOM     92  C   UNL A   1      45.173  29.302  34.953  1.00  0.00     0.173 A 
ATOM     93  C   UNL A   1      43.692  27.759  36.051  1.00  0.00     0.173 A 
ATOM     94  F   UNL A   1      45.398  30.306  34.091  1.00  0.00    -0.203 F 
ATOM     95  C   UNL A   1      46.256  28.725  35.609  1.00  0.00     0.198 A 
ATOM     96  C   UNL A   1      44.773  27.207  36.732  1.00  0.00     0.198 A 
ATOM     97  F   UNL A   1      42.466  27.266  36.282  1.00  0.00    -0.203 F 
ATOM     98  F   UNL A   1      47.498  29.165  35.364  1.00  0.00    -0.200 F 
ATOM     99  C   UNL A   1      46.054  27.684  36.504  1.00  0.00     0.200 A 
ATOM    100  F   UNL A   1      44.573  26.215  37.611  1.00  0.00    -0.200 F 
ATOM    101  F   UNL A   1      47.098  27.136  37.143  1.00  0.00    -0.200 F 
ENDBRANCH  68  91
ENDBRANCH  42  43
ENDBRANCH  34  37
ENDBRANCH  32  33
ENDBRANCH  31  32
ENDBRANCH  30  31
ENDBRANCH   3  30
TORSDOF 15
ENDMDL
MODEL 2
REMARK VINA RESULT:     -13.5      5.329     10.880
REMARK SMILES NC(=O)[C@H]1CN(C(=O)CSc2ccccc2C(=O)NCCCNC(=O)c2ccc(-c3c4nc(c(-c5c(F)c(F)c(F)c(F)c5F)c5ccc([nH]5)c(-c5c(F)c(F)c(F)c(F)c5F)c5nc(c(-c6c(F)c(F)c(F)c(F)c6F)c6ccc3[nH]6)C=C5)C=C4)cc2)c2ccccc2O1
REMARK SMILES IDX 17 1 18 2 19 3 16 5 11 6 12 7 13 8 15 9 14 10 10 11 9 12
REMARK SMILES IDX 7 13 8 14 6 15 4 16 5 17 95 18 94 19 89 20 93 21 90 22 92 23
REMARK SMILES IDX 91 24 2 25 1 26 3 29 20 30 21 31 22 32 23 33 24 34 25 36
REMARK SMILES IDX 26 37 27 38 88 39 28 40 87 41 29 42 30 43 31 44 81 45 32 46
REMARK SMILES IDX 86 47 80 48 82 49 33 50 85 51 79 52 78 53 34 55 66 56 46 57
REMARK SMILES IDX 65 58 47 59 50 60 64 61 83 62 48 63 49 64 63 66 84 67 51 68
REMARK SMILES IDX 35 69 36 70 44 71 37 72 38 73 42 74 45 75 39 76 40 77 43 78
REMARK SMILES IDX 41 79 67 80 68 81 76 82 69 83 70 84 74 85 77 86 71 87 72 88
REMARK SMILES IDX 75 89 73 90 52 91 53 92 61 93 54 94 55 95 59 96 62 97 56 98
REMARK SMILES IDX 57 99 60 100 58 101
REMARK H PARENT 19 4 1 27 1 28 23 35 82 54 50 65
REMARK Flexibility Score: inf
ROOT
ATOM      1  C   UNL A   1      35.188  22.029  25.791  1.00  0.00     0.252 C 
ATOM      2  O   UNL A   1      34.846  22.446  26.907  1.00  0.00    -0.269 OA
ATOM      3  N   UNL A   1      36.540  21.911  25.689  1.00  0.00    -0.352 N 
ATOM      4  H   UNL A   1      37.019  22.207  26.496  1.00  0.00     0.163 HD
ENDROOT
BRANCH   1   5
ATOM      5  C   UNL A   1      34.121  21.655  24.787  1.00  0.00     0.053 A 
ATOM      6  C   UNL A   1      33.243  22.414  23.969  1.00  0.00     0.020 A 
ATOM      7  C   UNL A   1      32.279  21.719  23.191  1.00  0.00     0.016 A 
ATOM      8  C   UNL A   1      32.153  20.331  23.204  1.00  0.00     0.001 A 
ATOM      9  C   UNL A   1      33.964  20.237  24.758  1.00  0.00     0.015 A 
ATOM     10  C   UNL A   1      32.994  19.585  24.000  1.00  0.00     0.001 A 
BRANCH   6  11
ATOM     11  S   UNL A   1      32.887  24.182  23.989  1.00  0.00    -0.115 SA
BRANCH  11  12
ATOM     12  C   UNL A   1      31.080  24.371  24.388  1.00  0.00     0.175 C 
BRANCH  12  13
ATOM     13  C   UNL A   1      30.658  25.598  25.184  1.00  0.00     0.237 C 
ATOM     14  O   UNL A   1      30.073  25.409  26.256  1.00  0.00    -0.274 OA
BRANCH  13  15
ATOM     15  N   UNL A   1      30.995  26.877  24.716  1.00  0.00    -0.304 N 
ATOM     16  C   UNL A   1      29.970  28.838  23.648  1.00  0.00     0.281 C 
ATOM     17  C   UNL A   1      30.646  27.486  23.412  1.00  0.00     0.181 C 
ATOM     18  O   UNL A   1      30.835  29.752  24.323  1.00  0.00    -0.477 OA
ATOM     19  C   UNL A   1      31.666  29.184  25.254  1.00  0.00     0.144 A 
ATOM     20  C   UNL A   1      31.762  27.801  25.512  1.00  0.00     0.086 A 
ATOM     21  C   UNL A   1      32.453  30.102  25.955  1.00  0.00     0.049 A 
ATOM     22  C   UNL A   1      32.680  27.376  26.482  1.00  0.00     0.030 A 
ATOM     23  C   UNL A   1      33.357  29.660  26.915  1.00  0.00     0.004 A 
ATOM     24  C   UNL A   1      33.472  28.298  27.174  1.00  0.00     0.002 A 
BRANCH  16  25
ATOM     25  C   UNL A   1      29.624  29.486  22.305  1.00  0.00     0.260 C 
ATOM     26  N   UNL A   1      30.652  30.078  21.624  1.00  0.00    -0.366 N 
ATOM     27  H   UNL A   1      30.484  30.509  20.755  1.00  0.00     0.159 HD
ATOM     28  H   UNL A   1      31.561  30.073  22.002  1.00  0.00     0.159 HD
ATOM     29  O   UNL A   1      28.496  29.510  21.823  1.00  0.00    -0.271 OA
ENDBRANCH  16  25
ENDBRANCH  13  15
ENDBRANCH  12  13
ENDBRANCH  11  12
ENDBRANCH   6  11
ENDBRANCH   1   5
BRANCH   3  30
ATOM     30  C   UNL A   1      37.405  21.449  24.659  1.00  0.00     0.118 C 
BRANCH  30  31
ATOM     31  C   UNL A   1      38.080  20.140  25.007  1.00  0.00     0.042 C 
BRANCH  31  32
ATOM     32  C   UNL A   1      39.127  20.360  26.091  1.00  0.00     0.118 C 
BRANCH  32  33
ATOM     33  N   UNL A   1      40.159  19.318  26.075  1.00  0.00    -0.352 N 
ATOM     34  C   UNL A   1      41.525  19.421  26.065  1.00  0.00     0.251 C 
ATOM     35  H   UNL A   1      39.815  18.396  26.070  1.00  0.00     0.163 HD
ATOM     36  O   UNL A   1      42.209  18.446  25.764  1.00  0.00    -0.269 OA
BRANCH  34  37
ATOM     37  C   UNL A   1      42.165  20.702  26.402  1.00  0.00     0.039 A 
ATOM     38  C   UNL A   1      42.564  21.562  25.377  1.00  0.00     0.014 A 
ATOM     39  C   UNL A   1      42.358  21.056  27.737  1.00  0.00     0.014 A 
ATOM     40  C   UNL A   1      43.075  22.818  25.701  1.00  0.00     0.010 A 
ATOM     41  C   UNL A   1      42.739  22.348  28.055  1.00  0.00     0.010 A 
ATOM     42  C   UNL A   1      43.115  23.238  27.040  1.00  0.00    -0.014 A 
BRANCH  42  43
ATOM     43  C   UNL A   1      43.559  24.602  27.414  1.00  0.00     0.031 A 
ATOM     44  C   UNL A   1      42.541  25.632  27.816  1.00  0.00     0.074 A 
ATOM     45  C   UNL A   1      44.860  24.928  27.299  1.00  0.00     0.049 A 
ATOM     46  N   UNL A   1      42.711  26.902  28.082  1.00  0.00    -0.248 NA
ATOM     47  C   UNL A   1      41.138  25.192  27.887  1.00  0.00     0.031 C 
ATOM     48  C   UNL A   1      45.924  24.030  26.845  1.00  0.00     0.029 A 
ATOM     49  N   UNL A   1      45.510  26.112  27.541  1.00  0.00    -0.354 N 
ATOM     50  C   UNL A   1      41.442  27.409  28.323  1.00  0.00     0.074 A 
ATOM     51  C   UNL A   1      40.503  26.332  28.108  1.00  0.00     0.031 C 
ATOM     52  C   UNL A   1      47.096  24.684  26.871  1.00  0.00     0.029 A 
ATOM     53  C   UNL A   1      46.861  26.060  27.295  1.00  0.00     0.049 A 
ATOM     54  H   UNL A   1      45.052  26.922  27.861  1.00  0.00     0.167 HD
ATOM     55  C   UNL A   1      41.094  28.656  28.714  1.00  0.00     0.037 A 
ATOM     56  C   UNL A   1      47.799  27.019  27.393  1.00  0.00     0.037 A 
ATOM     57  C   UNL A   1      42.042  29.708  28.970  1.00  0.00     0.049 A 
ATOM     58  C   UNL A   1      47.386  28.391  27.857  1.00  0.00     0.074 A 
ATOM     59  C   UNL A   1      41.806  30.979  29.459  1.00  0.00     0.029 A 
ATOM     60  N   UNL A   1      43.408  29.606  28.753  1.00  0.00    -0.354 N 
ATOM     61  N   UNL A   1      46.194  28.833  28.174  1.00  0.00    -0.248 NA
ATOM     62  C   UNL A   1      48.452  29.392  27.986  1.00  0.00     0.031 C 
ATOM     63  C   UNL A   1      43.023  31.667  29.482  1.00  0.00     0.029 A 
ATOM     64  C   UNL A   1      44.026  30.804  29.070  1.00  0.00     0.049 A 
ATOM     65  H   UNL A   1      43.870  28.802  28.422  1.00  0.00     0.167 HD
ATOM     66  C   UNL A   1      46.368  30.153  28.568  1.00  0.00     0.074 A 
ATOM     67  C   UNL A   1      47.786  30.432  28.470  1.00  0.00     0.031 C 
ATOM     68  C   UNL A   1      45.441  31.056  28.974  1.00  0.00     0.037 A 
BRANCH  55  69
ATOM     69  C   UNL A   1      39.634  28.954  28.899  1.00  0.00     0.064 A 
ATOM     70  C   UNL A   1      38.818  29.354  27.830  1.00  0.00     0.173 A 
ATOM     71  C   UNL A   1      39.033  28.794  30.156  1.00  0.00     0.173 A 
ATOM     72  F   UNL A   1      39.344  29.537  26.609  1.00  0.00    -0.203 F 
ATOM     73  C   UNL A   1      37.462  29.607  28.018  1.00  0.00     0.198 A 
ATOM     74  C   UNL A   1      37.670  29.014  30.334  1.00  0.00     0.198 A 
ATOM     75  F   UNL A   1      39.765  28.412  31.214  1.00  0.00    -0.203 F 
ATOM     76  F   UNL A   1      36.713  30.037  26.992  1.00  0.00    -0.200 F 
ATOM     77  C   UNL A   1      36.887  29.428  29.267  1.00  0.00     0.200 A 
ATOM     78  F   UNL A   1      37.114  28.826  31.539  1.00  0.00    -0.200 F 
ATOM     79  F   UNL A   1      35.578  29.659  29.444  1.00  0.00    -0.200 F 
ENDBRANCH  55  69
BRANCH  56  80
ATOM     80  C   UNL A   1      49.217  26.716  27.064  1.00  0.00     0.064 A 
ATOM     81  C   UNL A   1      50.144  26.413  28.071  1.00  0.00     0.173 A 
ATOM     82  C   UNL A   1      49.680  26.741  25.741  1.00  0.00     0.173 A 
ATOM     83  F   UNL A   1      49.754  26.392  29.355  1.00  0.00    -0.203 F 
ATOM     84  C   UNL A   1      51.485  26.181  27.772  1.00  0.00     0.198 A 
ATOM     85  C   UNL A   1      51.014  26.475  25.438  1.00  0.00     0.198 A 
ATOM     86  F   UNL A   1      48.834  27.014  24.736  1.00  0.00    -0.203 F 
ATOM     87  F   UNL A   1      52.361  25.953  28.760  1.00  0.00    -0.200 F 
ATOM     88  C   UNL A   1      51.918  26.208  26.455  1.00  0.00     0.200 A 
ATOM     89  F   UNL A   1      51.425  26.484  24.162  1.00  0.00    -0.200 F 
ATOM     90  F   UNL A   1      53.208  25.985  26.166  1.00  0.00    -0.200 F 
ENDBRANCH  56  80
BRANCH  68  91
ATOM     91  C   UNL A   1      45.935  32.413  29.381  1.00  0.00     0.064 A 
ATOM     92  C   UNL A   1      46.411  32.669  30.674  1.00  0.00     0.173 A 
ATOM     93  C   UNL A   1      45.974  33.459  28.446  1.00  0.00     0.173 A 
ATOM     94  F   UNL A   1      46.382  31.705  31.608  1.00  0.00    -0.203 F 
ATOM     95  C   UNL A   1      46.877  33.933  31.027  1.00  0.00     0.198 A 
ATOM     96  C   UNL A   1      46.474  34.711  28.792  1.00  0.00     0.198 A 
ATOM     97  F   UNL A   1      45.539  33.263  27.192  1.00  0.00    -0.203 F 
ATOM     98  F   UNL A   1      47.274  34.170  32.284  1.00  0.00    -0.200 F 
ATOM     99  C   UNL A   1      46.916  34.949  30.084  1.00  0.00     0.200 A 
ATOM    100  F   UNL A   1      46.529  35.685  27.873  1.00  0.00    -0.200 F 
ATOM    101  F   UNL A   1      47.376  36.162  30.422  1.00  0.00    -0.200 F 
ENDBRANCH  68  91
ENDBRANCH  42  43
ENDBRANCH  34  37
ENDBRANCH  32  33
ENDBRANCH  31  32
ENDBRANCH  30  31
ENDBRANCH   3  30
TORSDOF 15
ENDMDL
MODEL 3
REMARK VINA RESULT:     -13.3      5.397     10.965
REMARK SMILES NC(=O)[C@H]1CN(C(=O)CSc2ccccc2C(=O)NCCCNC(=O)c2ccc(-c3c4nc(c(-c5c(F)c(F)c(F)c(F)c5F)c5ccc([nH]5)c(-c5c(F)c(F)c(F)c(F)c5F)c5nc(c(-c6c(F)c(F)c(F)c(F)c6F)c6ccc3[nH]6)C=C5)C=C4)cc2)c2ccccc2O1
REMARK SMILES IDX 17 1 18 2 19 3 16 5 11 6 12 7 13 8 15 9 14 10 10 11 9 12
REMARK SMILES IDX 7 13 8 14 6 15 4 16 5 17 95 18 94 19 89 20 93 21 90 22 92 23
REMARK SMILES IDX 91 24 2 25 1 26 3 29 20 30 21 31 22 32 23 33 24 34 25 36
REMARK SMILES IDX 26 37 27 38 88 39 28 40 87 41 29 42 30 43 31 44 81 45 32 46
REMARK SMILES IDX 86 47 80 48 82 49 33 50 85 51 79 52 78 53 34 55 66 56 46 57
REMARK SMILES IDX 65 58 47 59 50 60 64 61 83 62 48 63 49 64 63 66 84 67 51 68
REMARK SMILES IDX 35 69 36 70 44 71 37 72 38 73 42 74 45 75 39 76 40 77 43 78
REMARK SMILES IDX 41 79 67 80 68 81 76 82 69 83 70 84 74 85 77 86 71 87 72 88
REMARK SMILES IDX 75 89 73 90 52 91 53 92 61 93 54 94 55 95 59 96 62 97 56 98
REMARK SMILES IDX 57 99 60 100 58 101
REMARK H PARENT 19 4 1 27 1 28 23 35 82 54 50 65
REMARK Flexibility Score: inf
ROOT
ATOM      1  C   UNL A   1      34.302  20.141  24.953  1.00  0.00     0.252 C 
ATOM      2  O   UNL A   1      33.634  19.190  24.523  1.00  0.00    -0.269 OA
ATOM      3  N   UNL A   1      35.638  19.889  24.889  1.00  0.00    -0.352 N 
ATOM      4  H   UNL A   1      35.849  18.989  24.551  1.00  0.00     0.163 HD
ENDROOT
BRANCH   1   5
ATOM      5  C   UNL A   1      33.591  21.404  25.385  1.00  0.00     0.053 A 
ATOM      6  C   UNL A   1      33.094  22.532  24.682  1.00  0.00     0.020 A 
ATOM      7  C   UNL A   1      32.550  23.608  25.434  1.00  0.00     0.016 A 
ATOM      8  C   UNL A   1      32.495  23.606  26.827  1.00  0.00     0.001 A 
ATOM      9  C   UNL A   1      33.501  21.441  26.809  1.00  0.00     0.015 A 
ATOM     10  C   UNL A   1      32.982  22.521  27.519  1.00  0.00     0.001 A 
BRANCH   6  11
ATOM     11  S   UNL A   1      33.338  23.020  22.963  1.00  0.00    -0.115 SA
BRANCH  11  12
ATOM     12  C   UNL A   1      32.221  24.472  22.643  1.00  0.00     0.175 C 
BRANCH  12  13
ATOM     13  C   UNL A   1      32.874  25.828  22.415  1.00  0.00     0.237 C 
ATOM     14  O   UNL A   1      33.887  25.862  21.709  1.00  0.00    -0.274 OA
BRANCH  13  15
ATOM     15  N   UNL A   1      32.280  26.982  22.952  1.00  0.00    -0.304 N 
ATOM     16  C   UNL A   1      30.099  28.103  23.092  1.00  0.00     0.281 C 
ATOM     17  C   UNL A   1      31.379  27.938  22.270  1.00  0.00     0.181 C 
ATOM     18  O   UNL A   1      30.370  28.631  24.392  1.00  0.00    -0.477 OA
ATOM     19  C   UNL A   1      31.545  28.207  24.956  1.00  0.00     0.144 A 
ATOM     20  C   UNL A   1      32.494  27.380  24.320  1.00  0.00     0.086 A 
ATOM     21  C   UNL A   1      31.758  28.676  26.256  1.00  0.00     0.049 A 
ATOM     22  C   UNL A   1      33.660  27.055  25.025  1.00  0.00     0.030 A 
ATOM     23  C   UNL A   1      32.921  28.340  26.940  1.00  0.00     0.004 A 
ATOM     24  C   UNL A   1      33.872  27.534  26.322  1.00  0.00     0.002 A 
BRANCH  16  25
ATOM     25  C   UNL A   1      29.169  29.107  22.406  1.00  0.00     0.260 C 
ATOM     26  N   UNL A   1      27.897  29.206  22.901  1.00  0.00    -0.366 N 
ATOM     27  H   UNL A   1      27.259  29.837  22.497  1.00  0.00     0.159 HD
ATOM     28  H   UNL A   1      27.620  28.646  23.663  1.00  0.00     0.159 HD
ATOM     29  O   UNL A   1      29.494  29.804  21.451  1.00  0.00    -0.271 OA
ENDBRANCH  16  25
ENDBRANCH  13  15
ENDBRANCH  12  13
ENDBRANCH  11  12
ENDBRANCH   6  11
ENDBRANCH   1   5
BRANCH   3  30
ATOM     30  C   UNL A   1      36.793  20.654  25.210  1.00  0.00     0.118 C 
BRANCH  30  31
ATOM     31  C   UNL A   1      38.081  19.952  24.839  1.00  0.00     0.042 C 
BRANCH  31  32
ATOM     32  C   UNL A   1      39.200  20.373  25.782  1.00  0.00     0.118 C 
BRANCH  32  33
ATOM     33  N   UNL A   1      40.186  19.304  25.973  1.00  0.00    -0.352 N 
ATOM     34  C   UNL A   1      41.545  19.367  26.131  1.00  0.00     0.251 C 
ATOM     35  H   UNL A   1      39.811  18.395  25.991  1.00  0.00     0.163 HD
ATOM     36  O   UNL A   1      42.225  18.353  25.991  1.00  0.00    -0.269 OA
BRANCH  34  37
ATOM     37  C   UNL A   1      42.186  20.652  26.454  1.00  0.00     0.039 A 
ATOM     38  C   UNL A   1      42.659  21.463  25.421  1.00  0.00     0.014 A 
ATOM     39  C   UNL A   1      42.306  21.057  27.783  1.00  0.00     0.014 A 
ATOM     40  C   UNL A   1      43.172  22.724  25.725  1.00  0.00     0.010 A 
ATOM     41  C   UNL A   1      42.689  22.356  28.071  1.00  0.00     0.010 A 
ATOM     42  C   UNL A   1      43.140  23.197  27.046  1.00  0.00    -0.014 A 
BRANCH  42  43
ATOM     43  C   UNL A   1      43.584  24.569  27.390  1.00  0.00     0.031 A 
ATOM     44  C   UNL A   1      42.571  25.596  27.813  1.00  0.00     0.074 A 
ATOM     45  C   UNL A   1      44.878  24.904  27.231  1.00  0.00     0.049 A 
ATOM     46  N   UNL A   1      42.739  26.870  28.060  1.00  0.00    -0.248 NA
ATOM     47  C   UNL A   1      41.174  25.145  27.933  1.00  0.00     0.031 C 
ATOM     48  C   UNL A   1      45.935  24.009  26.754  1.00  0.00     0.029 A 
ATOM     49  N   UNL A   1      45.525  26.095  27.439  1.00  0.00    -0.354 N 
ATOM     50  C   UNL A   1      41.473  27.369  28.335  1.00  0.00     0.074 A 
ATOM     51  C   UNL A   1      40.537  26.282  28.162  1.00  0.00     0.031 C 
ATOM     52  C   UNL A   1      47.101  24.673  26.735  1.00  0.00     0.029 A 
ATOM     53  C   UNL A   1      46.868  26.051  27.152  1.00  0.00     0.049 A 
ATOM     54  H   UNL A   1      45.071  26.906  27.764  1.00  0.00     0.167 HD
ATOM     55  C   UNL A   1      41.128  28.618  28.724  1.00  0.00     0.037 A 
ATOM     56  C   UNL A   1      47.801  27.020  27.209  1.00  0.00     0.037 A 
ATOM     57  C   UNL A   1      42.074  29.680  28.938  1.00  0.00     0.049 A 
ATOM     58  C   UNL A   1      47.391  28.393  27.671  1.00  0.00     0.074 A 
ATOM     59  C   UNL A   1      41.844  30.955  29.421  1.00  0.00     0.029 A 
ATOM     60  N   UNL A   1      43.434  29.586  28.679  1.00  0.00    -0.354 N 
ATOM     61  N   UNL A   1      46.206  28.829  28.021  1.00  0.00    -0.248 NA
ATOM     62  C   UNL A   1      48.452  29.404  27.755  1.00  0.00     0.031 C 
ATOM     63  C   UNL A   1      43.055  31.652  29.398  1.00  0.00     0.029 A 
ATOM     64  C   UNL A   1      44.052  30.793  28.963  1.00  0.00     0.049 A 
ATOM     65  H   UNL A   1      43.892  28.782  28.343  1.00  0.00     0.167 HD
ATOM     66  C   UNL A   1      46.382  30.155  28.395  1.00  0.00     0.074 A 
ATOM     67  C   UNL A   1      47.794  30.444  28.248  1.00  0.00     0.031 C 
ATOM     68  C   UNL A   1      45.460  31.054  28.820  1.00  0.00     0.037 A 
BRANCH  55  69
ATOM     69  C   UNL A   1      39.671  28.906  28.951  1.00  0.00     0.064 A 
ATOM     70  C   UNL A   1      38.821  29.296  27.906  1.00  0.00     0.173 A 
ATOM     71  C   UNL A   1      39.110  28.747  30.227  1.00  0.00     0.173 A 
ATOM     72  F   UNL A   1      39.308  29.478  26.669  1.00  0.00    -0.203 F 
ATOM     73  C   UNL A   1      37.469  29.540  28.134  1.00  0.00     0.198 A 
ATOM     74  C   UNL A   1      37.752  28.958  30.445  1.00  0.00     0.198 A 
ATOM     75  F   UNL A   1      39.877  28.374  31.263  1.00  0.00    -0.203 F 
ATOM     76  F   UNL A   1      36.687  29.961  27.130  1.00  0.00    -0.200 F 
ATOM     77  C   UNL A   1      36.934  29.362  29.400  1.00  0.00     0.200 A 
ATOM     78  F   UNL A   1      37.233  28.771  31.667  1.00  0.00    -0.200 F 
ATOM     79  F   UNL A   1      35.629  29.584  29.616  1.00  0.00    -0.200 F 
ENDBRANCH  55  69
BRANCH  56  80
ATOM     80  C   UNL A   1      49.211  26.724  26.839  1.00  0.00     0.064 A 
ATOM     81  C   UNL A   1      49.649  26.843  25.513  1.00  0.00     0.173 A 
ATOM     82  C   UNL A   1      50.143  26.299  27.796  1.00  0.00     0.173 A 
ATOM     83  F   UNL A   1      48.792  27.232  24.557  1.00  0.00    -0.203 F 
ATOM     84  C   UNL A   1      50.955  26.516  25.152  1.00  0.00     0.198 A 
ATOM     85  C   UNL A   1      51.457  26.004  27.441  1.00  0.00     0.198 A 
ATOM     86  F   UNL A   1      49.780  26.178  29.082  1.00  0.00    -0.203 F 
ATOM     87  F   UNL A   1      51.330  26.582  23.867  1.00  0.00    -0.200 F 
ATOM     88  C   UNL A   1      51.859  26.100  26.118  1.00  0.00     0.200 A 
ATOM     89  F   UNL A   1      52.334  25.621  28.380  1.00  0.00    -0.200 F 
ATOM     90  F   UNL A   1      53.115  25.785  25.771  1.00  0.00    -0.200 F 
ENDBRANCH  56  80
BRANCH  68  91
ATOM     91  C   UNL A   1      45.956  32.420  29.196  1.00  0.00     0.064 A 
ATOM     92  C   UNL A   1      45.999  33.472  28.269  1.00  0.00     0.173 A 
ATOM     93  C   UNL A   1      46.351  32.689  30.515  1.00  0.00     0.173 A 
ATOM     94  F   UNL A   1      45.644  33.262  26.992  1.00  0.00    -0.203 F 
ATOM     95  C   UNL A   1      46.450  34.735  28.642  1.00  0.00     0.198 A 
ATOM     96  C   UNL A   1      46.768  33.962  30.893  1.00  0.00     0.198 A 
ATOM     97  F   UNL A   1      46.320  31.720  31.442  1.00  0.00    -0.203 F 
ATOM     98  F   UNL A   1      46.536  35.710  27.727  1.00  0.00    -0.200 F 
ATOM     99  C   UNL A   1      46.825  34.980  29.955  1.00  0.00     0.200 A 
ATOM    100  F   UNL A   1      47.111  34.202  32.166  1.00  0.00    -0.200 F 
ATOM    101  F   UNL A   1      47.250  36.200  30.314  1.00  0.00    -0.200 F 
ENDBRANCH  68  91
ENDBRANCH  42  43
ENDBRANCH  34  37
ENDBRANCH  32  33
ENDBRANCH  31  32
ENDBRANCH  30  31
ENDBRANCH   3  30
TORSDOF 15
ENDMDL
