MODEL 1
REMARK VINA RESULT:     -11.6      0.000      0.000
REMARK SMILES C[NH+](C)[C@H]1COC[C@]1(C)C(=O)NCCCNC(=O)c1ccc(-c2c3nc(c(-c4c(F)c(F)c(F)c(F)c4F)c4ccc([nH]4)c(-c4c(F)c(F)c(F)c(F)c4F)c4nc(c(-c5c(F)c(F)c(F)c(F)c5F)c5ccc2[nH]5)C=C4)C=C3)cc1
REMARK SMILES IDX 14 1 13 2 12 3 10 4 11 5 8 7 4 8 5 9 6 10 7 11 9 12 2 13
REMARK SMILES IDX 1 14 3 15 15 17 16 18 17 19 18 21 19 22 20 23 81 24 21 25
REMARK SMILES IDX 80 26 22 27 23 28 24 29 74 30 25 31 79 32 73 33 75 34 26 35
REMARK SMILES IDX 78 36 72 37 71 38 27 40 59 41 39 42 58 43 40 44 43 45 57 46
REMARK SMILES IDX 76 47 41 48 42 49 56 51 77 52 44 53 28 54 29 55 37 56 30 57
REMARK SMILES IDX 31 58 35 59 38 60 32 61 33 62 36 63 34 64 60 65 61 66 69 67
REMARK SMILES IDX 62 68 63 69 67 70 70 71 64 72 65 73 68 74 66 75 45 76 46 77
REMARK SMILES IDX 54 78 47 79 48 80 52 81 55 82 49 83 50 84 53 85 51 86
REMARK H PARENT 12 6 2 16 16 20 75 39 43 50
REMARK Flexibility Score: inf
ROOT
ATOM      1  C   UNL A   1      31.514  32.047  26.616  1.00  0.00     0.042 C 
ENDROOT
BRANCH   1   2
ATOM      2  C   UNL A   1      31.828  30.643  26.125  1.00  0.00     0.117 C 
BRANCH   2   3
ATOM      3  N   UNL A   1      31.593  29.641  27.152  1.00  0.00    -0.355 N 
ATOM      4  C   UNL A   1      31.770  28.290  27.161  1.00  0.00     0.234 C 
ATOM      5  O   UNL A   1      31.456  27.718  28.207  1.00  0.00    -0.274 OA
ATOM      6  H   UNL A   1      31.241  30.005  27.997  1.00  0.00     0.163 HD
BRANCH   4   7
ATOM      7  C   UNL A   1      32.347  27.541  25.942  1.00  0.00     0.123 C 
ATOM      8  C   UNL A   1      31.355  27.645  24.758  1.00  0.00     0.227 C 
ATOM      9  C   UNL A   1      30.368  26.515  25.112  1.00  0.00     0.226 C 
ATOM     10  O   UNL A   1      31.124  25.466  25.720  1.00  0.00    -0.374 OA
ATOM     11  C   UNL A   1      32.344  26.028  26.228  1.00  0.00     0.183 C 
ATOM     12  C   UNL A   1      33.797  28.020  25.766  1.00  0.00     0.031 C 
BRANCH   8  13
ATOM     13  N   UNL A   1      31.913  27.606  23.378  1.00  0.00    -0.334 N 
ATOM     14  C   UNL A   1      31.863  28.936  22.750  1.00  0.00     0.332 C 
ATOM     15  C   UNL A   1      31.279  26.648  22.468  1.00  0.00     0.332 C 
ATOM     16  H   UNL A   1      32.873  27.290  23.514  1.00  0.00     0.347 HD
ENDBRANCH   8  13
ENDBRANCH   4   7
ENDBRANCH   2   3
ENDBRANCH   1   2
BRANCH   1  17
ATOM     17  C   UNL A   1      32.675  32.734  27.321  1.00  0.00     0.118 C 
BRANCH  17  18
ATOM     18  N   UNL A   1      32.402  34.130  27.637  1.00  0.00    -0.352 N 
ATOM     19  C   UNL A   1      32.976  34.944  28.582  1.00  0.00     0.251 C 
ATOM     20  H   UNL A   1      31.701  34.552  27.091  1.00  0.00     0.163 HD
ATOM     21  O   UNL A   1      32.492  36.047  28.820  1.00  0.00    -0.269 OA
BRANCH  19  22
ATOM     22  C   UNL A   1      34.159  34.481  29.337  1.00  0.00     0.039 A 
ATOM     23  C   UNL A   1      33.977  33.887  30.588  1.00  0.00     0.014 A 
ATOM     24  C   UNL A   1      35.443  34.620  28.806  1.00  0.00     0.014 A 
ATOM     25  C   UNL A   1      35.077  33.357  31.268  1.00  0.00     0.010 A 
ATOM     26  C   UNL A   1      36.520  34.007  29.436  1.00  0.00     0.010 A 
ATOM     27  C   UNL A   1      36.349  33.371  30.675  1.00  0.00    -0.014 A 
BRANCH  27  28
ATOM     28  C   UNL A   1      37.521  32.732  31.328  1.00  0.00     0.031 A 
ATOM     29  C   UNL A   1      38.228  31.591  30.651  1.00  0.00     0.074 A 
ATOM     30  C   UNL A   1      37.895  33.124  32.562  1.00  0.00     0.049 A 
ATOM     31  N   UNL A   1      39.195  30.832  31.100  1.00  0.00    -0.248 NA
ATOM     32  C   UNL A   1      37.763  31.235  29.301  1.00  0.00     0.031 C 
ATOM     33  C   UNL A   1      37.262  34.189  33.341  1.00  0.00     0.029 A 
ATOM     34  N   UNL A   1      38.890  32.658  33.386  1.00  0.00    -0.354 N 
ATOM     35  C   UNL A   1      39.439  29.900  30.098  1.00  0.00     0.074 A 
ATOM     36  C   UNL A   1      38.482  30.151  29.044  1.00  0.00     0.031 C 
ATOM     37  C   UNL A   1      37.896  34.311  34.518  1.00  0.00     0.029 A 
ATOM     38  C   UNL A   1      38.948  33.302  34.599  1.00  0.00     0.049 A 
ATOM     39  H   UNL A   1      39.504  31.933  33.132  1.00  0.00     0.167 HD
ATOM     40  C   UNL A   1      40.392  28.941  30.052  1.00  0.00     0.037 A 
ATOM     41  C   UNL A   1      39.749  33.091  35.661  1.00  0.00     0.037 A 
ATOM     42  C   UNL A   1      41.358  28.712  31.093  1.00  0.00     0.049 A 
ATOM     43  C   UNL A   1      40.788  32.004  35.592  1.00  0.00     0.074 A 
ATOM     44  C   UNL A   1      42.401  27.802  31.118  1.00  0.00     0.029 A 
ATOM     45  N   UNL A   1      41.397  29.397  32.300  1.00  0.00    -0.354 N 
ATOM     46  N   UNL A   1      41.053  31.174  34.612  1.00  0.00    -0.248 NA
ATOM     47  C   UNL A   1      41.643  31.829  36.773  1.00  0.00     0.031 C 
ATOM     48  C   UNL A   1      43.034  27.897  32.360  1.00  0.00     0.029 A 
ATOM     49  C   UNL A   1      42.430  28.912  33.085  1.00  0.00     0.049 A 
ATOM     50  H   UNL A   1      40.781  30.120  32.558  1.00  0.00     0.167 HD
ATOM     51  C   UNL A   1      42.125  30.404  35.043  1.00  0.00     0.074 A 
ATOM     52  C   UNL A   1      42.469  30.874  36.369  1.00  0.00     0.031 C 
ATOM     53  C   UNL A   1      42.769  29.401  34.398  1.00  0.00     0.037 A 
BRANCH  40  54
ATOM     54  C   UNL A   1      40.438  28.062  28.833  1.00  0.00     0.064 A 
ATOM     55  C   UNL A   1      41.190  28.412  27.700  1.00  0.00     0.173 A 
ATOM     56  C   UNL A   1      39.751  26.839  28.810  1.00  0.00     0.173 A 
ATOM     57  F   UNL A   1      41.857  29.576  27.664  1.00  0.00    -0.203 F 
ATOM     58  C   UNL A   1      41.225  27.586  26.580  1.00  0.00     0.198 A 
ATOM     59  C   UNL A   1      39.818  25.999  27.701  1.00  0.00     0.198 A 
ATOM     60  F   UNL A   1      39.023  26.452  29.868  1.00  0.00    -0.203 F 
ATOM     61  F   UNL A   1      41.905  27.967  25.489  1.00  0.00    -0.200 F 
ATOM     62  C   UNL A   1      40.546  26.377  26.585  1.00  0.00     0.200 A 
ATOM     63  F   UNL A   1      39.174  24.823  27.715  1.00  0.00    -0.200 F 
ATOM     64  F   UNL A   1      40.589  25.578  25.509  1.00  0.00    -0.200 F 
ENDBRANCH  40  54
BRANCH  41  65
ATOM     65  C   UNL A   1      39.612  33.939  36.876  1.00  0.00     0.064 A 
ATOM     66  C   UNL A   1      38.827  33.521  37.960  1.00  0.00     0.173 A 
ATOM     67  C   UNL A   1      40.251  35.183  36.977  1.00  0.00     0.173 A 
ATOM     68  F   UNL A   1      38.180  32.347  37.904  1.00  0.00    -0.203 F 
ATOM     69  C   UNL A   1      38.666  34.325  39.086  1.00  0.00     0.198 A 
ATOM     70  C   UNL A   1      40.116  35.971  38.118  1.00  0.00     0.198 A 
ATOM     71  F   UNL A   1      41.019  35.627  35.971  1.00  0.00    -0.203 F 
ATOM     72  F   UNL A   1      37.868  33.923  40.084  1.00  0.00    -0.200 F 
ATOM     73  C   UNL A   1      39.316  35.547  39.166  1.00  0.00     0.200 A 
ATOM     74  F   UNL A   1      40.759  37.144  38.198  1.00  0.00    -0.200 F 
ATOM     75  F   UNL A   1      39.164  36.318  40.252  1.00  0.00    -0.200 F 
ENDBRANCH  41  65
BRANCH  53  76
ATOM     76  C   UNL A   1      43.946  28.774  35.089  1.00  0.00     0.064 A 
ATOM     77  C   UNL A   1      43.809  27.643  35.906  1.00  0.00     0.173 A 
ATOM     78  C   UNL A   1      45.238  29.285  34.886  1.00  0.00     0.173 A 
ATOM     79  F   UNL A   1      42.596  27.124  36.144  1.00  0.00    -0.203 F 
ATOM     80  C   UNL A   1      44.920  27.062  36.513  1.00  0.00     0.198 A 
ATOM     81  C   UNL A   1      46.349  28.681  35.466  1.00  0.00     0.198 A 
ATOM     82  F   UNL A   1      45.424  30.362  34.107  1.00  0.00    -0.203 F 
ATOM     83  F   UNL A   1      44.760  26.009  37.329  1.00  0.00    -0.200 F 
ATOM     84  C   UNL A   1      46.189  27.575  36.286  1.00  0.00     0.200 A 
ATOM     85  F   UNL A   1      47.574  29.169  35.231  1.00  0.00    -0.200 F 
ATOM     86  F   UNL A   1      47.257  27.005  36.860  1.00  0.00    -0.200 F 
ENDBRANCH  53  76
ENDBRANCH  27  28
ENDBRANCH  19  22
ENDBRANCH  17  18
ENDBRANCH   1  17
TORSDOF 11
ENDMDL
MODEL 2
REMARK VINA RESULT:     -11.6      0.109      1.185
REMARK SMILES C[NH+](C)[C@H]1COC[C@]1(C)C(=O)NCCCNC(=O)c1ccc(-c2c3nc(c(-c4c(F)c(F)c(F)c(F)c4F)c4ccc([nH]4)c(-c4c(F)c(F)c(F)c(F)c4F)c4nc(c(-c5c(F)c(F)c(F)c(F)c5F)c5ccc2[nH]5)C=C4)C=C3)cc1
REMARK SMILES IDX 14 1 13 2 12 3 10 4 11 5 8 7 4 8 5 9 6 10 7 11 9 12 2 13
REMARK SMILES IDX 1 14 3 15 15 17 16 18 17 19 18 21 19 22 20 23 81 24 21 25
REMARK SMILES IDX 80 26 22 27 23 28 24 29 74 30 25 31 79 32 73 33 75 34 26 35
REMARK SMILES IDX 78 36 72 37 71 38 27 40 59 41 39 42 58 43 40 44 43 45 57 46
REMARK SMILES IDX 76 47 41 48 42 49 56 51 77 52 44 53 28 54 29 55 37 56 30 57
REMARK SMILES IDX 31 58 35 59 38 60 32 61 33 62 36 63 34 64 60 65 61 66 69 67
REMARK SMILES IDX 62 68 63 69 67 70 70 71 64 72 65 73 68 74 66 75 45 76 46 77
REMARK SMILES IDX 54 78 47 79 48 80 52 81 55 82 49 83 50 84 53 85 51 86
REMARK H PARENT 12 6 2 16 16 20 75 39 43 50
REMARK Flexibility Score: inf
ROOT
ATOM      1  C   UNL A   1      31.514  32.063  26.555  1.00  0.00     0.042 C 
ENDROOT
BRANCH   1   2
ATOM      2  C   UNL A   1      31.828  30.650  26.091  1.00  0.00     0.117 C 
BRANCH   2   3
ATOM      3  N   UNL A   1      31.581  29.666  27.134  1.00  0.00    -0.355 N 
ATOM      4  C   UNL A   1      31.755  28.315  27.170  1.00  0.00     0.234 C 
ATOM      5  O   UNL A   1      31.430  27.763  28.223  1.00  0.00    -0.274 OA
ATOM      6  H   UNL A   1      31.221  30.047  27.968  1.00  0.00     0.163 HD
BRANCH   4   7
ATOM      7  C   UNL A   1      32.344  27.544  25.971  1.00  0.00     0.123 C 
ATOM      8  C   UNL A   1      31.373  27.645  24.768  1.00  0.00     0.227 C 
ATOM      9  C   UNL A   1      30.366  26.533  25.119  1.00  0.00     0.226 C 
ATOM     10  O   UNL A   1      31.097  25.482  25.753  1.00  0.00    -0.374 OA
ATOM     11  C   UNL A   1      32.315  26.035  26.275  1.00  0.00     0.183 C 
ATOM     12  C   UNL A   1      33.803  28.002  25.814  1.00  0.00     0.031 C 
BRANCH   8  13
ATOM     13  N   UNL A   1      31.955  27.581  23.398  1.00  0.00    -0.334 N 
ATOM     14  C   UNL A   1      31.971  28.912  22.769  1.00  0.00     0.332 C 
ATOM     15  C   UNL A   1      31.299  26.649  22.477  1.00  0.00     0.332 C 
ATOM     16  H   UNL A   1      32.899  27.227  23.553  1.00  0.00     0.347 HD
ENDBRANCH   8  13
ENDBRANCH   4   7
ENDBRANCH   2   3
ENDBRANCH   1   2
BRANCH   1  17
ATOM     17  C   UNL A   1      32.632  32.716  27.356  1.00  0.00     0.118 C 
BRANCH  17  18
ATOM     18  N   UNL A   1      32.375  34.120  27.649  1.00  0.00    -0.352 N 
ATOM     19  C   UNL A   1      32.962  34.944  28.577  1.00  0.00     0.251 C 
ATOM     20  H   UNL A   1      31.676  34.540  27.098  1.00  0.00     0.163 HD
ATOM     21  O   UNL A   1      32.491  36.057  28.798  1.00  0.00    -0.269 OA
BRANCH  19  22
ATOM     22  C   UNL A   1      34.144  34.482  29.335  1.00  0.00     0.039 A 
ATOM     23  C   UNL A   1      33.962  33.922  30.601  1.00  0.00     0.014 A 
ATOM     24  C   UNL A   1      35.426  34.588  28.792  1.00  0.00     0.014 A 
ATOM     25  C   UNL A   1      35.058  33.392  31.287  1.00  0.00     0.010 A 
ATOM     26  C   UNL A   1      36.497  33.974  29.429  1.00  0.00     0.010 A 
ATOM     27  C   UNL A   1      36.327  33.372  30.684  1.00  0.00    -0.014 A 
BRANCH  27  28
ATOM     28  C   UNL A   1      37.493  32.732  31.345  1.00  0.00     0.031 A 
ATOM     29  C   UNL A   1      38.195  31.580  30.679  1.00  0.00     0.074 A 
ATOM     30  C   UNL A   1      37.867  33.131  32.576  1.00  0.00     0.049 A 
ATOM     31  N   UNL A   1      39.157  30.819  31.135  1.00  0.00    -0.248 NA
ATOM     32  C   UNL A   1      37.730  31.216  29.330  1.00  0.00     0.031 C 
ATOM     33  C   UNL A   1      37.239  34.206  33.346  1.00  0.00     0.029 A 
ATOM     34  N   UNL A   1      38.858  32.666  33.406  1.00  0.00    -0.354 N 
ATOM     35  C   UNL A   1      39.397  29.879  30.142  1.00  0.00     0.074 A 
ATOM     36  C   UNL A   1      38.443  30.126  29.083  1.00  0.00     0.031 C 
ATOM     37  C   UNL A   1      37.872  34.334  34.523  1.00  0.00     0.029 A 
ATOM     38  C   UNL A   1      38.917  33.320  34.613  1.00  0.00     0.049 A 
ATOM     39  H   UNL A   1      39.468  31.935  33.159  1.00  0.00     0.167 HD
ATOM     40  C   UNL A   1      40.344  28.913  30.105  1.00  0.00     0.037 A 
ATOM     41  C   UNL A   1      39.715  33.112  35.679  1.00  0.00     0.037 A 
ATOM     42  C   UNL A   1      41.307  28.686  31.150  1.00  0.00     0.049 A 
ATOM     43  C   UNL A   1      40.748  32.019  35.620  1.00  0.00     0.074 A 
ATOM     44  C   UNL A   1      42.344  27.771  31.184  1.00  0.00     0.029 A 
ATOM     45  N   UNL A   1      41.347  29.381  32.351  1.00  0.00    -0.354 N 
ATOM     46  N   UNL A   1      41.010  31.179  34.648  1.00  0.00    -0.248 NA
ATOM     47  C   UNL A   1      41.600  31.848  36.804  1.00  0.00     0.031 C 
ATOM     48  C   UNL A   1      42.975  27.872  32.427  1.00  0.00     0.029 A 
ATOM     49  C   UNL A   1      42.376  28.897  33.142  1.00  0.00     0.049 A 
ATOM     50  H   UNL A   1      40.735  30.110  32.602  1.00  0.00     0.167 HD
ATOM     51  C   UNL A   1      42.076  30.407  35.088  1.00  0.00     0.074 A 
ATOM     52  C   UNL A   1      42.421  30.884  36.410  1.00  0.00     0.031 C 
ATOM     53  C   UNL A   1      42.716  29.394  34.451  1.00  0.00     0.037 A 
BRANCH  40  54
ATOM     54  C   UNL A   1      40.387  28.025  28.893  1.00  0.00     0.064 A 
ATOM     55  C   UNL A   1      41.139  28.363  27.756  1.00  0.00     0.173 A 
ATOM     56  C   UNL A   1      39.698  26.803  28.881  1.00  0.00     0.173 A 
ATOM     57  F   UNL A   1      41.809  29.525  27.710  1.00  0.00    -0.203 F 
ATOM     58  C   UNL A   1      41.172  27.528  26.643  1.00  0.00     0.198 A 
ATOM     59  C   UNL A   1      39.762  25.954  27.779  1.00  0.00     0.198 A 
ATOM     60  F   UNL A   1      38.969  26.426  29.942  1.00  0.00    -0.203 F 
ATOM     61  F   UNL A   1      41.851  27.898  25.549  1.00  0.00    -0.200 F 
ATOM     62  C   UNL A   1      40.490  26.321  26.659  1.00  0.00     0.200 A 
ATOM     63  F   UNL A   1      39.115  24.779  27.803  1.00  0.00    -0.200 F 
ATOM     64  F   UNL A   1      40.530  25.512  25.590  1.00  0.00    -0.200 F 
ENDBRANCH  40  54
BRANCH  41  65
ATOM     65  C   UNL A   1      39.581  33.970  36.887  1.00  0.00     0.064 A 
ATOM     66  C   UNL A   1      38.812  33.554  37.983  1.00  0.00     0.173 A 
ATOM     67  C   UNL A   1      40.206  35.223  36.968  1.00  0.00     0.173 A 
ATOM     68  F   UNL A   1      38.178  32.373  37.946  1.00  0.00    -0.203 F 
ATOM     69  C   UNL A   1      38.653  34.368  39.103  1.00  0.00     0.198 A 
ATOM     70  C   UNL A   1      40.074  36.021  38.103  1.00  0.00     0.198 A 
ATOM     71  F   UNL A   1      40.959  35.666  35.951  1.00  0.00    -0.203 F 
ATOM     72  F   UNL A   1      37.871  33.967  40.113  1.00  0.00    -0.200 F 
ATOM     73  C   UNL A   1      39.290  35.598  39.164  1.00  0.00     0.200 A 
ATOM     74  F   UNL A   1      40.704  37.202  38.164  1.00  0.00    -0.200 F 
ATOM     75  F   UNL A   1      39.140  36.379  40.243  1.00  0.00    -0.200 F 
ENDBRANCH  41  65
BRANCH  53  76
ATOM     76  C   UNL A   1      43.888  28.766  35.150  1.00  0.00     0.064 A 
ATOM     77  C   UNL A   1      45.192  29.259  34.998  1.00  0.00     0.173 A 
ATOM     78  C   UNL A   1      43.692  27.687  36.025  1.00  0.00     0.173 A 
ATOM     79  F   UNL A   1      45.435  30.280  34.162  1.00  0.00    -0.203 F 
ATOM     80  C   UNL A   1      46.259  28.678  35.679  1.00  0.00     0.198 A 
ATOM     81  C   UNL A   1      44.755  27.131  36.730  1.00  0.00     0.198 A 
ATOM     82  F   UNL A   1      42.463  27.182  36.211  1.00  0.00    -0.203 F 
ATOM     83  F   UNL A   1      47.504  29.136  35.482  1.00  0.00    -0.200 F 
ATOM     84  C   UNL A   1      46.039  27.622  36.551  1.00  0.00     0.200 A 
ATOM     85  F   UNL A   1      44.537  26.122  37.584  1.00  0.00    -0.200 F 
ATOM     86  F   UNL A   1      47.066  27.075  37.215  1.00  0.00    -0.200 F 
ENDBRANCH  53  76
ENDBRANCH  27  28
ENDBRANCH  19  22
ENDBRANCH  17  18
ENDBRANCH   1  17
TORSDOF 11
ENDMDL
MODEL 3
REMARK VINA RESULT:     -11.6      0.148      2.049
REMARK SMILES C[NH+](C)[C@H]1COC[C@]1(C)C(=O)NCCCNC(=O)c1ccc(-c2c3nc(c(-c4c(F)c(F)c(F)c(F)c4F)c4ccc([nH]4)c(-c4c(F)c(F)c(F)c(F)c4F)c4nc(c(-c5c(F)c(F)c(F)c(F)c5F)c5ccc2[nH]5)C=C4)C=C3)cc1
REMARK SMILES IDX 14 1 13 2 12 3 10 4 11 5 8 7 4 8 5 9 6 10 7 11 9 12 2 13
REMARK SMILES IDX 1 14 3 15 15 17 16 18 17 19 18 21 19 22 20 23 81 24 21 25
REMARK SMILES IDX 80 26 22 27 23 28 24 29 74 30 25 31 79 32 73 33 75 34 26 35
REMARK SMILES IDX 78 36 72 37 71 38 27 40 59 41 39 42 58 43 40 44 43 45 57 46
REMARK SMILES IDX 76 47 41 48 42 49 56 51 77 52 44 53 28 54 29 55 37 56 30 57
REMARK SMILES IDX 31 58 35 59 38 60 32 61 33 62 36 63 34 64 60 65 61 66 69 67
REMARK SMILES IDX 62 68 63 69 67 70 70 71 64 72 65 73 68 74 66 75 45 76 46 77
REMARK SMILES IDX 54 78 47 79 48 80 52 81 55 82 49 83 50 84 53 85 51 86
REMARK H PARENT 12 6 2 16 16 20 75 39 43 50
REMARK Flexibility Score: inf
ROOT
ATOM      1  C   UNL A   1      31.553  32.022  26.538  1.00  0.00     0.042 C 
ENDROOT
BRANCH   1   2
ATOM      2  C   UNL A   1      31.873  30.605  26.089  1.00  0.00     0.117 C 
BRANCH   2   3
ATOM      3  N   UNL A   1      31.588  29.627  27.127  1.00  0.00    -0.355 N 
ATOM      4  C   UNL A   1      31.735  28.273  27.165  1.00  0.00     0.234 C 
ATOM      5  O   UNL A   1      31.380  27.727  28.211  1.00  0.00    -0.274 OA
ATOM      6  H   UNL A   1      31.219  30.014  27.954  1.00  0.00     0.163 HD
BRANCH   4   7
ATOM      7  C   UNL A   1      32.332  27.490  25.977  1.00  0.00     0.123 C 
ATOM      8  C   UNL A   1      31.396  27.624  24.752  1.00  0.00     0.227 C 
ATOM      9  C   UNL A   1      30.350  26.538  25.071  1.00  0.00     0.226 C 
ATOM     10  O   UNL A   1      31.035  25.465  25.718  1.00  0.00    -0.374 OA
ATOM     11  C   UNL A   1      32.255  25.981  26.273  1.00  0.00     0.183 C 
ATOM     12  C   UNL A   1      33.807  27.908  25.859  1.00  0.00     0.031 C 
BRANCH   8  13
ATOM     13  N   UNL A   1      32.009  27.550  23.396  1.00  0.00    -0.334 N 
ATOM     14  C   UNL A   1      32.093  28.884  22.780  1.00  0.00     0.332 C 
ATOM     15  C   UNL A   1      31.342  26.651  22.450  1.00  0.00     0.332 C 
ATOM     16  H   UNL A   1      32.934  27.158  23.571  1.00  0.00     0.347 HD
ENDBRANCH   8  13
ENDBRANCH   4   7
ENDBRANCH   2   3
ENDBRANCH   1   2
BRANCH   1  17
ATOM     17  C   UNL A   1      32.656  32.679  27.355  1.00  0.00     0.118 C 
BRANCH  17  18
ATOM     18  N   UNL A   1      32.396  34.085  27.634  1.00  0.00    -0.352 N 
ATOM     19  C   UNL A   1      32.979  34.920  28.556  1.00  0.00     0.251 C 
ATOM     20  H   UNL A   1      31.697  34.498  27.079  1.00  0.00     0.163 HD
ATOM     21  O   UNL A   1      32.505  36.033  28.765  1.00  0.00    -0.269 OA
BRANCH  19  22
ATOM     22  C   UNL A   1      34.161  34.468  29.320  1.00  0.00     0.039 A 
ATOM     23  C   UNL A   1      33.979  33.930  30.596  1.00  0.00     0.014 A 
ATOM     24  C   UNL A   1      35.442  34.561  28.774  1.00  0.00     0.014 A 
ATOM     25  C   UNL A   1      35.074  33.409  31.289  1.00  0.00     0.010 A 
ATOM     26  C   UNL A   1      36.513  33.955  29.420  1.00  0.00     0.010 A 
ATOM     27  C   UNL A   1      36.342  33.375  30.686  1.00  0.00    -0.014 A 
BRANCH  27  28
ATOM     28  C   UNL A   1      37.508  32.743  31.357  1.00  0.00     0.031 A 
ATOM     29  C   UNL A   1      38.229  31.604  30.692  1.00  0.00     0.074 A 
ATOM     30  C   UNL A   1      37.863  33.139  32.595  1.00  0.00     0.049 A 
ATOM     31  N   UNL A   1      39.194  30.850  31.155  1.00  0.00    -0.248 NA
ATOM     32  C   UNL A   1      37.784  31.243  29.336  1.00  0.00     0.031 C 
ATOM     33  C   UNL A   1      37.215  34.203  33.363  1.00  0.00     0.029 A 
ATOM     34  N   UNL A   1      38.848  32.680  33.433  1.00  0.00    -0.354 N 
ATOM     35  C   UNL A   1      39.455  29.918  30.159  1.00  0.00     0.074 A 
ATOM     36  C   UNL A   1      38.511  30.162  29.091  1.00  0.00     0.031 C 
ATOM     37  C   UNL A   1      37.832  34.330  34.548  1.00  0.00     0.029 A 
ATOM     38  C   UNL A   1      38.887  33.326  34.645  1.00  0.00     0.049 A 
ATOM     39  H   UNL A   1      39.470  31.956  33.189  1.00  0.00     0.167 HD
ATOM     40  C   UNL A   1      40.414  28.963  30.127  1.00  0.00     0.037 A 
ATOM     41  C   UNL A   1      39.675  33.121  35.719  1.00  0.00     0.037 A 
ATOM     42  C   UNL A   1      41.367  28.740  31.182  1.00  0.00     0.049 A 
ATOM     43  C   UNL A   1      40.720  32.039  35.666  1.00  0.00     0.074 A 
ATOM     44  C   UNL A   1      42.413  27.835  31.222  1.00  0.00     0.029 A 
ATOM     45  N   UNL A   1      41.386  29.428  32.388  1.00  0.00    -0.354 N 
ATOM     46  N   UNL A   1      41.002  31.208  34.691  1.00  0.00    -0.248 NA
ATOM     47  C   UNL A   1      41.560  31.870  36.858  1.00  0.00     0.031 C 
ATOM     48  C   UNL A   1      43.029  27.936  32.473  1.00  0.00     0.029 A 
ATOM     49  C   UNL A   1      42.410  28.950  33.188  1.00  0.00     0.049 A 
ATOM     50  H   UNL A   1      40.763  30.149  32.636  1.00  0.00     0.167 HD
ATOM     51  C   UNL A   1      42.072  30.444  35.139  1.00  0.00     0.074 A 
ATOM     52  C   UNL A   1      42.395  30.918  36.468  1.00  0.00     0.031 C 
ATOM     53  C   UNL A   1      42.729  29.442  34.504  1.00  0.00     0.037 A 
BRANCH  40  54
ATOM     54  C   UNL A   1      40.480  28.082  28.910  1.00  0.00     0.064 A 
ATOM     55  C   UNL A   1      39.767  26.875  28.834  1.00  0.00     0.173 A 
ATOM     56  C   UNL A   1      41.237  28.467  27.793  1.00  0.00     0.173 A 
ATOM     57  F   UNL A   1      39.037  26.454  29.878  1.00  0.00    -0.203 F 
ATOM     58  C   UNL A   1      39.837  26.073  27.699  1.00  0.00     0.198 A 
ATOM     59  C   UNL A   1      41.275  27.678  26.646  1.00  0.00     0.198 A 
ATOM     60  F   UNL A   1      41.933  29.614  27.809  1.00  0.00    -0.203 F 
ATOM     61  F   UNL A   1      39.192  24.898  27.670  1.00  0.00    -0.200 F 
ATOM     62  C   UNL A   1      40.583  26.478  26.604  1.00  0.00     0.200 A 
ATOM     63  F   UNL A   1      41.984  28.081  25.582  1.00  0.00    -0.200 F 
ATOM     64  F   UNL A   1      40.641  25.709  25.507  1.00  0.00    -0.200 F 
ENDBRANCH  40  54
BRANCH  41  65
ATOM     65  C   UNL A   1      39.517  33.970  36.930  1.00  0.00     0.064 A 
ATOM     66  C   UNL A   1      40.138  35.224  37.015  1.00  0.00     0.173 A 
ATOM     67  C   UNL A   1      38.756  33.545  38.028  1.00  0.00     0.173 A 
ATOM     68  F   UNL A   1      40.893  35.668  35.999  1.00  0.00    -0.203 F 
ATOM     69  C   UNL A   1      40.024  36.010  38.160  1.00  0.00     0.198 A 
ATOM     70  C   UNL A   1      38.615  34.346  39.160  1.00  0.00     0.198 A 
ATOM     71  F   UNL A   1      38.136  32.356  37.996  1.00  0.00    -0.203 F 
ATOM     72  F   UNL A   1      40.669  37.181  38.234  1.00  0.00    -0.200 F 
ATOM     73  C   UNL A   1      39.257  35.572  39.230  1.00  0.00     0.200 A 
ATOM     74  F   UNL A   1      37.859  33.926  40.184  1.00  0.00    -0.200 F 
ATOM     75  F   UNL A   1      39.143  36.329  40.329  1.00  0.00    -0.200 F 
ENDBRANCH  41  65
BRANCH  53  76
ATOM     76  C   UNL A   1      43.899  28.823  35.212  1.00  0.00     0.064 A 
ATOM     77  C   UNL A   1      45.205  29.307  35.049  1.00  0.00     0.173 A 
ATOM     78  C   UNL A   1      43.700  27.761  36.109  1.00  0.00     0.173 A 
ATOM     79  F   UNL A   1      45.452  30.310  34.192  1.00  0.00    -0.203 F 
ATOM     80  C   UNL A   1      46.272  28.734  35.739  1.00  0.00     0.198 A 
ATOM     81  C   UNL A   1      44.763  27.215  36.823  1.00  0.00     0.198 A 
ATOM     82  F   UNL A   1      42.470  27.266  36.307  1.00  0.00    -0.203 F 
ATOM     83  F   UNL A   1      47.518  29.182  35.531  1.00  0.00    -0.200 F 
ATOM     84  C   UNL A   1      46.049  27.696  36.632  1.00  0.00     0.200 A 
ATOM     85  F   UNL A   1      44.541  26.223  37.696  1.00  0.00    -0.200 F 
ATOM     86  F   UNL A   1      47.074  27.157  37.304  1.00  0.00    -0.200 F 
ENDBRANCH  53  76
ENDBRANCH  27  28
ENDBRANCH  19  22
ENDBRANCH  17  18
ENDBRANCH   1  17
TORSDOF 11
ENDMDL
