MODEL 1
REMARK VINA RESULT:     -12.5      0.000      0.000
REMARK SMILES COc1ccccc1-c1ccc(C(=O)NCCCNC(=O)c2ccc(-c3c4nc(c(-c5c(F)c(F)c(F)c(F)c5F)c5ccc([nH]5)c(-c5c(F)c(F)c(F)c(F)c5F)c5nc(c(-c6c(F)c(F)c(F)c(F)c6F)c6ccc3[nH]6)C=C5)C=C4)cc2)c(O)c1
REMARK SMILES IDX 17 1 16 2 15 3 13 4 14 5 12 7 9 8 10 9 87 10 11 11 85 12
REMARK SMILES IDX 8 13 3 14 4 15 5 16 7 17 6 18 2 19 1 20 86 21 18 23 19 24
REMARK SMILES IDX 20 25 21 27 22 28 23 29 84 30 24 31 83 32 25 33 26 34 27 35
REMARK SMILES IDX 77 36 28 37 82 38 76 39 78 40 29 41 81 42 75 43 74 44 30 46
REMARK SMILES IDX 62 47 42 48 61 49 43 50 46 51 60 52 79 53 44 54 45 55 59 57
REMARK SMILES IDX 80 58 47 59 31 60 32 61 40 62 33 63 34 64 38 65 41 66 35 67
REMARK SMILES IDX 36 68 39 69 37 70 63 71 64 72 72 73 65 74 66 75 70 76 73 77
REMARK SMILES IDX 67 78 68 79 71 80 69 81 48 82 49 83 57 84 50 85 51 86 55 87
REMARK SMILES IDX 58 88 52 89 53 90 56 91 54 92
REMARK H PARENT 15 6 86 22 19 26 78 45 46 56
REMARK Flexibility Score: inf
ROOT
ATOM      1  C   UNL A   1      38.052  19.310  25.004  1.00  0.00     0.042 C 
ENDROOT
BRANCH   1   2
ATOM      2  C   UNL A   1      36.992  20.320  24.567  1.00  0.00     0.118 C 
BRANCH   2   3
ATOM      3  N   UNL A   1      35.678  19.915  25.027  1.00  0.00    -0.352 N 
ATOM      4  C   UNL A   1      34.552  20.641  25.320  1.00  0.00     0.255 C 
ATOM      5  O   UNL A   1      33.573  20.016  25.736  1.00  0.00    -0.269 OA
ATOM      6  H   UNL A   1      35.576  18.944  25.152  1.00  0.00     0.163 HD
BRANCH   4   7
ATOM      7  C   UNL A   1      34.407  22.100  25.060  1.00  0.00     0.081 A 
ATOM      8  C   UNL A   1      33.895  24.802  24.378  1.00  0.00    -0.011 A 
ATOM      9  C   UNL A   1      33.072  23.782  23.891  1.00  0.00     0.010 A 
ATOM     10  C   UNL A   1      34.941  24.462  25.245  1.00  0.00     0.055 A 
ATOM     11  C   UNL A   1      33.331  22.450  24.224  1.00  0.00     0.018 A 
ATOM     12  C   UNL A   1      35.181  23.132  25.598  1.00  0.00     0.128 A 
BRANCH   8  13
ATOM     13  C   UNL A   1      33.688  26.207  24.014  1.00  0.00     0.024 A 
ATOM     14  C   UNL A   1      33.624  26.644  22.675  1.00  0.00     0.126 A 
ATOM     15  C   UNL A   1      33.566  28.008  22.376  1.00  0.00     0.047 A 
ATOM     16  C   UNL A   1      33.540  28.954  23.401  1.00  0.00     0.004 A 
ATOM     17  C   UNL A   1      33.653  27.178  25.032  1.00  0.00     0.012 A 
ATOM     18  C   UNL A   1      33.583  28.538  24.729  1.00  0.00     0.001 A 
BRANCH  14  19
ATOM     19  O   UNL A   1      33.731  25.811  21.588  1.00  0.00    -0.496 OA
ATOM     20  C   UNL A   1      32.524  25.710  20.830  1.00  0.00     0.278 C 
ENDBRANCH  14  19
ENDBRANCH   8  13
BRANCH  12  21
ATOM     21  O   UNL A   1      36.164  22.909  26.514  1.00  0.00    -0.507 OA
ATOM     22  H   UNL A   1      36.834  23.550  26.649  1.00  0.00     0.293 HD
ENDBRANCH  12  21
ENDBRANCH   4   7
ENDBRANCH   2   3
ENDBRANCH   1   2
BRANCH   1  23
ATOM     23  C   UNL A   1      39.212  19.929  25.767  1.00  0.00     0.118 C 
BRANCH  23  24
ATOM     24  N   UNL A   1      40.309  18.994  25.950  1.00  0.00    -0.352 N 
ATOM     25  C   UNL A   1      41.647  19.237  26.127  1.00  0.00     0.251 C 
ATOM     26  H   UNL A   1      40.052  18.044  25.947  1.00  0.00     0.163 HD
ATOM     27  O   UNL A   1      42.448  18.312  26.039  1.00  0.00    -0.269 OA
BRANCH  25  28
ATOM     28  C   UNL A   1      42.138  20.607  26.408  1.00  0.00     0.039 A 
ATOM     29  C   UNL A   1      42.306  21.491  25.338  1.00  0.00     0.014 A 
ATOM     30  C   UNL A   1      42.476  21.011  27.702  1.00  0.00     0.014 A 
ATOM     31  C   UNL A   1      42.768  22.788  25.571  1.00  0.00     0.010 A 
ATOM     32  C   UNL A   1      42.858  22.328  27.945  1.00  0.00     0.010 A 
ATOM     33  C   UNL A   1      43.024  23.225  26.881  1.00  0.00    -0.014 A 
BRANCH  33  34
ATOM     34  C   UNL A   1      43.491  24.608  27.154  1.00  0.00     0.031 A 
ATOM     35  C   UNL A   1      42.539  25.627  27.718  1.00  0.00     0.074 A 
ATOM     36  C   UNL A   1      44.754  24.958  26.848  1.00  0.00     0.049 A 
ATOM     37  N   UNL A   1      42.736  26.897  27.970  1.00  0.00    -0.248 NA
ATOM     38  C   UNL A   1      41.174  25.163  28.010  1.00  0.00     0.031 C 
ATOM     39  C   UNL A   1      45.759  24.071  26.263  1.00  0.00     0.029 A 
ATOM     40  N   UNL A   1      45.406  26.158  26.980  1.00  0.00    -0.354 N 
ATOM     41  C   UNL A   1      41.521  27.382  28.436  1.00  0.00     0.074 A 
ATOM     42  C   UNL A   1      40.578  26.288  28.376  1.00  0.00     0.031 C 
ATOM     43  C   UNL A   1      46.908  24.747  26.112  1.00  0.00     0.029 A 
ATOM     44  C   UNL A   1      46.711  26.125  26.552  1.00  0.00     0.049 A 
ATOM     45  H   UNL A   1      44.979  26.967  27.346  1.00  0.00     0.167 HD
ATOM     46  C   UNL A   1      41.226  28.621  28.895  1.00  0.00     0.037 A 
ATOM     47  C   UNL A   1      47.640  27.098  26.517  1.00  0.00     0.037 A 
ATOM     48  C   UNL A   1      42.173  29.703  28.970  1.00  0.00     0.049 A 
ATOM     49  C   UNL A   1      47.283  28.472  27.016  1.00  0.00     0.074 A 
ATOM     50  C   UNL A   1      41.990  30.981  29.465  1.00  0.00     0.029 A 
ATOM     51  N   UNL A   1      43.488  29.630  28.530  1.00  0.00    -0.354 N 
ATOM     52  N   UNL A   1      46.149  28.905  27.511  1.00  0.00    -0.248 NA
ATOM     53  C   UNL A   1      48.338  29.492  26.952  1.00  0.00     0.031 C 
ATOM     54  C   UNL A   1      43.180  31.696  29.284  1.00  0.00     0.029 A 
ATOM     55  C   UNL A   1      44.120  30.848  28.722  1.00  0.00     0.049 A 
ATOM     56  H   UNL A   1      43.909  28.830  28.139  1.00  0.00     0.167 HD
ATOM     57  C   UNL A   1      46.360  30.234  27.846  1.00  0.00     0.074 A 
ATOM     58  C   UNL A   1      47.737  30.535  27.508  1.00  0.00     0.031 C 
ATOM     59  C   UNL A   1      45.494  31.126  28.385  1.00  0.00     0.037 A 
BRANCH  46  60
ATOM     60  C   UNL A   1      39.816  28.870  29.353  1.00  0.00     0.064 A 
ATOM     61  C   UNL A   1      39.425  28.649  30.683  1.00  0.00     0.173 A 
ATOM     62  C   UNL A   1      38.847  29.344  28.456  1.00  0.00     0.173 A 
ATOM     63  F   UNL A   1      40.309  28.185  31.579  1.00  0.00    -0.203 F 
ATOM     64  C   UNL A   1      38.109  28.857  31.088  1.00  0.00     0.198 A 
ATOM     65  C   UNL A   1      37.539  29.582  28.873  1.00  0.00     0.198 A 
ATOM     66  F   UNL A   1      39.168  29.579  27.175  1.00  0.00    -0.203 F 
ATOM     67  F   UNL A   1      37.746  28.581  32.348  1.00  0.00    -0.200 F 
ATOM     68  C   UNL A   1      37.169  29.328  30.185  1.00  0.00     0.200 A 
ATOM     69  F   UNL A   1      36.635  30.050  28.002  1.00  0.00    -0.200 F 
ATOM     70  F   UNL A   1      35.903  29.528  30.576  1.00  0.00    -0.200 F 
ENDBRANCH  46  60
BRANCH  47  71
ATOM     71  C   UNL A   1      49.009  26.795  26.028  1.00  0.00     0.064 A 
ATOM     72  C   UNL A   1      49.362  27.038  24.693  1.00  0.00     0.173 A 
ATOM     73  C   UNL A   1      49.993  26.268  26.877  1.00  0.00     0.173 A 
ATOM     74  F   UNL A   1      48.450  27.523  23.837  1.00  0.00    -0.203 F 
ATOM     75  C   UNL A   1      50.643  26.755  24.224  1.00  0.00     0.198 A 
ATOM     76  C   UNL A   1      51.281  26.010  26.415  1.00  0.00     0.198 A 
ATOM     77  F   UNL A   1      49.706  26.021  28.164  1.00  0.00    -0.203 F 
ATOM     78  F   UNL A   1      50.943  26.962  22.935  1.00  0.00    -0.200 F 
ATOM     79  C   UNL A   1      51.604  26.247  25.086  1.00  0.00     0.200 A 
ATOM     80  F   UNL A   1      52.210  25.534  27.254  1.00  0.00    -0.200 F 
ATOM     81  F   UNL A   1      52.837  25.982  24.637  1.00  0.00    -0.200 F 
ENDBRANCH  47  71
BRANCH  59  82
ATOM     82  C   UNL A   1      46.018  32.502  28.677  1.00  0.00     0.064 A 
ATOM     83  C   UNL A   1      45.936  33.538  27.734  1.00  0.00     0.173 A 
ATOM     84  C   UNL A   1      46.577  32.797  29.930  1.00  0.00     0.173 A 
ATOM     85  F   UNL A   1      45.425  33.302  26.515  1.00  0.00    -0.203 F 
ATOM     86  C   UNL A   1      46.417  34.811  28.026  1.00  0.00     0.198 A 
ATOM     87  C   UNL A   1      47.029  34.079  30.229  1.00  0.00     0.198 A 
ATOM     88  F   UNL A   1      46.674  31.844  30.869  1.00  0.00    -0.203 F 
ATOM     89  F   UNL A   1      46.372  35.772  27.094  1.00  0.00    -0.200 F 
ATOM     90  C   UNL A   1      46.955  35.082  29.276  1.00  0.00     0.200 A 
ATOM     91  F   UNL A   1      47.537  34.342  31.441  1.00  0.00    -0.200 F 
ATOM     92  F   UNL A   1      47.411  36.311  29.557  1.00  0.00    -0.200 F 
ENDBRANCH  59  82
ENDBRANCH  33  34
ENDBRANCH  25  28
ENDBRANCH  23  24
ENDBRANCH   1  23
TORSDOF 13
ENDMDL
MODEL 2
REMARK VINA RESULT:     -12.5      5.884     11.333
REMARK SMILES COc1ccccc1-c1ccc(C(=O)NCCCNC(=O)c2ccc(-c3c4nc(c(-c5c(F)c(F)c(F)c(F)c5F)c5ccc([nH]5)c(-c5c(F)c(F)c(F)c(F)c5F)c5nc(c(-c6c(F)c(F)c(F)c(F)c6F)c6ccc3[nH]6)C=C5)C=C4)cc2)c(O)c1
REMARK SMILES IDX 17 1 16 2 15 3 13 4 14 5 12 7 9 8 10 9 87 10 11 11 85 12
REMARK SMILES IDX 8 13 3 14 4 15 5 16 7 17 6 18 2 19 1 20 86 21 18 23 19 24
REMARK SMILES IDX 20 25 21 27 22 28 23 29 84 30 24 31 83 32 25 33 26 34 27 35
REMARK SMILES IDX 77 36 28 37 82 38 76 39 78 40 29 41 81 42 75 43 74 44 30 46
REMARK SMILES IDX 62 47 42 48 61 49 43 50 46 51 60 52 79 53 44 54 45 55 59 57
REMARK SMILES IDX 80 58 47 59 31 60 32 61 40 62 33 63 34 64 38 65 41 66 35 67
REMARK SMILES IDX 36 68 39 69 37 70 63 71 64 72 72 73 65 74 66 75 70 76 73 77
REMARK SMILES IDX 67 78 68 79 71 80 69 81 48 82 49 83 57 84 50 85 51 86 55 87
REMARK SMILES IDX 58 88 52 89 53 90 56 91 54 92
REMARK H PARENT 15 6 86 22 19 26 78 45 46 56
REMARK Flexibility Score: inf
ROOT
ATOM      1  C   UNL A   1      31.403  32.299  26.501  1.00  0.00     0.042 C 
ENDROOT
BRANCH   1   2
ATOM      2  C   UNL A   1      31.405  30.786  26.289  1.00  0.00     0.118 C 
BRANCH   2   3
ATOM      3  N   UNL A   1      31.028  30.458  24.928  1.00  0.00    -0.352 N 
ATOM      4  C   UNL A   1      31.265  29.346  24.160  1.00  0.00     0.255 C 
ATOM      5  O   UNL A   1      30.847  29.366  23.000  1.00  0.00    -0.269 OA
ATOM      6  H   UNL A   1      30.510  31.160  24.473  1.00  0.00     0.163 HD
BRANCH   4   7
ATOM      7  C   UNL A   1      31.884  28.093  24.673  1.00  0.00     0.081 A 
ATOM      8  C   UNL A   1      32.799  25.565  25.568  1.00  0.00    -0.011 A 
ATOM      9  C   UNL A   1      31.551  25.687  24.949  1.00  0.00     0.010 A 
ATOM     10  C   UNL A   1      33.600  26.707  25.689  1.00  0.00     0.055 A 
ATOM     11  C   UNL A   1      31.100  26.936  24.515  1.00  0.00     0.018 A 
ATOM     12  C   UNL A   1      33.158  27.950  25.229  1.00  0.00     0.128 A 
BRANCH   8  13
ATOM     13  C   UNL A   1      33.288  24.283  26.082  1.00  0.00     0.024 A 
ATOM     14  C   UNL A   1      32.534  23.477  26.960  1.00  0.00     0.126 A 
ATOM     15  C   UNL A   1      33.097  22.333  27.533  1.00  0.00     0.047 A 
ATOM     16  C   UNL A   1      34.403  21.958  27.221  1.00  0.00     0.004 A 
ATOM     17  C   UNL A   1      34.601  23.881  25.775  1.00  0.00     0.012 A 
ATOM     18  C   UNL A   1      35.155  22.732  26.341  1.00  0.00     0.001 A 
BRANCH  14  19
ATOM     19  O   UNL A   1      31.274  23.796  27.405  1.00  0.00    -0.496 OA
ATOM     20  C   UNL A   1      30.254  22.948  26.876  1.00  0.00     0.278 C 
ENDBRANCH  14  19
ENDBRANCH   8  13
BRANCH  12  21
ATOM     21  O   UNL A   1      34.042  28.984  25.310  1.00  0.00    -0.507 OA
ATOM     22  H   UNL A   1      34.328  29.291  26.148  1.00  0.00     0.293 HD
ENDBRANCH  12  21
ENDBRANCH   4   7
ENDBRANCH   2   3
ENDBRANCH   1   2
BRANCH   1  23
ATOM     23  C   UNL A   1      32.650  32.823  27.195  1.00  0.00     0.118 C 
BRANCH  23  24
ATOM     24  N   UNL A   1      32.498  34.202  27.626  1.00  0.00    -0.352 N 
ATOM     25  C   UNL A   1      33.101  34.867  28.664  1.00  0.00     0.251 C 
ATOM     26  H   UNL A   1      31.868  34.740  27.093  1.00  0.00     0.163 HD
ATOM     27  O   UNL A   1      32.676  35.965  29.008  1.00  0.00    -0.269 OA
BRANCH  25  28
ATOM     28  C   UNL A   1      34.249  34.268  29.383  1.00  0.00     0.039 A 
ATOM     29  C   UNL A   1      33.997  33.482  30.512  1.00  0.00     0.014 A 
ATOM     30  C   UNL A   1      35.567  34.508  28.985  1.00  0.00     0.014 A 
ATOM     31  C   UNL A   1      35.059  32.904  31.211  1.00  0.00     0.010 A 
ATOM     32  C   UNL A   1      36.620  33.866  29.632  1.00  0.00     0.010 A 
ATOM     33  C   UNL A   1      36.378  33.071  30.761  1.00  0.00    -0.014 A 
BRANCH  33  34
ATOM     34  C   UNL A   1      37.520  32.445  31.474  1.00  0.00     0.031 A 
ATOM     35  C   UNL A   1      38.260  31.294  30.848  1.00  0.00     0.074 A 
ATOM     36  C   UNL A   1      37.857  32.877  32.703  1.00  0.00     0.049 A 
ATOM     37  N   UNL A   1      39.242  30.577  31.333  1.00  0.00    -0.248 NA
ATOM     38  C   UNL A   1      37.817  30.878  29.509  1.00  0.00     0.031 C 
ATOM     39  C   UNL A   1      37.193  33.959  33.431  1.00  0.00     0.029 A 
ATOM     40  N   UNL A   1      38.840  32.454  33.562  1.00  0.00    -0.354 N 
ATOM     41  C   UNL A   1      39.523  29.619  30.367  1.00  0.00     0.074 A 
ATOM     42  C   UNL A   1      38.570  29.810  29.295  1.00  0.00     0.031 C 
ATOM     43  C   UNL A   1      37.803  34.133  34.613  1.00  0.00     0.029 A 
ATOM     44  C   UNL A   1      38.876  33.152  34.744  1.00  0.00     0.049 A 
ATOM     45  H   UNL A   1      39.462  31.718  33.351  1.00  0.00     0.167 HD
ATOM     46  C   UNL A   1      40.501  28.684  30.363  1.00  0.00     0.037 A 
ATOM     47  C   UNL A   1      39.682  33.011  35.814  1.00  0.00     0.037 A 
ATOM     48  C   UNL A   1      41.458  28.510  31.424  1.00  0.00     0.049 A 
ATOM     49  C   UNL A   1      40.749  31.952  35.794  1.00  0.00     0.074 A 
ATOM     50  C   UNL A   1      42.519  27.626  31.496  1.00  0.00     0.029 A 
ATOM     51  N   UNL A   1      41.464  29.239  32.606  1.00  0.00    -0.354 N 
ATOM     52  N   UNL A   1      41.046  31.092  34.850  1.00  0.00    -0.248 NA
ATOM     53  C   UNL A   1      41.597  31.847  36.989  1.00  0.00     0.031 C 
ATOM     54  C   UNL A   1      43.141  27.788  32.740  1.00  0.00     0.029 A 
ATOM     55  C   UNL A   1      42.498  28.809  33.422  1.00  0.00     0.049 A 
ATOM     56  H   UNL A   1      40.828  29.957  32.830  1.00  0.00     0.167 HD
ATOM     57  C   UNL A   1      42.130  30.365  35.321  1.00  0.00     0.074 A 
ATOM     58  C   UNL A   1      42.447  30.893  36.632  1.00  0.00     0.031 C 
ATOM     59  C   UNL A   1      42.802  29.351  34.723  1.00  0.00     0.037 A 
BRANCH  46  60
ATOM     60  C   UNL A   1      40.582  27.774  29.169  1.00  0.00     0.064 A 
ATOM     61  C   UNL A   1      39.766  26.637  29.054  1.00  0.00     0.173 A 
ATOM     62  C   UNL A   1      41.475  28.047  28.122  1.00  0.00     0.173 A 
ATOM     63  F   UNL A   1      38.903  26.324  30.032  1.00  0.00    -0.203 F 
ATOM     64  C   UNL A   1      39.870  25.787  27.956  1.00  0.00     0.198 A 
ATOM     65  C   UNL A   1      41.552  27.212  27.009  1.00  0.00     0.198 A 
ATOM     66  F   UNL A   1      42.273  29.124  28.176  1.00  0.00    -0.203 F 
ATOM     67  F   UNL A   1      39.124  24.676  27.898  1.00  0.00    -0.200 F 
ATOM     68  C   UNL A   1      40.759  26.078  26.932  1.00  0.00     0.200 A 
ATOM     69  F   UNL A   1      42.402  27.502  26.014  1.00  0.00    -0.200 F 
ATOM     70  F   UNL A   1      40.857  25.260  25.875  1.00  0.00    -0.200 F 
ENDBRANCH  46  60
BRANCH  47  71
ATOM     71  C   UNL A   1      39.533  33.925  36.975  1.00  0.00     0.064 A 
ATOM     72  C   UNL A   1      38.767  33.549  38.088  1.00  0.00     0.173 A 
ATOM     73  C   UNL A   1      40.156  35.181  37.006  1.00  0.00     0.173 A 
ATOM     74  F   UNL A   1      38.136  32.366  38.097  1.00  0.00    -0.203 F 
ATOM     75  C   UNL A   1      38.619  34.400  39.181  1.00  0.00     0.198 A 
ATOM     76  C   UNL A   1      40.030  36.020  38.110  1.00  0.00     0.198 A 
ATOM     77  F   UNL A   1      40.903  35.585  35.968  1.00  0.00    -0.203 F 
ATOM     78  F   UNL A   1      37.852  34.032  40.215  1.00  0.00    -0.200 F 
ATOM     79  C   UNL A   1      39.256  35.632  39.195  1.00  0.00     0.200 A 
ATOM     80  F   UNL A   1      40.659  37.203  38.127  1.00  0.00    -0.200 F 
ATOM     81  F   UNL A   1      39.121  36.447  40.249  1.00  0.00    -0.200 F 
ENDBRANCH  47  71
BRANCH  59  82
ATOM     82  C   UNL A   1      43.971  28.771  35.464  1.00  0.00     0.064 A 
ATOM     83  C   UNL A   1      45.273  29.259  35.286  1.00  0.00     0.173 A 
ATOM     84  C   UNL A   1      43.777  27.736  36.393  1.00  0.00     0.173 A 
ATOM     85  F   UNL A   1      45.513  30.235  34.397  1.00  0.00    -0.203 F 
ATOM     86  C   UNL A   1      46.344  28.715  35.991  1.00  0.00     0.198 A 
ATOM     87  C   UNL A   1      44.845  27.216  37.119  1.00  0.00     0.198 A 
ATOM     88  F   UNL A   1      42.550  27.238  36.605  1.00  0.00    -0.203 F 
ATOM     89  F   UNL A   1      47.587  29.164  35.769  1.00  0.00    -0.200 F 
ATOM     90  C   UNL A   1      46.127  27.701  36.912  1.00  0.00     0.200 A 
ATOM     91  F   UNL A   1      44.633  26.245  38.017  1.00  0.00    -0.200 F 
ATOM     92  F   UNL A   1      47.158  27.184  37.595  1.00  0.00    -0.200 F 
ENDBRANCH  59  82
ENDBRANCH  33  34
ENDBRANCH  25  28
ENDBRANCH  23  24
ENDBRANCH   1  23
TORSDOF 13
ENDMDL
MODEL 3
REMARK VINA RESULT:     -12.5      0.893      1.903
REMARK SMILES COc1ccccc1-c1ccc(C(=O)NCCCNC(=O)c2ccc(-c3c4nc(c(-c5c(F)c(F)c(F)c(F)c5F)c5ccc([nH]5)c(-c5c(F)c(F)c(F)c(F)c5F)c5nc(c(-c6c(F)c(F)c(F)c(F)c6F)c6ccc3[nH]6)C=C5)C=C4)cc2)c(O)c1
REMARK SMILES IDX 17 1 16 2 15 3 13 4 14 5 12 7 9 8 10 9 87 10 11 11 85 12
REMARK SMILES IDX 8 13 3 14 4 15 5 16 7 17 6 18 2 19 1 20 86 21 18 23 19 24
REMARK SMILES IDX 20 25 21 27 22 28 23 29 84 30 24 31 83 32 25 33 26 34 27 35
REMARK SMILES IDX 77 36 28 37 82 38 76 39 78 40 29 41 81 42 75 43 74 44 30 46
REMARK SMILES IDX 62 47 42 48 61 49 43 50 46 51 60 52 79 53 44 54 45 55 59 57
REMARK SMILES IDX 80 58 47 59 31 60 32 61 40 62 33 63 34 64 38 65 41 66 35 67
REMARK SMILES IDX 36 68 39 69 37 70 63 71 64 72 72 73 65 74 66 75 70 76 73 77
REMARK SMILES IDX 67 78 68 79 71 80 69 81 48 82 49 83 57 84 50 85 51 86 55 87
REMARK SMILES IDX 58 88 52 89 53 90 56 91 54 92
REMARK H PARENT 15 6 86 22 19 26 78 45 46 56
REMARK Flexibility Score: inf
ROOT
ATOM      1  C   UNL A   1      38.368  19.474  25.042  1.00  0.00     0.042 C 
ENDROOT
BRANCH   1   2
ATOM      2  C   UNL A   1      37.316  20.560  24.823  1.00  0.00     0.118 C 
BRANCH   2   3
ATOM      3  N   UNL A   1      35.981  20.026  25.010  1.00  0.00    -0.352 N 
ATOM      4  C   UNL A   1      34.761  20.644  25.123  1.00  0.00     0.255 C 
ATOM      5  O   UNL A   1      33.782  19.920  25.319  1.00  0.00    -0.269 OA
ATOM      6  H   UNL A   1      35.943  19.045  25.066  1.00  0.00     0.163 HD
BRANCH   4   7
ATOM      7  C   UNL A   1      34.539  22.101  24.913  1.00  0.00     0.081 A 
ATOM      8  C   UNL A   1      33.945  24.795  24.264  1.00  0.00    -0.011 A 
ATOM      9  C   UNL A   1      33.388  23.749  23.521  1.00  0.00     0.010 A 
ATOM     10  C   UNL A   1      34.758  24.477  25.359  1.00  0.00     0.055 A 
ATOM     11  C   UNL A   1      33.688  22.422  23.839  1.00  0.00     0.018 A 
ATOM     12  C   UNL A   1      35.034  23.149  25.693  1.00  0.00     0.128 A 
BRANCH   8  13
ATOM     13  C   UNL A   1      33.696  26.200  23.933  1.00  0.00     0.024 A 
ATOM     14  C   UNL A   1      33.580  26.660  22.606  1.00  0.00     0.126 A 
ATOM     15  C   UNL A   1      33.482  28.028  22.335  1.00  0.00     0.047 A 
ATOM     16  C   UNL A   1      33.469  28.954  23.377  1.00  0.00     0.004 A 
ATOM     17  C   UNL A   1      33.673  27.151  24.970  1.00  0.00     0.012 A 
ATOM     18  C   UNL A   1      33.564  28.515  24.695  1.00  0.00     0.001 A 
BRANCH  14  19
ATOM     19  O   UNL A   1      33.669  25.850  21.500  1.00  0.00    -0.496 OA
ATOM     20  C   UNL A   1      32.471  25.818  20.722  1.00  0.00     0.278 C 
ENDBRANCH  14  19
ENDBRANCH   8  13
BRANCH  12  21
ATOM     21  O   UNL A   1      35.761  22.940  26.825  1.00  0.00    -0.507 OA
ATOM     22  H   UNL A   1      35.338  22.936  27.661  1.00  0.00     0.293 HD
ENDBRANCH  12  21
ENDBRANCH   4   7
ENDBRANCH   2   3
ENDBRANCH   1   2
BRANCH   1  23
ATOM     23  C   UNL A   1      39.408  19.830  26.091  1.00  0.00     0.118 C 
BRANCH  23  24
ATOM     24  N   UNL A   1      40.565  18.951  26.036  1.00  0.00    -0.352 N 
ATOM     25  C   UNL A   1      41.901  19.257  26.099  1.00  0.00     0.251 C 
ATOM     26  H   UNL A   1      40.358  17.994  25.939  1.00  0.00     0.163 HD
ATOM     27  O   UNL A   1      42.732  18.402  25.810  1.00  0.00    -0.269 OA
BRANCH  25  28
ATOM     28  C   UNL A   1      42.351  20.611  26.499  1.00  0.00     0.039 A 
ATOM     29  C   UNL A   1      42.821  21.480  25.509  1.00  0.00     0.014 A 
ATOM     30  C   UNL A   1      42.356  21.014  27.837  1.00  0.00     0.014 A 
ATOM     31  C   UNL A   1      43.254  22.762  25.855  1.00  0.00     0.010 A 
ATOM     32  C   UNL A   1      42.708  22.319  28.171  1.00  0.00     0.010 A 
ATOM     33  C   UNL A   1      43.177  23.201  27.187  1.00  0.00    -0.014 A 
BRANCH  33  34
ATOM     34  C   UNL A   1      43.606  24.569  27.573  1.00  0.00     0.031 A 
ATOM     35  C   UNL A   1      42.580  25.609  27.928  1.00  0.00     0.074 A 
ATOM     36  C   UNL A   1      44.913  24.888  27.553  1.00  0.00     0.049 A 
ATOM     37  N   UNL A   1      42.748  26.871  28.233  1.00  0.00    -0.248 NA
ATOM     38  C   UNL A   1      41.173  25.178  27.911  1.00  0.00     0.031 C 
ATOM     39  C   UNL A   1      46.000  23.979  27.189  1.00  0.00     0.029 A 
ATOM     40  N   UNL A   1      45.550  26.070  27.839  1.00  0.00    -0.354 N 
ATOM     41  C   UNL A   1      41.472  27.385  28.430  1.00  0.00     0.074 A 
ATOM     42  C   UNL A   1      40.539  26.316  28.152  1.00  0.00     0.031 C 
ATOM     43  C   UNL A   1      47.171  24.626  27.301  1.00  0.00     0.029 A 
ATOM     44  C   UNL A   1      46.915  26.005  27.705  1.00  0.00     0.049 A 
ATOM     45  H   UNL A   1      45.074  26.887  28.113  1.00  0.00     0.167 HD
ATOM     46  C   UNL A   1      41.114  28.628  28.830  1.00  0.00     0.037 A 
ATOM     47  C   UNL A   1      47.854  26.954  27.886  1.00  0.00     0.037 A 
ATOM     48  C   UNL A   1      42.048  29.684  29.122  1.00  0.00     0.049 A 
ATOM     49  C   UNL A   1      47.429  28.333  28.312  1.00  0.00     0.074 A 
ATOM     50  C   UNL A   1      41.792  30.963  29.582  1.00  0.00     0.029 A 
ATOM     51  N   UNL A   1      43.425  29.579  28.978  1.00  0.00    -0.354 N 
ATOM     52  N   UNL A   1      46.226  28.792  28.554  1.00  0.00    -0.248 NA
ATOM     53  C   UNL A   1      48.497  29.325  28.492  1.00  0.00     0.031 C 
ATOM     54  C   UNL A   1      43.009  31.647  29.673  1.00  0.00     0.029 A 
ATOM     55  C   UNL A   1      44.029  30.779  29.319  1.00  0.00     0.049 A 
ATOM     56  H   UNL A   1      43.902  28.771  28.678  1.00  0.00     0.167 HD
ATOM     57  C   UNL A   1      46.391  30.113  28.943  1.00  0.00     0.074 A 
ATOM     58  C   UNL A   1      47.814  30.380  28.916  1.00  0.00     0.031 C 
ATOM     59  C   UNL A   1      45.450  31.024  29.292  1.00  0.00     0.037 A 
BRANCH  46  60
ATOM     60  C   UNL A   1      39.645  28.911  28.972  1.00  0.00     0.064 A 
ATOM     61  C   UNL A   1      38.867  29.330  27.881  1.00  0.00     0.173 A 
ATOM     62  C   UNL A   1      39.003  28.750  30.209  1.00  0.00     0.173 A 
ATOM     63  F   UNL A   1      39.433  29.511  26.678  1.00  0.00    -0.203 F 
ATOM     64  C   UNL A   1      37.513  29.615  28.032  1.00  0.00     0.198 A 
ATOM     65  C   UNL A   1      37.640  29.005  30.349  1.00  0.00     0.198 A 
ATOM     66  F   UNL A   1      39.696  28.344  31.284  1.00  0.00    -0.203 F 
ATOM     67  F   UNL A   1      36.806  30.072  26.990  1.00  0.00    -0.200 F 
ATOM     68  C   UNL A   1      36.899  29.448  29.264  1.00  0.00     0.200 A 
ATOM     69  F   UNL A   1      37.046  28.829  31.537  1.00  0.00    -0.200 F 
ATOM     70  F   UNL A   1      35.595  29.721  29.408  1.00  0.00    -0.200 F 
ENDBRANCH  46  60
BRANCH  47  71
ATOM     71  C   UNL A   1      49.288  26.618  27.702  1.00  0.00     0.064 A 
ATOM     72  C   UNL A   1      50.100  26.320  28.806  1.00  0.00     0.173 A 
ATOM     73  C   UNL A   1      49.876  26.575  26.430  1.00  0.00     0.173 A 
ATOM     74  F   UNL A   1      49.589  26.368  30.045  1.00  0.00    -0.203 F 
ATOM     75  C   UNL A   1      51.448  26.006  28.644  1.00  0.00     0.198 A 
ATOM     76  C   UNL A   1      51.216  26.235  26.266  1.00  0.00     0.198 A 
ATOM     77  F   UNL A   1      49.140  26.848  25.342  1.00  0.00    -0.203 F 
ATOM     78  F   UNL A   1      52.210  25.763  29.719  1.00  0.00    -0.200 F 
ATOM     79  C   UNL A   1      52.004  25.957  27.375  1.00  0.00     0.200 A 
ATOM     80  F   UNL A   1      51.746  26.173  25.038  1.00  0.00    -0.200 F 
ATOM     81  F   UNL A   1      53.297  25.646  27.219  1.00  0.00    -0.200 F 
ENDBRANCH  47  71
BRANCH  59  82
ATOM     82  C   UNL A   1      45.930  32.384  29.708  1.00  0.00     0.064 A 
ATOM     83  C   UNL A   1      46.058  33.434  28.788  1.00  0.00     0.173 A 
ATOM     84  C   UNL A   1      46.233  32.647  31.053  1.00  0.00     0.173 A 
ATOM     85  F   UNL A   1      45.797  33.228  27.487  1.00  0.00    -0.203 F 
ATOM     86  C   UNL A   1      46.495  34.692  29.194  1.00  0.00     0.198 A 
ATOM     87  C   UNL A   1      46.640  33.914  31.460  1.00  0.00     0.198 A 
ATOM     88  F   UNL A   1      46.122  31.678  31.974  1.00  0.00    -0.203 F 
ATOM     89  F   UNL A   1      46.655  35.668  28.290  1.00  0.00    -0.200 F 
ATOM     90  C   UNL A   1      46.777  34.933  30.530  1.00  0.00     0.200 A 
ATOM     91  F   UNL A   1      46.900  34.149  32.754  1.00  0.00    -0.200 F 
ATOM     92  F   UNL A   1      47.191  36.147  30.920  1.00  0.00    -0.200 F 
ENDBRANCH  59  82
ENDBRANCH  33  34
ENDBRANCH  25  28
ENDBRANCH  23  24
ENDBRANCH   1  23
TORSDOF 13
ENDMDL
