MODEL 1
REMARK VINA RESULT:     -13.5      0.000      0.000
REMARK SMILES Cc1ccccc1OCC(=O)N[C@@H](Cc1c[nH]c2ccccc12)C(=O)NCCCNC(=O)c1ccc(-c2c3nc(c(-c4c(F)c(F)c(F)c(F)c4F)c4ccc([nH]4)c(-c4c(F)c(F)c(F)c(F)c4F)c4nc(c(-c5c(F)c(F)c(F)c(F)c5F)c5ccc2[nH]5)C=C4)C=C3)cc1
REMARK SMILES IDX 27 1 26 2 24 3 25 4 13 6 12 7 10 8 11 9 9 11 8 12 7 13 1 14
REMARK SMILES IDX 2 15 3 16 4 17 6 18 5 19 14 20 15 21 16 22 23 23 17 24 18 25
REMARK SMILES IDX 22 26 19 28 21 29 20 30 28 31 29 32 30 33 31 34 32 36 33 37
REMARK SMILES IDX 34 38 95 39 35 40 94 41 36 42 37 43 38 44 88 45 39 46 93 47
REMARK SMILES IDX 87 48 89 49 40 50 92 51 86 52 85 53 41 55 73 56 53 57 72 58
REMARK SMILES IDX 54 59 57 60 71 61 90 62 55 63 56 64 70 66 91 67 58 68 42 69
REMARK SMILES IDX 43 70 51 71 44 72 45 73 49 74 52 75 46 76 47 77 50 78 48 79
REMARK SMILES IDX 74 80 75 81 83 82 76 83 77 84 81 85 84 86 78 87 79 88 82 89
REMARK SMILES IDX 80 90 59 91 60 92 68 93 61 94 62 95 66 96 69 97 63 98 64 99
REMARK SMILES IDX 67 100 65 101
REMARK H PARENT 26 5 12 10 17 27 30 35 89 54 57 65
REMARK Flexibility Score: inf
ROOT
ATOM      1  C   UNL A   1      31.953  29.950  25.589  1.00  0.00     0.117 C 
ENDROOT
BRANCH   1   2
ATOM      2  N   UNL A   1      33.137  29.503  24.880  1.00  0.00    -0.354 N 
ATOM      3  C   UNL A   1      33.450  28.240  24.444  1.00  0.00     0.242 C 
ATOM      4  O   UNL A   1      34.245  28.155  23.502  1.00  0.00    -0.273 OA
ATOM      5  H   UNL A   1      33.806  30.199  24.686  1.00  0.00     0.163 HD
BRANCH   3   6
ATOM      6  C   UNL A   1      32.818  26.954  25.050  1.00  0.00     0.175 C 
BRANCH   6   7
ATOM      7  N   UNL A   1      31.820  26.423  24.120  1.00  0.00    -0.341 N 
ATOM      8  C   UNL A   1      30.701  25.725  24.473  1.00  0.00     0.258 C 
ATOM      9  O   UNL A   1      29.674  25.886  23.811  1.00  0.00    -0.271 OA
ATOM     10  H   UNL A   1      31.968  26.583  23.160  1.00  0.00     0.164 HD
BRANCH   8  11
ATOM     11  C   UNL A   1      30.748  24.775  25.678  1.00  0.00     0.329 C 
BRANCH  11  12
ATOM     12  O   UNL A   1      30.864  23.380  25.459  1.00  0.00    -0.484 OA
BRANCH  12  13
ATOM     13  C   UNL A   1      31.948  22.686  25.921  1.00  0.00     0.122 A 
ATOM     14  C   UNL A   1      32.406  21.092  23.933  1.00  0.00     0.048 C 
ATOM     15  C   UNL A   1      32.684  21.672  25.289  1.00  0.00    -0.009 A 
ATOM     16  C   UNL A   1      33.793  21.122  25.970  1.00  0.00     0.007 A 
ATOM     17  C   UNL A   1      34.124  21.509  27.266  1.00  0.00     0.001 A 
ATOM     18  C   UNL A   1      32.276  23.044  27.241  1.00  0.00     0.047 A 
ATOM     19  C   UNL A   1      33.353  22.464  27.911  1.00  0.00     0.004 A 
ENDBRANCH  12  13
ENDBRANCH  11  12
ENDBRANCH   8  11
ENDBRANCH   6   7
BRANCH   6  20
ATOM     20  C   UNL A   1      33.814  25.920  25.620  1.00  0.00     0.072 C 
BRANCH  20  21
ATOM     21  C   UNL A   1      34.457  24.976  24.648  1.00  0.00    -0.020 A 
ATOM     22  C   UNL A   1      33.982  24.661  23.386  1.00  0.00     0.087 A 
ATOM     23  C   UNL A   1      35.614  24.153  24.869  1.00  0.00     0.003 A 
ATOM     24  N   UNL A   1      34.745  23.641  22.878  1.00  0.00    -0.361 N 
ATOM     25  C   UNL A   1      35.710  23.274  23.787  1.00  0.00     0.046 A 
ATOM     26  C   UNL A   1      36.516  23.996  25.944  1.00  0.00     0.010 A 
ATOM     27  H   UNL A   1      34.619  23.232  21.992  1.00  0.00     0.166 HD
ATOM     28  C   UNL A   1      36.631  22.220  23.744  1.00  0.00     0.026 A 
ATOM     29  C   UNL A   1      37.453  22.956  25.908  1.00  0.00     0.001 A 
ATOM     30  C   UNL A   1      37.499  22.075  24.831  1.00  0.00     0.002 A 
ENDBRANCH  20  21
ENDBRANCH   6  20
ENDBRANCH   3   6
ENDBRANCH   1   2
BRANCH   1  31
ATOM     31  C   UNL A   1      32.187  30.883  26.761  1.00  0.00     0.042 C 
BRANCH  31  32
ATOM     32  C   UNL A   1      33.367  30.436  27.594  1.00  0.00     0.118 C 
BRANCH  32  33
ATOM     33  N   UNL A   1      34.040  31.491  28.354  1.00  0.00    -0.352 N 
ATOM     34  C   UNL A   1      35.272  31.450  29.005  1.00  0.00     0.251 C 
ATOM     35  H   UNL A   1      33.556  32.346  28.415  1.00  0.00     0.163 HD
ATOM     36  O   UNL A   1      35.693  32.415  29.607  1.00  0.00    -0.269 OA
BRANCH  34  37
ATOM     37  C   UNL A   1      36.122  30.241  28.829  1.00  0.00     0.039 A 
ATOM     38  C   UNL A   1      36.510  29.525  29.966  1.00  0.00     0.014 A 
ATOM     39  C   UNL A   1      36.746  30.008  27.611  1.00  0.00     0.014 A 
ATOM     40  C   UNL A   1      37.703  28.802  29.936  1.00  0.00     0.010 A 
ATOM     41  C   UNL A   1      38.000  29.440  27.622  1.00  0.00     0.010 A 
ATOM     42  C   UNL A   1      38.505  28.880  28.798  1.00  0.00    -0.014 A 
BRANCH  42  43
ATOM     43  C   UNL A   1      39.915  28.504  28.771  1.00  0.00     0.031 A 
ATOM     44  C   UNL A   1      40.317  27.144  28.353  1.00  0.00     0.074 A 
ATOM     45  C   UNL A   1      40.866  29.433  29.021  1.00  0.00     0.049 A 
ATOM     46  N   UNL A   1      41.394  26.557  28.759  1.00  0.00    -0.248 NA
ATOM     47  C   UNL A   1      39.525  26.320  27.445  1.00  0.00     0.031 C 
ATOM     48  C   UNL A   1      42.303  29.303  28.786  1.00  0.00     0.029 A 
ATOM     49  N   UNL A   1      40.737  30.655  29.707  1.00  0.00    -0.354 N 
ATOM     50  C   UNL A   1      41.572  25.435  27.986  1.00  0.00     0.074 A 
ATOM     51  C   UNL A   1      40.358  25.302  27.217  1.00  0.00     0.031 C 
ATOM     52  C   UNL A   1      42.950  30.194  29.553  1.00  0.00     0.029 A 
ATOM     53  C   UNL A   1      41.961  30.840  30.395  1.00  0.00     0.049 A 
ATOM     54  H   UNL A   1      39.958  31.257  29.707  1.00  0.00     0.167 HD
ATOM     55  C   UNL A   1      42.781  24.805  27.971  1.00  0.00     0.037 A 
ATOM     56  C   UNL A   1      42.010  30.903  31.756  1.00  0.00     0.037 A 
ATOM     57  C   UNL A   1      43.746  25.481  28.826  1.00  0.00     0.049 A 
ATOM     58  C   UNL A   1      42.832  29.806  32.392  1.00  0.00     0.074 A 
ATOM     59  C   UNL A   1      44.732  26.415  28.556  1.00  0.00     0.029 A 
ATOM     60  N   UNL A   1      43.553  25.498  30.203  1.00  0.00    -0.354 N 
ATOM     61  N   UNL A   1      43.220  28.734  31.758  1.00  0.00    -0.248 NA
ATOM     62  C   UNL A   1      43.246  29.800  33.793  1.00  0.00     0.031 C 
ATOM     63  C   UNL A   1      45.101  27.033  29.774  1.00  0.00     0.029 A 
ATOM     64  C   UNL A   1      44.355  26.461  30.788  1.00  0.00     0.049 A 
ATOM     65  H   UNL A   1      42.935  24.908  30.692  1.00  0.00     0.167 HD
ATOM     66  C   UNL A   1      43.877  27.899  32.623  1.00  0.00     0.074 A 
ATOM     67  C   UNL A   1      43.888  28.621  33.880  1.00  0.00     0.031 C 
ATOM     68  C   UNL A   1      44.336  26.676  32.226  1.00  0.00     0.037 A 
BRANCH  55  69
ATOM     69  C   UNL A   1      43.138  23.764  26.941  1.00  0.00     0.064 A 
ATOM     70  C   UNL A   1      42.773  22.411  27.108  1.00  0.00     0.173 A 
ATOM     71  C   UNL A   1      43.887  24.042  25.782  1.00  0.00     0.173 A 
ATOM     72  F   UNL A   1      41.981  22.018  28.112  1.00  0.00    -0.203 F 
ATOM     73  C   UNL A   1      43.223  21.405  26.250  1.00  0.00     0.198 A 
ATOM     74  C   UNL A   1      44.384  23.029  24.956  1.00  0.00     0.198 A 
ATOM     75  F   UNL A   1      44.136  25.305  25.410  1.00  0.00    -0.203 F 
ATOM     76  F   UNL A   1      42.854  20.134  26.465  1.00  0.00    -0.200 F 
ATOM     77  C   UNL A   1      44.063  21.709  25.197  1.00  0.00     0.200 A 
ATOM     78  F   UNL A   1      45.187  23.343  23.929  1.00  0.00    -0.200 F 
ATOM     79  F   UNL A   1      44.540  20.737  24.409  1.00  0.00    -0.200 F 
ENDBRANCH  55  69
BRANCH  56  80
ATOM     80  C   UNL A   1      40.808  31.547  32.345  1.00  0.00     0.064 A 
ATOM     81  C   UNL A   1      39.818  30.706  32.891  1.00  0.00     0.173 A 
ATOM     82  C   UNL A   1      40.817  32.887  32.750  1.00  0.00     0.173 A 
ATOM     83  F   UNL A   1      39.765  29.414  32.531  1.00  0.00    -0.203 F 
ATOM     84  C   UNL A   1      38.964  31.151  33.897  1.00  0.00     0.198 A 
ATOM     85  C   UNL A   1      39.948  33.333  33.749  1.00  0.00     0.198 A 
ATOM     86  F   UNL A   1      41.746  33.730  32.278  1.00  0.00    -0.203 F 
ATOM     87  F   UNL A   1      38.117  30.295  34.487  1.00  0.00    -0.200 F 
ATOM     88  C   UNL A   1      39.052  32.457  34.348  1.00  0.00     0.200 A 
ATOM     89  F   UNL A   1      40.045  34.590  34.202  1.00  0.00    -0.200 F 
ATOM     90  F   UNL A   1      38.305  32.857  35.387  1.00  0.00    -0.200 F 
ENDBRANCH  56  80
BRANCH  68  91
ATOM     91  C   UNL A   1      44.885  25.592  33.117  1.00  0.00     0.064 A 
ATOM     92  C   UNL A   1      46.229  25.188  33.122  1.00  0.00     0.173 A 
ATOM     93  C   UNL A   1      44.072  25.028  34.132  1.00  0.00     0.173 A 
ATOM     94  F   UNL A   1      47.120  25.726  32.278  1.00  0.00    -0.203 F 
ATOM     95  C   UNL A   1      46.715  24.258  34.046  1.00  0.00     0.198 A 
ATOM     96  C   UNL A   1      44.574  24.145  35.086  1.00  0.00     0.198 A 
ATOM     97  F   UNL A   1      42.772  25.340  34.243  1.00  0.00    -0.203 F 
ATOM     98  F   UNL A   1      48.000  23.880  33.992  1.00  0.00    -0.200 F 
ATOM     99  C   UNL A   1      45.893  23.750  35.036  1.00  0.00     0.200 A 
ATOM    100  F   UNL A   1      43.775  23.700  36.067  1.00  0.00    -0.200 F 
ATOM    101  F   UNL A   1      46.377  22.898  35.950  1.00  0.00    -0.200 F 
ENDBRANCH  68  91
ENDBRANCH  42  43
ENDBRANCH  34  37
ENDBRANCH  32  33
ENDBRANCH  31  32
ENDBRANCH   1  31
TORSDOF 16
ENDMDL
MODEL 2
REMARK VINA RESULT:     -13.4      1.300      2.490
REMARK SMILES Cc1ccccc1OCC(=O)N[C@@H](Cc1c[nH]c2ccccc12)C(=O)NCCCNC(=O)c1ccc(-c2c3nc(c(-c4c(F)c(F)c(F)c(F)c4F)c4ccc([nH]4)c(-c4c(F)c(F)c(F)c(F)c4F)c4nc(c(-c5c(F)c(F)c(F)c(F)c5F)c5ccc2[nH]5)C=C4)C=C3)cc1
REMARK SMILES IDX 27 1 26 2 24 3 25 4 13 6 12 7 10 8 11 9 9 11 8 12 7 13 1 14
REMARK SMILES IDX 2 15 3 16 4 17 6 18 5 19 14 20 15 21 16 22 23 23 17 24 18 25
REMARK SMILES IDX 22 26 19 28 21 29 20 30 28 31 29 32 30 33 31 34 32 36 33 37
REMARK SMILES IDX 34 38 95 39 35 40 94 41 36 42 37 43 38 44 88 45 39 46 93 47
REMARK SMILES IDX 87 48 89 49 40 50 92 51 86 52 85 53 41 55 73 56 53 57 72 58
REMARK SMILES IDX 54 59 57 60 71 61 90 62 55 63 56 64 70 66 91 67 58 68 42 69
REMARK SMILES IDX 43 70 51 71 44 72 45 73 49 74 52 75 46 76 47 77 50 78 48 79
REMARK SMILES IDX 74 80 75 81 83 82 76 83 77 84 81 85 84 86 78 87 79 88 82 89
REMARK SMILES IDX 80 90 59 91 60 92 68 93 61 94 62 95 66 96 69 97 63 98 64 99
REMARK SMILES IDX 67 100 65 101
REMARK H PARENT 26 5 12 10 17 27 30 35 89 54 57 65
REMARK Flexibility Score: inf
ROOT
ATOM      1  C   UNL A   1      31.657  30.492  26.345  1.00  0.00     0.117 C 
ENDROOT
BRANCH   1   2
ATOM      2  N   UNL A   1      31.128  30.460  24.995  1.00  0.00    -0.354 N 
ATOM      3  C   UNL A   1      31.008  29.389  24.145  1.00  0.00     0.242 C 
ATOM      4  O   UNL A   1      30.151  29.472  23.258  1.00  0.00    -0.273 OA
ATOM      5  H   UNL A   1      30.812  31.323  24.640  1.00  0.00     0.163 HD
BRANCH   3   6
ATOM      6  C   UNL A   1      31.861  28.096  24.287  1.00  0.00     0.175 C 
BRANCH   6   7
ATOM      7  N   UNL A   1      33.141  28.286  23.603  1.00  0.00    -0.341 N 
ATOM      8  C   UNL A   1      33.553  27.612  22.489  1.00  0.00     0.258 C 
ATOM      9  O   UNL A   1      34.233  28.213  21.656  1.00  0.00    -0.271 OA
ATOM     10  H   UNL A   1      33.758  28.957  23.978  1.00  0.00     0.164 HD
BRANCH   8  11
ATOM     11  C   UNL A   1      33.154  26.141  22.302  1.00  0.00     0.329 C 
BRANCH  11  12
ATOM     12  O   UNL A   1      34.147  25.135  22.397  1.00  0.00    -0.484 OA
BRANCH  12  13
ATOM     13  C   UNL A   1      33.838  23.888  22.865  1.00  0.00     0.122 A 
ATOM     14  C   UNL A   1      36.197  22.948  23.375  1.00  0.00     0.048 C 
ATOM     15  C   UNL A   1      34.698  22.880  23.327  1.00  0.00    -0.009 A 
ATOM     16  C   UNL A   1      34.130  21.672  23.790  1.00  0.00     0.007 A 
ATOM     17  C   UNL A   1      32.758  21.437  23.734  1.00  0.00     0.001 A 
ATOM     18  C   UNL A   1      32.459  23.624  22.786  1.00  0.00     0.047 A 
ATOM     19  C   UNL A   1      31.920  22.412  23.216  1.00  0.00     0.004 A 
ENDBRANCH  12  13
ENDBRANCH  11  12
ENDBRANCH   8  11
ENDBRANCH   6   7
BRANCH   6  20
ATOM     20  C   UNL A   1      31.948  27.500  25.709  1.00  0.00     0.072 C 
BRANCH  20  21
ATOM     21  C   UNL A   1      31.389  26.122  25.912  1.00  0.00    -0.020 A 
ATOM     22  C   UNL A   1      30.046  25.786  25.929  1.00  0.00     0.087 A 
ATOM     23  C   UNL A   1      32.118  24.924  26.224  1.00  0.00     0.003 A 
ATOM     24  N   UNL A   1      29.933  24.473  26.311  1.00  0.00    -0.361 N 
ATOM     25  C   UNL A   1      31.179  23.942  26.553  1.00  0.00     0.046 A 
ATOM     26  C   UNL A   1      33.488  24.620  26.371  1.00  0.00     0.010 A 
ATOM     27  H   UNL A   1      29.084  23.983  26.399  1.00  0.00     0.166 HD
ATOM     28  C   UNL A   1      31.540  22.689  27.063  1.00  0.00     0.026 A 
ATOM     29  C   UNL A   1      33.864  23.364  26.865  1.00  0.00     0.001 A 
ATOM     30  C   UNL A   1      32.903  22.421  27.218  1.00  0.00     0.002 A 
ENDBRANCH  20  21
ENDBRANCH   6  20
ENDBRANCH   3   6
ENDBRANCH   1   2
BRANCH   1  31
ATOM     31  C   UNL A   1      33.153  30.691  26.473  1.00  0.00     0.042 C 
BRANCH  31  32
ATOM     32  C   UNL A   1      33.639  30.336  27.861  1.00  0.00     0.118 C 
BRANCH  32  33
ATOM     33  N   UNL A   1      34.356  31.397  28.570  1.00  0.00    -0.352 N 
ATOM     34  C   UNL A   1      35.633  31.368  29.128  1.00  0.00     0.251 C 
ATOM     35  H   UNL A   1      33.870  32.248  28.668  1.00  0.00     0.163 HD
ATOM     36  O   UNL A   1      36.088  32.337  29.697  1.00  0.00    -0.269 OA
BRANCH  34  37
ATOM     37  C   UNL A   1      36.480  30.167  28.889  1.00  0.00     0.039 A 
ATOM     38  C   UNL A   1      36.838  29.373  29.983  1.00  0.00     0.014 A 
ATOM     39  C   UNL A   1      37.129  30.013  27.671  1.00  0.00     0.014 A 
ATOM     40  C   UNL A   1      38.026  28.644  29.929  1.00  0.00     0.010 A 
ATOM     41  C   UNL A   1      38.379  29.436  27.671  1.00  0.00     0.010 A 
ATOM     42  C   UNL A   1      38.854  28.793  28.817  1.00  0.00    -0.014 A 
BRANCH  42  43
ATOM     43  C   UNL A   1      40.261  28.409  28.795  1.00  0.00     0.031 A 
ATOM     44  C   UNL A   1      40.661  27.060  28.340  1.00  0.00     0.074 A 
ATOM     45  C   UNL A   1      41.215  29.324  29.085  1.00  0.00     0.049 A 
ATOM     46  N   UNL A   1      41.729  26.454  28.741  1.00  0.00    -0.248 NA
ATOM     47  C   UNL A   1      39.875  26.270  27.397  1.00  0.00     0.031 C 
ATOM     48  C   UNL A   1      42.654  29.192  28.864  1.00  0.00     0.029 A 
ATOM     49  N   UNL A   1      41.086  30.525  29.807  1.00  0.00    -0.354 N 
ATOM     50  C   UNL A   1      41.910  25.355  27.936  1.00  0.00     0.074 A 
ATOM     51  C   UNL A   1      40.705  25.254  27.147  1.00  0.00     0.031 C 
ATOM     52  C   UNL A   1      43.297  30.055  29.666  1.00  0.00     0.029 A 
ATOM     53  C   UNL A   1      42.302  30.680  30.516  1.00  0.00     0.049 A 
ATOM     54  H   UNL A   1      40.310  31.131  29.817  1.00  0.00     0.167 HD
ATOM     55  C   UNL A   1      43.115  24.718  27.915  1.00  0.00     0.037 A 
ATOM     56  C   UNL A   1      42.335  30.701  31.878  1.00  0.00     0.037 A 
ATOM     57  C   UNL A   1      44.073  25.361  28.803  1.00  0.00     0.049 A 
ATOM     58  C   UNL A   1      43.142  29.579  32.490  1.00  0.00     0.074 A 
ATOM     59  C   UNL A   1      45.068  26.297  28.573  1.00  0.00     0.029 A 
ATOM     60  N   UNL A   1      43.864  25.337  30.177  1.00  0.00    -0.354 N 
ATOM     61  N   UNL A   1      43.531  28.525  31.827  1.00  0.00    -0.248 NA
ATOM     62  C   UNL A   1      43.539  29.527  33.895  1.00  0.00     0.031 C 
ATOM     63  C   UNL A   1      45.426  26.874  29.814  1.00  0.00     0.029 A 
ATOM     64  C   UNL A   1      44.664  26.276  30.801  1.00  0.00     0.049 A 
ATOM     65  H   UNL A   1      43.236  24.736  30.640  1.00  0.00     0.167 HD
ATOM     66  C   UNL A   1      44.172  27.659  32.674  1.00  0.00     0.074 A 
ATOM     67  C   UNL A   1      44.172  28.341  33.953  1.00  0.00     0.031 C 
ATOM     68  C   UNL A   1      44.629  26.447  32.245  1.00  0.00     0.037 A 
BRANCH  55  69
ATOM     69  C   UNL A   1      43.478  23.707  26.857  1.00  0.00     0.064 A 
ATOM     70  C   UNL A   1      43.066  22.361  26.957  1.00  0.00     0.173 A 
ATOM     71  C   UNL A   1      44.277  24.006  25.739  1.00  0.00     0.173 A 
ATOM     72  F   UNL A   1      42.226  21.955  27.915  1.00  0.00    -0.203 F 
ATOM     73  C   UNL A   1      43.517  21.376  26.076  1.00  0.00     0.198 A 
ATOM     74  C   UNL A   1      44.774  23.011  24.891  1.00  0.00     0.198 A 
ATOM     75  F   UNL A   1      44.578  25.275  25.427  1.00  0.00    -0.203 F 
ATOM     76  F   UNL A   1      43.102  20.110  26.226  1.00  0.00    -0.200 F 
ATOM     77  C   UNL A   1      44.404  21.694  25.067  1.00  0.00     0.200 A 
ATOM     78  F   UNL A   1      45.623  23.340  23.907  1.00  0.00    -0.200 F 
ATOM     79  F   UNL A   1      44.881  20.739  24.258  1.00  0.00    -0.200 F 
ENDBRANCH  55  69
BRANCH  56  80
ATOM     80  C   UNL A   1      41.129  31.334  32.473  1.00  0.00     0.064 A 
ATOM     81  C   UNL A   1      41.022  32.736  32.392  1.00  0.00     0.173 A 
ATOM     82  C   UNL A   1      39.958  30.605  32.707  1.00  0.00     0.173 A 
ATOM     83  F   UNL A   1      42.118  33.480  32.172  1.00  0.00    -0.203 F 
ATOM     84  C   UNL A   1      39.782  33.369  32.409  1.00  0.00     0.198 A 
ATOM     85  C   UNL A   1      38.717  31.247  32.738  1.00  0.00     0.198 A 
ATOM     86  F   UNL A   1      39.995  29.267  32.775  1.00  0.00    -0.203 F 
ATOM     87  F   UNL A   1      39.700  34.692  32.203  1.00  0.00    -0.200 F 
ATOM     88  C   UNL A   1      38.627  32.619  32.550  1.00  0.00     0.200 A 
ATOM     89  F   UNL A   1      37.596  30.521  32.854  1.00  0.00    -0.200 F 
ATOM     90  F   UNL A   1      37.428  33.214  32.460  1.00  0.00    -0.200 F 
ENDBRANCH  56  80
BRANCH  68  91
ATOM     91  C   UNL A   1      45.161  25.331  33.108  1.00  0.00     0.064 A 
ATOM     92  C   UNL A   1      46.522  25.012  33.224  1.00  0.00     0.173 A 
ATOM     93  C   UNL A   1      44.291  24.641  33.990  1.00  0.00     0.173 A 
ATOM     94  F   UNL A   1      47.452  25.667  32.518  1.00  0.00    -0.203 F 
ATOM     95  C   UNL A   1      46.976  24.044  34.125  1.00  0.00     0.198 A 
ATOM     96  C   UNL A   1      44.756  23.719  34.926  1.00  0.00     0.198 A 
ATOM     97  F   UNL A   1      42.969  24.863  33.987  1.00  0.00    -0.203 F 
ATOM     98  F   UNL A   1      48.284  23.750  34.178  1.00  0.00    -0.200 F 
ATOM     99  C   UNL A   1      46.098  23.411  34.985  1.00  0.00     0.200 A 
ATOM    100  F   UNL A   1      43.896  23.151  35.784  1.00  0.00    -0.200 F 
ATOM    101  F   UNL A   1      46.546  22.521  35.881  1.00  0.00    -0.200 F 
ENDBRANCH  68  91
ENDBRANCH  42  43
ENDBRANCH  34  37
ENDBRANCH  32  33
ENDBRANCH  31  32
ENDBRANCH   1  31
TORSDOF 16
ENDMDL
MODEL 3
REMARK VINA RESULT:     -13.3      1.141      2.172
REMARK SMILES Cc1ccccc1OCC(=O)N[C@@H](Cc1c[nH]c2ccccc12)C(=O)NCCCNC(=O)c1ccc(-c2c3nc(c(-c4c(F)c(F)c(F)c(F)c4F)c4ccc([nH]4)c(-c4c(F)c(F)c(F)c(F)c4F)c4nc(c(-c5c(F)c(F)c(F)c(F)c5F)c5ccc2[nH]5)C=C4)C=C3)cc1
REMARK SMILES IDX 27 1 26 2 24 3 25 4 13 6 12 7 10 8 11 9 9 11 8 12 7 13 1 14
REMARK SMILES IDX 2 15 3 16 4 17 6 18 5 19 14 20 15 21 16 22 23 23 17 24 18 25
REMARK SMILES IDX 22 26 19 28 21 29 20 30 28 31 29 32 30 33 31 34 32 36 33 37
REMARK SMILES IDX 34 38 95 39 35 40 94 41 36 42 37 43 38 44 88 45 39 46 93 47
REMARK SMILES IDX 87 48 89 49 40 50 92 51 86 52 85 53 41 55 73 56 53 57 72 58
REMARK SMILES IDX 54 59 57 60 71 61 90 62 55 63 56 64 70 66 91 67 58 68 42 69
REMARK SMILES IDX 43 70 51 71 44 72 45 73 49 74 52 75 46 76 47 77 50 78 48 79
REMARK SMILES IDX 74 80 75 81 83 82 76 83 77 84 81 85 84 86 78 87 79 88 82 89
REMARK SMILES IDX 80 90 59 91 60 92 68 93 61 94 62 95 66 96 69 97 63 98 64 99
REMARK SMILES IDX 67 100 65 101
REMARK H PARENT 26 5 12 10 17 27 30 35 89 54 57 65
REMARK Flexibility Score: inf
ROOT
ATOM      1  C   UNL A   1      32.008  29.771  25.402  1.00  0.00     0.117 C 
ENDROOT
BRANCH   1   2
ATOM      2  N   UNL A   1      33.235  29.633  24.640  1.00  0.00    -0.354 N 
ATOM      3  C   UNL A   1      33.570  28.672  23.720  1.00  0.00     0.242 C 
ATOM      4  O   UNL A   1      34.427  28.974  22.883  1.00  0.00    -0.273 OA
ATOM      5  H   UNL A   1      33.919  30.322  24.805  1.00  0.00     0.163 HD
BRANCH   3   6
ATOM      6  C   UNL A   1      32.893  27.272  23.673  1.00  0.00     0.175 C 
BRANCH   6   7
ATOM      7  N   UNL A   1      31.651  27.363  22.903  1.00  0.00    -0.341 N 
ATOM      8  C   UNL A   1      30.420  26.958  23.335  1.00  0.00     0.258 C 
ATOM      9  O   UNL A   1      29.433  27.608  22.985  1.00  0.00    -0.271 OA
ATOM     10  H   UNL A   1      31.708  27.749  21.999  1.00  0.00     0.164 HD
BRANCH   8  11
ATOM     11  C   UNL A   1      30.302  25.725  24.241  1.00  0.00     0.329 C 
BRANCH  11  12
ATOM     12  O   UNL A   1      30.103  24.450  23.656  1.00  0.00    -0.484 OA
BRANCH  12  13
ATOM     13  C   UNL A   1      30.906  23.394  23.988  1.00  0.00     0.122 A 
ATOM     14  C   UNL A   1      30.514  23.252  26.544  1.00  0.00     0.048 C 
ATOM     15  C   UNL A   1      31.119  22.807  25.244  1.00  0.00    -0.009 A 
ATOM     16  C   UNL A   1      31.986  21.694  25.328  1.00  0.00     0.007 A 
ATOM     17  C   UNL A   1      32.678  21.218  24.217  1.00  0.00     0.001 A 
ATOM     18  C   UNL A   1      31.634  22.921  22.882  1.00  0.00     0.047 A 
ATOM     19  C   UNL A   1      32.512  21.843  22.991  1.00  0.00     0.004 A 
ENDBRANCH  12  13
ENDBRANCH  11  12
ENDBRANCH   8  11
ENDBRANCH   6   7
BRANCH   6  20
ATOM     20  C   UNL A   1      33.817  26.090  23.308  1.00  0.00     0.072 C 
BRANCH  20  21
ATOM     21  C   UNL A   1      34.149  25.114  24.399  1.00  0.00    -0.020 A 
ATOM     22  C   UNL A   1      33.714  25.185  25.711  1.00  0.00     0.087 A 
ATOM     23  C   UNL A   1      35.048  23.996  24.323  1.00  0.00     0.003 A 
ATOM     24  N   UNL A   1      34.364  24.219  26.436  1.00  0.00    -0.361 N 
ATOM     25  C   UNL A   1      35.227  23.519  25.624  1.00  0.00     0.046 A 
ATOM     26  C   UNL A   1      35.815  23.422  23.286  1.00  0.00     0.010 A 
ATOM     27  H   UNL A   1      34.233  24.052  27.397  1.00  0.00     0.166 HD
ATOM     28  C   UNL A   1      36.164  22.530  25.948  1.00  0.00     0.026 A 
ATOM     29  C   UNL A   1      36.745  22.421  23.592  1.00  0.00     0.001 A 
ATOM     30  C   UNL A   1      36.925  21.993  24.905  1.00  0.00     0.002 A 
ENDBRANCH  20  21
ENDBRANCH   6  20
ENDBRANCH   3   6
ENDBRANCH   1   2
BRANCH   1  31
ATOM     31  C   UNL A   1      32.151  30.319  26.808  1.00  0.00     0.042 C 
BRANCH  31  32
ATOM     32  C   UNL A   1      33.554  30.120  27.336  1.00  0.00     0.118 C 
BRANCH  32  33
ATOM     33  N   UNL A   1      34.080  31.212  28.159  1.00  0.00    -0.352 N 
ATOM     34  C   UNL A   1      35.272  31.269  28.879  1.00  0.00     0.251 C 
ATOM     35  H   UNL A   1      33.513  32.015  28.212  1.00  0.00     0.163 HD
ATOM     36  O   UNL A   1      35.564  32.250  29.526  1.00  0.00    -0.269 OA
BRANCH  34  37
ATOM     37  C   UNL A   1      36.243  30.150  28.724  1.00  0.00     0.039 A 
ATOM     38  C   UNL A   1      36.572  29.390  29.851  1.00  0.00     0.014 A 
ATOM     39  C   UNL A   1      37.010  30.058  27.571  1.00  0.00     0.014 A 
ATOM     40  C   UNL A   1      37.822  28.774  29.909  1.00  0.00     0.010 A 
ATOM     41  C   UNL A   1      38.302  29.598  27.686  1.00  0.00     0.010 A 
ATOM     42  C   UNL A   1      38.729  29.000  28.874  1.00  0.00    -0.014 A 
BRANCH  42  43
ATOM     43  C   UNL A   1      40.162  28.746  28.981  1.00  0.00     0.031 A 
ATOM     44  C   UNL A   1      40.737  27.480  28.476  1.00  0.00     0.074 A 
ATOM     45  C   UNL A   1      40.987  29.715  29.441  1.00  0.00     0.049 A 
ATOM     46  N   UNL A   1      41.812  26.941  28.947  1.00  0.00    -0.248 NA
ATOM     47  C   UNL A   1      40.133  26.704  27.396  1.00  0.00     0.031 C 
ATOM     48  C   UNL A   1      42.447  29.731  29.372  1.00  0.00     0.029 A 
ATOM     49  N   UNL A   1      40.666  30.835  30.230  1.00  0.00    -0.354 N 
ATOM     50  C   UNL A   1      42.181  25.933  28.089  1.00  0.00     0.074 A 
ATOM     51  C   UNL A   1      41.080  25.791  27.167  1.00  0.00     0.031 C 
ATOM     52  C   UNL A   1      42.916  30.578  30.302  1.00  0.00     0.029 A 
ATOM     53  C   UNL A   1      41.781  31.039  31.079  1.00  0.00     0.049 A 
ATOM     54  H   UNL A   1      39.838  31.367  30.198  1.00  0.00     0.167 HD
ATOM     55  C   UNL A   1      43.438  25.410  28.156  1.00  0.00     0.037 A 
ATOM     56  C   UNL A   1      41.670  30.949  32.434  1.00  0.00     0.037 A 
ATOM     57  C   UNL A   1      44.232  26.060  29.189  1.00  0.00     0.049 A 
ATOM     58  C   UNL A   1      42.516  29.858  33.049  1.00  0.00     0.074 A 
ATOM     59  C   UNL A   1      45.150  27.097  29.141  1.00  0.00     0.029 A 
ATOM     60  N   UNL A   1      43.885  25.904  30.527  1.00  0.00    -0.354 N 
ATOM     61  N   UNL A   1      43.073  28.901  32.358  1.00  0.00    -0.248 NA
ATOM     62  C   UNL A   1      42.768  29.725  34.481  1.00  0.00     0.031 C 
ATOM     63  C   UNL A   1      45.318  27.599  30.453  1.00  0.00     0.029 A 
ATOM     64  C   UNL A   1      44.520  26.855  31.302  1.00  0.00     0.049 A 
ATOM     65  H   UNL A   1      43.274  25.213  30.872  1.00  0.00     0.167 HD
ATOM     66  C   UNL A   1      43.704  28.029  33.205  1.00  0.00     0.074 A 
ATOM     67  C   UNL A   1      43.505  28.599  34.522  1.00  0.00     0.031 C 
ATOM     68  C   UNL A   1      44.319  26.901  32.742  1.00  0.00     0.037 A 
BRANCH  55  69
ATOM     69  C   UNL A   1      44.006  24.527  27.075  1.00  0.00     0.064 A 
ATOM     70  C   UNL A   1      43.631  23.172  26.962  1.00  0.00     0.173 A 
ATOM     71  C   UNL A   1      44.969  24.960  26.144  1.00  0.00     0.173 A 
ATOM     72  F   UNL A   1      42.659  22.649  27.717  1.00  0.00    -0.203 F 
ATOM     73  C   UNL A   1      44.256  22.296  26.071  1.00  0.00     0.198 A 
ATOM     74  C   UNL A   1      45.633  24.072  25.292  1.00  0.00     0.198 A 
ATOM     75  F   UNL A   1      45.273  26.260  26.022  1.00  0.00    -0.203 F 
ATOM     76  F   UNL A   1      43.866  21.015  26.016  1.00  0.00    -0.200 F 
ATOM     77  C   UNL A   1      45.285  22.737  25.264  1.00  0.00     0.200 A 
ATOM     78  F   UNL A   1      46.621  24.521  24.505  1.00  0.00    -0.200 F 
ATOM     79  F   UNL A   1      45.922  21.885  24.452  1.00  0.00    -0.200 F 
ENDBRANCH  55  69
BRANCH  56  80
ATOM     80  C   UNL A   1      40.354  31.421  32.936  1.00  0.00     0.064 A 
ATOM     81  C   UNL A   1      40.107  32.807  32.918  1.00  0.00     0.173 A 
ATOM     82  C   UNL A   1      39.249  30.566  33.012  1.00  0.00     0.173 A 
ATOM     83  F   UNL A   1      41.135  33.669  32.850  1.00  0.00    -0.203 F 
ATOM     84  C   UNL A   1      38.812  33.311  32.842  1.00  0.00     0.198 A 
ATOM     85  C   UNL A   1      37.950  31.077  32.950  1.00  0.00     0.198 A 
ATOM     86  F   UNL A   1      39.420  29.236  33.013  1.00  0.00    -0.203 F 
ATOM     87  F   UNL A   1      38.610  34.630  32.699  1.00  0.00    -0.200 F 
ATOM     88  C   UNL A   1      37.734  32.443  32.826  1.00  0.00     0.200 A 
ATOM     89  F   UNL A   1      36.905  30.237  32.914  1.00  0.00    -0.200 F 
ATOM     90  F   UNL A   1      36.493  32.920  32.647  1.00  0.00    -0.200 F 
ENDBRANCH  56  80
BRANCH  68  91
ATOM     91  C   UNL A   1      44.865  25.770  33.576  1.00  0.00     0.064 A 
ATOM     92  C   UNL A   1      44.066  24.901  34.334  1.00  0.00     0.173 A 
ATOM     93  C   UNL A   1      46.239  25.430  33.497  1.00  0.00     0.173 A 
ATOM     94  F   UNL A   1      42.738  25.058  34.401  1.00  0.00    -0.203 F 
ATOM     95  C   UNL A   1      44.607  23.797  34.999  1.00  0.00     0.198 A 
ATOM     96  C   UNL A   1      46.763  24.297  34.116  1.00  0.00     0.198 A 
ATOM     97  F   UNL A   1      47.106  26.174  32.796  1.00  0.00    -0.203 F 
ATOM     98  F   UNL A   1      43.810  23.012  35.738  1.00  0.00    -0.200 F 
ATOM     99  C   UNL A   1      45.950  23.486  34.877  1.00  0.00     0.200 A 
ATOM    100  F   UNL A   1      48.056  23.984  33.947  1.00  0.00    -0.200 F 
ATOM    101  F   UNL A   1      46.453  22.398  35.476  1.00  0.00    -0.200 F 
ENDBRANCH  68  91
ENDBRANCH  42  43
ENDBRANCH  34  37
ENDBRANCH  32  33
ENDBRANCH  31  32
ENDBRANCH   1  31
TORSDOF 16
ENDMDL
