MODEL 1
REMARK VINA RESULT:     -12.0      0.000      0.000
REMARK SMILES CC(C)(O)CC[C@@H](C(=O)NCCCNC(=O)c1ccc(-c2c3nc(c(-c4c(F)c(F)c(F)c(F)c4F)c4ccc([nH]4)c(-c4c(F)c(F)c(F)c(F)c4F)c4nc(c(-c5c(F)c(F)c(F)c(F)c5F)c5ccc2[nH]5)C=C4)C=C3)cc1)[C@@H]1CCS(=O)(=O)C1
REMARK SMILES IDX 11 1 10 2 8 3 9 4 7 6 6 7 5 8 2 9 1 10 3 11 4 12 80 14 81 15
REMARK SMILES IDX 86 16 82 17 83 18 84 19 85 20 12 21 13 22 14 23 15 24 16 26
REMARK SMILES IDX 17 27 18 28 79 29 19 30 78 31 20 32 21 33 22 34 72 35 23 36
REMARK SMILES IDX 77 37 71 38 73 39 24 40 76 41 70 42 69 43 25 45 57 46 37 47
REMARK SMILES IDX 56 48 38 49 41 50 55 51 74 52 39 53 40 54 54 56 75 57 42 58
REMARK SMILES IDX 26 59 27 60 35 61 28 62 29 63 33 64 36 65 30 66 31 67 34 68
REMARK SMILES IDX 32 69 58 70 59 71 67 72 60 73 61 74 65 75 68 76 62 77 63 78
REMARK SMILES IDX 66 79 64 80 43 81 44 82 52 83 45 84 46 85 50 86 53 87 47 88
REMARK SMILES IDX 48 89 51 90 49 91
REMARK H PARENT 10 5 4 13 14 25 73 44 41 55
REMARK Flexibility Score: inf
ROOT
ATOM      1  C   UNL A   1      31.543  30.784  26.159  1.00  0.00     0.117 C 
ENDROOT
BRANCH   1   2
ATOM      2  N   UNL A   1      32.750  30.234  26.732  1.00  0.00    -0.356 N 
ATOM      3  C   UNL A   1      33.257  28.972  26.692  1.00  0.00     0.223 C 
ATOM      4  O   UNL A   1      34.211  28.750  27.443  1.00  0.00    -0.275 OA
ATOM      5  H   UNL A   1      33.296  30.880  27.234  1.00  0.00     0.163 HD
BRANCH   3   6
ATOM      6  C   UNL A   1      32.706  27.889  25.730  1.00  0.00     0.082 C 
BRANCH   6   7
ATOM      7  C   UNL A   1      32.302  26.605  26.507  1.00  0.00     0.017 C 
BRANCH   7   8
ATOM      8  C   UNL A   1      31.010  25.846  26.157  1.00  0.00     0.035 C 
BRANCH   8   9
ATOM      9  C   UNL A   1      30.916  24.298  26.219  1.00  0.00     0.059 C 
ATOM     10  C   UNL A   1      31.985  23.539  27.000  1.00  0.00     0.042 C 
ATOM     11  C   UNL A   1      30.881  23.751  24.783  1.00  0.00     0.042 C 
BRANCH   9  12
ATOM     12  O   UNL A   1      29.661  23.992  26.836  1.00  0.00    -0.390 OA
ATOM     13  H   UNL A   1      29.521  23.032  26.826  1.00  0.00     0.211 HD
ENDBRANCH   9  12
ENDBRANCH   8   9
ENDBRANCH   7   8
ENDBRANCH   6   7
BRANCH   6  14
ATOM     14  C   UNL A   1      33.854  27.540  24.701  1.00  0.00     0.017 C 
ATOM     15  C   UNL A   1      34.085  28.619  23.614  1.00  0.00     0.021 C 
ATOM     16  C   UNL A   1      33.659  26.240  23.891  1.00  0.00     0.141 C 
ATOM     17  C   UNL A   1      33.020  28.437  22.544  1.00  0.00     0.137 C 
ATOM     18  S   UNL A   1      32.836  26.679  22.371  1.00  0.00     0.150 S 
ATOM     19  O   UNL A   1      31.426  26.356  22.481  1.00  0.00    -0.229 OA
ATOM     20  O   UNL A   1      33.641  26.226  21.260  1.00  0.00    -0.229 OA
ENDBRANCH   6  14
ENDBRANCH   3   6
ENDBRANCH   1   2
BRANCH   1  21
ATOM     21  C   UNL A   1      31.376  32.250  26.546  1.00  0.00     0.042 C 
BRANCH  21  22
ATOM     22  C   UNL A   1      32.550  32.798  27.331  1.00  0.00     0.118 C 
BRANCH  22  23
ATOM     23  N   UNL A   1      32.375  34.212  27.645  1.00  0.00    -0.352 N 
ATOM     24  C   UNL A   1      32.982  35.005  28.589  1.00  0.00     0.251 C 
ATOM     25  H   UNL A   1      31.710  34.675  27.086  1.00  0.00     0.163 HD
ATOM     26  O   UNL A   1      32.518  36.118  28.823  1.00  0.00    -0.269 OA
BRANCH  24  27
ATOM     27  C   UNL A   1      34.163  34.527  29.341  1.00  0.00     0.039 A 
ATOM     28  C   UNL A   1      33.992  34.056  30.646  1.00  0.00     0.014 A 
ATOM     29  C   UNL A   1      35.439  34.548  28.777  1.00  0.00     0.014 A 
ATOM     30  C   UNL A   1      35.082  33.529  31.344  1.00  0.00     0.010 A 
ATOM     31  C   UNL A   1      36.492  33.908  29.420  1.00  0.00     0.010 A 
ATOM     32  C   UNL A   1      36.329  33.400  30.714  1.00  0.00    -0.014 A 
BRANCH  32  33
ATOM     33  C   UNL A   1      37.482  32.743  31.384  1.00  0.00     0.031 A 
ATOM     34  C   UNL A   1      38.172  31.579  30.726  1.00  0.00     0.074 A 
ATOM     35  C   UNL A   1      37.848  33.140  32.618  1.00  0.00     0.049 A 
ATOM     36  N   UNL A   1      39.119  30.805  31.193  1.00  0.00    -0.248 NA
ATOM     37  C   UNL A   1      37.711  31.211  29.378  1.00  0.00     0.031 C 
ATOM     38  C   UNL A   1      37.220  34.221  33.381  1.00  0.00     0.029 A 
ATOM     39  N   UNL A   1      38.828  32.672  33.456  1.00  0.00    -0.354 N 
ATOM     40  C   UNL A   1      39.349  29.854  30.207  1.00  0.00     0.074 A 
ATOM     41  C   UNL A   1      38.399  30.104  29.146  1.00  0.00     0.031 C 
ATOM     42  C   UNL A   1      37.848  34.352  34.560  1.00  0.00     0.029 A 
ATOM     43  C   UNL A   1      38.887  33.334  34.660  1.00  0.00     0.049 A 
ATOM     44  H   UNL A   1      39.433  31.933  33.218  1.00  0.00     0.167 HD
ATOM     45  C   UNL A   1      40.287  28.878  30.177  1.00  0.00     0.037 A 
ATOM     46  C   UNL A   1      39.680  33.130  35.729  1.00  0.00     0.037 A 
ATOM     47  C   UNL A   1      41.245  28.652  31.226  1.00  0.00     0.049 A 
ATOM     48  C   UNL A   1      40.702  32.026  35.677  1.00  0.00     0.074 A 
ATOM     49  C   UNL A   1      42.280  27.736  31.267  1.00  0.00     0.029 A 
ATOM     50  N   UNL A   1      41.282  29.352  32.425  1.00  0.00    -0.354 N 
ATOM     51  N   UNL A   1      40.961  31.182  34.708  1.00  0.00    -0.248 NA
ATOM     52  C   UNL A   1      41.545  31.849  36.867  1.00  0.00     0.031 C 
ATOM     53  C   UNL A   1      42.904  27.837  32.514  1.00  0.00     0.029 A 
ATOM     54  C   UNL A   1      42.301  28.862  33.227  1.00  0.00     0.049 A 
ATOM     55  H   UNL A   1      40.673  30.086  32.670  1.00  0.00     0.167 HD
ATOM     56  C   UNL A   1      42.008  30.390  35.161  1.00  0.00     0.074 A 
ATOM     57  C   UNL A   1      42.352  30.873  36.482  1.00  0.00     0.031 C 
ATOM     58  C   UNL A   1      42.627  29.355  34.541  1.00  0.00     0.037 A 
BRANCH  45  59
ATOM     59  C   UNL A   1      40.323  27.981  28.972  1.00  0.00     0.064 A 
ATOM     60  C   UNL A   1      39.608  26.774  28.927  1.00  0.00     0.173 A 
ATOM     61  C   UNL A   1      41.057  28.348  27.833  1.00  0.00     0.173 A 
ATOM     62  F   UNL A   1      38.900  26.368  29.992  1.00  0.00    -0.203 F 
ATOM     63  C   UNL A   1      39.653  25.953  27.802  1.00  0.00     0.198 A 
ATOM     64  C   UNL A   1      41.070  27.542  26.696  1.00  0.00     0.198 A 
ATOM     65  F   UNL A   1      41.756  29.492  27.817  1.00  0.00    -0.203 F 
ATOM     66  F   UNL A   1      39.007  24.778  27.806  1.00  0.00    -0.200 F 
ATOM     67  C   UNL A   1      40.376  26.342  26.686  1.00  0.00     0.200 A 
ATOM     68  F   UNL A   1      41.758  27.927  25.612  1.00  0.00    -0.200 F 
ATOM     69  F   UNL A   1      40.411  25.556  25.601  1.00  0.00    -0.200 F 
ENDBRANCH  45  59
BRANCH  46  70
ATOM     70  C   UNL A   1      39.547  33.995  36.931  1.00  0.00     0.064 A 
ATOM     71  C   UNL A   1      38.779  33.587  38.030  1.00  0.00     0.173 A 
ATOM     72  C   UNL A   1      40.176  35.248  37.006  1.00  0.00     0.173 A 
ATOM     73  F   UNL A   1      38.142  32.407  38.001  1.00  0.00    -0.203 F 
ATOM     74  C   UNL A   1      38.626  34.407  39.147  1.00  0.00     0.198 A 
ATOM     75  C   UNL A   1      40.049  36.051  38.137  1.00  0.00     0.198 A 
ATOM     76  F   UNL A   1      40.928  35.684  35.984  1.00  0.00    -0.203 F 
ATOM     77  F   UNL A   1      37.844  34.013  40.162  1.00  0.00    -0.200 F 
ATOM     78  C   UNL A   1      39.267  35.635  39.202  1.00  0.00     0.200 A 
ATOM     79  F   UNL A   1      40.685  37.230  38.192  1.00  0.00    -0.200 F 
ATOM     80  F   UNL A   1      39.122  36.421  40.278  1.00  0.00    -0.200 F 
ENDBRANCH  46  70
BRANCH  58  81
ATOM     81  C   UNL A   1      43.756  28.691  35.276  1.00  0.00     0.064 A 
ATOM     82  C   UNL A   1      43.538  27.597  36.126  1.00  0.00     0.173 A 
ATOM     83  C   UNL A   1      45.077  29.130  35.096  1.00  0.00     0.173 A 
ATOM     84  F   UNL A   1      42.292  27.149  36.344  1.00  0.00    -0.203 F 
ATOM     85  C   UNL A   1      44.596  26.987  36.793  1.00  0.00     0.198 A 
ATOM     86  C   UNL A   1      46.137  28.494  35.736  1.00  0.00     0.198 A 
ATOM     87  F   UNL A   1      45.341  30.166  34.287  1.00  0.00    -0.203 F 
ATOM     88  F   UNL A   1      44.358  25.980  37.644  1.00  0.00    -0.200 F 
ATOM     89  C   UNL A   1      45.895  27.430  36.591  1.00  0.00     0.200 A 
ATOM     90  F   UNL A   1      47.392  28.912  35.525  1.00  0.00    -0.200 F 
ATOM     91  F   UNL A   1      46.914  26.834  37.226  1.00  0.00    -0.200 F 
ENDBRANCH  58  81
ENDBRANCH  32  33
ENDBRANCH  24  27
ENDBRANCH  22  23
ENDBRANCH  21  22
ENDBRANCH   1  21
TORSDOF 15
ENDMDL
MODEL 2
REMARK VINA RESULT:     -11.8      1.482      2.807
REMARK SMILES CC(C)(O)CC[C@@H](C(=O)NCCCNC(=O)c1ccc(-c2c3nc(c(-c4c(F)c(F)c(F)c(F)c4F)c4ccc([nH]4)c(-c4c(F)c(F)c(F)c(F)c4F)c4nc(c(-c5c(F)c(F)c(F)c(F)c5F)c5ccc2[nH]5)C=C4)C=C3)cc1)[C@@H]1CCS(=O)(=O)C1
REMARK SMILES IDX 11 1 10 2 8 3 9 4 7 6 6 7 5 8 2 9 1 10 3 11 4 12 80 14 81 15
REMARK SMILES IDX 86 16 82 17 83 18 84 19 85 20 12 21 13 22 14 23 15 24 16 26
REMARK SMILES IDX 17 27 18 28 79 29 19 30 78 31 20 32 21 33 22 34 72 35 23 36
REMARK SMILES IDX 77 37 71 38 73 39 24 40 76 41 70 42 69 43 25 45 57 46 37 47
REMARK SMILES IDX 56 48 38 49 41 50 55 51 74 52 39 53 40 54 54 56 75 57 42 58
REMARK SMILES IDX 26 59 27 60 35 61 28 62 29 63 33 64 36 65 30 66 31 67 34 68
REMARK SMILES IDX 32 69 58 70 59 71 67 72 60 73 61 74 65 75 68 76 62 77 63 78
REMARK SMILES IDX 66 79 64 80 43 81 44 82 52 83 45 84 46 85 50 86 53 87 47 88
REMARK SMILES IDX 48 89 51 90 49 91
REMARK H PARENT 10 5 4 13 14 25 73 44 41 55
REMARK Flexibility Score: inf
ROOT
ATOM      1  C   UNL A   1      31.663  30.283  26.182  1.00  0.00     0.117 C 
ENDROOT
BRANCH   1   2
ATOM      2  N   UNL A   1      32.324  30.107  24.910  1.00  0.00    -0.356 N 
ATOM      3  C   UNL A   1      32.387  29.029  24.083  1.00  0.00     0.223 C 
ATOM      4  O   UNL A   1      33.192  29.109  23.152  1.00  0.00    -0.275 OA
ATOM      5  H   UNL A   1      32.809  30.901  24.587  1.00  0.00     0.163 HD
BRANCH   3   6
ATOM      6  C   UNL A   1      31.471  27.792  24.266  1.00  0.00     0.082 C 
BRANCH   6   7
ATOM      7  C   UNL A   1      29.990  28.141  23.949  1.00  0.00     0.017 C 
BRANCH   7   8
ATOM      8  C   UNL A   1      29.640  29.228  22.918  1.00  0.00     0.035 C 
BRANCH   8   9
ATOM      9  C   UNL A   1      28.181  29.693  22.667  1.00  0.00     0.059 C 
ATOM     10  C   UNL A   1      27.723  31.009  23.290  1.00  0.00     0.042 C 
ATOM     11  C   UNL A   1      27.225  28.579  23.127  1.00  0.00     0.042 C 
BRANCH   9  12
ATOM     12  O   UNL A   1      28.038  29.837  21.250  1.00  0.00    -0.390 OA
ATOM     13  H   UNL A   1      27.400  29.184  20.922  1.00  0.00     0.211 HD
ENDBRANCH   9  12
ENDBRANCH   8   9
ENDBRANCH   7   8
ENDBRANCH   6   7
BRANCH   6  14
ATOM     14  C   UNL A   1      31.591  27.331  25.773  1.00  0.00     0.017 C 
ATOM     15  C   UNL A   1      32.970  26.737  26.150  1.00  0.00     0.021 C 
ATOM     16  C   UNL A   1      30.588  26.249  26.228  1.00  0.00     0.141 C 
ATOM     17  C   UNL A   1      33.003  25.294  25.669  1.00  0.00     0.137 C 
ATOM     18  S   UNL A   1      31.373  24.665  25.991  1.00  0.00     0.150 S 
ATOM     19  O   UNL A   1      30.869  24.060  24.773  1.00  0.00    -0.229 OA
ATOM     20  O   UNL A   1      31.379  23.957  27.251  1.00  0.00    -0.229 OA
ENDBRANCH   6  14
ENDBRANCH   3   6
ENDBRANCH   1   2
BRANCH   1  21
ATOM     21  C   UNL A   1      31.485  31.765  26.502  1.00  0.00     0.042 C 
BRANCH  21  22
ATOM     22  C   UNL A   1      32.679  32.371  27.209  1.00  0.00     0.118 C 
BRANCH  22  23
ATOM     23  N   UNL A   1      32.463  33.781  27.518  1.00  0.00    -0.352 N 
ATOM     24  C   UNL A   1      33.024  34.587  28.480  1.00  0.00     0.251 C 
ATOM     25  H   UNL A   1      31.805  34.230  26.940  1.00  0.00     0.163 HD
ATOM     26  O   UNL A   1      32.528  35.689  28.701  1.00  0.00    -0.269 OA
BRANCH  24  27
ATOM     27  C   UNL A   1      34.192  34.134  29.267  1.00  0.00     0.039 A 
ATOM     28  C   UNL A   1      33.980  33.408  30.442  1.00  0.00     0.014 A 
ATOM     29  C   UNL A   1      35.496  34.427  28.864  1.00  0.00     0.014 A 
ATOM     30  C   UNL A   1      35.071  32.906  31.158  1.00  0.00     0.010 A 
ATOM     31  C   UNL A   1      36.572  33.821  29.501  1.00  0.00     0.010 A 
ATOM     32  C   UNL A   1      36.374  33.062  30.660  1.00  0.00    -0.014 A 
BRANCH  32  33
ATOM     33  C   UNL A   1      37.548  32.447  31.333  1.00  0.00     0.031 A 
ATOM     34  C   UNL A   1      38.279  31.308  30.677  1.00  0.00     0.074 A 
ATOM     35  C   UNL A   1      37.898  32.859  32.567  1.00  0.00     0.049 A 
ATOM     36  N   UNL A   1      39.252  30.568  31.147  1.00  0.00    -0.248 NA
ATOM     37  C   UNL A   1      37.833  30.921  29.329  1.00  0.00     0.031 C 
ATOM     38  C   UNL A   1      37.231  33.918  33.327  1.00  0.00     0.029 A 
ATOM     39  N   UNL A   1      38.893  32.427  33.407  1.00  0.00    -0.354 N 
ATOM     40  C   UNL A   1      39.517  29.624  30.163  1.00  0.00     0.074 A 
ATOM     41  C   UNL A   1      38.561  29.839  29.100  1.00  0.00     0.031 C 
ATOM     42  C   UNL A   1      37.853  34.073  34.507  1.00  0.00     0.029 A 
ATOM     43  C   UNL A   1      38.927  33.092  34.609  1.00  0.00     0.049 A 
ATOM     44  H   UNL A   1      39.524  31.709  33.171  1.00  0.00     0.167 HD
ATOM     45  C   UNL A   1      40.490  28.682  30.135  1.00  0.00     0.037 A 
ATOM     46  C   UNL A   1      39.725  32.918  35.680  1.00  0.00     0.037 A 
ATOM     47  C   UNL A   1      41.454  28.492  31.186  1.00  0.00     0.049 A 
ATOM     48  C   UNL A   1      40.786  31.851  35.631  1.00  0.00     0.074 A 
ATOM     49  C   UNL A   1      42.520  27.613  31.229  1.00  0.00     0.029 A 
ATOM     50  N   UNL A   1      41.464  29.194  32.384  1.00  0.00    -0.354 N 
ATOM     51  N   UNL A   1      41.075  31.015  34.663  1.00  0.00    -0.248 NA
ATOM     52  C   UNL A   1      41.632  31.706  36.823  1.00  0.00     0.031 C 
ATOM     53  C   UNL A   1      43.139  27.738  32.477  1.00  0.00     0.029 A 
ATOM     54  C   UNL A   1      42.499  28.742  33.187  1.00  0.00     0.049 A 
ATOM     55  H   UNL A   1      40.829  29.907  32.627  1.00  0.00     0.167 HD
ATOM     56  C   UNL A   1      42.149  30.262  35.119  1.00  0.00     0.074 A 
ATOM     57  C   UNL A   1      42.474  30.758  36.440  1.00  0.00     0.031 C 
ATOM     58  C   UNL A   1      42.805  29.248  34.501  1.00  0.00     0.037 A 
BRANCH  45  59
ATOM     59  C   UNL A   1      40.559  27.785  28.931  1.00  0.00     0.064 A 
ATOM     60  C   UNL A   1      41.411  28.063  27.851  1.00  0.00     0.173 A 
ATOM     61  C   UNL A   1      39.786  26.615  28.870  1.00  0.00     0.173 A 
ATOM     62  F   UNL A   1      42.162  29.174  27.851  1.00  0.00    -0.203 F 
ATOM     63  C   UNL A   1      41.462  27.222  26.742  1.00  0.00     0.198 A 
ATOM     64  C   UNL A   1      39.867  25.757  27.775  1.00  0.00     0.198 A 
ATOM     65  F   UNL A   1      38.958  26.297  29.875  1.00  0.00    -0.203 F 
ATOM     66  F   UNL A   1      42.242  27.540  25.698  1.00  0.00    -0.200 F 
ATOM     67  C   UNL A   1      40.698  26.066  26.708  1.00  0.00     0.200 A 
ATOM     68  F   UNL A   1      39.138  24.633  27.751  1.00  0.00    -0.200 F 
ATOM     69  F   UNL A   1      40.755  25.253  25.644  1.00  0.00    -0.200 F 
ENDBRANCH  45  59
BRANCH  46  70
ATOM     70  C   UNL A   1      39.560  33.780  36.880  1.00  0.00     0.064 A 
ATOM     71  C   UNL A   1      40.230  35.007  36.983  1.00  0.00     0.173 A 
ATOM     72  C   UNL A   1      38.740  33.395  37.952  1.00  0.00     0.173 A 
ATOM     73  F   UNL A   1      41.041  35.412  35.994  1.00  0.00    -0.203 F 
ATOM     74  C   UNL A   1      40.104  35.805  38.119  1.00  0.00     0.198 A 
ATOM     75  C   UNL A   1      38.589  34.208  39.073  1.00  0.00     0.198 A 
ATOM     76  F   UNL A   1      38.072  32.233  37.903  1.00  0.00    -0.203 F 
ATOM     77  F   UNL A   1      40.796  36.949  38.212  1.00  0.00    -0.200 F 
ATOM     78  C   UNL A   1      39.279  35.408  39.160  1.00  0.00     0.200 A 
ATOM     79  F   UNL A   1      37.777  33.828  40.069  1.00  0.00    -0.200 F 
ATOM     80  F   UNL A   1      39.155  36.177  40.251  1.00  0.00    -0.200 F 
ENDBRANCH  46  70
BRANCH  58  81
ATOM     81  C   UNL A   1      43.956  28.626  35.239  1.00  0.00     0.064 A 
ATOM     82  C   UNL A   1      43.781  27.509  36.068  1.00  0.00     0.173 A 
ATOM     83  C   UNL A   1      45.256  29.129  35.081  1.00  0.00     0.173 A 
ATOM     84  F   UNL A   1      42.555  26.998  36.264  1.00  0.00    -0.203 F 
ATOM     85  C   UNL A   1      44.859  26.938  36.738  1.00  0.00     0.198 A 
ATOM     86  C   UNL A   1      46.338  28.533  35.723  1.00  0.00     0.198 A 
ATOM     87  F   UNL A   1      45.481  30.190  34.293  1.00  0.00    -0.203 F 
ATOM     88  F   UNL A   1      44.659  25.906  37.569  1.00  0.00    -0.200 F 
ATOM     89  C   UNL A   1      46.138  27.444  36.558  1.00  0.00     0.200 A 
ATOM     90  F   UNL A   1      47.575  29.013  35.534  1.00  0.00    -0.200 F 
ATOM     91  F   UNL A   1      47.177  26.887  37.196  1.00  0.00    -0.200 F 
ENDBRANCH  58  81
ENDBRANCH  32  33
ENDBRANCH  24  27
ENDBRANCH  22  23
ENDBRANCH  21  22
ENDBRANCH   1  21
TORSDOF 15
ENDMDL
MODEL 3
REMARK VINA RESULT:     -11.8      0.367      2.035
REMARK SMILES CC(C)(O)CC[C@@H](C(=O)NCCCNC(=O)c1ccc(-c2c3nc(c(-c4c(F)c(F)c(F)c(F)c4F)c4ccc([nH]4)c(-c4c(F)c(F)c(F)c(F)c4F)c4nc(c(-c5c(F)c(F)c(F)c(F)c5F)c5ccc2[nH]5)C=C4)C=C3)cc1)[C@@H]1CCS(=O)(=O)C1
REMARK SMILES IDX 11 1 10 2 8 3 9 4 7 6 6 7 5 8 2 9 1 10 3 11 4 12 80 14 81 15
REMARK SMILES IDX 86 16 82 17 83 18 84 19 85 20 12 21 13 22 14 23 15 24 16 26
REMARK SMILES IDX 17 27 18 28 79 29 19 30 78 31 20 32 21 33 22 34 72 35 23 36
REMARK SMILES IDX 77 37 71 38 73 39 24 40 76 41 70 42 69 43 25 45 57 46 37 47
REMARK SMILES IDX 56 48 38 49 41 50 55 51 74 52 39 53 40 54 54 56 75 57 42 58
REMARK SMILES IDX 26 59 27 60 35 61 28 62 29 63 33 64 36 65 30 66 31 67 34 68
REMARK SMILES IDX 32 69 58 70 59 71 67 72 60 73 61 74 65 75 68 76 62 77 63 78
REMARK SMILES IDX 66 79 64 80 43 81 44 82 52 83 45 84 46 85 50 86 53 87 47 88
REMARK SMILES IDX 48 89 51 90 49 91
REMARK H PARENT 10 5 4 13 14 25 73 44 41 55
REMARK Flexibility Score: inf
ROOT
ATOM      1  C   UNL A   1      31.512  30.786  26.111  1.00  0.00     0.117 C 
ENDROOT
BRANCH   1   2
ATOM      2  N   UNL A   1      32.634  30.186  26.796  1.00  0.00    -0.356 N 
ATOM      3  C   UNL A   1      33.094  28.906  26.795  1.00  0.00     0.223 C 
ATOM      4  O   UNL A   1      33.960  28.642  27.634  1.00  0.00    -0.275 OA
ATOM      5  H   UNL A   1      33.152  30.808  27.355  1.00  0.00     0.163 HD
BRANCH   3   6
ATOM      6  C   UNL A   1      32.599  27.850  25.774  1.00  0.00     0.082 C 
BRANCH   6   7
ATOM      7  C   UNL A   1      32.284  26.499  26.474  1.00  0.00     0.017 C 
BRANCH   7   8
ATOM      8  C   UNL A   1      31.088  25.641  26.030  1.00  0.00     0.035 C 
BRANCH   8   9
ATOM      9  C   UNL A   1      31.145  24.090  26.002  1.00  0.00     0.059 C 
ATOM     10  C   UNL A   1      30.163  23.314  26.876  1.00  0.00     0.042 C 
ATOM     11  C   UNL A   1      32.572  23.645  26.361  1.00  0.00     0.042 C 
BRANCH   9  12
ATOM     12  O   UNL A   1      30.890  23.697  24.649  1.00  0.00    -0.390 OA
ATOM     13  H   UNL A   1      30.501  24.442  24.165  1.00  0.00     0.211 HD
ENDBRANCH   9  12
ENDBRANCH   8   9
ENDBRANCH   7   8
ENDBRANCH   6   7
BRANCH   6  14
ATOM     14  C   UNL A   1      33.753  27.636  24.715  1.00  0.00     0.017 C 
ATOM     15  C   UNL A   1      33.767  28.676  23.568  1.00  0.00     0.021 C 
ATOM     16  C   UNL A   1      33.749  26.279  23.980  1.00  0.00     0.141 C 
ATOM     17  C   UNL A   1      32.711  28.264  22.554  1.00  0.00     0.137 C 
ATOM     18  S   UNL A   1      32.814  26.492  22.476  1.00  0.00     0.150 S 
ATOM     19  O   UNL A   1      31.482  25.950  22.661  1.00  0.00    -0.229 OA
ATOM     20  O   UNL A   1      33.645  26.116  21.355  1.00  0.00    -0.229 OA
ENDBRANCH   6  14
ENDBRANCH   3   6
ENDBRANCH   1   2
BRANCH   1  21
ATOM     21  C   UNL A   1      31.362  32.255  26.498  1.00  0.00     0.042 C 
BRANCH  21  22
ATOM     22  C   UNL A   1      32.538  32.788  27.288  1.00  0.00     0.118 C 
BRANCH  22  23
ATOM     23  N   UNL A   1      32.370  34.199  27.619  1.00  0.00    -0.352 N 
ATOM     24  C   UNL A   1      32.979  34.978  28.573  1.00  0.00     0.251 C 
ATOM     25  H   UNL A   1      31.708  34.672  27.065  1.00  0.00     0.163 HD
ATOM     26  O   UNL A   1      32.520  36.090  28.820  1.00  0.00    -0.269 OA
BRANCH  24  27
ATOM     27  C   UNL A   1      34.156  34.485  29.321  1.00  0.00     0.039 A 
ATOM     28  C   UNL A   1      33.982  34.005  30.623  1.00  0.00     0.014 A 
ATOM     29  C   UNL A   1      35.432  34.500  28.757  1.00  0.00     0.014 A 
ATOM     30  C   UNL A   1      35.068  33.464  31.316  1.00  0.00     0.010 A 
ATOM     31  C   UNL A   1      36.481  33.848  29.394  1.00  0.00     0.010 A 
ATOM     32  C   UNL A   1      36.315  33.330  30.685  1.00  0.00    -0.014 A 
BRANCH  32  33
ATOM     33  C   UNL A   1      37.462  32.660  31.349  1.00  0.00     0.031 A 
ATOM     34  C   UNL A   1      38.152  31.505  30.676  1.00  0.00     0.074 A 
ATOM     35  C   UNL A   1      37.823  33.036  32.592  1.00  0.00     0.049 A 
ATOM     36  N   UNL A   1      39.095  30.721  31.135  1.00  0.00    -0.248 NA
ATOM     37  C   UNL A   1      37.696  31.160  29.320  1.00  0.00     0.031 C 
ATOM     38  C   UNL A   1      37.195  34.106  33.369  1.00  0.00     0.029 A 
ATOM     39  N   UNL A   1      38.799  32.551  33.426  1.00  0.00    -0.354 N 
ATOM     40  C   UNL A   1      39.327  29.785  30.134  1.00  0.00     0.074 A 
ATOM     41  C   UNL A   1      38.383  30.055  29.073  1.00  0.00     0.031 C 
ATOM     42  C   UNL A   1      37.818  34.217  34.553  1.00  0.00     0.029 A 
ATOM     43  C   UNL A   1      38.854  33.194  34.641  1.00  0.00     0.049 A 
ATOM     44  H   UNL A   1      39.403  31.815  33.179  1.00  0.00     0.167 HD
ATOM     45  C   UNL A   1      40.263  28.807  30.093  1.00  0.00     0.037 A 
ATOM     46  C   UNL A   1      39.641  32.971  35.710  1.00  0.00     0.037 A 
ATOM     47  C   UNL A   1      41.215  28.562  31.143  1.00  0.00     0.049 A 
ATOM     48  C   UNL A   1      40.661  31.865  35.645  1.00  0.00     0.074 A 
ATOM     49  C   UNL A   1      42.248  27.642  31.173  1.00  0.00     0.029 A 
ATOM     50  N   UNL A   1      41.248  29.242  32.353  1.00  0.00    -0.354 N 
ATOM     51  N   UNL A   1      40.921  31.035  34.663  1.00  0.00    -0.248 NA
ATOM     52  C   UNL A   1      41.497  31.666  36.836  1.00  0.00     0.031 C 
ATOM     53  C   UNL A   1      42.866  27.722  32.425  1.00  0.00     0.029 A 
ATOM     54  C   UNL A   1      42.262  28.737  33.151  1.00  0.00     0.049 A 
ATOM     55  H   UNL A   1      40.640  29.974  32.607  1.00  0.00     0.167 HD
ATOM     56  C   UNL A   1      41.964  30.234  35.108  1.00  0.00     0.074 A 
ATOM     57  C   UNL A   1      42.304  30.694  36.439  1.00  0.00     0.031 C 
ATOM     58  C   UNL A   1      42.584  29.207  34.475  1.00  0.00     0.037 A 
BRANCH  45  59
ATOM     59  C   UNL A   1      40.302  27.930  28.873  1.00  0.00     0.064 A 
ATOM     60  C   UNL A   1      41.037  28.284  27.732  1.00  0.00     0.173 A 
ATOM     61  C   UNL A   1      39.621  26.703  28.857  1.00  0.00     0.173 A 
ATOM     62  F   UNL A   1      41.696  29.451  27.687  1.00  0.00    -0.203 F 
ATOM     63  C   UNL A   1      41.062  27.460  26.609  1.00  0.00     0.198 A 
ATOM     64  C   UNL A   1      39.678  25.864  27.746  1.00  0.00     0.198 A 
ATOM     65  F   UNL A   1      38.906  26.311  29.921  1.00  0.00    -0.203 F 
ATOM     66  F   UNL A   1      41.725  27.848  25.509  1.00  0.00    -0.200 F 
ATOM     67  C   UNL A   1      40.390  26.248  26.619  1.00  0.00     0.200 A 
ATOM     68  F   UNL A   1      39.039  24.686  27.764  1.00  0.00    -0.200 F 
ATOM     69  F   UNL A   1      40.423  25.452  25.542  1.00  0.00    -0.200 F 
ENDBRANCH  45  59
BRANCH  46  70
ATOM     70  C   UNL A   1      39.505  33.816  36.925  1.00  0.00     0.064 A 
ATOM     71  C   UNL A   1      40.147  35.059  37.013  1.00  0.00     0.173 A 
ATOM     72  C   UNL A   1      38.741  33.400  38.026  1.00  0.00     0.173 A 
ATOM     73  F   UNL A   1      40.906  35.494  35.995  1.00  0.00    -0.203 F 
ATOM     74  C   UNL A   1      40.049  35.843  38.161  1.00  0.00     0.198 A 
ATOM     75  C   UNL A   1      38.616  34.200  39.160  1.00  0.00     0.198 A 
ATOM     76  F   UNL A   1      38.101  32.222  37.993  1.00  0.00    -0.203 F 
ATOM     77  F   UNL A   1      40.715  37.004  38.237  1.00  0.00    -0.200 F 
ATOM     78  C   UNL A   1      39.278  35.415  39.231  1.00  0.00     0.200 A 
ATOM     79  F   UNL A   1      37.856  33.790  40.186  1.00  0.00    -0.200 F 
ATOM     80  F   UNL A   1      39.181  36.171  40.335  1.00  0.00    -0.200 F 
ENDBRANCH  46  70
BRANCH  58  81
ATOM     81  C   UNL A   1      43.707  28.528  35.204  1.00  0.00     0.064 A 
ATOM     82  C   UNL A   1      45.034  28.965  35.082  1.00  0.00     0.173 A 
ATOM     83  C   UNL A   1      43.447  27.453  36.066  1.00  0.00     0.173 A 
ATOM     84  F   UNL A   1      45.338  29.981  34.258  1.00  0.00    -0.203 F 
ATOM     85  C   UNL A   1      46.063  28.331  35.772  1.00  0.00     0.198 A 
ATOM     86  C   UNL A   1      44.474  26.844  36.783  1.00  0.00     0.198 A 
ATOM     87  F   UNL A   1      42.194  27.001  36.226  1.00  0.00    -0.203 F 
ATOM     88  F   UNL A   1      47.331  28.730  35.596  1.00  0.00    -0.200 F 
ATOM     89  C   UNL A   1      45.781  27.277  36.628  1.00  0.00     0.200 A 
ATOM     90  F   UNL A   1      44.197  25.838  37.623  1.00  0.00    -0.200 F 
ATOM     91  F   UNL A   1      46.773  26.674  37.299  1.00  0.00    -0.200 F 
ENDBRANCH  58  81
ENDBRANCH  32  33
ENDBRANCH  24  27
ENDBRANCH  22  23
ENDBRANCH  21  22
ENDBRANCH   1  21
TORSDOF 15
ENDMDL
