MODEL 1
REMARK VINA RESULT:     -13.3      0.000      0.000
REMARK SMILES Cn1cc(C(=O)NCCCNC(=O)c2ccc(-c3c4nc(c(-c5c(F)c(F)c(F)c(F)c5F)c5ccc([nH]5)c(-c5c(F)c(F)c(F)c(F)c5F)c5nc(c(-c6c(F)c(F)c(F)c(F)c6F)c6ccc3[nH]6)C=C5)C=C4)cc2)c(C(=O)Nc2ccc(-c3nc4cc(Cl)ccc4o3)cc2)n1
REMARK SMILES IDX 8 1 7 2 5 3 6 4 4 6 1 7 2 8 3 9 97 10 77 11 78 12 79 13
REMARK SMILES IDX 80 14 81 16 82 17 96 18 83 19 95 20 84 21 85 22 86 23 94 24
REMARK SMILES IDX 87 25 93 26 88 27 92 28 89 29 91 30 90 31 9 32 10 33 11 34
REMARK SMILES IDX 12 35 13 37 14 38 15 39 76 40 16 41 75 42 17 43 18 44 19 45
REMARK SMILES IDX 69 46 20 47 74 48 68 49 70 50 21 51 73 52 67 53 66 54 22 56
REMARK SMILES IDX 54 57 34 58 53 59 35 60 38 61 52 62 71 63 36 64 37 65 51 67
REMARK SMILES IDX 72 68 39 69 23 70 24 71 32 72 25 73 26 74 30 75 33 76 27 77
REMARK SMILES IDX 28 78 31 79 29 80 55 81 56 82 64 83 57 84 58 85 62 86 65 87
REMARK SMILES IDX 59 88 60 89 63 90 61 91 40 92 41 93 49 94 42 95 43 96 47 97
REMARK SMILES IDX 50 98 44 99 45 100 48 101 46 102
REMARK H PARENT 7 5 80 15 11 36 70 55 38 66
REMARK Flexibility Score: inf
ROOT
ATOM      1  C   UNL A   1      33.470  26.575  25.812  1.00  0.00     0.118 C 
ENDROOT
BRANCH   1   2
ATOM      2  N   UNL A   1      32.893  25.280  26.126  1.00  0.00    -0.352 N 
ATOM      3  C   UNL A   1      33.438  24.043  26.365  1.00  0.00     0.255 C 
ATOM      4  O   UNL A   1      32.697  23.214  26.903  1.00  0.00    -0.269 OA
ATOM      5  H   UNL A   1      31.910  25.292  26.179  1.00  0.00     0.163 HD
BRANCH   3   6
ATOM      6  C   UNL A   1      34.800  23.701  25.986  1.00  0.00     0.090 A 
ATOM      7  C   UNL A   1      38.410  23.689  26.099  1.00  0.00     0.173 C 
ATOM      8  N   UNL A   1      36.995  23.541  25.852  1.00  0.00    -0.274 N 
ATOM      9  C   UNL A   1      35.988  24.294  26.375  1.00  0.00     0.123 A 
ATOM     10  N   UNL A   1      36.568  22.534  25.090  1.00  0.00    -0.167 NA
ATOM     11  C   UNL A   1      35.224  22.565  25.197  1.00  0.00     0.163 A 
BRANCH  11  12
ATOM     12  C   UNL A   1      34.436  21.451  24.626  1.00  0.00     0.276 C 
ATOM     13  O   UNL A   1      34.790  20.276  24.777  1.00  0.00    -0.267 OA
ATOM     14  N   UNL A   1      33.240  21.655  23.975  1.00  0.00    -0.321 N 
ATOM     15  H   UNL A   1      32.706  20.836  23.851  1.00  0.00     0.170 HD
BRANCH  14  16
ATOM     16  C   UNL A   1      32.643  22.807  23.456  1.00  0.00     0.041 A 
ATOM     17  C   UNL A   1      31.282  22.982  23.724  1.00  0.00     0.027 A 
ATOM     18  C   UNL A   1      33.332  23.772  22.724  1.00  0.00     0.027 A 
ATOM     19  C   UNL A   1      30.653  24.184  23.404  1.00  0.00     0.016 A 
ATOM     20  C   UNL A   1      32.683  24.956  22.354  1.00  0.00     0.016 A 
ATOM     21  C   UNL A   1      31.361  25.199  22.752  1.00  0.00     0.037 A 
BRANCH  21  22
ATOM     22  C   UNL A   1      30.773  26.520  22.592  1.00  0.00     0.227 A 
ATOM     23  N   UNL A   1      31.303  27.648  22.157  1.00  0.00    -0.209 NA
ATOM     24  O   UNL A   1      29.513  26.648  23.126  1.00  0.00    -0.436 OA
ATOM     25  C   UNL A   1      30.313  28.576  22.376  1.00  0.00     0.111 A 
ATOM     26  C   UNL A   1      29.235  27.974  23.004  1.00  0.00     0.155 A 
ATOM     27  C   UNL A   1      30.262  29.950  22.110  1.00  0.00     0.053 A 
ATOM     28  C   UNL A   1      28.096  28.636  23.442  1.00  0.00     0.051 A 
ATOM     29  C   UNL A   1      29.128  30.652  22.538  1.00  0.00     0.043 A 
ATOM     30  C   UNL A   1      28.071  30.015  23.199  1.00  0.00     0.024 A 
ATOM     31  Cl  UNL A   1      29.038  32.349  22.253  1.00  0.00    -0.084 Cl
ENDBRANCH  21  22
ENDBRANCH  14  16
ENDBRANCH  11  12
ENDBRANCH   3   6
ENDBRANCH   1   2
BRANCH   1  32
ATOM     32  C   UNL A   1      32.486  27.709  25.530  1.00  0.00     0.042 C 
BRANCH  32  33
ATOM     33  C   UNL A   1      33.090  29.014  25.010  1.00  0.00     0.118 C 
BRANCH  33  34
ATOM     34  N   UNL A   1      32.583  30.208  25.661  1.00  0.00    -0.352 N 
ATOM     35  C   UNL A   1      33.016  30.941  26.735  1.00  0.00     0.251 C 
ATOM     36  H   UNL A   1      31.764  30.564  25.247  1.00  0.00     0.163 HD
ATOM     37  O   UNL A   1      32.330  31.902  27.086  1.00  0.00    -0.269 OA
BRANCH  35  38
ATOM     38  C   UNL A   1      34.249  30.631  27.502  1.00  0.00     0.039 A 
ATOM     39  C   UNL A   1      35.206  31.652  27.626  1.00  0.00     0.014 A 
ATOM     40  C   UNL A   1      34.550  29.363  28.002  1.00  0.00     0.014 A 
ATOM     41  C   UNL A   1      36.423  31.421  28.277  1.00  0.00     0.010 A 
ATOM     42  C   UNL A   1      35.762  29.132  28.667  1.00  0.00     0.010 A 
ATOM     43  C   UNL A   1      36.705  30.160  28.814  1.00  0.00    -0.014 A 
BRANCH  43  44
ATOM     44  C   UNL A   1      37.961  29.916  29.564  1.00  0.00     0.031 A 
ATOM     45  C   UNL A   1      39.013  28.990  29.032  1.00  0.00     0.074 A 
ATOM     46  C   UNL A   1      38.135  30.504  30.762  1.00  0.00     0.049 A 
ATOM     47  N   UNL A   1      40.116  28.576  29.605  1.00  0.00    -0.248 NA
ATOM     48  C   UNL A   1      38.798  28.458  27.681  1.00  0.00     0.031 C 
ATOM     49  C   UNL A   1      37.193  31.427  31.393  1.00  0.00     0.029 A 
ATOM     50  N   UNL A   1      39.158  30.392  31.671  1.00  0.00    -0.354 N 
ATOM     51  C   UNL A   1      40.719  27.723  28.692  1.00  0.00     0.074 A 
ATOM     52  C   UNL A   1      39.861  27.677  27.526  1.00  0.00     0.031 C 
ATOM     53  C   UNL A   1      37.670  31.783  32.596  1.00  0.00     0.029 A 
ATOM     54  C   UNL A   1      38.939  31.095  32.827  1.00  0.00     0.049 A 
ATOM     55  H   UNL A   1      39.970  29.860  31.506  1.00  0.00     0.167 HD
ATOM     56  C   UNL A   1      41.883  27.041  28.817  1.00  0.00     0.037 A 
ATOM     57  C   UNL A   1      39.664  31.159  33.960  1.00  0.00     0.037 A 
ATOM     58  C   UNL A   1      42.754  27.094  29.961  1.00  0.00     0.049 A 
ATOM     59  C   UNL A   1      40.944  30.386  34.077  1.00  0.00     0.074 A 
ATOM     60  C   UNL A   1      43.970  26.457  30.152  1.00  0.00     0.029 A 
ATOM     61  N   UNL A   1      42.503  27.828  31.108  1.00  0.00    -0.354 N 
ATOM     62  N   UNL A   1      41.505  29.585  33.207  1.00  0.00    -0.248 NA
ATOM     63  C   UNL A   1      41.688  30.524  35.338  1.00  0.00     0.031 C 
ATOM     64  C   UNL A   1      44.448  26.799  31.423  1.00  0.00     0.029 A 
ATOM     65  C   UNL A   1      43.536  27.654  32.016  1.00  0.00     0.049 A 
ATOM     66  H   UNL A   1      41.709  28.391  31.256  1.00  0.00     0.167 HD
ATOM     67  C   UNL A   1      42.666  29.124  33.808  1.00  0.00     0.074 A 
ATOM     68  C   UNL A   1      42.735  29.739  35.118  1.00  0.00     0.031 C 
ATOM     69  C   UNL A   1      43.590  28.268  33.314  1.00  0.00     0.037 A 
BRANCH  56  70
ATOM     70  C   UNL A   1      42.283  26.159  27.679  1.00  0.00     0.064 A 
ATOM     71  C   UNL A   1      43.234  26.577  26.738  1.00  0.00     0.173 A 
ATOM     72  C   UNL A   1      41.753  24.867  27.560  1.00  0.00     0.173 A 
ATOM     73  F   UNL A   1      43.763  27.808  26.813  1.00  0.00    -0.203 F 
ATOM     74  C   UNL A   1      43.637  25.729  25.710  1.00  0.00     0.198 A 
ATOM     75  C   UNL A   1      42.164  24.020  26.535  1.00  0.00     0.198 A 
ATOM     76  F   UNL A   1      40.842  24.428  28.440  1.00  0.00    -0.203 F 
ATOM     77  F   UNL A   1      44.541  26.148  24.813  1.00  0.00    -0.200 F 
ATOM     78  C   UNL A   1      43.104  24.451  25.612  1.00  0.00     0.200 A 
ATOM     79  F   UNL A   1      41.650  22.786  26.441  1.00  0.00    -0.200 F 
ATOM     80  F   UNL A   1      43.497  23.636  24.624  1.00  0.00    -0.200 F 
ENDBRANCH  56  70
BRANCH  57  81
ATOM     81  C   UNL A   1      39.166  31.972  35.090  1.00  0.00     0.064 A 
ATOM     82  C   UNL A   1      38.442  31.387  36.135  1.00  0.00     0.173 A 
ATOM     83  C   UNL A   1      39.432  33.347  35.156  1.00  0.00     0.173 A 
ATOM     84  F   UNL A   1      38.153  30.078  36.098  1.00  0.00    -0.203 F 
ATOM     85  C   UNL A   1      38.000  32.151  37.212  1.00  0.00     0.198 A 
ATOM     86  C   UNL A   1      38.999  34.106  36.240  1.00  0.00     0.198 A 
ATOM     87  F   UNL A   1      40.122  33.945  34.175  1.00  0.00    -0.203 F 
ATOM     88  F   UNL A   1      37.298  31.573  38.197  1.00  0.00    -0.200 F 
ATOM     89  C   UNL A   1      38.283  33.508  37.266  1.00  0.00     0.200 A 
ATOM     90  F   UNL A   1      39.278  35.416  36.290  1.00  0.00    -0.200 F 
ATOM     91  F   UNL A   1      37.863  34.240  38.306  1.00  0.00    -0.200 F 
ENDBRANCH  57  81
BRANCH  69  92
ATOM     92  C   UNL A   1      44.757  27.949  34.193  1.00  0.00     0.064 A 
ATOM     93  C   UNL A   1      45.909  28.746  34.181  1.00  0.00     0.173 A 
ATOM     94  C   UNL A   1      44.711  26.859  35.074  1.00  0.00     0.173 A 
ATOM     95  F   UNL A   1      45.999  29.789  33.342  1.00  0.00    -0.203 F 
ATOM     96  C   UNL A   1      46.983  28.457  35.018  1.00  0.00     0.198 A 
ATOM     97  C   UNL A   1      45.785  26.577  35.914  1.00  0.00     0.198 A 
ATOM     98  F   UNL A   1      43.629  26.068  35.113  1.00  0.00    -0.203 F 
ATOM     99  F   UNL A   1      48.086  29.217  34.978  1.00  0.00    -0.200 F 
ATOM    100  C   UNL A   1      46.919  27.375  35.885  1.00  0.00     0.200 A 
ATOM    101  F   UNL A   1      45.725  25.529  36.747  1.00  0.00    -0.200 F 
ATOM    102  F   UNL A   1      47.956  27.095  36.687  1.00  0.00    -0.200 F 
ENDBRANCH  69  92
ENDBRANCH  43  44
ENDBRANCH  35  38
ENDBRANCH  33  34
ENDBRANCH  32  33
ENDBRANCH   1  32
TORSDOF 13
ENDMDL
MODEL 2
REMARK VINA RESULT:     -13.2      5.112     11.351
REMARK SMILES Cn1cc(C(=O)NCCCNC(=O)c2ccc(-c3c4nc(c(-c5c(F)c(F)c(F)c(F)c5F)c5ccc([nH]5)c(-c5c(F)c(F)c(F)c(F)c5F)c5nc(c(-c6c(F)c(F)c(F)c(F)c6F)c6ccc3[nH]6)C=C5)C=C4)cc2)c(C(=O)Nc2ccc(-c3nc4cc(Cl)ccc4o3)cc2)n1
REMARK SMILES IDX 8 1 7 2 5 3 6 4 4 6 1 7 2 8 3 9 97 10 77 11 78 12 79 13
REMARK SMILES IDX 80 14 81 16 82 17 96 18 83 19 95 20 84 21 85 22 86 23 94 24
REMARK SMILES IDX 87 25 93 26 88 27 92 28 89 29 91 30 90 31 9 32 10 33 11 34
REMARK SMILES IDX 12 35 13 37 14 38 15 39 76 40 16 41 75 42 17 43 18 44 19 45
REMARK SMILES IDX 69 46 20 47 74 48 68 49 70 50 21 51 73 52 67 53 66 54 22 56
REMARK SMILES IDX 54 57 34 58 53 59 35 60 38 61 52 62 71 63 36 64 37 65 51 67
REMARK SMILES IDX 72 68 39 69 23 70 24 71 32 72 25 73 26 74 30 75 33 76 27 77
REMARK SMILES IDX 28 78 31 79 29 80 55 81 56 82 64 83 57 84 58 85 62 86 65 87
REMARK SMILES IDX 59 88 60 89 63 90 61 91 40 92 41 93 49 94 42 95 43 96 47 97
REMARK SMILES IDX 50 98 44 99 45 100 48 101 46 102
REMARK H PARENT 7 5 80 15 11 36 70 55 38 66
REMARK Flexibility Score: inf
ROOT
ATOM      1  C   UNL A   1      34.798  33.134  30.583  1.00  0.00     0.118 C 
ENDROOT
BRANCH   1   2
ATOM      2  N   UNL A   1      34.655  34.041  31.708  1.00  0.00    -0.352 N 
ATOM      3  C   UNL A   1      35.559  34.730  32.478  1.00  0.00     0.255 C 
ATOM      4  O   UNL A   1      35.104  35.653  33.160  1.00  0.00    -0.269 OA
ATOM      5  H   UNL A   1      33.719  34.193  31.971  1.00  0.00     0.163 HD
BRANCH   3   6
ATOM      6  C   UNL A   1      36.971  34.386  32.524  1.00  0.00     0.090 A 
ATOM      7  C   UNL A   1      40.496  34.578  31.759  1.00  0.00     0.173 C 
ATOM      8  N   UNL A   1      39.153  34.302  32.210  1.00  0.00    -0.274 N 
ATOM      9  C   UNL A   1      37.995  34.791  31.685  1.00  0.00     0.123 A 
ATOM     10  N   UNL A   1      38.970  33.548  33.294  1.00  0.00    -0.167 NA
ATOM     11  C   UNL A   1      37.648  33.625  33.551  1.00  0.00     0.163 A 
BRANCH  11  12
ATOM     12  C   UNL A   1      37.133  33.056  34.815  1.00  0.00     0.276 C 
ATOM     13  O   UNL A   1      36.286  33.655  35.486  1.00  0.00    -0.267 OA
ATOM     14  N   UNL A   1      37.503  31.807  35.263  1.00  0.00    -0.321 N 
ATOM     15  H   UNL A   1      36.926  31.450  35.976  1.00  0.00     0.170 HD
BRANCH  14  16
ATOM     16  C   UNL A   1      38.546  30.953  34.895  1.00  0.00     0.041 A 
ATOM     17  C   UNL A   1      39.698  30.993  35.687  1.00  0.00     0.027 A 
ATOM     18  C   UNL A   1      38.480  30.072  33.817  1.00  0.00     0.027 A 
ATOM     19  C   UNL A   1      40.708  30.050  35.504  1.00  0.00     0.016 A 
ATOM     20  C   UNL A   1      39.521  29.163  33.600  1.00  0.00     0.016 A 
ATOM     21  C   UNL A   1      40.608  29.099  34.482  1.00  0.00     0.037 A 
BRANCH  21  22
ATOM     22  C   UNL A   1      41.555  27.997  34.409  1.00  0.00     0.227 A 
ATOM     23  N   UNL A   1      42.573  27.794  33.593  1.00  0.00    -0.209 NA
ATOM     24  O   UNL A   1      41.244  26.926  35.211  1.00  0.00    -0.436 OA
ATOM     25  C   UNL A   1      42.992  26.522  33.907  1.00  0.00     0.111 A 
ATOM     26  C   UNL A   1      42.156  25.977  34.867  1.00  0.00     0.155 A 
ATOM     27  C   UNL A   1      44.041  25.746  33.401  1.00  0.00     0.053 A 
ATOM     28  C   UNL A   1      42.242  24.680  35.355  1.00  0.00     0.051 A 
ATOM     29  C   UNL A   1      44.159  24.431  33.870  1.00  0.00     0.043 A 
ATOM     30  C   UNL A   1      43.275  23.903  34.818  1.00  0.00     0.024 A 
ATOM     31  Cl  UNL A   1      45.421  23.433  33.252  1.00  0.00    -0.084 Cl
ENDBRANCH  21  22
ENDBRANCH  14  16
ENDBRANCH  11  12
ENDBRANCH   3   6
ENDBRANCH   1   2
BRANCH   1  32
ATOM     32  C   UNL A   1      34.418  33.686  29.210  1.00  0.00     0.042 C 
BRANCH  32  33
ATOM     33  C   UNL A   1      34.950  32.916  28.001  1.00  0.00     0.118 C 
BRANCH  33  34
ATOM     34  N   UNL A   1      34.269  31.659  27.747  1.00  0.00    -0.352 N 
ATOM     35  C   UNL A   1      34.684  30.353  27.758  1.00  0.00     0.251 C 
ATOM     36  H   UNL A   1      33.317  31.767  27.521  1.00  0.00     0.163 HD
ATOM     37  O   UNL A   1      33.864  29.489  27.447  1.00  0.00    -0.269 OA
BRANCH  35  38
ATOM     38  C   UNL A   1      36.064  29.929  28.108  1.00  0.00     0.039 A 
ATOM     39  C   UNL A   1      36.284  29.463  29.414  1.00  0.00     0.014 A 
ATOM     40  C   UNL A   1      37.157  30.074  27.251  1.00  0.00     0.014 A 
ATOM     41  C   UNL A   1      37.568  29.106  29.842  1.00  0.00     0.010 A 
ATOM     42  C   UNL A   1      38.442  29.703  27.672  1.00  0.00     0.010 A 
ATOM     43  C   UNL A   1      38.656  29.212  28.968  1.00  0.00    -0.014 A 
BRANCH  43  44
ATOM     44  C   UNL A   1      40.011  28.776  29.384  1.00  0.00     0.031 A 
ATOM     45  C   UNL A   1      40.891  29.665  30.212  1.00  0.00     0.074 A 
ATOM     46  C   UNL A   1      40.471  27.580  28.973  1.00  0.00     0.049 A 
ATOM     47  N   UNL A   1      42.138  29.491  30.569  1.00  0.00    -0.248 NA
ATOM     48  C   UNL A   1      40.290  30.913  30.701  1.00  0.00     0.031 C 
ATOM     49  C   UNL A   1      39.719  26.619  28.168  1.00  0.00     0.029 A 
ATOM     50  N   UNL A   1      41.692  26.982  29.159  1.00  0.00    -0.354 N 
ATOM     51  C   UNL A   1      42.479  30.613  31.310  1.00  0.00     0.074 A 
ATOM     52  C   UNL A   1      41.307  31.463  31.354  1.00  0.00     0.031 C 
ATOM     53  C   UNL A   1      40.501  25.559  27.910  1.00  0.00     0.029 A 
ATOM     54  C   UNL A   1      41.814  25.779  28.513  1.00  0.00     0.049 A 
ATOM     55  H   UNL A   1      42.410  27.378  29.705  1.00  0.00     0.167 HD
ATOM     56  C   UNL A   1      43.663  30.907  31.901  1.00  0.00     0.037 A 
ATOM     57  C   UNL A   1      42.872  24.954  28.397  1.00  0.00     0.037 A 
ATOM     58  C   UNL A   1      44.828  30.062  31.883  1.00  0.00     0.049 A 
ATOM     59  C   UNL A   1      44.175  25.306  29.051  1.00  0.00     0.074 A 
ATOM     60  C   UNL A   1      46.057  30.272  32.486  1.00  0.00     0.029 A 
ATOM     61  N   UNL A   1      44.906  28.844  31.228  1.00  0.00    -0.354 N 
ATOM     62  N   UNL A   1      44.484  26.369  29.752  1.00  0.00    -0.248 NA
ATOM     63  C   UNL A   1      45.277  24.345  28.894  1.00  0.00     0.031 C 
ATOM     64  C   UNL A   1      46.885  29.183  32.185  1.00  0.00     0.029 A 
ATOM     65  C   UNL A   1      46.167  28.294  31.404  1.00  0.00     0.049 A 
ATOM     66  H   UNL A   1      44.176  28.430  30.715  1.00  0.00     0.167 HD
ATOM     67  C   UNL A   1      45.810  26.206  30.121  1.00  0.00     0.074 A 
ATOM     68  C   UNL A   1      46.250  24.940  29.573  1.00  0.00     0.031 C 
ATOM     69  C   UNL A   1      46.591  27.037  30.851  1.00  0.00     0.037 A 
BRANCH  56  70
ATOM     70  C   UNL A   1      43.763  32.214  32.618  1.00  0.00     0.064 A 
ATOM     71  C   UNL A   1      44.001  33.406  31.920  1.00  0.00     0.173 A 
ATOM     72  C   UNL A   1      43.565  32.282  34.003  1.00  0.00     0.173 A 
ATOM     73  F   UNL A   1      44.201  33.384  30.594  1.00  0.00    -0.203 F 
ATOM     74  C   UNL A   1      44.043  34.625  32.591  1.00  0.00     0.198 A 
ATOM     75  C   UNL A   1      43.600  33.504  34.669  1.00  0.00     0.198 A 
ATOM     76  F   UNL A   1      43.333  31.164  34.707  1.00  0.00    -0.203 F 
ATOM     77  F   UNL A   1      44.281  35.756  31.911  1.00  0.00    -0.200 F 
ATOM     78  C   UNL A   1      43.839  34.673  33.963  1.00  0.00     0.200 A 
ATOM     79  F   UNL A   1      43.403  33.549  35.993  1.00  0.00    -0.200 F 
ATOM     80  F   UNL A   1      43.876  35.849  34.606  1.00  0.00    -0.200 F 
ENDBRANCH  56  70
BRANCH  57  81
ATOM     81  C   UNL A   1      42.740  23.721  27.592  1.00  0.00     0.064 A 
ATOM     82  C   UNL A   1      43.109  23.698  26.242  1.00  0.00     0.173 A 
ATOM     83  C   UNL A   1      42.268  22.534  28.170  1.00  0.00     0.173 A 
ATOM     84  F   UNL A   1      43.549  24.818  25.650  1.00  0.00    -0.203 F 
ATOM     85  C   UNL A   1      43.011  22.527  25.495  1.00  0.00     0.198 A 
ATOM     86  C   UNL A   1      42.181  21.362  27.424  1.00  0.00     0.198 A 
ATOM     87  F   UNL A   1      41.904  22.515  29.460  1.00  0.00    -0.203 F 
ATOM     88  F   UNL A   1      43.359  22.530  24.201  1.00  0.00    -0.200 F 
ATOM     89  C   UNL A   1      42.551  21.360  26.088  1.00  0.00     0.200 A 
ATOM     90  F   UNL A   1      41.741  20.235  28.001  1.00  0.00    -0.200 F 
ATOM     91  F   UNL A   1      42.465  20.232  25.369  1.00  0.00    -0.200 F 
ENDBRANCH  57  81
BRANCH  69  92
ATOM     92  C   UNL A   1      47.998  26.599  31.101  1.00  0.00     0.064 A 
ATOM     93  C   UNL A   1      48.347  25.928  32.281  1.00  0.00     0.173 A 
ATOM     94  C   UNL A   1      48.997  26.823  30.144  1.00  0.00     0.173 A 
ATOM     95  F   UNL A   1      47.424  25.706  33.229  1.00  0.00    -0.203 F 
ATOM     96  C   UNL A   1      49.655  25.503  32.498  1.00  0.00     0.198 A 
ATOM     97  C   UNL A   1      50.302  26.391  30.362  1.00  0.00     0.198 A 
ATOM     98  F   UNL A   1      48.707  27.468  29.005  1.00  0.00    -0.203 F 
ATOM     99  F   UNL A   1      49.975  24.881  33.641  1.00  0.00    -0.200 F 
ATOM    100  C   UNL A   1      50.629  25.732  31.538  1.00  0.00     0.200 A 
ATOM    101  F   UNL A   1      51.246  26.619  29.438  1.00  0.00    -0.200 F 
ATOM    102  F   UNL A   1      51.889  25.327  31.751  1.00  0.00    -0.200 F 
ENDBRANCH  69  92
ENDBRANCH  43  44
ENDBRANCH  35  38
ENDBRANCH  33  34
ENDBRANCH  32  33
ENDBRANCH   1  32
TORSDOF 13
ENDMDL
MODEL 3
REMARK VINA RESULT:     -13.2      0.940      2.035
REMARK SMILES Cn1cc(C(=O)NCCCNC(=O)c2ccc(-c3c4nc(c(-c5c(F)c(F)c(F)c(F)c5F)c5ccc([nH]5)c(-c5c(F)c(F)c(F)c(F)c5F)c5nc(c(-c6c(F)c(F)c(F)c(F)c6F)c6ccc3[nH]6)C=C5)C=C4)cc2)c(C(=O)Nc2ccc(-c3nc4cc(Cl)ccc4o3)cc2)n1
REMARK SMILES IDX 8 1 7 2 5 3 6 4 4 6 1 7 2 8 3 9 97 10 77 11 78 12 79 13
REMARK SMILES IDX 80 14 81 16 82 17 96 18 83 19 95 20 84 21 85 22 86 23 94 24
REMARK SMILES IDX 87 25 93 26 88 27 92 28 89 29 91 30 90 31 9 32 10 33 11 34
REMARK SMILES IDX 12 35 13 37 14 38 15 39 76 40 16 41 75 42 17 43 18 44 19 45
REMARK SMILES IDX 69 46 20 47 74 48 68 49 70 50 21 51 73 52 67 53 66 54 22 56
REMARK SMILES IDX 54 57 34 58 53 59 35 60 38 61 52 62 71 63 36 64 37 65 51 67
REMARK SMILES IDX 72 68 39 69 23 70 24 71 32 72 25 73 26 74 30 75 33 76 27 77
REMARK SMILES IDX 28 78 31 79 29 80 55 81 56 82 64 83 57 84 58 85 62 86 65 87
REMARK SMILES IDX 59 88 60 89 63 90 61 91 40 92 41 93 49 94 42 95 43 96 47 97
REMARK SMILES IDX 50 98 44 99 45 100 48 101 46 102
REMARK H PARENT 7 5 80 15 11 36 70 55 38 66
REMARK Flexibility Score: inf
ROOT
ATOM      1  C   UNL A   1      33.563  26.859  25.733  1.00  0.00     0.118 C 
ENDROOT
BRANCH   1   2
ATOM      2  N   UNL A   1      33.131  25.656  26.421  1.00  0.00    -0.352 N 
ATOM      3  C   UNL A   1      33.476  24.333  26.303  1.00  0.00     0.255 C 
ATOM      4  O   UNL A   1      33.153  23.598  27.241  1.00  0.00    -0.269 OA
ATOM      5  H   UNL A   1      32.453  25.824  27.115  1.00  0.00     0.163 HD
BRANCH   3   6
ATOM      6  C   UNL A   1      34.156  23.802  25.132  1.00  0.00     0.090 A 
ATOM      7  C   UNL A   1      36.910  22.880  22.984  1.00  0.00     0.173 C 
ATOM      8  N   UNL A   1      35.662  23.163  23.653  1.00  0.00    -0.274 N 
ATOM      9  C   UNL A   1      35.480  23.941  24.755  1.00  0.00     0.123 A 
ATOM     10  N   UNL A   1      34.546  22.571  23.228  1.00  0.00    -0.167 NA
ATOM     11  C   UNL A   1      33.612  22.893  24.147  1.00  0.00     0.163 A 
BRANCH  11  12
ATOM     12  C   UNL A   1      32.291  22.231  24.085  1.00  0.00     0.276 C 
ATOM     13  O   UNL A   1      32.195  21.000  24.037  1.00  0.00    -0.267 OA
ATOM     14  N   UNL A   1      31.111  22.938  24.157  1.00  0.00    -0.321 N 
ATOM     15  H   UNL A   1      30.320  22.380  24.340  1.00  0.00     0.170 HD
BRANCH  14  16
ATOM     16  C   UNL A   1      30.827  24.299  24.020  1.00  0.00     0.041 A 
ATOM     17  C   UNL A   1      31.302  24.925  22.862  1.00  0.00     0.027 A 
ATOM     18  C   UNL A   1      30.091  25.033  24.948  1.00  0.00     0.027 A 
ATOM     19  C   UNL A   1      30.909  26.227  22.558  1.00  0.00     0.016 A 
ATOM     20  C   UNL A   1      29.745  26.360  24.667  1.00  0.00     0.016 A 
ATOM     21  C   UNL A   1      30.092  26.942  23.440  1.00  0.00     0.037 A 
BRANCH  21  22
ATOM     22  C   UNL A   1      29.521  28.220  23.042  1.00  0.00     0.227 A 
ATOM     23  N   UNL A   1      29.015  28.610  21.887  1.00  0.00    -0.209 NA
ATOM     24  O   UNL A   1      29.680  29.224  23.966  1.00  0.00    -0.436 OA
ATOM     25  C   UNL A   1      28.780  29.953  22.074  1.00  0.00     0.111 A 
ATOM     26  C   UNL A   1      29.223  30.336  23.329  1.00  0.00     0.155 A 
ATOM     27  C   UNL A   1      28.236  30.921  21.221  1.00  0.00     0.053 A 
ATOM     28  C   UNL A   1      29.212  31.637  23.815  1.00  0.00     0.051 A 
ATOM     29  C   UNL A   1      28.209  32.245  21.677  1.00  0.00     0.043 A 
ATOM     30  C   UNL A   1      28.695  32.601  22.941  1.00  0.00     0.024 A 
ATOM     31  Cl  UNL A   1      27.570  33.470  20.648  1.00  0.00    -0.084 Cl
ENDBRANCH  21  22
ENDBRANCH  14  16
ENDBRANCH  11  12
ENDBRANCH   3   6
ENDBRANCH   1   2
BRANCH   1  32
ATOM     32  C   UNL A   1      32.674  28.091  25.891  1.00  0.00     0.042 C 
BRANCH  32  33
ATOM     33  C   UNL A   1      33.166  29.372  25.215  1.00  0.00     0.118 C 
BRANCH  33  34
ATOM     34  N   UNL A   1      32.714  30.595  25.852  1.00  0.00    -0.352 N 
ATOM     35  C   UNL A   1      33.183  31.325  26.913  1.00  0.00     0.251 C 
ATOM     36  H   UNL A   1      31.907  30.979  25.439  1.00  0.00     0.163 HD
ATOM     37  O   UNL A   1      32.541  32.318  27.254  1.00  0.00    -0.269 OA
BRANCH  35  38
ATOM     38  C   UNL A   1      34.408  30.975  27.677  1.00  0.00     0.039 A 
ATOM     39  C   UNL A   1      35.391  31.969  27.810  1.00  0.00     0.014 A 
ATOM     40  C   UNL A   1      34.675  29.694  28.164  1.00  0.00     0.014 A 
ATOM     41  C   UNL A   1      36.601  31.700  28.459  1.00  0.00     0.010 A 
ATOM     42  C   UNL A   1      35.881  29.425  28.827  1.00  0.00     0.010 A 
ATOM     43  C   UNL A   1      36.850  30.426  28.984  1.00  0.00    -0.014 A 
BRANCH  43  44
ATOM     44  C   UNL A   1      38.099  30.142  29.732  1.00  0.00     0.031 A 
ATOM     45  C   UNL A   1      39.125  29.192  29.192  1.00  0.00     0.074 A 
ATOM     46  C   UNL A   1      38.290  30.717  30.934  1.00  0.00     0.049 A 
ATOM     47  N   UNL A   1      40.216  28.743  29.761  1.00  0.00    -0.248 NA
ATOM     48  C   UNL A   1      38.895  28.675  27.837  1.00  0.00     0.031 C 
ATOM     49  C   UNL A   1      37.375  31.661  31.571  1.00  0.00     0.029 A 
ATOM     50  N   UNL A   1      39.310  30.570  31.841  1.00  0.00    -0.354 N 
ATOM     51  C   UNL A   1      40.795  27.880  28.842  1.00  0.00     0.074 A 
ATOM     52  C   UNL A   1      39.935  27.867  27.676  1.00  0.00     0.031 C 
ATOM     53  C   UNL A   1      37.862  31.994  32.777  1.00  0.00     0.029 A 
ATOM     54  C   UNL A   1      39.111  31.270  33.003  1.00  0.00     0.049 A 
ATOM     55  H   UNL A   1      40.107  30.017  31.672  1.00  0.00     0.167 HD
ATOM     56  C   UNL A   1      41.940  27.165  28.961  1.00  0.00     0.037 A 
ATOM     57  C   UNL A   1      39.838  31.305  34.135  1.00  0.00     0.037 A 
ATOM     58  C   UNL A   1      42.812  27.186  30.105  1.00  0.00     0.049 A 
ATOM     59  C   UNL A   1      41.096  30.497  34.246  1.00  0.00     0.074 A 
ATOM     60  C   UNL A   1      44.010  26.514  30.291  1.00  0.00     0.029 A 
ATOM     61  N   UNL A   1      42.582  27.918  31.257  1.00  0.00    -0.354 N 
ATOM     62  N   UNL A   1      41.634  29.686  33.370  1.00  0.00    -0.248 NA
ATOM     63  C   UNL A   1      41.845  30.604  35.507  1.00  0.00     0.031 C 
ATOM     64  C   UNL A   1      44.498  26.833  31.564  1.00  0.00     0.029 A 
ATOM     65  C   UNL A   1      43.610  27.709  32.164  1.00  0.00     0.049 A 
ATOM     66  H   UNL A   1      41.804  28.501  31.410  1.00  0.00     0.167 HD
ATOM     67  C   UNL A   1      42.782  29.190  33.967  1.00  0.00     0.074 A 
ATOM     68  C   UNL A   1      42.869  29.792  35.281  1.00  0.00     0.031 C 
ATOM     69  C   UNL A   1      43.682  28.311  33.467  1.00  0.00     0.037 A 
BRANCH  56  70
ATOM     70  C   UNL A   1      42.315  26.281  27.816  1.00  0.00     0.064 A 
ATOM     71  C   UNL A   1      41.734  25.015  27.658  1.00  0.00     0.173 A 
ATOM     72  C   UNL A   1      43.219  26.725  26.842  1.00  0.00     0.173 A 
ATOM     73  F   UNL A   1      40.867  24.551  28.570  1.00  0.00    -0.203 F 
ATOM     74  C   UNL A   1      42.053  24.220  26.560  1.00  0.00     0.198 A 
ATOM     75  C   UNL A   1      43.529  25.930  25.743  1.00  0.00     0.198 A 
ATOM     76  F   UNL A   1      43.795  27.930  26.956  1.00  0.00    -0.203 F 
ATOM     77  F   UNL A   1      41.496  23.007  26.428  1.00  0.00    -0.200 F 
ATOM     78  C   UNL A   1      42.947  24.679  25.603  1.00  0.00     0.200 A 
ATOM     79  F   UNL A   1      44.392  26.374  24.819  1.00  0.00    -0.200 F 
ATOM     80  F   UNL A   1      43.249  23.913  24.546  1.00  0.00    -0.200 F 
ENDBRANCH  56  70
BRANCH  57  81
ATOM     81  C   UNL A   1      39.363  32.124  35.272  1.00  0.00     0.064 A 
ATOM     82  C   UNL A   1      39.684  33.483  35.364  1.00  0.00     0.173 A 
ATOM     83  C   UNL A   1      38.554  31.565  36.270  1.00  0.00     0.173 A 
ATOM     84  F   UNL A   1      40.470  34.050  34.437  1.00  0.00    -0.203 F 
ATOM     85  C   UNL A   1      39.211  34.257  36.420  1.00  0.00     0.198 A 
ATOM     86  C   UNL A   1      38.073  32.343  37.319  1.00  0.00     0.198 A 
ATOM     87  F   UNL A   1      38.225  30.266  36.217  1.00  0.00    -0.203 F 
ATOM     88  F   UNL A   1      39.540  35.555  36.497  1.00  0.00    -0.200 F 
ATOM     89  C   UNL A   1      38.403  33.688  37.394  1.00  0.00     0.200 A 
ATOM     90  F   UNL A   1      37.288  31.791  38.255  1.00  0.00    -0.200 F 
ATOM     91  F   UNL A   1      37.942  34.437  38.405  1.00  0.00    -0.200 F 
ENDBRANCH  57  81
BRANCH  69  92
ATOM     92  C   UNL A   1      44.840  27.954  34.342  1.00  0.00     0.064 A 
ATOM     93  C   UNL A   1      46.017  28.714  34.329  1.00  0.00     0.173 A 
ATOM     94  C   UNL A   1      44.761  26.864  35.221  1.00  0.00     0.173 A 
ATOM     95  F   UNL A   1      46.138  29.755  33.493  1.00  0.00    -0.203 F 
ATOM     96  C   UNL A   1      47.083  28.389  35.164  1.00  0.00     0.198 A 
ATOM     97  C   UNL A   1      45.827  26.546  36.058  1.00  0.00     0.198 A 
ATOM     98  F   UNL A   1      43.655  26.107  35.260  1.00  0.00    -0.203 F 
ATOM     99  F   UNL A   1      48.209  29.115  35.124  1.00  0.00    -0.200 F 
ATOM    100  C   UNL A   1      46.985  27.308  36.028  1.00  0.00     0.200 A 
ATOM    101  F   UNL A   1      45.736  25.499  36.889  1.00  0.00    -0.200 F 
ATOM    102  F   UNL A   1      48.015  26.994  36.827  1.00  0.00    -0.200 F 
ENDBRANCH  69  92
ENDBRANCH  43  44
ENDBRANCH  35  38
ENDBRANCH  33  34
ENDBRANCH  32  33
ENDBRANCH   1  32
TORSDOF 13
ENDMDL
