MODEL 1
REMARK VINA RESULT:     -12.3      0.000      0.000
REMARK SMILES C[C@@H](C(=O)NCCCNC(=O)c1ccc(-c2c3nc(c(-c4c(F)c(F)c(F)c(F)c4F)c4ccc([nH]4)c(-c4c(F)c(F)c(F)c(F)c4F)c4nc(c(-c5c(F)c(F)c(F)c(F)c5F)c5ccc2[nH]5)C=C4)C=C3)cc1)c1ccc(Cc2ccoc2)cc1F
REMARK SMILES IDX 6 1 5 2 3 3 4 4 2 6 1 7 75 8 76 9 86 10 77 11 85 12 87 13
REMARK SMILES IDX 78 14 79 15 80 16 81 17 84 18 82 19 83 20 7 21 8 22 9 23
REMARK SMILES IDX 10 24 11 26 12 27 13 28 74 29 14 30 73 31 15 32 16 33 17 34
REMARK SMILES IDX 67 35 18 36 72 37 66 38 68 39 19 40 71 41 65 42 64 43 20 45
REMARK SMILES IDX 52 46 32 47 51 48 33 49 36 50 50 51 69 52 34 53 35 54 49 56
REMARK SMILES IDX 70 57 37 58 21 59 22 60 30 61 23 62 24 63 28 64 31 65 25 66
REMARK SMILES IDX 26 67 29 68 27 69 53 70 54 71 62 72 55 73 56 74 60 75 63 76
REMARK SMILES IDX 57 77 58 78 61 79 59 80 38 81 39 82 47 83 40 84 41 85 45 86
REMARK SMILES IDX 48 87 42 88 43 89 46 90 44 91
REMARK H PARENT 5 5 9 25 68 44 36 55
REMARK Flexibility Score: inf
ROOT
ATOM      1  C   UNL A   1      31.481  30.863  25.925  1.00  0.00     0.117 C 
ENDROOT
BRANCH   1   2
ATOM      2  N   UNL A   1      32.765  30.290  26.280  1.00  0.00    -0.356 N 
ATOM      3  C   UNL A   1      33.247  29.014  26.173  1.00  0.00     0.227 C 
ATOM      4  O   UNL A   1      34.462  28.902  26.337  1.00  0.00    -0.274 OA
ATOM      5  H   UNL A   1      33.403  30.932  26.668  1.00  0.00     0.163 HD
BRANCH   3   6
ATOM      6  C   UNL A   1      32.312  27.859  25.771  1.00  0.00     0.108 C 
ATOM      7  C   UNL A   1      31.365  27.410  26.885  1.00  0.00     0.023 C 
BRANCH   6   8
ATOM      8  C   UNL A   1      32.977  26.601  25.214  1.00  0.00    -0.000 A 
ATOM      9  C   UNL A   1      33.349  25.591  26.119  1.00  0.00     0.008 A 
ATOM     10  C   UNL A   1      33.363  26.442  23.878  1.00  0.00     0.127 A 
ATOM     11  C   UNL A   1      34.042  24.455  25.692  1.00  0.00     0.004 A 
ATOM     12  C   UNL A   1      34.028  25.293  23.439  1.00  0.00     0.043 A 
ATOM     13  F   UNL A   1      33.163  27.419  22.984  1.00  0.00    -0.207 F 
ATOM     14  C   UNL A   1      34.381  24.283  24.343  1.00  0.00    -0.041 A 
BRANCH  14  15
ATOM     15  C   UNL A   1      35.093  23.038  23.877  1.00  0.00     0.074 C 
BRANCH  15  16
ATOM     16  C   UNL A   1      34.253  21.864  24.252  1.00  0.00    -0.005 A 
ATOM     17  C   UNL A   1      32.886  21.610  23.927  1.00  0.00     0.046 A 
ATOM     18  C   UNL A   1      34.670  20.734  24.931  1.00  0.00     0.198 A 
ATOM     19  C   UNL A   1      32.581  20.369  24.435  1.00  0.00     0.195 A 
ATOM     20  O   UNL A   1      33.665  19.830  25.046  1.00  0.00    -0.472 OA
ENDBRANCH  15  16
ENDBRANCH  14  15
ENDBRANCH   6   8
ENDBRANCH   3   6
ENDBRANCH   1   2
BRANCH   1  21
ATOM     21  C   UNL A   1      31.269  32.251  26.524  1.00  0.00     0.042 C 
BRANCH  21  22
ATOM     22  C   UNL A   1      32.483  32.828  27.244  1.00  0.00     0.118 C 
BRANCH  22  23
ATOM     23  N   UNL A   1      32.310  34.221  27.626  1.00  0.00    -0.352 N 
ATOM     24  C   UNL A   1      32.947  34.956  28.592  1.00  0.00     0.251 C 
ATOM     25  H   UNL A   1      31.630  34.712  27.110  1.00  0.00     0.163 HD
ATOM     26  O   UNL A   1      32.528  36.078  28.877  1.00  0.00    -0.269 OA
BRANCH  24  27
ATOM     27  C   UNL A   1      34.114  34.406  29.315  1.00  0.00     0.039 A 
ATOM     28  C   UNL A   1      33.902  33.756  30.534  1.00  0.00     0.014 A 
ATOM     29  C   UNL A   1      35.412  34.548  28.818  1.00  0.00     0.014 A 
ATOM     30  C   UNL A   1      34.981  33.192  31.218  1.00  0.00     0.010 A 
ATOM     31  C   UNL A   1      36.474  33.914  29.457  1.00  0.00     0.010 A 
ATOM     32  C   UNL A   1      36.272  33.233  30.667  1.00  0.00    -0.014 A 
BRANCH  32  33
ATOM     33  C   UNL A   1      37.416  32.566  31.343  1.00  0.00     0.031 A 
ATOM     34  C   UNL A   1      38.124  31.415  30.682  1.00  0.00     0.074 A 
ATOM     35  C   UNL A   1      37.783  32.964  32.577  1.00  0.00     0.049 A 
ATOM     36  N   UNL A   1      39.105  30.676  31.136  1.00  0.00    -0.248 NA
ATOM     37  C   UNL A   1      37.650  31.026  29.345  1.00  0.00     0.031 C 
ATOM     38  C   UNL A   1      37.146  34.036  33.342  1.00  0.00     0.029 A 
ATOM     39  N   UNL A   1      38.775  32.507  33.409  1.00  0.00    -0.354 N 
ATOM     40  C   UNL A   1      39.359  29.735  30.146  1.00  0.00     0.074 A 
ATOM     41  C   UNL A   1      38.390  29.956  29.095  1.00  0.00     0.031 C 
ATOM     42  C   UNL A   1      37.778  34.172  34.519  1.00  0.00     0.029 A 
ATOM     43  C   UNL A   1      38.834  33.170  34.611  1.00  0.00     0.049 A 
ATOM     44  H   UNL A   1      39.386  31.775  33.167  1.00  0.00     0.167 HD
ATOM     45  C   UNL A   1      40.329  28.790  30.106  1.00  0.00     0.037 A 
ATOM     46  C   UNL A   1      39.642  32.982  35.672  1.00  0.00     0.037 A 
ATOM     47  C   UNL A   1      41.301  28.581  31.149  1.00  0.00     0.049 A 
ATOM     48  C   UNL A   1      40.696  31.909  35.610  1.00  0.00     0.074 A 
ATOM     49  C   UNL A   1      42.351  27.681  31.182  1.00  0.00     0.029 A 
ATOM     50  N   UNL A   1      41.334  29.277  32.349  1.00  0.00    -0.354 N 
ATOM     51  N   UNL A   1      40.972  31.072  34.640  1.00  0.00    -0.248 NA
ATOM     52  C   UNL A   1      41.557  31.759  36.793  1.00  0.00     0.031 C 
ATOM     53  C   UNL A   1      42.986  27.795  32.423  1.00  0.00     0.029 A 
ATOM     54  C   UNL A   1      42.372  28.809  33.139  1.00  0.00     0.049 A 
ATOM     55  H   UNL A   1      40.711  29.997  32.602  1.00  0.00     0.167 HD
ATOM     56  C   UNL A   1      42.054  30.321  35.078  1.00  0.00     0.074 A 
ATOM     57  C   UNL A   1      42.397  30.814  36.396  1.00  0.00     0.031 C 
ATOM     58  C   UNL A   1      42.706  29.315  34.446  1.00  0.00     0.037 A 
BRANCH  45  59
ATOM     59  C   UNL A   1      40.391  27.910  28.889  1.00  0.00     0.064 A 
ATOM     60  C   UNL A   1      41.185  28.240  27.779  1.00  0.00     0.173 A 
ATOM     61  C   UNL A   1      39.678  26.701  28.846  1.00  0.00     0.173 A 
ATOM     62  F   UNL A   1      41.880  29.389  27.764  1.00  0.00    -0.203 F 
ATOM     63  C   UNL A   1      41.237  27.413  26.661  1.00  0.00     0.198 A 
ATOM     64  C   UNL A   1      39.760  25.858  27.739  1.00  0.00     0.198 A 
ATOM     65  F   UNL A   1      38.910  26.330  29.881  1.00  0.00    -0.203 F 
ATOM     66  F   UNL A   1      41.959  27.777  25.593  1.00  0.00    -0.200 F 
ATOM     67  C   UNL A   1      40.531  26.219  26.645  1.00  0.00     0.200 A 
ATOM     68  F   UNL A   1      39.091  24.698  27.732  1.00  0.00    -0.200 F 
ATOM     69  F   UNL A   1      40.589  25.419  25.571  1.00  0.00    -0.200 F 
ENDBRANCH  45  59
BRANCH  46  70
ATOM     70  C   UNL A   1      39.499  33.840  36.879  1.00  0.00     0.064 A 
ATOM     71  C   UNL A   1      38.734  33.423  37.976  1.00  0.00     0.173 A 
ATOM     72  C   UNL A   1      40.110  35.102  36.953  1.00  0.00     0.173 A 
ATOM     73  F   UNL A   1      38.114  32.233  37.946  1.00  0.00    -0.203 F 
ATOM     74  C   UNL A   1      38.562  34.243  39.090  1.00  0.00     0.198 A 
ATOM     75  C   UNL A   1      39.965  35.907  38.081  1.00  0.00     0.198 A 
ATOM     76  F   UNL A   1      40.858  35.548  35.934  1.00  0.00    -0.203 F 
ATOM     77  F   UNL A   1      37.780  33.841  40.101  1.00  0.00    -0.200 F 
ATOM     78  C   UNL A   1      39.183  35.482  39.143  1.00  0.00     0.200 A 
ATOM     79  F   UNL A   1      40.580  37.096  38.136  1.00  0.00    -0.200 F 
ATOM     80  F   UNL A   1      39.019  36.269  40.215  1.00  0.00    -0.200 F 
ENDBRANCH  46  70
BRANCH  58  81
ATOM     81  C   UNL A   1      43.884  28.705  35.153  1.00  0.00     0.064 A 
ATOM     82  C   UNL A   1      43.741  27.616  36.027  1.00  0.00     0.173 A 
ATOM     83  C   UNL A   1      45.179  29.198  34.926  1.00  0.00     0.173 A 
ATOM     84  F   UNL A   1      42.524  27.116  36.290  1.00  0.00    -0.203 F 
ATOM     85  C   UNL A   1      44.846  27.066  36.671  1.00  0.00     0.198 A 
ATOM     86  C   UNL A   1      46.285  28.621  35.544  1.00  0.00     0.198 A 
ATOM     87  F   UNL A   1      45.374  30.232  34.095  1.00  0.00    -0.203 F 
ATOM     88  F   UNL A   1      44.679  26.063  37.545  1.00  0.00    -0.200 F 
ATOM     89  C   UNL A   1      46.117  27.562  36.424  1.00  0.00     0.200 A 
ATOM     90  F   UNL A   1      47.513  29.093  35.291  1.00  0.00    -0.200 F 
ATOM     91  F   UNL A   1      47.179  27.026  37.038  1.00  0.00    -0.200 F 
ENDBRANCH  58  81
ENDBRANCH  32  33
ENDBRANCH  24  27
ENDBRANCH  22  23
ENDBRANCH  21  22
ENDBRANCH   1  21
TORSDOF 13
ENDMDL
MODEL 2
REMARK VINA RESULT:     -12.3      0.130      1.977
REMARK SMILES C[C@@H](C(=O)NCCCNC(=O)c1ccc(-c2c3nc(c(-c4c(F)c(F)c(F)c(F)c4F)c4ccc([nH]4)c(-c4c(F)c(F)c(F)c(F)c4F)c4nc(c(-c5c(F)c(F)c(F)c(F)c5F)c5ccc2[nH]5)C=C4)C=C3)cc1)c1ccc(Cc2ccoc2)cc1F
REMARK SMILES IDX 6 1 5 2 3 3 4 4 2 6 1 7 75 8 76 9 86 10 77 11 85 12 87 13
REMARK SMILES IDX 78 14 79 15 80 16 81 17 84 18 82 19 83 20 7 21 8 22 9 23
REMARK SMILES IDX 10 24 11 26 12 27 13 28 74 29 14 30 73 31 15 32 16 33 17 34
REMARK SMILES IDX 67 35 18 36 72 37 66 38 68 39 19 40 71 41 65 42 64 43 20 45
REMARK SMILES IDX 52 46 32 47 51 48 33 49 36 50 50 51 69 52 34 53 35 54 49 56
REMARK SMILES IDX 70 57 37 58 21 59 22 60 30 61 23 62 24 63 28 64 31 65 25 66
REMARK SMILES IDX 26 67 29 68 27 69 53 70 54 71 62 72 55 73 56 74 60 75 63 76
REMARK SMILES IDX 57 77 58 78 61 79 59 80 38 81 39 82 47 83 40 84 41 85 45 86
REMARK SMILES IDX 48 87 42 88 43 89 46 90 44 91
REMARK H PARENT 5 5 9 25 68 44 36 55
REMARK Flexibility Score: inf
ROOT
ATOM      1  C   UNL A   1      31.481  30.843  25.947  1.00  0.00     0.117 C 
ENDROOT
BRANCH   1   2
ATOM      2  N   UNL A   1      32.786  30.295  26.261  1.00  0.00    -0.356 N 
ATOM      3  C   UNL A   1      33.286  29.026  26.150  1.00  0.00     0.227 C 
ATOM      4  O   UNL A   1      34.508  28.937  26.271  1.00  0.00    -0.274 OA
ATOM      5  H   UNL A   1      33.426  30.952  26.620  1.00  0.00     0.163 HD
BRANCH   3   6
ATOM      6  C   UNL A   1      32.358  27.851  25.793  1.00  0.00     0.108 C 
ATOM      7  C   UNL A   1      31.479  27.379  26.953  1.00  0.00     0.023 C 
BRANCH   6   8
ATOM      8  C   UNL A   1      33.020  26.609  25.200  1.00  0.00    -0.000 A 
ATOM      9  C   UNL A   1      33.421  25.586  26.078  1.00  0.00     0.008 A 
ATOM     10  C   UNL A   1      33.380  26.478  23.853  1.00  0.00     0.127 A 
ATOM     11  C   UNL A   1      34.114  24.464  25.616  1.00  0.00     0.004 A 
ATOM     12  C   UNL A   1      34.044  25.343  23.379  1.00  0.00     0.043 A 
ATOM     13  F   UNL A   1      33.153  27.468  22.981  1.00  0.00    -0.207 F 
ATOM     14  C   UNL A   1      34.425  24.320  24.257  1.00  0.00    -0.041 A 
BRANCH  14  15
ATOM     15  C   UNL A   1      35.138  23.089  23.753  1.00  0.00     0.074 C 
BRANCH  15  16
ATOM     16  C   UNL A   1      34.326  21.900  24.143  1.00  0.00    -0.005 A 
ATOM     17  C   UNL A   1      32.985  21.579  23.770  1.00  0.00     0.046 A 
ATOM     18  C   UNL A   1      34.753  20.818  24.890  1.00  0.00     0.198 A 
ATOM     19  C   UNL A   1      32.704  20.349  24.319  1.00  0.00     0.195 A 
ATOM     20  O   UNL A   1      33.778  19.881  25.000  1.00  0.00    -0.472 OA
ENDBRANCH  15  16
ENDBRANCH  14  15
ENDBRANCH   6   8
ENDBRANCH   3   6
ENDBRANCH   1   2
BRANCH   1  21
ATOM     21  C   UNL A   1      31.274  32.241  26.523  1.00  0.00     0.042 C 
BRANCH  21  22
ATOM     22  C   UNL A   1      32.484  32.818  27.248  1.00  0.00     0.118 C 
BRANCH  22  23
ATOM     23  N   UNL A   1      32.322  34.221  27.598  1.00  0.00    -0.352 N 
ATOM     24  C   UNL A   1      32.973  34.976  28.539  1.00  0.00     0.251 C 
ATOM     25  H   UNL A   1      31.640  34.703  27.077  1.00  0.00     0.163 HD
ATOM     26  O   UNL A   1      32.563  36.107  28.802  1.00  0.00    -0.269 OA
BRANCH  24  27
ATOM     27  C   UNL A   1      34.144  34.437  29.264  1.00  0.00     0.039 A 
ATOM     28  C   UNL A   1      33.939  33.799  30.490  1.00  0.00     0.014 A 
ATOM     29  C   UNL A   1      35.440  34.577  28.760  1.00  0.00     0.014 A 
ATOM     30  C   UNL A   1      35.022  33.246  31.176  1.00  0.00     0.010 A 
ATOM     31  C   UNL A   1      36.507  33.953  29.402  1.00  0.00     0.010 A 
ATOM     32  C   UNL A   1      36.311  33.284  30.620  1.00  0.00    -0.014 A 
BRANCH  32  33
ATOM     33  C   UNL A   1      37.459  32.628  31.299  1.00  0.00     0.031 A 
ATOM     34  C   UNL A   1      38.183  31.487  30.637  1.00  0.00     0.074 A 
ATOM     35  C   UNL A   1      37.816  33.025  32.536  1.00  0.00     0.049 A 
ATOM     36  N   UNL A   1      39.171  30.758  31.092  1.00  0.00    -0.248 NA
ATOM     37  C   UNL A   1      37.720  31.099  29.296  1.00  0.00     0.031 C 
ATOM     38  C   UNL A   1      37.163  34.087  33.303  1.00  0.00     0.029 A 
ATOM     39  N   UNL A   1      38.809  32.576  33.371  1.00  0.00    -0.354 N 
ATOM     40  C   UNL A   1      39.441  29.824  30.099  1.00  0.00     0.074 A 
ATOM     41  C   UNL A   1      38.473  30.038  29.045  1.00  0.00     0.031 C 
ATOM     42  C   UNL A   1      37.788  34.225  34.483  1.00  0.00     0.029 A 
ATOM     43  C   UNL A   1      38.855  33.235  34.576  1.00  0.00     0.049 A 
ATOM     44  H   UNL A   1      39.430  31.852  33.129  1.00  0.00     0.167 HD
ATOM     45  C   UNL A   1      40.421  28.891  30.060  1.00  0.00     0.037 A 
ATOM     46  C   UNL A   1      39.660  33.052  35.640  1.00  0.00     0.037 A 
ATOM     47  C   UNL A   1      41.390  28.688  31.107  1.00  0.00     0.049 A 
ATOM     48  C   UNL A   1      40.727  31.991  35.579  1.00  0.00     0.074 A 
ATOM     49  C   UNL A   1      42.451  27.801  31.142  1.00  0.00     0.029 A 
ATOM     50  N   UNL A   1      41.410  29.380  32.310  1.00  0.00    -0.354 N 
ATOM     51  N   UNL A   1      41.016  31.162  34.607  1.00  0.00    -0.248 NA
ATOM     52  C   UNL A   1      41.584  31.847  36.764  1.00  0.00     0.031 C 
ATOM     53  C   UNL A   1      43.079  27.916  32.386  1.00  0.00     0.029 A 
ATOM     54  C   UNL A   1      42.449  28.921  33.103  1.00  0.00     0.049 A 
ATOM     55  H   UNL A   1      40.778  30.092  32.563  1.00  0.00     0.167 HD
ATOM     56  C   UNL A   1      42.105  30.421  35.047  1.00  0.00     0.074 A 
ATOM     57  C   UNL A   1      42.437  30.913  36.368  1.00  0.00     0.031 C 
ATOM     58  C   UNL A   1      42.772  29.425  34.414  1.00  0.00     0.037 A 
BRANCH  45  59
ATOM     59  C   UNL A   1      40.499  28.016  28.840  1.00  0.00     0.064 A 
ATOM     60  C   UNL A   1      39.800  26.802  28.757  1.00  0.00     0.173 A 
ATOM     61  C   UNL A   1      41.251  28.415  27.723  1.00  0.00     0.173 A 
ATOM     62  F   UNL A   1      39.074  26.369  29.800  1.00  0.00    -0.203 F 
ATOM     63  C   UNL A   1      39.877  26.004  27.619  1.00  0.00     0.198 A 
ATOM     64  C   UNL A   1      41.297  27.631  26.572  1.00  0.00     0.198 A 
ATOM     65  F   UNL A   1      41.932  29.570  27.743  1.00  0.00    -0.203 F 
ATOM     66  F   UNL A   1      39.244  24.823  27.586  1.00  0.00    -0.200 F 
ATOM     67  C   UNL A   1      40.619  26.423  26.525  1.00  0.00     0.200 A 
ATOM     68  F   UNL A   1      42.001  28.045  25.510  1.00  0.00    -0.200 F 
ATOM     69  F   UNL A   1      40.685  25.658  25.425  1.00  0.00    -0.200 F 
ENDBRANCH  45  59
BRANCH  46  70
ATOM     70  C   UNL A   1      39.501  33.904  36.849  1.00  0.00     0.064 A 
ATOM     71  C   UNL A   1      40.118  35.160  36.935  1.00  0.00     0.173 A 
ATOM     72  C   UNL A   1      38.745  33.474  37.951  1.00  0.00     0.173 A 
ATOM     73  F   UNL A   1      40.868  35.608  35.916  1.00  0.00    -0.203 F 
ATOM     74  C   UNL A   1      40.008  35.941  38.084  1.00  0.00     0.198 A 
ATOM     75  C   UNL A   1      38.607  34.270  39.085  1.00  0.00     0.198 A 
ATOM     76  F   UNL A   1      38.129  32.283  37.920  1.00  0.00    -0.203 F 
ATOM     77  F   UNL A   1      40.653  37.112  38.159  1.00  0.00    -0.200 F 
ATOM     78  C   UNL A   1      39.247  35.497  39.155  1.00  0.00     0.200 A 
ATOM     79  F   UNL A   1      37.858  33.846  40.112  1.00  0.00    -0.200 F 
ATOM     80  F   UNL A   1      39.140  36.249  40.259  1.00  0.00    -0.200 F 
ENDBRANCH  46  70
BRANCH  58  81
ATOM     81  C   UNL A   1      43.953  28.826  35.124  1.00  0.00     0.064 A 
ATOM     82  C   UNL A   1      45.253  29.325  34.951  1.00  0.00     0.173 A 
ATOM     83  C   UNL A   1      43.776  27.756  36.016  1.00  0.00     0.173 A 
ATOM     84  F   UNL A   1      45.480  30.337  34.098  1.00  0.00    -0.203 F 
ATOM     85  C   UNL A   1      46.334  28.756  35.618  1.00  0.00     0.198 A 
ATOM     86  C   UNL A   1      44.853  27.213  36.710  1.00  0.00     0.198 A 
ATOM     87  F   UNL A   1      42.553  27.245  36.225  1.00  0.00    -0.203 F 
ATOM     88  F   UNL A   1      47.574  29.212  35.394  1.00  0.00    -0.200 F 
ATOM     89  C   UNL A   1      46.133  27.707  36.503  1.00  0.00     0.200 A 
ATOM     90  F   UNL A   1      44.654  26.210  37.576  1.00  0.00    -0.200 F 
ATOM     91  F   UNL A   1      47.173  27.165  37.151  1.00  0.00    -0.200 F 
ENDBRANCH  58  81
ENDBRANCH  32  33
ENDBRANCH  24  27
ENDBRANCH  22  23
ENDBRANCH  21  22
ENDBRANCH   1  21
TORSDOF 13
ENDMDL
MODEL 3
REMARK VINA RESULT:     -12.1      0.607      7.589
REMARK SMILES C[C@@H](C(=O)NCCCNC(=O)c1ccc(-c2c3nc(c(-c4c(F)c(F)c(F)c(F)c4F)c4ccc([nH]4)c(-c4c(F)c(F)c(F)c(F)c4F)c4nc(c(-c5c(F)c(F)c(F)c(F)c5F)c5ccc2[nH]5)C=C4)C=C3)cc1)c1ccc(Cc2ccoc2)cc1F
REMARK SMILES IDX 6 1 5 2 3 3 4 4 2 6 1 7 75 8 76 9 86 10 77 11 85 12 87 13
REMARK SMILES IDX 78 14 79 15 80 16 81 17 84 18 82 19 83 20 7 21 8 22 9 23
REMARK SMILES IDX 10 24 11 26 12 27 13 28 74 29 14 30 73 31 15 32 16 33 17 34
REMARK SMILES IDX 67 35 18 36 72 37 66 38 68 39 19 40 71 41 65 42 64 43 20 45
REMARK SMILES IDX 52 46 32 47 51 48 33 49 36 50 50 51 69 52 34 53 35 54 49 56
REMARK SMILES IDX 70 57 37 58 21 59 22 60 30 61 23 62 24 63 28 64 31 65 25 66
REMARK SMILES IDX 26 67 29 68 27 69 53 70 54 71 62 72 55 73 56 74 60 75 63 76
REMARK SMILES IDX 57 77 58 78 61 79 59 80 38 81 39 82 47 83 40 84 41 85 45 86
REMARK SMILES IDX 48 87 42 88 43 89 46 90 44 91
REMARK H PARENT 5 5 9 25 68 44 36 55
REMARK Flexibility Score: inf
ROOT
ATOM      1  C   UNL A   1      31.472  30.845  26.081  1.00  0.00     0.117 C 
ENDROOT
BRANCH   1   2
ATOM      2  N   UNL A   1      32.788  30.276  26.302  1.00  0.00    -0.356 N 
ATOM      3  C   UNL A   1      33.271  29.011  26.109  1.00  0.00     0.227 C 
ATOM      4  O   UNL A   1      34.497  28.909  26.163  1.00  0.00    -0.274 OA
ATOM      5  H   UNL A   1      33.451  30.913  26.655  1.00  0.00     0.163 HD
BRANCH   3   6
ATOM      6  C   UNL A   1      32.317  27.858  25.750  1.00  0.00     0.108 C 
ATOM      7  C   UNL A   1      31.402  27.429  26.898  1.00  0.00     0.023 C 
BRANCH   6   8
ATOM      8  C   UNL A   1      32.955  26.589  25.188  1.00  0.00    -0.000 A 
ATOM      9  C   UNL A   1      33.310  25.569  26.088  1.00  0.00     0.008 A 
ATOM     10  C   UNL A   1      33.335  26.427  23.850  1.00  0.00     0.127 A 
ATOM     11  C   UNL A   1      33.980  24.421  25.655  1.00  0.00     0.004 A 
ATOM     12  C   UNL A   1      33.975  25.267  23.405  1.00  0.00     0.043 A 
ATOM     13  F   UNL A   1      33.151  27.410  22.959  1.00  0.00    -0.207 F 
ATOM     14  C   UNL A   1      34.311  24.247  24.305  1.00  0.00    -0.041 A 
BRANCH  14  15
ATOM     15  C   UNL A   1      34.998  22.990  23.833  1.00  0.00     0.074 C 
BRANCH  15  16
ATOM     16  C   UNL A   1      34.165  21.828  24.256  1.00  0.00    -0.005 A 
ATOM     17  C   UNL A   1      32.836  21.494  23.854  1.00  0.00     0.046 A 
ATOM     18  C   UNL A   1      34.558  20.786  25.076  1.00  0.00     0.198 A 
ATOM     19  C   UNL A   1      32.527  20.298  24.458  1.00  0.00     0.195 A 
ATOM     20  O   UNL A   1      33.572  19.861  25.201  1.00  0.00    -0.472 OA
ENDBRANCH  15  16
ENDBRANCH  14  15
ENDBRANCH   6   8
ENDBRANCH   3   6
ENDBRANCH   1   2
BRANCH   1  21
ATOM     21  C   UNL A   1      31.384  32.310  26.501  1.00  0.00     0.042 C 
BRANCH  21  22
ATOM     22  C   UNL A   1      32.662  32.877  27.109  1.00  0.00     0.118 C 
BRANCH  22  23
ATOM     23  N   UNL A   1      32.492  34.221  27.640  1.00  0.00    -0.352 N 
ATOM     24  C   UNL A   1      33.119  34.840  28.690  1.00  0.00     0.251 C 
ATOM     25  H   UNL A   1      31.823  34.771  27.172  1.00  0.00     0.163 HD
ATOM     26  O   UNL A   1      32.703  35.928  29.091  1.00  0.00    -0.269 OA
BRANCH  24  27
ATOM     27  C   UNL A   1      34.272  34.205  29.364  1.00  0.00     0.039 A 
ATOM     28  C   UNL A   1      34.027  33.296  30.397  1.00  0.00     0.014 A 
ATOM     29  C   UNL A   1      35.586  34.515  29.007  1.00  0.00     0.014 A 
ATOM     30  C   UNL A   1      35.094  32.651  31.024  1.00  0.00     0.010 A 
ATOM     31  C   UNL A   1      36.646  33.810  29.574  1.00  0.00     0.010 A 
ATOM     32  C   UNL A   1      36.413  32.874  30.593  1.00  0.00    -0.014 A 
BRANCH  32  33
ATOM     33  C   UNL A   1      37.552  32.134  31.195  1.00  0.00     0.031 A 
ATOM     34  C   UNL A   1      38.041  32.481  32.575  1.00  0.00     0.074 A 
ATOM     35  C   UNL A   1      38.181  31.183  30.478  1.00  0.00     0.049 A 
ATOM     36  N   UNL A   1      39.050  31.984  33.246  1.00  0.00    -0.248 NA
ATOM     37  C   UNL A   1      37.315  33.545  33.285  1.00  0.00     0.031 C 
ATOM     38  C   UNL A   1      37.833  30.786  29.113  1.00  0.00     0.029 A 
ATOM     39  N   UNL A   1      39.252  30.382  30.792  1.00  0.00    -0.354 N 
ATOM     40  C   UNL A   1      39.082  32.678  34.449  1.00  0.00     0.074 A 
ATOM     41  C   UNL A   1      38.033  33.672  34.391  1.00  0.00     0.031 C 
ATOM     42  C   UNL A   1      38.656  29.802  28.716  1.00  0.00     0.029 A 
ATOM     43  C   UNL A   1      39.616  29.528  29.780  1.00  0.00     0.049 A 
ATOM     44  H   UNL A   1      39.713  30.416  31.661  1.00  0.00     0.167 HD
ATOM     45  C   UNL A   1      39.897  32.486  35.514  1.00  0.00     0.037 A 
ATOM     46  C   UNL A   1      40.620  28.633  29.712  1.00  0.00     0.037 A 
ATOM     47  C   UNL A   1      40.933  31.486  35.572  1.00  0.00     0.049 A 
ATOM     48  C   UNL A   1      41.526  28.456  30.902  1.00  0.00     0.074 A 
ATOM     49  C   UNL A   1      41.780  31.181  36.623  1.00  0.00     0.029 A 
ATOM     50  N   UNL A   1      41.268  30.634  34.530  1.00  0.00    -0.354 N 
ATOM     51  N   UNL A   1      41.502  29.069  32.060  1.00  0.00    -0.248 NA
ATOM     52  C   UNL A   1      42.595  27.455  30.776  1.00  0.00     0.031 C 
ATOM     53  C   UNL A   1      42.663  30.184  36.199  1.00  0.00     0.029 A 
ATOM     54  C   UNL A   1      42.326  29.821  34.905  1.00  0.00     0.049 A 
ATOM     55  H   UNL A   1      40.820  30.611  33.653  1.00  0.00     0.167 HD
ATOM     56  C   UNL A   1      42.527  28.508  32.811  1.00  0.00     0.074 A 
ATOM     57  C   UNL A   1      43.142  27.492  31.983  1.00  0.00     0.031 C 
ATOM     58  C   UNL A   1      42.923  28.808  34.072  1.00  0.00     0.037 A 
BRANCH  45  59
ATOM     59  C   UNL A   1      39.697  33.374  36.710  1.00  0.00     0.064 A 
ATOM     60  C   UNL A   1      38.809  33.034  37.742  1.00  0.00     0.173 A 
ATOM     61  C   UNL A   1      40.432  34.563  36.846  1.00  0.00     0.173 A 
ATOM     62  F   UNL A   1      38.075  31.913  37.658  1.00  0.00    -0.203 F 
ATOM     63  C   UNL A   1      38.638  33.864  38.847  1.00  0.00     0.198 A 
ATOM     64  C   UNL A   1      40.284  35.374  37.970  1.00  0.00     0.198 A 
ATOM     65  F   UNL A   1      41.301  34.935  35.895  1.00  0.00    -0.203 F 
ATOM     66  F   UNL A   1      37.744  33.543  39.792  1.00  0.00    -0.200 F 
ATOM     67  C   UNL A   1      39.381  35.029  38.963  1.00  0.00     0.200 A 
ATOM     68  F   UNL A   1      41.015  36.490  38.088  1.00  0.00    -0.200 F 
ATOM     69  F   UNL A   1      39.222  35.823  40.032  1.00  0.00    -0.200 F 
ENDBRANCH  45  59
BRANCH  46  70
ATOM     70  C   UNL A   1      40.814  27.821  28.481  1.00  0.00     0.064 A 
ATOM     71  C   UNL A   1      41.655  28.261  27.450  1.00  0.00     0.173 A 
ATOM     72  C   UNL A   1      40.150  26.597  28.302  1.00  0.00     0.173 A 
ATOM     73  F   UNL A   1      42.297  29.433  27.564  1.00  0.00    -0.203 F 
ATOM     74  C   UNL A   1      41.804  27.523  26.276  1.00  0.00     0.198 A 
ATOM     75  C   UNL A   1      40.326  25.844  27.144  1.00  0.00     0.198 A 
ATOM     76  F   UNL A   1      39.338  26.126  29.260  1.00  0.00    -0.203 F 
ATOM     77  F   UNL A   1      42.571  27.996  25.285  1.00  0.00    -0.200 F 
ATOM     78  C   UNL A   1      41.143  26.313  26.127  1.00  0.00     0.200 A 
ATOM     79  F   UNL A   1      39.699  24.667  27.010  1.00  0.00    -0.200 F 
ATOM     80  F   UNL A   1      41.289  25.604  25.000  1.00  0.00    -0.200 F 
ENDBRANCH  46  70
BRANCH  58  81
ATOM     81  C   UNL A   1      44.049  27.999  34.652  1.00  0.00     0.064 A 
ATOM     82  C   UNL A   1      45.385  28.419  34.564  1.00  0.00     0.173 A 
ATOM     83  C   UNL A   1      43.783  26.801  35.334  1.00  0.00     0.173 A 
ATOM     84  F   UNL A   1      45.696  29.549  33.910  1.00  0.00    -0.203 F 
ATOM     85  C   UNL A   1      46.414  27.655  35.109  1.00  0.00     0.198 A 
ATOM     86  C   UNL A   1      44.810  26.058  35.909  1.00  0.00     0.198 A 
ATOM     87  F   UNL A   1      42.523  26.356  35.454  1.00  0.00    -0.203 F 
ATOM     88  F   UNL A   1      47.687  28.047  34.963  1.00  0.00    -0.200 F 
ATOM     89  C   UNL A   1      46.126  26.480  35.787  1.00  0.00     0.200 A 
ATOM     90  F   UNL A   1      44.527  24.932  36.578  1.00  0.00    -0.200 F 
ATOM     91  F   UNL A   1      47.116  25.750  36.318  1.00  0.00    -0.200 F 
ENDBRANCH  58  81
ENDBRANCH  32  33
ENDBRANCH  24  27
ENDBRANCH  22  23
ENDBRANCH  21  22
ENDBRANCH   1  21
TORSDOF 13
ENDMDL
