MODEL 1
REMARK VINA RESULT:     -11.4      0.000      0.000
REMARK SMILES CCCCCCNC(=O)Oc1cccc(-c2ccc([C@@H](C)C(=O)NCCCNC(=O)c3ccc(-c4c5nc(c(-c6c(F)c(F)c(F)c(F)c6F)c6ccc([nH]6)c(-c6c(F)c(F)c(F)c(F)c6F)c6nc(c(-c7c(F)c(F)c(F)c(F)c7F)c7ccc4[nH]7)C=C6)C=C5)cc3)cc2F)c1
REMARK SMILES IDX 16 1 17 2 18 3 19 4 94 5 95 6 96 7 15 8 11 9 12 10 97 11
REMARK SMILES IDX 13 12 14 13 10 14 8 15 7 16 9 18 6 19 5 20 4 21 3 22 2 23
REMARK SMILES IDX 1 24 20 25 21 26 22 27 23 28 24 29 25 31 26 32 27 33 28 34
REMARK SMILES IDX 29 35 30 37 31 38 32 39 93 40 33 41 92 42 34 43 35 44 36 45
REMARK SMILES IDX 86 46 37 47 91 48 85 49 87 50 38 51 90 52 84 53 83 54 39 56
REMARK SMILES IDX 71 57 51 58 70 59 52 60 55 61 69 62 88 63 53 64 54 65 68 67
REMARK SMILES IDX 89 68 56 69 40 70 41 71 49 72 42 73 43 74 47 75 50 76 44 77
REMARK SMILES IDX 45 78 48 79 46 80 72 81 73 82 81 83 74 84 75 85 79 86 82 87
REMARK SMILES IDX 76 88 77 89 80 90 78 91 57 92 58 93 66 94 59 95 60 96 64 97
REMARK SMILES IDX 67 98 61 99 62 100 65 101 63 102
REMARK H PARENT 7 17 24 30 28 36 87 55 55 66
REMARK Flexibility Score: inf
ROOT
ATOM      1  C   UNL A   1      32.138  23.326  22.899  1.00  0.00     0.018 A 
ATOM      2  C   UNL A   1      32.952  24.101  22.055  1.00  0.00     0.012 A 
ATOM      3  C   UNL A   1      32.812  25.492  21.962  1.00  0.00     0.005 A 
ATOM      4  C   UNL A   1      31.801  26.164  22.650  1.00  0.00    -0.033 A 
ATOM      5  C   UNL A   1      30.985  25.406  23.501  1.00  0.00     0.044 A 
ATOM      6  C   UNL A   1      31.169  24.025  23.635  1.00  0.00     0.131 A 
ATOM      7  F   UNL A   1      30.382  23.384  24.514  1.00  0.00    -0.206 F 
ENDROOT
BRANCH   1   8
ATOM      8  C   UNL A   1      32.315  21.855  22.981  1.00  0.00    -0.012 A 
ATOM      9  C   UNL A   1      33.081  19.854  24.140  1.00  0.00     0.133 A 
ATOM     10  C   UNL A   1      32.615  19.035  23.118  1.00  0.00     0.047 A 
ATOM     11  C   UNL A   1      32.938  21.244  24.083  1.00  0.00     0.056 A 
ATOM     12  C   UNL A   1      31.989  19.614  22.023  1.00  0.00     0.004 A 
ATOM     13  C   UNL A   1      31.854  21.005  21.953  1.00  0.00     0.009 A 
BRANCH   9  14
ATOM     14  O   UNL A   1      33.832  19.237  25.153  1.00  0.00    -0.410 OA
BRANCH  14  15
ATOM     15  C   UNL A   1      34.999  18.573  24.810  1.00  0.00     0.412 C 
ATOM     16  N   UNL A   1      36.106  19.374  24.899  1.00  0.00    -0.321 N 
ATOM     17  H   UNL A   1      36.966  18.970  24.640  1.00  0.00     0.167 HD
ATOM     18  O   UNL A   1      35.087  17.408  24.449  1.00  0.00    -0.224 OA
BRANCH  16  19
ATOM     19  C   UNL A   1      36.140  20.755  25.336  1.00  0.00     0.119 C 
BRANCH  19  20
ATOM     20  C   UNL A   1      36.871  21.653  24.338  1.00  0.00     0.021 C 
BRANCH  20  21
ATOM     21  C   UNL A   1      36.123  22.940  23.965  1.00  0.00     0.002 C 
BRANCH  21  22
ATOM     22  C   UNL A   1      36.036  23.997  25.073  1.00  0.00    -0.000 C 
BRANCH  22  23
ATOM     23  C   UNL A   1      34.708  24.753  25.158  1.00  0.00    -0.003 C 
ATOM     24  C   UNL A   1      33.766  24.198  26.215  1.00  0.00     0.004 C 
ENDBRANCH  22  23
ENDBRANCH  21  22
ENDBRANCH  20  21
ENDBRANCH  19  20
ENDBRANCH  16  19
ENDBRANCH  14  15
ENDBRANCH   9  14
ENDBRANCH   1   8
BRANCH   4  25
ATOM     25  C   UNL A   1      31.544  27.655  22.494  1.00  0.00     0.105 C 
ATOM     26  C   UNL A   1      30.099  28.100  22.718  1.00  0.00     0.023 C 
BRANCH  25  27
ATOM     27  C   UNL A   1      32.599  28.536  23.178  1.00  0.00     0.227 C 
ATOM     28  O   UNL A   1      33.485  29.071  22.500  1.00  0.00    -0.274 OA
ATOM     29  N   UNL A   1      32.636  28.787  24.515  1.00  0.00    -0.356 N 
ATOM     30  H   UNL A   1      33.336  29.425  24.781  1.00  0.00     0.163 HD
BRANCH  29  31
ATOM     31  C   UNL A   1      31.839  28.293  25.620  1.00  0.00     0.117 C 
BRANCH  31  32
ATOM     32  C   UNL A   1      32.695  27.635  26.701  1.00  0.00     0.042 C 
BRANCH  32  33
ATOM     33  C   UNL A   1      34.028  28.332  26.942  1.00  0.00     0.118 C 
BRANCH  33  34
ATOM     34  N   UNL A   1      33.856  29.711  27.385  1.00  0.00    -0.352 N 
ATOM     35  C   UNL A   1      34.667  30.517  28.143  1.00  0.00     0.251 C 
ATOM     36  H   UNL A   1      33.017  30.134  27.090  1.00  0.00     0.163 HD
ATOM     37  O   UNL A   1      34.222  31.578  28.572  1.00  0.00    -0.269 OA
BRANCH  35  38
ATOM     38  C   UNL A   1      36.062  30.132  28.461  1.00  0.00     0.039 A 
ATOM     39  C   UNL A   1      36.331  29.560  29.710  1.00  0.00     0.014 A 
ATOM     40  C   UNL A   1      37.114  30.384  27.577  1.00  0.00     0.014 A 
ATOM     41  C   UNL A   1      37.638  29.193  30.047  1.00  0.00     0.010 A 
ATOM     42  C   UNL A   1      38.402  29.945  27.880  1.00  0.00     0.010 A 
ATOM     43  C   UNL A   1      38.680  29.356  29.122  1.00  0.00    -0.014 A 
BRANCH  43  44
ATOM     44  C   UNL A   1      40.071  28.938  29.438  1.00  0.00     0.031 A 
ATOM     45  C   UNL A   1      40.971  29.847  30.229  1.00  0.00     0.074 A 
ATOM     46  C   UNL A   1      40.544  27.772  28.956  1.00  0.00     0.049 A 
ATOM     47  N   UNL A   1      42.238  29.708  30.525  1.00  0.00    -0.248 NA
ATOM     48  C   UNL A   1      40.371  31.093  30.732  1.00  0.00     0.031 C 
ATOM     49  C   UNL A   1      39.784  26.822  28.143  1.00  0.00     0.029 A 
ATOM     50  N   UNL A   1      41.785  27.196  29.068  1.00  0.00    -0.354 N 
ATOM     51  C   UNL A   1      42.591  30.854  31.226  1.00  0.00     0.074 A 
ATOM     52  C   UNL A   1      41.418  31.699  31.272  1.00  0.00     0.031 C 
ATOM     53  C   UNL A   1      40.568  25.775  27.843  1.00  0.00     0.029 A 
ATOM     54  C   UNL A   1      41.895  25.996  28.407  1.00  0.00     0.049 A 
ATOM     55  H   UNL A   1      42.525  27.603  29.573  1.00  0.00     0.167 HD
ATOM     56  C   UNL A   1      43.779  31.163  31.797  1.00  0.00     0.037 A 
ATOM     57  C   UNL A   1      42.952  25.174  28.264  1.00  0.00     0.037 A 
ATOM     58  C   UNL A   1      44.936  30.306  31.775  1.00  0.00     0.049 A 
ATOM     59  C   UNL A   1      44.262  25.543  28.907  1.00  0.00     0.074 A 
ATOM     60  C   UNL A   1      46.167  30.501  32.377  1.00  0.00     0.029 A 
ATOM     61  N   UNL A   1      45.001  29.088  31.115  1.00  0.00    -0.354 N 
ATOM     62  N   UNL A   1      44.566  26.600  29.619  1.00  0.00    -0.248 NA
ATOM     63  C   UNL A   1      45.375  24.600  28.727  1.00  0.00     0.031 C 
ATOM     64  C   UNL A   1      46.991  29.421  32.046  1.00  0.00     0.029 A 
ATOM     65  C   UNL A   1      46.259  28.529  31.278  1.00  0.00     0.049 A 
ATOM     66  H   UNL A   1      44.264  28.681  30.606  1.00  0.00     0.167 HD
ATOM     67  C   UNL A   1      45.892  26.438  29.996  1.00  0.00     0.074 A 
ATOM     68  C   UNL A   1      46.332  25.173  29.443  1.00  0.00     0.031 C 
ATOM     69  C   UNL A   1      46.676  27.263  30.732  1.00  0.00     0.037 A 
BRANCH  56  70
ATOM     70  C   UNL A   1      43.888  32.486  32.500  1.00  0.00     0.064 A 
ATOM     71  C   UNL A   1      44.295  33.647  31.824  1.00  0.00     0.173 A 
ATOM     72  C   UNL A   1      43.551  32.602  33.857  1.00  0.00     0.173 A 
ATOM     73  F   UNL A   1      44.638  33.589  30.529  1.00  0.00    -0.203 F 
ATOM     74  C   UNL A   1      44.389  34.867  32.489  1.00  0.00     0.198 A 
ATOM     75  C   UNL A   1      43.618  33.830  34.511  1.00  0.00     0.198 A 
ATOM     76  F   UNL A   1      43.149  31.526  34.549  1.00  0.00    -0.203 F 
ATOM     77  F   UNL A   1      44.829  35.951  31.833  1.00  0.00    -0.200 F 
ATOM     78  C   UNL A   1      44.045  34.959  33.828  1.00  0.00     0.200 A 
ATOM     79  F   UNL A   1      43.272  33.921  35.803  1.00  0.00    -0.200 F 
ATOM     80  F   UNL A   1      44.132  36.136  34.464  1.00  0.00    -0.200 F 
ENDBRANCH  56  70
BRANCH  57  81
ATOM     81  C   UNL A   1      42.808  23.907  27.502  1.00  0.00     0.064 A 
ATOM     82  C   UNL A   1      43.105  23.856  26.134  1.00  0.00     0.173 A 
ATOM     83  C   UNL A   1      42.374  22.726  28.121  1.00  0.00     0.173 A 
ATOM     84  F   UNL A   1      43.503  24.965  25.494  1.00  0.00    -0.203 F 
ATOM     85  C   UNL A   1      42.958  22.676  25.408  1.00  0.00     0.198 A 
ATOM     86  C   UNL A   1      42.254  21.539  27.401  1.00  0.00     0.198 A 
ATOM     87  F   UNL A   1      42.079  22.720  29.429  1.00  0.00    -0.203 F 
ATOM     88  F   UNL A   1      43.209  22.665  24.092  1.00  0.00    -0.200 F 
ATOM     89  C   UNL A   1      42.539  21.517  26.043  1.00  0.00     0.200 A 
ATOM     90  F   UNL A   1      41.861  20.417  28.019  1.00  0.00    -0.200 F 
ATOM     91  F   UNL A   1      42.403  20.380  25.347  1.00  0.00    -0.200 F 
ENDBRANCH  57  81
BRANCH  69  92
ATOM     92  C   UNL A   1      48.078  26.809  31.018  1.00  0.00     0.064 A 
ATOM     93  C   UNL A   1      48.374  25.986  32.114  1.00  0.00     0.173 A 
ATOM     94  C   UNL A   1      49.127  27.165  30.158  1.00  0.00     0.173 A 
ATOM     95  F   UNL A   1      47.408  25.631  32.974  1.00  0.00    -0.203 F 
ATOM     96  C   UNL A   1      49.677  25.554  32.350  1.00  0.00     0.198 A 
ATOM     97  C   UNL A   1      50.422  26.709  30.382  1.00  0.00     0.198 A 
ATOM     98  F   UNL A   1      48.893  27.947  29.093  1.00  0.00    -0.203 F 
ATOM     99  F   UNL A   1      49.946  24.803  33.428  1.00  0.00    -0.200 F 
ATOM    100  C   UNL A   1      50.697  25.909  31.480  1.00  0.00     0.200 A 
ATOM    101  F   UNL A   1      51.404  27.042  29.533  1.00  0.00    -0.200 F 
ATOM    102  F   UNL A   1      51.948  25.484  31.705  1.00  0.00    -0.200 F 
ENDBRANCH  69  92
ENDBRANCH  43  44
ENDBRANCH  35  38
ENDBRANCH  33  34
ENDBRANCH  32  33
ENDBRANCH  31  32
ENDBRANCH  29  31
ENDBRANCH  25  27
ENDBRANCH   4  25
TORSDOF 19
ENDMDL
MODEL 2
REMARK VINA RESULT:     -11.2      4.349      6.767
REMARK SMILES CCCCCCNC(=O)Oc1cccc(-c2ccc([C@@H](C)C(=O)NCCCNC(=O)c3ccc(-c4c5nc(c(-c6c(F)c(F)c(F)c(F)c6F)c6ccc([nH]6)c(-c6c(F)c(F)c(F)c(F)c6F)c6nc(c(-c7c(F)c(F)c(F)c(F)c7F)c7ccc4[nH]7)C=C6)C=C5)cc3)cc2F)c1
REMARK SMILES IDX 16 1 17 2 18 3 19 4 94 5 95 6 96 7 15 8 11 9 12 10 97 11
REMARK SMILES IDX 13 12 14 13 10 14 8 15 7 16 9 18 6 19 5 20 4 21 3 22 2 23
REMARK SMILES IDX 1 24 20 25 21 26 22 27 23 28 24 29 25 31 26 32 27 33 28 34
REMARK SMILES IDX 29 35 30 37 31 38 32 39 93 40 33 41 92 42 34 43 35 44 36 45
REMARK SMILES IDX 86 46 37 47 91 48 85 49 87 50 38 51 90 52 84 53 83 54 39 56
REMARK SMILES IDX 71 57 51 58 70 59 52 60 55 61 69 62 88 63 53 64 54 65 68 67
REMARK SMILES IDX 89 68 56 69 40 70 41 71 49 72 42 73 43 74 47 75 50 76 44 77
REMARK SMILES IDX 45 78 48 79 46 80 72 81 73 82 81 83 74 84 75 85 79 86 82 87
REMARK SMILES IDX 76 88 77 89 80 90 78 91 57 92 58 93 66 94 59 95 60 96 64 97
REMARK SMILES IDX 67 98 61 99 62 100 65 101 63 102
REMARK H PARENT 7 17 24 30 28 36 87 55 55 66
REMARK Flexibility Score: inf
ROOT
ATOM      1  C   UNL A   1      33.879  28.834  26.417  1.00  0.00     0.018 A 
ATOM      2  C   UNL A   1      35.042  28.996  27.189  1.00  0.00     0.012 A 
ATOM      3  C   UNL A   1      35.239  30.117  28.006  1.00  0.00     0.005 A 
ATOM      4  C   UNL A   1      34.318  31.165  28.030  1.00  0.00    -0.033 A 
ATOM      5  C   UNL A   1      33.150  31.015  27.270  1.00  0.00     0.044 A 
ATOM      6  C   UNL A   1      32.931  29.865  26.503  1.00  0.00     0.131 A 
ATOM      7  F   UNL A   1      31.761  29.777  25.850  1.00  0.00    -0.206 F 
ENDROOT
BRANCH   1   8
ATOM      8  C   UNL A   1      33.696  27.632  25.566  1.00  0.00    -0.012 A 
ATOM      9  C   UNL A   1      33.381  25.232  25.292  1.00  0.00     0.133 A 
ATOM     10  C   UNL A   1      33.322  25.356  23.909  1.00  0.00     0.047 A 
ATOM     11  C   UNL A   1      33.564  26.346  26.117  1.00  0.00     0.056 A 
ATOM     12  C   UNL A   1      33.441  26.616  23.340  1.00  0.00     0.004 A 
ATOM     13  C   UNL A   1      33.637  27.734  24.159  1.00  0.00     0.009 A 
BRANCH   9  14
ATOM     14  O   UNL A   1      33.400  23.928  25.810  1.00  0.00    -0.410 OA
BRANCH  14  15
ATOM     15  C   UNL A   1      32.258  23.434  26.421  1.00  0.00     0.412 C 
ATOM     16  N   UNL A   1      32.128  22.079  26.277  1.00  0.00    -0.321 N 
ATOM     17  H   UNL A   1      31.321  21.668  26.664  1.00  0.00     0.167 HD
ATOM     18  O   UNL A   1      31.420  24.091  27.022  1.00  0.00    -0.224 OA
BRANCH  16  19
ATOM     19  C   UNL A   1      33.059  21.187  25.614  1.00  0.00     0.119 C 
BRANCH  19  20
ATOM     20  C   UNL A   1      32.624  20.867  24.184  1.00  0.00     0.021 C 
BRANCH  20  21
ATOM     21  C   UNL A   1      32.278  19.393  23.934  1.00  0.00     0.002 C 
BRANCH  21  22
ATOM     22  C   UNL A   1      32.910  18.393  24.909  1.00  0.00    -0.000 C 
BRANCH  22  23
ATOM     23  C   UNL A   1      33.129  16.983  24.355  1.00  0.00    -0.003 C 
ATOM     24  C   UNL A   1      34.028  16.951  23.129  1.00  0.00     0.004 C 
ENDBRANCH  22  23
ENDBRANCH  21  22
ENDBRANCH  20  21
ENDBRANCH  19  20
ENDBRANCH  16  19
ENDBRANCH  14  15
ENDBRANCH   9  14
ENDBRANCH   1   8
BRANCH   4  25
ATOM     25  C   UNL A   1      34.543  32.447  28.816  1.00  0.00     0.105 C 
ATOM     26  C   UNL A   1      34.768  32.266  30.317  1.00  0.00     0.023 C 
BRANCH  25  27
ATOM     27  C   UNL A   1      35.514  33.423  28.136  1.00  0.00     0.227 C 
ATOM     28  O   UNL A   1      36.710  33.124  28.028  1.00  0.00    -0.274 OA
ATOM     29  N   UNL A   1      35.152  34.629  27.622  1.00  0.00    -0.356 N 
ATOM     30  H   UNL A   1      35.882  35.102  27.161  1.00  0.00     0.163 HD
BRANCH  29  31
ATOM     31  C   UNL A   1      33.894  35.350  27.624  1.00  0.00     0.117 C 
BRANCH  31  32
ATOM     32  C   UNL A   1      33.674  36.124  28.922  1.00  0.00     0.042 C 
BRANCH  32  33
ATOM     33  C   UNL A   1      32.796  35.397  29.933  1.00  0.00     0.118 C 
BRANCH  33  34
ATOM     34  N   UNL A   1      32.515  36.215  31.106  1.00  0.00    -0.352 N 
ATOM     35  C   UNL A   1      33.015  36.152  32.383  1.00  0.00     0.251 C 
ATOM     36  H   UNL A   1      31.857  36.932  30.958  1.00  0.00     0.163 HD
ATOM     37  O   UNL A   1      32.476  36.811  33.268  1.00  0.00    -0.269 OA
BRANCH  35  38
ATOM     38  C   UNL A   1      34.182  35.302  32.717  1.00  0.00     0.039 A 
ATOM     39  C   UNL A   1      35.449  35.701  32.276  1.00  0.00     0.014 A 
ATOM     40  C   UNL A   1      34.038  34.091  33.398  1.00  0.00     0.014 A 
ATOM     41  C   UNL A   1      36.571  34.918  32.565  1.00  0.00     0.010 A 
ATOM     42  C   UNL A   1      35.165  33.352  33.755  1.00  0.00     0.010 A 
ATOM     43  C   UNL A   1      36.441  33.750  33.333  1.00  0.00    -0.014 A 
BRANCH  43  44
ATOM     44  C   UNL A   1      37.621  32.921  33.690  1.00  0.00     0.031 A 
ATOM     45  C   UNL A   1      38.352  33.165  34.983  1.00  0.00     0.074 A 
ATOM     46  C   UNL A   1      38.076  31.996  32.823  1.00  0.00     0.049 A 
ATOM     47  N   UNL A   1      39.454  32.617  35.429  1.00  0.00    -0.248 NA
ATOM     48  C   UNL A   1      37.781  34.180  35.881  1.00  0.00     0.031 C 
ATOM     49  C   UNL A   1      37.479  31.692  31.521  1.00  0.00     0.029 A 
ATOM     50  N   UNL A   1      39.155  31.150  32.899  1.00  0.00    -0.354 N 
ATOM     51  C   UNL A   1      39.718  33.235  36.644  1.00  0.00     0.074 A 
ATOM     52  C   UNL A   1      38.689  34.232  36.844  1.00  0.00     0.031 C 
ATOM     53  C   UNL A   1      38.190  30.719  30.929  1.00  0.00     0.029 A 
ATOM     54  C   UNL A   1      39.312  30.358  31.789  1.00  0.00     0.049 A 
ATOM     55  H   UNL A   1      39.757  31.115  33.676  1.00  0.00     0.167 HD
ATOM     56  C   UNL A   1      40.717  32.980  37.523  1.00  0.00     0.037 A 
ATOM     57  C   UNL A   1      40.262  29.450  31.493  1.00  0.00     0.037 A 
ATOM     58  C   UNL A   1      41.722  31.967  37.336  1.00  0.00     0.049 A 
ATOM     59  C   UNL A   1      41.362  29.188  32.485  1.00  0.00     0.074 A 
ATOM     60  C   UNL A   1      42.739  31.589  38.195  1.00  0.00     0.029 A 
ATOM     61  N   UNL A   1      41.834  31.169  36.206  1.00  0.00    -0.354 N 
ATOM     62  N   UNL A   1      41.567  29.736  33.658  1.00  0.00    -0.248 NA
ATOM     63  C   UNL A   1      42.361  28.177  32.113  1.00  0.00     0.031 C 
ATOM     64  C   UNL A   1      43.492  30.591  37.569  1.00  0.00     0.029 A 
ATOM     65  C   UNL A   1      42.916  30.313  36.339  1.00  0.00     0.049 A 
ATOM     66  H   UNL A   1      41.235  31.204  35.427  1.00  0.00     0.167 HD
ATOM     67  C   UNL A   1      42.697  29.119  34.176  1.00  0.00     0.074 A 
ATOM     68  C   UNL A   1      43.128  28.146  33.194  1.00  0.00     0.031 C 
ATOM     69  C   UNL A   1      43.323  29.341  35.357  1.00  0.00     0.037 A 
BRANCH  56  70
ATOM     70  C   UNL A   1      40.769  33.810  38.774  1.00  0.00     0.064 A 
ATOM     71  C   UNL A   1      41.527  34.990  38.842  1.00  0.00     0.173 A 
ATOM     72  C   UNL A   1      40.028  33.441  39.906  1.00  0.00     0.173 A 
ATOM     73  F   UNL A   1      42.262  35.383  37.791  1.00  0.00    -0.203 F 
ATOM     74  C   UNL A   1      41.565  35.751  40.008  1.00  0.00     0.198 A 
ATOM     75  C   UNL A   1      40.045  34.221  41.060  1.00  0.00     0.198 A 
ATOM     76  F   UNL A   1      39.280  32.328  39.893  1.00  0.00    -0.203 F 
ATOM     77  F   UNL A   1      42.337  36.846  40.065  1.00  0.00    -0.200 F 
ATOM     78  C   UNL A   1      40.820  35.370  41.113  1.00  0.00     0.200 A 
ATOM     79  F   UNL A   1      39.314  33.859  42.124  1.00  0.00    -0.200 F 
ATOM     80  F   UNL A   1      40.854  36.107  42.232  1.00  0.00    -0.200 F 
ENDBRANCH  56  70
BRANCH  57  81
ATOM     81  C   UNL A   1      40.198  28.702  30.211  1.00  0.00     0.064 A 
ATOM     82  C   UNL A   1      40.807  29.209  29.055  1.00  0.00     0.173 A 
ATOM     83  C   UNL A   1      39.535  27.470  30.113  1.00  0.00     0.173 A 
ATOM     84  F   UNL A   1      41.435  30.393  29.093  1.00  0.00    -0.203 F 
ATOM     85  C   UNL A   1      40.740  28.522  27.844  1.00  0.00     0.198 A 
ATOM     86  C   UNL A   1      39.493  26.770  28.910  1.00  0.00     0.198 A 
ATOM     87  F   UNL A   1      38.939  26.940  31.191  1.00  0.00    -0.203 F 
ATOM     88  F   UNL A   1      41.294  29.050  26.745  1.00  0.00    -0.200 F 
ATOM     89  C   UNL A   1      40.088  27.300  27.774  1.00  0.00     0.200 A 
ATOM     90  F   UNL A   1      38.874  25.583  28.847  1.00  0.00    -0.200 F 
ATOM     91  F   UNL A   1      40.029  26.636  26.612  1.00  0.00    -0.200 F 
ENDBRANCH  57  81
BRANCH  69  92
ATOM     92  C   UNL A   1      44.519  28.490  35.674  1.00  0.00     0.064 A 
ATOM     93  C   UNL A   1      44.388  27.250  36.316  1.00  0.00     0.173 A 
ATOM     94  C   UNL A   1      45.803  28.902  35.289  1.00  0.00     0.173 A 
ATOM     95  F   UNL A   1      43.183  26.820  36.718  1.00  0.00    -0.203 F 
ATOM     96  C   UNL A   1      45.506  26.462  36.580  1.00  0.00     0.198 A 
ATOM     97  C   UNL A   1      46.914  28.099  35.530  1.00  0.00     0.198 A 
ATOM     98  F   UNL A   1      45.979  30.078  34.668  1.00  0.00    -0.203 F 
ATOM     99  F   UNL A   1      45.365  25.300  37.233  1.00  0.00    -0.200 F 
ATOM    100  C   UNL A   1      46.766  26.884  36.180  1.00  0.00     0.200 A 
ATOM    101  F   UNL A   1      48.129  28.502  35.131  1.00  0.00    -0.200 F 
ATOM    102  F   UNL A   1      47.839  26.119  36.427  1.00  0.00    -0.200 F 
ENDBRANCH  69  92
ENDBRANCH  43  44
ENDBRANCH  35  38
ENDBRANCH  33  34
ENDBRANCH  32  33
ENDBRANCH  31  32
ENDBRANCH  29  31
ENDBRANCH  25  27
ENDBRANCH   4  25
TORSDOF 19
ENDMDL
MODEL 3
REMARK VINA RESULT:     -10.9      4.771     11.148
REMARK SMILES CCCCCCNC(=O)Oc1cccc(-c2ccc([C@@H](C)C(=O)NCCCNC(=O)c3ccc(-c4c5nc(c(-c6c(F)c(F)c(F)c(F)c6F)c6ccc([nH]6)c(-c6c(F)c(F)c(F)c(F)c6F)c6nc(c(-c7c(F)c(F)c(F)c(F)c7F)c7ccc4[nH]7)C=C6)C=C5)cc3)cc2F)c1
REMARK SMILES IDX 16 1 17 2 18 3 19 4 94 5 95 6 96 7 15 8 11 9 12 10 97 11
REMARK SMILES IDX 13 12 14 13 10 14 8 15 7 16 9 18 6 19 5 20 4 21 3 22 2 23
REMARK SMILES IDX 1 24 20 25 21 26 22 27 23 28 24 29 25 31 26 32 27 33 28 34
REMARK SMILES IDX 29 35 30 37 31 38 32 39 93 40 33 41 92 42 34 43 35 44 36 45
REMARK SMILES IDX 86 46 37 47 91 48 85 49 87 50 38 51 90 52 84 53 83 54 39 56
REMARK SMILES IDX 71 57 51 58 70 59 52 60 55 61 69 62 88 63 53 64 54 65 68 67
REMARK SMILES IDX 89 68 56 69 40 70 41 71 49 72 42 73 43 74 47 75 50 76 44 77
REMARK SMILES IDX 45 78 48 79 46 80 72 81 73 82 81 83 74 84 75 85 79 86 82 87
REMARK SMILES IDX 76 88 77 89 80 90 78 91 57 92 58 93 66 94 59 95 60 96 64 97
REMARK SMILES IDX 67 98 61 99 62 100 65 101 63 102
REMARK H PARENT 7 17 24 30 28 36 87 55 55 66
REMARK Flexibility Score: inf
ROOT
ATOM      1  C   UNL A   1      45.521  23.964  24.968  1.00  0.00     0.018 A 
ATOM      2  C   UNL A   1      46.458  22.917  24.926  1.00  0.00     0.012 A 
ATOM      3  C   UNL A   1      46.092  21.607  24.593  1.00  0.00     0.005 A 
ATOM      4  C   UNL A   1      44.758  21.266  24.362  1.00  0.00    -0.033 A 
ATOM      5  C   UNL A   1      43.812  22.300  24.393  1.00  0.00     0.044 A 
ATOM      6  C   UNL A   1      44.194  23.618  24.667  1.00  0.00     0.131 A 
ATOM      7  F   UNL A   1      43.235  24.556  24.622  1.00  0.00    -0.206 F 
ENDROOT
BRANCH   1   8
ATOM      8  C   UNL A   1      45.940  25.344  25.317  1.00  0.00    -0.012 A 
ATOM      9  C   UNL A   1      45.622  27.437  26.522  1.00  0.00     0.133 A 
ATOM     10  C   UNL A   1      46.785  27.972  25.982  1.00  0.00     0.047 A 
ATOM     11  C   UNL A   1      45.197  26.144  26.202  1.00  0.00     0.056 A 
ATOM     12  C   UNL A   1      47.541  27.200  25.112  1.00  0.00     0.004 A 
ATOM     13  C   UNL A   1      47.116  25.909  24.777  1.00  0.00     0.009 A 
BRANCH   9  14
ATOM     14  O   UNL A   1      44.819  28.304  27.280  1.00  0.00    -0.410 OA
BRANCH  14  15
ATOM     15  C   UNL A   1      43.810  29.008  26.643  1.00  0.00     0.412 C 
ATOM     16  N   UNL A   1      43.605  30.246  27.192  1.00  0.00    -0.321 N 
ATOM     17  H   UNL A   1      42.880  30.787  26.803  1.00  0.00     0.167 HD
ATOM     18  O   UNL A   1      43.138  28.613  25.701  1.00  0.00    -0.224 OA
BRANCH  16  19
ATOM     19  C   UNL A   1      44.346  30.839  28.286  1.00  0.00     0.119 C 
BRANCH  19  20
ATOM     20  C   UNL A   1      43.579  31.986  28.943  1.00  0.00     0.021 C 
BRANCH  20  21
ATOM     21  C   UNL A   1      44.459  33.118  29.488  1.00  0.00     0.002 C 
BRANCH  21  22
ATOM     22  C   UNL A   1      43.762  34.474  29.652  1.00  0.00    -0.000 C 
BRANCH  22  23
ATOM     23  C   UNL A   1      42.636  34.760  28.656  1.00  0.00    -0.003 C 
ATOM     24  C   UNL A   1      41.315  35.106  29.326  1.00  0.00     0.004 C 
ENDBRANCH  22  23
ENDBRANCH  21  22
ENDBRANCH  20  21
ENDBRANCH  19  20
ENDBRANCH  16  19
ENDBRANCH  14  15
ENDBRANCH   9  14
ENDBRANCH   1   8
BRANCH   4  25
ATOM     25  C   UNL A   1      44.302  19.838  24.106  1.00  0.00     0.105 C 
ATOM     26  C   UNL A   1      44.994  19.125  22.945  1.00  0.00     0.023 C 
BRANCH  25  27
ATOM     27  C   UNL A   1      44.165  18.998  25.383  1.00  0.00     0.227 C 
ATOM     28  O   UNL A   1      45.091  18.253  25.731  1.00  0.00    -0.274 OA
ATOM     29  N   UNL A   1      43.073  19.008  26.194  1.00  0.00    -0.356 N 
ATOM     30  H   UNL A   1      43.174  18.463  27.007  1.00  0.00     0.163 HD
BRANCH  29  31
ATOM     31  C   UNL A   1      41.789  19.672  26.087  1.00  0.00     0.117 C 
BRANCH  31  32
ATOM     32  C   UNL A   1      41.560  20.674  27.218  1.00  0.00     0.042 C 
BRANCH  32  33
ATOM     33  C   UNL A   1      41.416  22.115  26.747  1.00  0.00     0.118 C 
BRANCH  33  34
ATOM     34  N   UNL A   1      40.127  22.359  26.112  1.00  0.00    -0.352 N 
ATOM     35  C   UNL A   1      39.226  23.382  26.277  1.00  0.00     0.251 C 
ATOM     36  H   UNL A   1      39.857  21.677  25.455  1.00  0.00     0.163 HD
ATOM     37  O   UNL A   1      38.103  23.272  25.791  1.00  0.00    -0.269 OA
BRANCH  35  38
ATOM     38  C   UNL A   1      39.575  24.607  27.033  1.00  0.00     0.039 A 
ATOM     39  C   UNL A   1      39.085  24.752  28.336  1.00  0.00     0.014 A 
ATOM     40  C   UNL A   1      40.320  25.639  26.457  1.00  0.00     0.014 A 
ATOM     41  C   UNL A   1      39.387  25.900  29.075  1.00  0.00     0.010 A 
ATOM     42  C   UNL A   1      40.688  26.745  27.221  1.00  0.00     0.010 A 
ATOM     43  C   UNL A   1      40.217  26.894  28.533  1.00  0.00    -0.014 A 
BRANCH  43  44
ATOM     44  C   UNL A   1      40.588  28.105  29.311  1.00  0.00     0.031 A 
ATOM     45  C   UNL A   1      41.947  28.205  29.948  1.00  0.00     0.074 A 
ATOM     46  C   UNL A   1      39.681  29.083  29.499  1.00  0.00     0.049 A 
ATOM     47  N   UNL A   1      42.425  29.130  30.742  1.00  0.00    -0.248 NA
ATOM     48  C   UNL A   1      42.883  27.103  29.680  1.00  0.00     0.031 C 
ATOM     49  C   UNL A   1      38.318  29.085  28.967  1.00  0.00     0.029 A 
ATOM     50  N   UNL A   1      39.764  30.257  30.205  1.00  0.00    -0.354 N 
ATOM     51  C   UNL A   1      43.705  28.711  31.083  1.00  0.00     0.074 A 
ATOM     52  C   UNL A   1      43.912  27.427  30.449  1.00  0.00     0.031 C 
ATOM     53  C   UNL A   1      37.699  30.213  29.350  1.00  0.00     0.029 A 
ATOM     54  C   UNL A   1      38.605  30.993  30.186  1.00  0.00     0.049 A 
ATOM     55  H   UNL A   1      40.578  30.545  30.678  1.00  0.00     0.167 HD
ATOM     56  C   UNL A   1      44.630  29.349  31.838  1.00  0.00     0.037 A 
ATOM     57  C   UNL A   1      38.304  32.161  30.787  1.00  0.00     0.037 A 
ATOM     58  C   UNL A   1      44.431  30.640  32.443  1.00  0.00     0.049 A 
ATOM     59  C   UNL A   1      39.349  32.848  31.623  1.00  0.00     0.074 A 
ATOM     60  C   UNL A   1      45.328  31.398  33.176  1.00  0.00     0.029 A 
ATOM     61  N   UNL A   1      43.250  31.364  32.383  1.00  0.00    -0.354 N 
ATOM     62  N   UNL A   1      40.576  32.471  31.888  1.00  0.00    -0.248 NA
ATOM     63  C   UNL A   1      38.967  34.124  32.242  1.00  0.00     0.031 C 
ATOM     64  C   UNL A   1      44.676  32.563  33.593  1.00  0.00     0.029 A 
ATOM     65  C   UNL A   1      43.388  32.553  33.082  1.00  0.00     0.049 A 
ATOM     66  H   UNL A   1      42.434  31.078  31.913  1.00  0.00     0.167 HD
ATOM     67  C   UNL A   1      41.121  33.474  32.678  1.00  0.00     0.074 A 
ATOM     68  C   UNL A   1      40.094  34.483  32.839  1.00  0.00     0.031 C 
ATOM     69  C   UNL A   1      42.360  33.552  33.222  1.00  0.00     0.037 A 
BRANCH  56  70
ATOM     70  C   UNL A   1      45.947  28.660  32.051  1.00  0.00     0.064 A 
ATOM     71  C   UNL A   1      47.018  28.829  31.160  1.00  0.00     0.173 A 
ATOM     72  C   UNL A   1      46.154  27.847  33.176  1.00  0.00     0.173 A 
ATOM     73  F   UNL A   1      46.870  29.588  30.063  1.00  0.00    -0.203 F 
ATOM     74  C   UNL A   1      48.235  28.186  31.371  1.00  0.00     0.198 A 
ATOM     75  C   UNL A   1      47.382  27.229  33.400  1.00  0.00     0.198 A 
ATOM     76  F   UNL A   1      45.167  27.657  34.065  1.00  0.00    -0.203 F 
ATOM     77  F   UNL A   1      49.226  28.322  30.478  1.00  0.00    -0.200 F 
ATOM     78  C   UNL A   1      48.418  27.392  32.492  1.00  0.00     0.200 A 
ATOM     79  F   UNL A   1      47.562  26.473  34.492  1.00  0.00    -0.200 F 
ATOM     80  F   UNL A   1      49.592  26.778  32.696  1.00  0.00    -0.200 F 
ENDBRANCH  56  70
BRANCH  57  81
ATOM     81  C   UNL A   1      36.962  32.768  30.595  1.00  0.00     0.064 A 
ATOM     82  C   UNL A   1      36.662  33.491  29.433  1.00  0.00     0.173 A 
ATOM     83  C   UNL A   1      35.953  32.637  31.562  1.00  0.00     0.173 A 
ATOM     84  F   UNL A   1      37.600  33.662  28.490  1.00  0.00    -0.203 F 
ATOM     85  C   UNL A   1      35.410  34.077  29.251  1.00  0.00     0.198 A 
ATOM     86  C   UNL A   1      34.694  33.199  31.366  1.00  0.00     0.198 A 
ATOM     87  F   UNL A   1      36.188  31.952  32.689  1.00  0.00    -0.203 F 
ATOM     88  F   UNL A   1      35.164  34.799  28.150  1.00  0.00    -0.200 F 
ATOM     89  C   UNL A   1      34.426  33.925  30.215  1.00  0.00     0.200 A 
ATOM     90  F   UNL A   1      33.738  33.039  32.293  1.00  0.00    -0.200 F 
ATOM     91  F   UNL A   1      33.220  34.483  30.038  1.00  0.00    -0.200 F 
ENDBRANCH  57  81
BRANCH  69  92
ATOM     92  C   UNL A   1      42.690  34.786  34.010  1.00  0.00     0.064 A 
ATOM     93  C   UNL A   1      43.052  35.985  33.380  1.00  0.00     0.173 A 
ATOM     94  C   UNL A   1      42.600  34.778  35.409  1.00  0.00     0.173 A 
ATOM     95  F   UNL A   1      43.168  36.039  32.044  1.00  0.00    -0.203 F 
ATOM     96  C   UNL A   1      43.331  37.127  34.126  1.00  0.00     0.198 A 
ATOM     97  C   UNL A   1      42.852  35.928  36.150  1.00  0.00     0.198 A 
ATOM     98  F   UNL A   1      42.252  33.656  36.058  1.00  0.00    -0.203 F 
ATOM     99  F   UNL A   1      43.717  38.252  33.507  1.00  0.00    -0.200 F 
ATOM    100  C   UNL A   1      43.224  37.100  35.509  1.00  0.00     0.200 A 
ATOM    101  F   UNL A   1      42.735  35.904  37.485  1.00  0.00    -0.200 F 
ATOM    102  F   UNL A   1      43.484  38.203  36.224  1.00  0.00    -0.200 F 
ENDBRANCH  69  92
ENDBRANCH  43  44
ENDBRANCH  35  38
ENDBRANCH  33  34
ENDBRANCH  32  33
ENDBRANCH  31  32
ENDBRANCH  29  31
ENDBRANCH  25  27
ENDBRANCH   4  25
TORSDOF 19
ENDMDL
