MODEL 1
REMARK VINA RESULT:     -12.6      0.000      0.000
REMARK SMILES C[C@H]([C@@H]1CCCO1)n1c(SCC(=O)NCCCNC(=O)c2ccc(-c3c4nc(c(-c5c(F)c(F)c(F)c(F)c5F)c5ccc([nH]5)c(-c5c(F)c(F)c(F)c(F)c5F)c5nc(c(-c6c(F)c(F)c(F)c(F)c6F)c6ccc3[nH]6)C=C5)C=C4)cc2)nc2cnccc21
REMARK SMILES IDX 15 1 14 2 12 3 13 4 11 6 10 7 9 8 8 9 90 10 84 11 85 12
REMARK SMILES IDX 89 13 86 14 88 15 87 16 2 17 1 18 3 19 4 20 7 21 5 22 6 23
REMARK SMILES IDX 16 24 17 25 18 26 19 27 20 29 21 30 22 31 83 32 23 33 82 34
REMARK SMILES IDX 24 35 25 36 26 37 76 38 27 39 81 40 75 41 77 42 28 43 80 44
REMARK SMILES IDX 74 45 73 46 29 48 61 49 41 50 60 51 42 52 45 53 59 54 78 55
REMARK SMILES IDX 43 56 44 57 58 59 79 60 46 61 30 62 31 63 39 64 32 65 33 66
REMARK SMILES IDX 37 67 40 68 34 69 35 70 38 71 36 72 62 73 63 74 71 75 64 76
REMARK SMILES IDX 65 77 69 78 72 79 66 80 67 81 70 82 68 83 47 84 48 85 56 86
REMARK SMILES IDX 49 87 50 88 54 89 57 90 51 91 52 92 55 93 53 94
REMARK H PARENT 14 5 18 28 77 47 45 58
REMARK Flexibility Score: inf
ROOT
ATOM      1  C   UNL A   1      37.085  22.088  25.237  1.00  0.00     0.117 C 
ENDROOT
BRANCH   1   2
ATOM      2  N   UNL A   1      36.110  21.787  26.253  1.00  0.00    -0.355 N 
ATOM      3  C   UNL A   1      34.844  22.236  26.379  1.00  0.00     0.230 C 
ATOM      4  O   UNL A   1      34.173  21.773  27.307  1.00  0.00    -0.274 OA
ATOM      5  H   UNL A   1      36.410  21.167  26.955  1.00  0.00     0.163 HD
BRANCH   3   6
ATOM      6  C   UNL A   1      34.206  23.144  25.361  1.00  0.00     0.178 C 
BRANCH   6   7
ATOM      7  S   UNL A   1      34.485  24.903  25.461  1.00  0.00    -0.078 SA
BRANCH   7   8
ATOM      8  C   UNL A   1      33.143  25.896  25.001  1.00  0.00     0.169 A 
ATOM      9  N   UNL A   1      32.688  27.112  25.463  1.00  0.00    -0.313 N 
ATOM     10  C   UNL A   1      31.923  27.656  24.429  1.00  0.00     0.072 A 
ATOM     11  N   UNL A   1      32.435  25.509  23.955  1.00  0.00    -0.221 NA
ATOM     12  C   UNL A   1      31.710  26.600  23.557  1.00  0.00     0.108 A 
ATOM     13  C   UNL A   1      31.418  28.935  24.170  1.00  0.00     0.049 A 
ATOM     14  C   UNL A   1      30.898  26.798  22.435  1.00  0.00     0.141 A 
ATOM     15  C   UNL A   1      30.675  29.050  23.004  1.00  0.00     0.113 A 
ATOM     16  N   UNL A   1      30.392  28.032  22.162  1.00  0.00    -0.262 NA
BRANCH   9  17
ATOM     17  C   UNL A   1      32.988  27.875  26.670  1.00  0.00     0.116 C 
ATOM     18  C   UNL A   1      31.711  28.056  27.494  1.00  0.00     0.034 C 
BRANCH  17  19
ATOM     19  C   UNL A   1      34.042  29.035  26.563  1.00  0.00     0.141 C 
ATOM     20  C   UNL A   1      35.269  29.146  27.463  1.00  0.00     0.036 C 
ATOM     21  O   UNL A   1      33.341  30.295  26.741  1.00  0.00    -0.376 OA
ATOM     22  C   UNL A   1      35.471  30.618  27.683  1.00  0.00     0.031 C 
ATOM     23  C   UNL A   1      34.044  31.096  27.700  1.00  0.00     0.160 C 
ENDBRANCH  17  19
ENDBRANCH   9  17
ENDBRANCH   7   8
ENDBRANCH   6   7
ENDBRANCH   3   6
ENDBRANCH   1   2
BRANCH   1  24
ATOM     24  C   UNL A   1      38.277  22.866  25.784  1.00  0.00     0.042 C 
BRANCH  24  25
ATOM     25  C   UNL A   1      39.333  22.005  26.473  1.00  0.00     0.118 C 
BRANCH  25  26
ATOM     26  N   UNL A   1      40.674  22.196  25.967  1.00  0.00    -0.352 N 
ATOM     27  C   UNL A   1      41.568  23.218  26.020  1.00  0.00     0.251 C 
ATOM     28  H   UNL A   1      41.014  21.414  25.475  1.00  0.00     0.163 HD
ATOM     29  O   UNL A   1      42.623  23.048  25.393  1.00  0.00    -0.269 OA
BRANCH  27  30
ATOM     30  C   UNL A   1      41.340  24.521  26.694  1.00  0.00     0.039 A 
ATOM     31  C   UNL A   1      40.586  25.584  26.196  1.00  0.00     0.014 A 
ATOM     32  C   UNL A   1      41.987  24.680  27.931  1.00  0.00     0.014 A 
ATOM     33  C   UNL A   1      40.637  26.828  26.816  1.00  0.00     0.010 A 
ATOM     34  C   UNL A   1      41.976  25.893  28.596  1.00  0.00     0.010 A 
ATOM     35  C   UNL A   1      41.366  26.986  27.997  1.00  0.00    -0.014 A 
BRANCH  35  36
ATOM     36  C   UNL A   1      41.310  28.271  28.685  1.00  0.00     0.031 A 
ATOM     37  C   UNL A   1      42.472  29.146  28.357  1.00  0.00     0.074 A 
ATOM     38  C   UNL A   1      40.268  28.666  29.448  1.00  0.00     0.049 A 
ATOM     39  N   UNL A   1      43.395  29.554  29.164  1.00  0.00    -0.248 NA
ATOM     40  C   UNL A   1      42.743  29.452  26.941  1.00  0.00     0.031 C 
ATOM     41  C   UNL A   1      38.986  27.991  29.656  1.00  0.00     0.029 A 
ATOM     42  N   UNL A   1      40.114  29.817  30.166  1.00  0.00    -0.354 N 
ATOM     43  C   UNL A   1      44.261  30.331  28.397  1.00  0.00     0.074 A 
ATOM     44  C   UNL A   1      43.905  30.103  27.023  1.00  0.00     0.031 C 
ATOM     45  C   UNL A   1      38.111  28.841  30.243  1.00  0.00     0.029 A 
ATOM     46  C   UNL A   1      38.808  30.064  30.592  1.00  0.00     0.049 A 
ATOM     47  H   UNL A   1      40.861  30.424  30.366  1.00  0.00     0.167 HD
ATOM     48  C   UNL A   1      45.037  31.281  28.986  1.00  0.00     0.037 A 
ATOM     49  C   UNL A   1      38.340  31.213  31.152  1.00  0.00     0.037 A 
ATOM     50  C   UNL A   1      45.170  31.029  30.397  1.00  0.00     0.049 A 
ATOM     51  C   UNL A   1      39.515  31.938  31.697  1.00  0.00     0.074 A 
ATOM     52  C   UNL A   1      45.735  30.025  31.157  1.00  0.00     0.029 A 
ATOM     53  N   UNL A   1      44.329  31.712  31.236  1.00  0.00    -0.354 N 
ATOM     54  N   UNL A   1      40.227  31.499  32.698  1.00  0.00    -0.248 NA
ATOM     55  C   UNL A   1      40.184  32.873  30.807  1.00  0.00     0.031 C 
ATOM     56  C   UNL A   1      44.855  29.864  32.267  1.00  0.00     0.029 A 
ATOM     57  C   UNL A   1      43.853  30.832  32.169  1.00  0.00     0.049 A 
ATOM     58  H   UNL A   1      44.105  32.669  31.178  1.00  0.00     0.167 HD
ATOM     59  C   UNL A   1      41.539  31.737  32.320  1.00  0.00     0.074 A 
ATOM     60  C   UNL A   1      41.448  32.631  31.165  1.00  0.00     0.031 C 
ATOM     61  C   UNL A   1      42.554  30.956  32.787  1.00  0.00     0.037 A 
BRANCH  48  62
ATOM     62  C   UNL A   1      45.303  32.645  28.391  1.00  0.00     0.064 A 
ATOM     63  C   UNL A   1      44.209  33.493  28.117  1.00  0.00     0.173 A 
ATOM     64  C   UNL A   1      46.522  33.012  27.779  1.00  0.00     0.173 A 
ATOM     65  F   UNL A   1      42.996  33.232  28.629  1.00  0.00    -0.203 F 
ATOM     66  C   UNL A   1      44.309  34.567  27.228  1.00  0.00     0.198 A 
ATOM     67  C   UNL A   1      46.629  34.114  26.932  1.00  0.00     0.198 A 
ATOM     68  F   UNL A   1      47.626  32.266  27.878  1.00  0.00    -0.203 F 
ATOM     69  F   UNL A   1      43.212  35.260  26.896  1.00  0.00    -0.200 F 
ATOM     70  C   UNL A   1      45.518  34.871  26.630  1.00  0.00     0.200 A 
ATOM     71  F   UNL A   1      47.804  34.377  26.343  1.00  0.00    -0.200 F 
ATOM     72  F   UNL A   1      45.603  35.856  25.728  1.00  0.00    -0.200 F 
ENDBRANCH  48  62
BRANCH  49  73
ATOM     73  C   UNL A   1      37.047  31.905  30.897  1.00  0.00     0.064 A 
ATOM     74  C   UNL A   1      36.030  31.944  31.870  1.00  0.00     0.173 A 
ATOM     75  C   UNL A   1      36.901  32.797  29.815  1.00  0.00     0.173 A 
ATOM     76  F   UNL A   1      36.113  31.171  32.962  1.00  0.00    -0.203 F 
ATOM     77  C   UNL A   1      34.952  32.835  31.776  1.00  0.00     0.198 A 
ATOM     78  C   UNL A   1      35.825  33.682  29.723  1.00  0.00     0.198 A 
ATOM     79  F   UNL A   1      37.853  32.897  28.877  1.00  0.00    -0.203 F 
ATOM     80  F   UNL A   1      34.035  32.884  32.755  1.00  0.00    -0.200 F 
ATOM     81  C   UNL A   1      34.856  33.711  30.709  1.00  0.00     0.200 A 
ATOM     82  F   UNL A   1      35.768  34.554  28.706  1.00  0.00    -0.200 F 
ATOM     83  F   UNL A   1      33.860  34.607  30.650  1.00  0.00    -0.200 F 
ENDBRANCH  49  73
BRANCH  61  84
ATOM     84  C   UNL A   1      42.257  29.994  33.902  1.00  0.00     0.064 A 
ATOM     85  C   UNL A   1      41.764  28.691  33.713  1.00  0.00     0.173 A 
ATOM     86  C   UNL A   1      42.674  30.345  35.192  1.00  0.00     0.173 A 
ATOM     87  F   UNL A   1      41.422  28.253  32.494  1.00  0.00    -0.203 F 
ATOM     88  C   UNL A   1      41.688  27.788  34.773  1.00  0.00     0.198 A 
ATOM     89  C   UNL A   1      42.629  29.432  36.241  1.00  0.00     0.198 A 
ATOM     90  F   UNL A   1      43.197  31.561  35.419  1.00  0.00    -0.203 F 
ATOM     91  F   UNL A   1      41.227  26.544  34.568  1.00  0.00    -0.200 F 
ATOM     92  C   UNL A   1      42.133  28.156  36.033  1.00  0.00     0.200 A 
ATOM     93  F   UNL A   1      43.108  29.778  37.443  1.00  0.00    -0.200 F 
ATOM     94  F   UNL A   1      42.115  27.270  37.039  1.00  0.00    -0.200 F 
ENDBRANCH  61  84
ENDBRANCH  35  36
ENDBRANCH  27  30
ENDBRANCH  25  26
ENDBRANCH  24  25
ENDBRANCH   1  24
TORSDOF 14
ENDMDL
MODEL 2
REMARK VINA RESULT:     -12.5      3.013      8.992
REMARK SMILES C[C@H]([C@@H]1CCCO1)n1c(SCC(=O)NCCCNC(=O)c2ccc(-c3c4nc(c(-c5c(F)c(F)c(F)c(F)c5F)c5ccc([nH]5)c(-c5c(F)c(F)c(F)c(F)c5F)c5nc(c(-c6c(F)c(F)c(F)c(F)c6F)c6ccc3[nH]6)C=C5)C=C4)cc2)nc2cnccc21
REMARK SMILES IDX 15 1 14 2 12 3 13 4 11 6 10 7 9 8 8 9 90 10 84 11 85 12
REMARK SMILES IDX 89 13 86 14 88 15 87 16 2 17 1 18 3 19 4 20 7 21 5 22 6 23
REMARK SMILES IDX 16 24 17 25 18 26 19 27 20 29 21 30 22 31 83 32 23 33 82 34
REMARK SMILES IDX 24 35 25 36 26 37 76 38 27 39 81 40 75 41 77 42 28 43 80 44
REMARK SMILES IDX 74 45 73 46 29 48 61 49 41 50 60 51 42 52 45 53 59 54 78 55
REMARK SMILES IDX 43 56 44 57 58 59 79 60 46 61 30 62 31 63 39 64 32 65 33 66
REMARK SMILES IDX 37 67 40 68 34 69 35 70 38 71 36 72 62 73 63 74 71 75 64 76
REMARK SMILES IDX 65 77 69 78 72 79 66 80 67 81 70 82 68 83 47 84 48 85 56 86
REMARK SMILES IDX 49 87 50 88 54 89 57 90 51 91 52 92 55 93 53 94
REMARK H PARENT 14 5 18 28 77 47 45 58
REMARK Flexibility Score: inf
ROOT
ATOM      1  C   UNL A   1      32.820  29.680  26.340  1.00  0.00     0.117 C 
ENDROOT
BRANCH   1   2
ATOM      2  N   UNL A   1      33.230  29.696  24.960  1.00  0.00    -0.355 N 
ATOM      3  C   UNL A   1      33.284  28.679  24.076  1.00  0.00     0.230 C 
ATOM      4  O   UNL A   1      33.604  28.959  22.915  1.00  0.00    -0.274 OA
ATOM      5  H   UNL A   1      33.510  30.573  24.613  1.00  0.00     0.163 HD
BRANCH   3   6
ATOM      6  C   UNL A   1      32.836  27.284  24.423  1.00  0.00     0.178 C 
BRANCH   6   7
ATOM      7  S   UNL A   1      33.962  26.187  25.264  1.00  0.00    -0.078 SA
BRANCH   7   8
ATOM      8  C   UNL A   1      33.808  24.510  24.860  1.00  0.00     0.169 A 
ATOM      9  N   UNL A   1      34.735  23.500  24.721  1.00  0.00    -0.313 N 
ATOM     10  C   UNL A   1      34.035  22.305  24.893  1.00  0.00     0.072 A 
ATOM     11  N   UNL A   1      32.584  24.028  24.735  1.00  0.00    -0.221 NA
ATOM     12  C   UNL A   1      32.699  22.665  24.803  1.00  0.00     0.108 A 
ATOM     13  C   UNL A   1      34.424  20.982  25.124  1.00  0.00     0.049 A 
ATOM     14  C   UNL A   1      31.721  21.667  24.857  1.00  0.00     0.141 A 
ATOM     15  C   UNL A   1      33.382  20.070  25.224  1.00  0.00     0.113 A 
ATOM     16  N   UNL A   1      32.073  20.371  25.079  1.00  0.00    -0.262 NA
BRANCH   9  17
ATOM     17  C   UNL A   1      36.189  23.518  24.590  1.00  0.00     0.116 C 
ATOM     18  C   UNL A   1      36.589  22.926  23.236  1.00  0.00     0.034 C 
BRANCH  17  19
ATOM     19  C   UNL A   1      37.046  23.230  25.874  1.00  0.00     0.141 C 
ATOM     20  C   UNL A   1      38.203  24.114  26.333  1.00  0.00     0.036 C 
ATOM     21  O   UNL A   1      37.627  21.905  25.736  1.00  0.00    -0.376 OA
ATOM     22  C   UNL A   1      39.213  23.172  26.924  1.00  0.00     0.031 C 
ATOM     23  C   UNL A   1      39.028  21.971  26.036  1.00  0.00     0.160 C 
ENDBRANCH  17  19
ENDBRANCH   9  17
ENDBRANCH   7   8
ENDBRANCH   6   7
ENDBRANCH   3   6
ENDBRANCH   1   2
BRANCH   1  24
ATOM     24  C   UNL A   1      34.005  29.696  27.301  1.00  0.00     0.042 C 
BRANCH  24  25
ATOM     25  C   UNL A   1      34.658  31.064  27.480  1.00  0.00     0.118 C 
BRANCH  25  26
ATOM     26  N   UNL A   1      34.492  31.631  28.800  1.00  0.00    -0.352 N 
ATOM     27  C   UNL A   1      35.262  31.657  29.920  1.00  0.00     0.251 C 
ATOM     28  H   UNL A   1      33.634  32.099  28.912  1.00  0.00     0.163 HD
ATOM     29  O   UNL A   1      34.749  32.188  30.916  1.00  0.00    -0.269 OA
BRANCH  27  30
ATOM     30  C   UNL A   1      36.605  31.040  30.051  1.00  0.00     0.039 A 
ATOM     31  C   UNL A   1      37.826  31.716  30.050  1.00  0.00     0.014 A 
ATOM     32  C   UNL A   1      36.616  29.638  30.148  1.00  0.00     0.014 A 
ATOM     33  C   UNL A   1      39.017  31.008  29.950  1.00  0.00     0.010 A 
ATOM     34  C   UNL A   1      37.803  28.927  30.130  1.00  0.00     0.010 A 
ATOM     35  C   UNL A   1      38.997  29.610  29.952  1.00  0.00    -0.014 A 
BRANCH  35  36
ATOM     36  C   UNL A   1      40.267  28.894  29.960  1.00  0.00     0.031 A 
ATOM     37  C   UNL A   1      40.860  28.794  31.324  1.00  0.00     0.074 A 
ATOM     38  C   UNL A   1      40.794  28.295  28.870  1.00  0.00     0.049 A 
ATOM     39  N   UNL A   1      41.964  29.324  31.737  1.00  0.00    -0.248 NA
ATOM     40  C   UNL A   1      40.048  28.198  32.400  1.00  0.00     0.031 C 
ATOM     41  C   UNL A   1      40.198  28.134  27.542  1.00  0.00     0.029 A 
ATOM     42  N   UNL A   1      41.981  27.631  28.741  1.00  0.00    -0.354 N 
ATOM     43  C   UNL A   1      42.086  28.963  33.078  1.00  0.00     0.074 A 
ATOM     44  C   UNL A   1      40.815  28.415  33.470  1.00  0.00     0.031 C 
ATOM     45  C   UNL A   1      40.910  27.231  26.827  1.00  0.00     0.029 A 
ATOM     46  C   UNL A   1      42.093  26.864  27.581  1.00  0.00     0.049 A 
ATOM     47  H   UNL A   1      42.698  27.688  29.411  1.00  0.00     0.167 HD
ATOM     48  C   UNL A   1      43.309  28.930  33.673  1.00  0.00     0.037 A 
ATOM     49  C   UNL A   1      43.074  25.965  27.293  1.00  0.00     0.037 A 
ATOM     50  C   UNL A   1      44.259  29.716  32.931  1.00  0.00     0.049 A 
ATOM     51  C   UNL A   1      44.238  26.308  28.147  1.00  0.00     0.074 A 
ATOM     52  C   UNL A   1      44.387  31.056  32.627  1.00  0.00     0.029 A 
ATOM     53  N   UNL A   1      45.070  29.048  32.050  1.00  0.00    -0.354 N 
ATOM     54  N   UNL A   1      44.926  27.409  28.013  1.00  0.00    -0.248 NA
ATOM     55  C   UNL A   1      44.308  25.673  29.453  1.00  0.00     0.031 C 
ATOM     56  C   UNL A   1      44.888  31.085  31.293  1.00  0.00     0.029 A 
ATOM     57  C   UNL A   1      45.119  29.769  30.888  1.00  0.00     0.049 A 
ATOM     58  H   UNL A   1      45.536  28.199  32.223  1.00  0.00     0.167 HD
ATOM     59  C   UNL A   1      45.141  27.842  29.312  1.00  0.00     0.074 A 
ATOM     60  C   UNL A   1      44.778  26.706  30.159  1.00  0.00     0.031 C 
ATOM     61  C   UNL A   1      45.304  29.167  29.589  1.00  0.00     0.037 A 
BRANCH  48  62
ATOM     62  C   UNL A   1      43.746  27.862  34.649  1.00  0.00     0.064 A 
ATOM     63  C   UNL A   1      43.608  26.506  34.281  1.00  0.00     0.173 A 
ATOM     64  C   UNL A   1      43.973  28.097  36.023  1.00  0.00     0.173 A 
ATOM     65  F   UNL A   1      43.372  26.164  33.006  1.00  0.00    -0.203 F 
ATOM     66  C   UNL A   1      43.604  25.479  35.229  1.00  0.00     0.198 A 
ATOM     67  C   UNL A   1      44.017  27.065  36.958  1.00  0.00     0.198 A 
ATOM     68  F   UNL A   1      44.045  29.329  36.536  1.00  0.00    -0.203 F 
ATOM     69  F   UNL A   1      43.335  24.224  34.848  1.00  0.00    -0.200 F 
ATOM     70  C   UNL A   1      43.801  25.761  36.568  1.00  0.00     0.200 A 
ATOM     71  F   UNL A   1      44.185  27.361  38.255  1.00  0.00    -0.200 F 
ATOM     72  F   UNL A   1      43.731  24.790  37.486  1.00  0.00    -0.200 F 
ENDBRANCH  48  62
BRANCH  49  73
ATOM     73  C   UNL A   1      42.941  24.626  26.657  1.00  0.00     0.064 A 
ATOM     74  C   UNL A   1      43.473  24.363  25.380  1.00  0.00     0.173 A 
ATOM     75  C   UNL A   1      42.560  23.497  27.411  1.00  0.00     0.173 A 
ATOM     76  F   UNL A   1      43.914  25.371  24.614  1.00  0.00    -0.203 F 
ATOM     77  C   UNL A   1      43.634  23.055  24.901  1.00  0.00     0.198 A 
ATOM     78  C   UNL A   1      42.720  22.195  26.932  1.00  0.00     0.198 A 
ATOM     79  F   UNL A   1      42.119  23.632  28.670  1.00  0.00    -0.203 F 
ATOM     80  F   UNL A   1      44.201  22.844  23.704  1.00  0.00    -0.200 F 
ATOM     81  C   UNL A   1      43.267  21.972  25.682  1.00  0.00     0.200 A 
ATOM     82  F   UNL A   1      42.400  21.156  27.716  1.00  0.00    -0.200 F 
ATOM     83  F   UNL A   1      43.479  20.720  25.252  1.00  0.00    -0.200 F 
ENDBRANCH  49  73
BRANCH  61  84
ATOM     84  C   UNL A   1      45.491  30.117  28.439  1.00  0.00     0.064 A 
ATOM     85  C   UNL A   1      44.438  30.778  27.781  1.00  0.00     0.173 A 
ATOM     86  C   UNL A   1      46.797  30.515  28.130  1.00  0.00     0.173 A 
ATOM     87  F   UNL A   1      43.161  30.512  28.082  1.00  0.00    -0.203 F 
ATOM     88  C   UNL A   1      44.691  31.785  26.850  1.00  0.00     0.198 A 
ATOM     89  C   UNL A   1      47.045  31.542  27.226  1.00  0.00     0.198 A 
ATOM     90  F   UNL A   1      47.837  29.949  28.763  1.00  0.00    -0.203 F 
ATOM     91  F   UNL A   1      43.672  32.414  26.243  1.00  0.00    -0.200 F 
ATOM     92  C   UNL A   1      45.994  32.176  26.584  1.00  0.00     0.200 A 
ATOM     93  F   UNL A   1      48.304  31.949  27.012  1.00  0.00    -0.200 F 
ATOM     94  F   UNL A   1      46.235  33.183  25.734  1.00  0.00    -0.200 F 
ENDBRANCH  61  84
ENDBRANCH  35  36
ENDBRANCH  27  30
ENDBRANCH  25  26
ENDBRANCH  24  25
ENDBRANCH   1  24
TORSDOF 14
ENDMDL
MODEL 3
REMARK VINA RESULT:     -12.4      2.999      9.006
REMARK SMILES C[C@H]([C@@H]1CCCO1)n1c(SCC(=O)NCCCNC(=O)c2ccc(-c3c4nc(c(-c5c(F)c(F)c(F)c(F)c5F)c5ccc([nH]5)c(-c5c(F)c(F)c(F)c(F)c5F)c5nc(c(-c6c(F)c(F)c(F)c(F)c6F)c6ccc3[nH]6)C=C5)C=C4)cc2)nc2cnccc21
REMARK SMILES IDX 15 1 14 2 12 3 13 4 11 6 10 7 9 8 8 9 90 10 84 11 85 12
REMARK SMILES IDX 89 13 86 14 88 15 87 16 2 17 1 18 3 19 4 20 7 21 5 22 6 23
REMARK SMILES IDX 16 24 17 25 18 26 19 27 20 29 21 30 22 31 83 32 23 33 82 34
REMARK SMILES IDX 24 35 25 36 26 37 76 38 27 39 81 40 75 41 77 42 28 43 80 44
REMARK SMILES IDX 74 45 73 46 29 48 61 49 41 50 60 51 42 52 45 53 59 54 78 55
REMARK SMILES IDX 43 56 44 57 58 59 79 60 46 61 30 62 31 63 39 64 32 65 33 66
REMARK SMILES IDX 37 67 40 68 34 69 35 70 38 71 36 72 62 73 63 74 71 75 64 76
REMARK SMILES IDX 65 77 69 78 72 79 66 80 67 81 70 82 68 83 47 84 48 85 56 86
REMARK SMILES IDX 49 87 50 88 54 89 57 90 51 91 52 92 55 93 53 94
REMARK H PARENT 14 5 18 28 77 47 45 58
REMARK Flexibility Score: inf
ROOT
ATOM      1  C   UNL A   1      31.787  28.375  26.192  1.00  0.00     0.117 C 
ENDROOT
BRANCH   1   2
ATOM      2  N   UNL A   1      31.156  27.194  26.720  1.00  0.00    -0.355 N 
ATOM      3  C   UNL A   1      31.002  25.982  26.148  1.00  0.00     0.230 C 
ATOM      4  O   UNL A   1      30.485  25.096  26.836  1.00  0.00    -0.274 OA
ATOM      5  H   UNL A   1      30.785  27.283  27.627  1.00  0.00     0.163 HD
BRANCH   3   6
ATOM      6  C   UNL A   1      31.561  25.656  24.788  1.00  0.00     0.178 C 
BRANCH   6   7
ATOM      7  S   UNL A   1      33.284  25.222  24.631  1.00  0.00    -0.078 SA
BRANCH   7   8
ATOM      8  C   UNL A   1      33.603  23.553  24.300  1.00  0.00     0.169 A 
ATOM      9  N   UNL A   1      34.764  22.811  24.313  1.00  0.00    -0.313 N 
ATOM     10  C   UNL A   1      34.371  21.481  24.471  1.00  0.00     0.072 A 
ATOM     11  N   UNL A   1      32.563  22.772  24.072  1.00  0.00    -0.221 NA
ATOM     12  C   UNL A   1      33.007  21.485  24.222  1.00  0.00     0.108 A 
ATOM     13  C   UNL A   1      35.051  20.306  24.810  1.00  0.00     0.049 A 
ATOM     14  C   UNL A   1      32.312  20.272  24.224  1.00  0.00     0.141 A 
ATOM     15  C   UNL A   1      34.267  19.161  24.846  1.00  0.00     0.113 A 
ATOM     16  N   UNL A   1      32.950  19.114  24.548  1.00  0.00    -0.262 NA
BRANCH   9  17
ATOM     17  C   UNL A   1      36.172  23.196  24.335  1.00  0.00     0.116 C 
ATOM     18  C   UNL A   1      36.843  22.763  23.029  1.00  0.00     0.034 C 
BRANCH  17  19
ATOM     19  C   UNL A   1      36.939  23.095  25.701  1.00  0.00     0.141 C 
ATOM     20  C   UNL A   1      37.878  24.179  26.225  1.00  0.00     0.036 C 
ATOM     21  O   UNL A   1      37.750  21.889  25.671  1.00  0.00    -0.376 OA
ATOM     22  C   UNL A   1      38.974  23.444  26.942  1.00  0.00     0.031 C 
ATOM     23  C   UNL A   1      39.084  22.207  26.092  1.00  0.00     0.160 C 
ENDBRANCH  17  19
ENDBRANCH   9  17
ENDBRANCH   7   8
ENDBRANCH   6   7
ENDBRANCH   3   6
ENDBRANCH   1   2
BRANCH   1  24
ATOM     24  C   UNL A   1      32.493  29.191  27.271  1.00  0.00     0.042 C 
BRANCH  24  25
ATOM     25  C   UNL A   1      33.570  30.137  26.747  1.00  0.00     0.118 C 
BRANCH  25  26
ATOM     26  N   UNL A   1      33.862  31.247  27.626  1.00  0.00    -0.352 N 
ATOM     27  C   UNL A   1      34.949  31.615  28.356  1.00  0.00     0.251 C 
ATOM     28  H   UNL A   1      33.109  31.873  27.717  1.00  0.00     0.163 HD
ATOM     29  O   UNL A   1      34.806  32.617  29.069  1.00  0.00    -0.269 OA
BRANCH  27  30
ATOM     30  C   UNL A   1      36.232  30.871  28.415  1.00  0.00     0.039 A 
ATOM     31  C   UNL A   1      36.441  29.556  27.998  1.00  0.00     0.014 A 
ATOM     32  C   UNL A   1      37.308  31.573  28.983  1.00  0.00     0.014 A 
ATOM     33  C   UNL A   1      37.626  28.902  28.316  1.00  0.00     0.010 A 
ATOM     34  C   UNL A   1      38.520  30.952  29.230  1.00  0.00     0.010 A 
ATOM     35  C   UNL A   1      38.649  29.596  28.968  1.00  0.00    -0.014 A 
BRANCH  35  36
ATOM     36  C   UNL A   1      39.921  28.918  29.188  1.00  0.00     0.031 A 
ATOM     37  C   UNL A   1      40.240  28.754  30.635  1.00  0.00     0.074 A 
ATOM     38  C   UNL A   1      40.675  28.400  28.193  1.00  0.00     0.049 A 
ATOM     39  N   UNL A   1      41.219  29.289  31.285  1.00  0.00    -0.248 NA
ATOM     40  C   UNL A   1      39.257  28.070  31.496  1.00  0.00     0.031 C 
ATOM     41  C   UNL A   1      40.356  28.302  26.767  1.00  0.00     0.029 A 
ATOM     42  N   UNL A   1      41.889  27.780  28.266  1.00  0.00    -0.354 N 
ATOM     43  C   UNL A   1      41.091  28.853  32.602  1.00  0.00     0.074 A 
ATOM     44  C   UNL A   1      39.792  28.246  32.707  1.00  0.00     0.031 C 
ATOM     45  C   UNL A   1      41.229  27.465  26.159  1.00  0.00     0.029 A 
ATOM     46  C   UNL A   1      42.256  27.087  27.112  1.00  0.00     0.049 A 
ATOM     47  H   UNL A   1      42.459  27.817  29.067  1.00  0.00     0.167 HD
ATOM     48  C   UNL A   1      42.175  28.819  33.425  1.00  0.00     0.037 A 
ATOM     49  C   UNL A   1      43.310  26.236  26.976  1.00  0.00     0.037 A 
ATOM     50  C   UNL A   1      43.220  29.676  32.927  1.00  0.00     0.049 A 
ATOM     51  C   UNL A   1      44.270  26.561  28.060  1.00  0.00     0.074 A 
ATOM     52  C   UNL A   1      43.350  31.035  32.726  1.00  0.00     0.029 A 
ATOM     53  N   UNL A   1      44.213  29.086  32.190  1.00  0.00    -0.354 N 
ATOM     54  N   UNL A   1      44.926  27.687  28.123  1.00  0.00    -0.248 NA
ATOM     55  C   UNL A   1      44.109  25.851  29.319  1.00  0.00     0.031 C 
ATOM     56  C   UNL A   1      44.101  31.158  31.520  1.00  0.00     0.029 A 
ATOM     57  C   UNL A   1      44.459  29.875  31.100  1.00  0.00     0.049 A 
ATOM     58  H   UNL A   1      44.670  28.241  32.406  1.00  0.00     0.167 HD
ATOM     59  C   UNL A   1      44.866  28.047  29.459  1.00  0.00     0.074 A 
ATOM     60  C   UNL A   1      44.390  26.853  30.157  1.00  0.00     0.031 C 
ATOM     61  C   UNL A   1      44.918  29.358  29.833  1.00  0.00     0.037 A 
BRANCH  48  62
ATOM     62  C   UNL A   1      42.456  27.708  34.410  1.00  0.00     0.064 A 
ATOM     63  C   UNL A   1      43.013  26.502  33.934  1.00  0.00     0.173 A 
ATOM     64  C   UNL A   1      41.905  27.650  35.708  1.00  0.00     0.173 A 
ATOM     65  F   UNL A   1      43.549  26.433  32.706  1.00  0.00    -0.203 F 
ATOM     66  C   UNL A   1      42.937  25.313  34.666  1.00  0.00     0.198 A 
ATOM     67  C   UNL A   1      41.876  26.473  36.455  1.00  0.00     0.198 A 
ATOM     68  F   UNL A   1      41.271  28.688  36.265  1.00  0.00    -0.203 F 
ATOM     69  F   UNL A   1      43.358  24.166  34.116  1.00  0.00    -0.200 F 
ATOM     70  C   UNL A   1      42.361  25.299  35.922  1.00  0.00     0.200 A 
ATOM     71  F   UNL A   1      41.291  26.475  37.661  1.00  0.00    -0.200 F 
ATOM     72  F   UNL A   1      42.227  24.151  36.597  1.00  0.00    -0.200 F 
ENDBRANCH  48  62
BRANCH  49  73
ATOM     73  C   UNL A   1      43.357  24.934  26.256  1.00  0.00     0.064 A 
ATOM     74  C   UNL A   1      44.263  24.710  25.202  1.00  0.00     0.173 A 
ATOM     75  C   UNL A   1      42.731  23.787  26.786  1.00  0.00     0.173 A 
ATOM     76  F   UNL A   1      44.948  25.735  24.673  1.00  0.00    -0.203 F 
ATOM     77  C   UNL A   1      44.540  23.421  24.726  1.00  0.00     0.198 A 
ATOM     78  C   UNL A   1      43.007  22.504  26.309  1.00  0.00     0.198 A 
ATOM     79  F   UNL A   1      41.914  23.880  27.844  1.00  0.00    -0.203 F 
ATOM     80  F   UNL A   1      45.455  23.244  23.760  1.00  0.00    -0.200 F 
ATOM     81  C   UNL A   1      43.920  22.318  25.287  1.00  0.00     0.200 A 
ATOM     82  F   UNL A   1      42.432  21.442  26.891  1.00  0.00    -0.200 F 
ATOM     83  F   UNL A   1      44.231  21.079  24.877  1.00  0.00    -0.200 F 
ENDBRANCH  49  73
BRANCH  61  84
ATOM     84  C   UNL A   1      45.287  30.380  28.794  1.00  0.00     0.064 A 
ATOM     85  C   UNL A   1      44.363  31.016  27.948  1.00  0.00     0.173 A 
ATOM     86  C   UNL A   1      46.600  30.868  28.800  1.00  0.00     0.173 A 
ATOM     87  F   UNL A   1      43.071  30.661  27.945  1.00  0.00    -0.203 F 
ATOM     88  C   UNL A   1      44.744  32.086  27.139  1.00  0.00     0.198 A 
ATOM     89  C   UNL A   1      46.970  31.957  28.019  1.00  0.00     0.198 A 
ATOM     90  F   UNL A   1      47.511  30.328  29.625  1.00  0.00    -0.203 F 
ATOM     91  F   UNL A   1      43.843  32.689  26.347  1.00  0.00    -0.200 F 
ATOM     92  C   UNL A   1      46.044  32.565  27.186  1.00  0.00     0.200 A 
ATOM     93  F   UNL A   1      48.214  32.446  28.107  1.00  0.00    -0.200 F 
ATOM     94  F   UNL A   1      46.397  33.630  26.454  1.00  0.00    -0.200 F 
ENDBRANCH  61  84
ENDBRANCH  35  36
ENDBRANCH  27  30
ENDBRANCH  25  26
ENDBRANCH  24  25
ENDBRANCH   1  24
TORSDOF 14
ENDMDL
