MODEL 1
REMARK VINA RESULT:     -12.8      0.000      0.000
REMARK SMILES CC1=C[C@@H]([C@@H]2N=N[C@H](S)N2/N=C/c2ccc(C(=O)NCCCNC(=O)c3ccc(-c4c5nc(c(-c6c(F)c(F)c(F)c(F)c6F)c6ccc([nH]6)c(-c6c(F)c(F)c(F)c(F)c6F)c6nc(c(-c7c(F)c(F)c(F)c(F)c7F)c7ccc4[nH]7)C=C6)C=C5)cc3)cc2)N=N1
REMARK SMILES IDX 20 1 19 2 17 3 18 4 16 6 13 7 14 8 90 9 15 10 89 11 12 12
REMARK SMILES IDX 11 13 10 14 5 15 6 16 7 17 8 18 4 19 1 20 2 21 3 22 92 23
REMARK SMILES IDX 91 24 9 25 21 27 22 28 23 29 24 30 25 32 26 33 27 34 88 35
REMARK SMILES IDX 28 36 87 37 29 38 30 39 31 40 81 41 32 42 86 43 80 44 82 45
REMARK SMILES IDX 33 46 85 47 79 48 78 49 34 51 66 52 46 53 65 54 47 55 50 56
REMARK SMILES IDX 64 57 83 58 48 59 49 60 63 62 84 63 51 64 35 65 36 66 44 67
REMARK SMILES IDX 37 68 38 69 42 70 45 71 39 72 40 73 43 74 41 75 67 76 68 77
REMARK SMILES IDX 76 78 69 79 70 80 74 81 77 82 71 83 72 84 75 85 73 86 52 87
REMARK SMILES IDX 53 88 61 89 54 90 55 91 59 92 62 93 56 94 57 95 60 96 58 97
REMARK H PARENT 19 5 9 26 23 31 82 50 50 61
REMARK Flexibility Score: inf
ROOT
ATOM      1  C   UNL A   1      43.098  18.875  25.810  1.00  0.00     0.118 C 
ENDROOT
BRANCH   1   2
ATOM      2  N   UNL A   1      43.057  20.020  26.709  1.00  0.00    -0.352 N 
ATOM      3  C   UNL A   1      42.034  20.866  27.067  1.00  0.00     0.251 C 
ATOM      4  O   UNL A   1      42.255  21.685  27.960  1.00  0.00    -0.269 OA
ATOM      5  H   UNL A   1      43.918  20.226  27.138  1.00  0.00     0.163 HD
BRANCH   3   6
ATOM      6  C   UNL A   1      40.671  20.807  26.465  1.00  0.00     0.039 A 
ATOM      7  C   UNL A   1      38.048  20.814  25.462  1.00  0.00    -0.005 A 
ATOM      8  C   UNL A   1      38.610  22.002  25.931  1.00  0.00     0.010 A 
ATOM      9  C   UNL A   1      38.808  19.647  25.424  1.00  0.00     0.010 A 
ATOM     10  C   UNL A   1      39.917  21.992  26.436  1.00  0.00     0.014 A 
ATOM     11  C   UNL A   1      40.119  19.655  25.900  1.00  0.00     0.014 A 
BRANCH   7  12
ATOM     12  C   UNL A   1      36.626  20.781  25.071  1.00  0.00     0.141 C 
ATOM     13  N   UNL A   1      35.734  21.408  25.772  1.00  0.00    -0.180 NA
BRANCH  13  14
ATOM     14  N   UNL A   1      34.480  21.374  25.272  1.00  0.00    -0.233 NA
ATOM     15  C   UNL A   1      34.121  22.134  24.071  1.00  0.00     0.274 C 
ATOM     16  N   UNL A   1      32.642  22.267  24.054  1.00  0.00    -0.161 NA
ATOM     17  N   UNL A   1      32.152  21.825  25.123  1.00  0.00    -0.153 NA
ATOM     18  C   UNL A   1      33.226  21.368  26.032  1.00  0.00     0.298 C 
BRANCH  15  19
ATOM     19  C   UNL A   1      34.800  23.521  23.920  1.00  0.00     0.201 C 
ATOM     20  C   UNL A   1      33.149  26.821  24.304  1.00  0.00     0.068 C 
ATOM     21  C   UNL A   1      33.813  25.543  23.944  1.00  0.00     0.058 C 
ATOM     22  C   UNL A   1      34.289  24.622  24.780  1.00  0.00     0.031 C 
ATOM     23  N   UNL A   1      33.974  25.190  22.629  1.00  0.00    -0.160 NA
ATOM     24  N   UNL A   1      34.538  24.061  22.546  1.00  0.00    -0.177 NA
ENDBRANCH  15  19
BRANCH  18  25
ATOM     25  S   UNL A   1      33.297  22.304  27.601  1.00  0.00    -0.128 SA
ATOM     26  H   UNL A   1      33.270  21.436  28.648  1.00  0.00     0.106 HD
ENDBRANCH  18  25
ENDBRANCH  13  14
ENDBRANCH   7  12
ENDBRANCH   3   6
ENDBRANCH   1   2
BRANCH   1  27
ATOM     27  C   UNL A   1      44.517  18.592  25.301  1.00  0.00     0.042 C 
BRANCH  27  28
ATOM     28  C   UNL A   1      45.391  19.833  25.214  1.00  0.00     0.118 C 
BRANCH  28  29
ATOM     29  N   UNL A   1      45.289  20.493  23.913  1.00  0.00    -0.352 N 
ATOM     30  C   UNL A   1      44.685  21.688  23.616  1.00  0.00     0.251 C 
ATOM     31  H   UNL A   1      45.706  20.021  23.156  1.00  0.00     0.163 HD
ATOM     32  O   UNL A   1      44.378  21.969  22.454  1.00  0.00    -0.269 OA
BRANCH  30  33
ATOM     33  C   UNL A   1      44.374  22.623  24.706  1.00  0.00     0.039 A 
ATOM     34  C   UNL A   1      45.334  22.915  25.679  1.00  0.00     0.014 A 
ATOM     35  C   UNL A   1      43.138  23.267  24.704  1.00  0.00     0.014 A 
ATOM     36  C   UNL A   1      45.081  23.932  26.595  1.00  0.00     0.010 A 
ATOM     37  C   UNL A   1      42.938  24.346  25.540  1.00  0.00     0.010 A 
ATOM     38  C   UNL A   1      43.891  24.674  26.509  1.00  0.00    -0.014 A 
BRANCH  38  39
ATOM     39  C   UNL A   1      43.701  25.851  27.366  1.00  0.00     0.031 A 
ATOM     40  C   UNL A   1      44.684  26.968  27.215  1.00  0.00     0.074 A 
ATOM     41  C   UNL A   1      42.583  26.070  28.090  1.00  0.00     0.049 A 
ATOM     42  N   UNL A   1      45.404  27.534  28.131  1.00  0.00    -0.248 NA
ATOM     43  C   UNL A   1      44.905  27.516  25.866  1.00  0.00     0.031 C 
ATOM     44  C   UNL A   1      41.358  25.264  28.122  1.00  0.00     0.029 A 
ATOM     45  N   UNL A   1      42.260  27.149  28.864  1.00  0.00    -0.354 N 
ATOM     46  C   UNL A   1      46.059  28.601  27.515  1.00  0.00     0.074 A 
ATOM     47  C   UNL A   1      45.791  28.484  26.105  1.00  0.00     0.031 C 
ATOM     48  C   UNL A   1      40.357  25.989  28.661  1.00  0.00     0.029 A 
ATOM     49  C   UNL A   1      40.914  27.224  29.181  1.00  0.00     0.049 A 
ATOM     50  H   UNL A   1      42.922  27.812  29.167  1.00  0.00     0.167 HD
ATOM     51  C   UNL A   1      46.619  29.614  28.235  1.00  0.00     0.037 A 
ATOM     52  C   UNL A   1      40.274  28.231  29.815  1.00  0.00     0.037 A 
ATOM     53  C   UNL A   1      46.777  29.261  29.618  1.00  0.00     0.049 A 
ATOM     54  C   UNL A   1      41.273  28.994  30.592  1.00  0.00     0.074 A 
ATOM     55  C   UNL A   1      47.545  28.372  30.338  1.00  0.00     0.029 A 
ATOM     56  N   UNL A   1      45.810  29.719  30.470  1.00  0.00    -0.354 N 
ATOM     57  N   UNL A   1      41.920  28.518  31.619  1.00  0.00    -0.248 NA
ATOM     58  C   UNL A   1      41.784  30.251  30.062  1.00  0.00     0.031 C 
ATOM     59  C   UNL A   1      46.780  28.056  31.500  1.00  0.00     0.029 A 
ATOM     60  C   UNL A   1      45.584  28.772  31.433  1.00  0.00     0.049 A 
ATOM     61  H   UNL A   1      45.351  30.587  30.402  1.00  0.00     0.167 HD
ATOM     62  C   UNL A   1      43.138  29.169  31.593  1.00  0.00     0.074 A 
ATOM     63  C   UNL A   1      42.923  30.339  30.753  1.00  0.00     0.031 C 
ATOM     64  C   UNL A   1      44.275  28.534  31.997  1.00  0.00     0.037 A 
BRANCH  51  65
ATOM     65  C   UNL A   1      46.693  31.062  27.796  1.00  0.00     0.064 A 
ATOM     66  C   UNL A   1      45.500  31.765  27.521  1.00  0.00     0.173 A 
ATOM     67  C   UNL A   1      47.876  31.669  27.325  1.00  0.00     0.173 A 
ATOM     68  F   UNL A   1      44.312  31.270  27.900  1.00  0.00    -0.203 F 
ATOM     69  C   UNL A   1      45.488  32.944  26.769  1.00  0.00     0.198 A 
ATOM     70  C   UNL A   1      47.866  32.874  26.620  1.00  0.00     0.198 A 
ATOM     71  F   UNL A   1      49.067  31.067  27.425  1.00  0.00    -0.203 F 
ATOM     72  F   UNL A   1      44.321  33.507  26.427  1.00  0.00    -0.200 F 
ATOM     73  C   UNL A   1      46.672  33.495  26.314  1.00  0.00     0.200 A 
ATOM     74  F   UNL A   1      49.020  33.382  26.167  1.00  0.00    -0.200 F 
ATOM     75  F   UNL A   1      46.662  34.589  25.541  1.00  0.00    -0.200 F 
ENDBRANCH  51  65
BRANCH  52  76
ATOM     76  C   UNL A   1      38.872  28.663  29.652  1.00  0.00     0.064 A 
ATOM     77  C   UNL A   1      38.042  28.880  30.759  1.00  0.00     0.173 A 
ATOM     78  C   UNL A   1      38.396  29.112  28.404  1.00  0.00     0.173 A 
ATOM     79  F   UNL A   1      38.443  28.515  31.985  1.00  0.00    -0.203 F 
ATOM     80  C   UNL A   1      36.812  29.532  30.630  1.00  0.00     0.198 A 
ATOM     81  C   UNL A   1      37.165  29.753  28.275  1.00  0.00     0.198 A 
ATOM     82  F   UNL A   1      39.156  29.014  27.303  1.00  0.00    -0.203 F 
ATOM     83  F   UNL A   1      36.071  29.777  31.720  1.00  0.00    -0.200 F 
ATOM     84  C   UNL A   1      36.380  29.976  29.392  1.00  0.00     0.200 A 
ATOM     85  F   UNL A   1      36.773  30.207  27.077  1.00  0.00    -0.200 F 
ATOM     86  F   UNL A   1      35.228  30.653  29.278  1.00  0.00    -0.200 F 
ENDBRANCH  52  76
BRANCH  64  87
ATOM     87  C   UNL A   1      44.114  27.344  32.895  1.00  0.00     0.064 A 
ATOM     88  C   UNL A   1      44.087  26.014  32.445  1.00  0.00     0.173 A 
ATOM     89  C   UNL A   1      44.079  27.560  34.278  1.00  0.00     0.173 A 
ATOM     90  F   UNL A   1      44.216  25.722  31.146  1.00  0.00    -0.203 F 
ATOM     91  C   UNL A   1      43.970  24.953  33.342  1.00  0.00     0.198 A 
ATOM     92  C   UNL A   1      44.003  26.497  35.173  1.00  0.00     0.198 A 
ATOM     93  F   UNL A   1      44.159  28.809  34.766  1.00  0.00    -0.203 F 
ATOM     94  F   UNL A   1      43.920  23.692  32.886  1.00  0.00    -0.200 F 
ATOM     95  C   UNL A   1      43.934  25.195  34.704  1.00  0.00     0.200 A 
ATOM     96  F   UNL A   1      44.015  26.735  36.492  1.00  0.00    -0.200 F 
ATOM     97  F   UNL A   1      43.854  24.173  35.568  1.00  0.00    -0.200 F 
ENDBRANCH  64  87
ENDBRANCH  38  39
ENDBRANCH  30  33
ENDBRANCH  28  29
ENDBRANCH  27  28
ENDBRANCH   1  27
TORSDOF 14
ENDMDL
MODEL 2
REMARK VINA RESULT:     -12.7      3.403      9.153
REMARK SMILES CC1=C[C@@H]([C@@H]2N=N[C@H](S)N2/N=C/c2ccc(C(=O)NCCCNC(=O)c3ccc(-c4c5nc(c(-c6c(F)c(F)c(F)c(F)c6F)c6ccc([nH]6)c(-c6c(F)c(F)c(F)c(F)c6F)c6nc(c(-c7c(F)c(F)c(F)c(F)c7F)c7ccc4[nH]7)C=C6)C=C5)cc3)cc2)N=N1
REMARK SMILES IDX 20 1 19 2 17 3 18 4 16 6 13 7 14 8 90 9 15 10 89 11 12 12
REMARK SMILES IDX 11 13 10 14 5 15 6 16 7 17 8 18 4 19 1 20 2 21 3 22 92 23
REMARK SMILES IDX 91 24 9 25 21 27 22 28 23 29 24 30 25 32 26 33 27 34 88 35
REMARK SMILES IDX 28 36 87 37 29 38 30 39 31 40 81 41 32 42 86 43 80 44 82 45
REMARK SMILES IDX 33 46 85 47 79 48 78 49 34 51 66 52 46 53 65 54 47 55 50 56
REMARK SMILES IDX 64 57 83 58 48 59 49 60 63 62 84 63 51 64 35 65 36 66 44 67
REMARK SMILES IDX 37 68 38 69 42 70 45 71 39 72 40 73 43 74 41 75 67 76 68 77
REMARK SMILES IDX 76 78 69 79 70 80 74 81 77 82 71 83 72 84 75 85 73 86 52 87
REMARK SMILES IDX 53 88 61 89 54 90 55 91 59 92 62 93 56 94 57 95 60 96 58 97
REMARK H PARENT 19 5 9 26 23 31 82 50 50 61
REMARK Flexibility Score: inf
ROOT
ATOM      1  C   UNL A   1      33.357  29.793  26.115  1.00  0.00     0.118 C 
ENDROOT
BRANCH   1   2
ATOM      2  N   UNL A   1      32.196  30.122  25.299  1.00  0.00    -0.352 N 
ATOM      3  C   UNL A   1      31.243  29.331  24.702  1.00  0.00     0.251 C 
ATOM      4  O   UNL A   1      30.286  29.892  24.168  1.00  0.00    -0.269 OA
ATOM      5  H   UNL A   1      32.071  31.086  25.148  1.00  0.00     0.163 HD
BRANCH   3   6
ATOM      6  C   UNL A   1      31.292  27.839  24.710  1.00  0.00     0.039 A 
ATOM      7  C   UNL A   1      31.457  25.043  24.897  1.00  0.00    -0.005 A 
ATOM      8  C   UNL A   1      31.092  25.788  26.019  1.00  0.00     0.010 A 
ATOM      9  C   UNL A   1      31.667  25.676  23.674  1.00  0.00     0.010 A 
ATOM     10  C   UNL A   1      31.017  27.184  25.922  1.00  0.00     0.014 A 
ATOM     11  C   UNL A   1      31.559  27.063  23.581  1.00  0.00     0.014 A 
BRANCH   7  12
ATOM     12  C   UNL A   1      31.687  23.591  25.026  1.00  0.00     0.141 C 
ATOM     13  N   UNL A   1      32.792  23.059  24.606  1.00  0.00    -0.180 NA
BRANCH  13  14
ATOM     14  N   UNL A   1      32.924  21.737  24.851  1.00  0.00    -0.233 NA
ATOM     15  C   UNL A   1      34.207  21.168  25.270  1.00  0.00     0.274 C 
ATOM     16  N   UNL A   1      34.153  19.707  25.006  1.00  0.00    -0.161 NA
ATOM     17  N   UNL A   1      33.102  19.415  24.383  1.00  0.00    -0.153 NA
ATOM     18  C   UNL A   1      32.316  20.635  24.098  1.00  0.00     0.298 C 
BRANCH  15  19
ATOM     19  C   UNL A   1      35.470  21.796  24.622  1.00  0.00     0.201 C 
ATOM     20  C   UNL A   1      38.958  21.454  25.841  1.00  0.00     0.068 C 
ATOM     21  C   UNL A   1      37.573  21.790  25.424  1.00  0.00     0.058 C 
ATOM     22  C   UNL A   1      36.738  21.025  24.722  1.00  0.00     0.031 C 
ATOM     23  N   UNL A   1      37.012  22.990  25.778  1.00  0.00    -0.160 NA
ATOM     24  N   UNL A   1      35.826  23.062  25.344  1.00  0.00    -0.177 NA
ENDBRANCH  15  19
BRANCH  18  25
ATOM     25  S   UNL A   1      32.113  20.969  22.313  1.00  0.00    -0.128 SA
ATOM     26  H   UNL A   1      32.598  19.919  21.597  1.00  0.00     0.106 HD
ENDBRANCH  18  25
ENDBRANCH  13  14
ENDBRANCH   7  12
ENDBRANCH   3   6
ENDBRANCH   1   2
BRANCH   1  27
ATOM     27  C   UNL A   1      33.317  30.488  27.482  1.00  0.00     0.042 C 
BRANCH  27  28
ATOM     28  C   UNL A   1      34.403  31.536  27.662  1.00  0.00     0.118 C 
BRANCH  28  29
ATOM     29  N   UNL A   1      34.378  32.136  28.997  1.00  0.00    -0.352 N 
ATOM     30  C   UNL A   1      35.168  31.831  30.075  1.00  0.00     0.251 C 
ATOM     31  H   UNL A   1      33.712  32.847  29.138  1.00  0.00     0.163 HD
ATOM     32  O   UNL A   1      34.834  32.162  31.216  1.00  0.00    -0.269 OA
BRANCH  30  33
ATOM     33  C   UNL A   1      36.408  31.072  29.862  1.00  0.00     0.039 A 
ATOM     34  C   UNL A   1      37.595  31.737  29.540  1.00  0.00     0.014 A 
ATOM     35  C   UNL A   1      36.393  29.693  30.065  1.00  0.00     0.014 A 
ATOM     36  C   UNL A   1      38.788  31.020  29.518  1.00  0.00     0.010 A 
ATOM     37  C   UNL A   1      37.589  29.010  30.151  1.00  0.00     0.010 A 
ATOM     38  C   UNL A   1      38.793  29.656  29.855  1.00  0.00    -0.014 A 
BRANCH  38  39
ATOM     39  C   UNL A   1      40.069  28.944  29.994  1.00  0.00     0.031 A 
ATOM     40  C   UNL A   1      40.609  28.780  31.380  1.00  0.00     0.074 A 
ATOM     41  C   UNL A   1      40.642  28.243  28.993  1.00  0.00     0.049 A 
ATOM     42  N   UNL A   1      41.776  29.114  31.830  1.00  0.00    -0.248 NA
ATOM     43  C   UNL A   1      39.730  28.181  32.397  1.00  0.00     0.031 C 
ATOM     44  C   UNL A   1      40.111  27.997  27.647  1.00  0.00     0.029 A 
ATOM     45  N   UNL A   1      41.781  27.488  29.016  1.00  0.00    -0.354 N 
ATOM     46  C   UNL A   1      41.843  28.642  33.142  1.00  0.00     0.074 A 
ATOM     47  C   UNL A   1      40.524  28.163  33.469  1.00  0.00     0.031 C 
ATOM     48  C   UNL A   1      40.781  26.972  27.082  1.00  0.00     0.029 A 
ATOM     49  C   UNL A   1      41.899  26.626  27.939  1.00  0.00     0.049 A 
ATOM     50  H   UNL A   1      42.453  27.549  29.732  1.00  0.00     0.167 HD
ATOM     51  C   UNL A   1      43.028  28.506  33.800  1.00  0.00     0.037 A 
ATOM     52  C   UNL A   1      42.836  25.671  27.750  1.00  0.00     0.037 A 
ATOM     53  C   UNL A   1      44.084  29.231  33.150  1.00  0.00     0.049 A 
ATOM     54  C   UNL A   1      44.016  26.016  28.570  1.00  0.00     0.074 A 
ATOM     55  C   UNL A   1      44.397  30.555  32.934  1.00  0.00     0.029 A 
ATOM     56  N   UNL A   1      44.904  28.499  32.335  1.00  0.00    -0.354 N 
ATOM     57  N   UNL A   1      44.775  27.055  28.360  1.00  0.00    -0.248 NA
ATOM     58  C   UNL A   1      44.226  25.339  29.842  1.00  0.00     0.031 C 
ATOM     59  C   UNL A   1      45.146  30.580  31.720  1.00  0.00     0.029 A 
ATOM     60  C   UNL A   1      45.258  29.268  31.258  1.00  0.00     0.049 A 
ATOM     61  H   UNL A   1      45.191  27.571  32.495  1.00  0.00     0.167 HD
ATOM     62  C   UNL A   1      45.235  27.407  29.614  1.00  0.00     0.074 A 
ATOM     63  C   UNL A   1      45.031  26.223  30.436  1.00  0.00     0.031 C 
ATOM     64  C   UNL A   1      45.447  28.715  29.937  1.00  0.00     0.037 A 
BRANCH  51  65
ATOM     65  C   UNL A   1      43.346  27.429  34.817  1.00  0.00     0.064 A 
ATOM     66  C   UNL A   1      43.653  27.799  36.145  1.00  0.00     0.173 A 
ATOM     67  C   UNL A   1      43.680  26.105  34.466  1.00  0.00     0.173 A 
ATOM     68  F   UNL A   1      43.402  29.042  36.584  1.00  0.00    -0.203 F 
ATOM     69  C   UNL A   1      44.310  26.933  37.025  1.00  0.00     0.198 A 
ATOM     70  C   UNL A   1      44.288  25.225  35.363  1.00  0.00     0.198 A 
ATOM     71  F   UNL A   1      43.539  25.650  33.215  1.00  0.00    -0.203 F 
ATOM     72  F   UNL A   1      44.692  27.371  38.233  1.00  0.00    -0.200 F 
ATOM     73  C   UNL A   1      44.631  25.648  36.631  1.00  0.00     0.200 A 
ATOM     74  F   UNL A   1      44.612  23.990  34.958  1.00  0.00    -0.200 F 
ATOM     75  F   UNL A   1      45.315  24.835  37.448  1.00  0.00    -0.200 F 
ENDBRANCH  51  65
BRANCH  52  76
ATOM     76  C   UNL A   1      42.699  24.393  27.024  1.00  0.00     0.064 A 
ATOM     77  C   UNL A   1      43.141  24.254  25.701  1.00  0.00     0.173 A 
ATOM     78  C   UNL A   1      42.356  23.209  27.706  1.00  0.00     0.173 A 
ATOM     79  F   UNL A   1      43.523  25.332  25.001  1.00  0.00    -0.203 F 
ATOM     80  C   UNL A   1      43.256  22.997  25.101  1.00  0.00     0.198 A 
ATOM     81  C   UNL A   1      42.461  21.957  27.102  1.00  0.00     0.198 A 
ATOM     82  F   UNL A   1      41.995  23.240  28.997  1.00  0.00    -0.203 F 
ATOM     83  F   UNL A   1      43.739  22.897  23.855  1.00  0.00    -0.200 F 
ATOM     84  C   UNL A   1      42.925  21.851  25.804  1.00  0.00     0.200 A 
ATOM     85  F   UNL A   1      42.169  20.853  27.803  1.00  0.00    -0.200 F 
ATOM     86  F   UNL A   1      43.091  20.643  25.247  1.00  0.00    -0.200 F 
ENDBRANCH  52  76
BRANCH  64  87
ATOM     87  C   UNL A   1      45.638  29.679  28.804  1.00  0.00     0.064 A 
ATOM     88  C   UNL A   1      44.591  30.362  28.164  1.00  0.00     0.173 A 
ATOM     89  C   UNL A   1      46.947  29.989  28.415  1.00  0.00     0.173 A 
ATOM     90  F   UNL A   1      43.321  30.193  28.548  1.00  0.00    -0.203 F 
ATOM     91  C   UNL A   1      44.846  31.272  27.140  1.00  0.00     0.198 A 
ATOM     92  C   UNL A   1      47.200  30.928  27.419  1.00  0.00     0.198 A 
ATOM     93  F   UNL A   1      47.988  29.407  29.031  1.00  0.00    -0.203 F 
ATOM     94  F   UNL A   1      43.828  31.894  26.526  1.00  0.00    -0.200 F 
ATOM     95  C   UNL A   1      46.149  31.558  26.772  1.00  0.00     0.200 A 
ATOM     96  F   UNL A   1      48.465  31.235  27.099  1.00  0.00    -0.200 F 
ATOM     97  F   UNL A   1      46.396  32.457  25.809  1.00  0.00    -0.200 F 
ENDBRANCH  64  87
ENDBRANCH  38  39
ENDBRANCH  30  33
ENDBRANCH  28  29
ENDBRANCH  27  28
ENDBRANCH   1  27
TORSDOF 14
ENDMDL
MODEL 3
REMARK VINA RESULT:     -12.6      3.371      9.189
REMARK SMILES CC1=C[C@@H]([C@@H]2N=N[C@H](S)N2/N=C/c2ccc(C(=O)NCCCNC(=O)c3ccc(-c4c5nc(c(-c6c(F)c(F)c(F)c(F)c6F)c6ccc([nH]6)c(-c6c(F)c(F)c(F)c(F)c6F)c6nc(c(-c7c(F)c(F)c(F)c(F)c7F)c7ccc4[nH]7)C=C6)C=C5)cc3)cc2)N=N1
REMARK SMILES IDX 20 1 19 2 17 3 18 4 16 6 13 7 14 8 90 9 15 10 89 11 12 12
REMARK SMILES IDX 11 13 10 14 5 15 6 16 7 17 8 18 4 19 1 20 2 21 3 22 92 23
REMARK SMILES IDX 91 24 9 25 21 27 22 28 23 29 24 30 25 32 26 33 27 34 88 35
REMARK SMILES IDX 28 36 87 37 29 38 30 39 31 40 81 41 32 42 86 43 80 44 82 45
REMARK SMILES IDX 33 46 85 47 79 48 78 49 34 51 66 52 46 53 65 54 47 55 50 56
REMARK SMILES IDX 64 57 83 58 48 59 49 60 63 62 84 63 51 64 35 65 36 66 44 67
REMARK SMILES IDX 37 68 38 69 42 70 45 71 39 72 40 73 43 74 41 75 67 76 68 77
REMARK SMILES IDX 76 78 69 79 70 80 74 81 77 82 71 83 72 84 75 85 73 86 52 87
REMARK SMILES IDX 53 88 61 89 54 90 55 91 59 92 62 93 56 94 57 95 60 96 58 97
REMARK H PARENT 19 5 9 26 23 31 82 50 50 61
REMARK Flexibility Score: inf
ROOT
ATOM      1  C   UNL A   1      33.404  29.837  26.121  1.00  0.00     0.118 C 
ENDROOT
BRANCH   1   2
ATOM      2  N   UNL A   1      32.238  30.164  25.312  1.00  0.00    -0.352 N 
ATOM      3  C   UNL A   1      31.284  29.371  24.720  1.00  0.00     0.251 C 
ATOM      4  O   UNL A   1      30.322  29.930  24.192  1.00  0.00    -0.269 OA
ATOM      5  H   UNL A   1      32.112  31.127  25.161  1.00  0.00     0.163 HD
BRANCH   3   6
ATOM      6  C   UNL A   1      31.334  27.880  24.729  1.00  0.00     0.039 A 
ATOM      7  C   UNL A   1      31.504  25.083  24.917  1.00  0.00    -0.005 A 
ATOM      8  C   UNL A   1      31.140  25.829  26.039  1.00  0.00     0.010 A 
ATOM      9  C   UNL A   1      31.710  25.716  23.693  1.00  0.00     0.010 A 
ATOM     10  C   UNL A   1      31.063  27.224  25.942  1.00  0.00     0.014 A 
ATOM     11  C   UNL A   1      31.600  27.103  23.600  1.00  0.00     0.014 A 
BRANCH   7  12
ATOM     12  C   UNL A   1      31.736  23.632  25.045  1.00  0.00     0.141 C 
ATOM     13  N   UNL A   1      32.844  23.102  24.630  1.00  0.00    -0.180 NA
BRANCH  13  14
ATOM     14  N   UNL A   1      32.978  21.781  24.874  1.00  0.00    -0.233 NA
ATOM     15  C   UNL A   1      34.265  21.211  25.283  1.00  0.00     0.274 C 
ATOM     16  N   UNL A   1      34.209  19.750  25.021  1.00  0.00    -0.161 NA
ATOM     17  N   UNL A   1      33.153  19.458  24.406  1.00  0.00    -0.153 NA
ATOM     18  C   UNL A   1      32.364  20.678  24.126  1.00  0.00     0.298 C 
BRANCH  15  19
ATOM     19  C   UNL A   1      35.522  21.840  24.627  1.00  0.00     0.201 C 
ATOM     20  C   UNL A   1      39.011  21.554  25.857  1.00  0.00     0.068 C 
ATOM     21  C   UNL A   1      37.624  21.868  25.432  1.00  0.00     0.058 C 
ATOM     22  C   UNL A   1      36.798  21.082  24.743  1.00  0.00     0.031 C 
ATOM     23  N   UNL A   1      37.050  23.070  25.762  1.00  0.00    -0.160 NA
ATOM     24  N   UNL A   1      35.865  23.123  25.324  1.00  0.00    -0.177 NA
ENDBRANCH  15  19
BRANCH  18  25
ATOM     25  S   UNL A   1      32.148  21.012  22.342  1.00  0.00    -0.128 SA
ATOM     26  H   UNL A   1      32.069  22.354  22.138  1.00  0.00     0.106 HD
ENDBRANCH  18  25
ENDBRANCH  13  14
ENDBRANCH   7  12
ENDBRANCH   3   6
ENDBRANCH   1   2
BRANCH   1  27
ATOM     27  C   UNL A   1      33.343  30.485  27.510  1.00  0.00     0.042 C 
BRANCH  27  28
ATOM     28  C   UNL A   1      34.404  31.550  27.731  1.00  0.00     0.118 C 
BRANCH  28  29
ATOM     29  N   UNL A   1      34.376  32.087  29.092  1.00  0.00    -0.352 N 
ATOM     30  C   UNL A   1      35.186  31.756  30.148  1.00  0.00     0.251 C 
ATOM     31  H   UNL A   1      33.690  32.769  29.272  1.00  0.00     0.163 HD
ATOM     32  O   UNL A   1      34.854  32.024  31.306  1.00  0.00    -0.269 OA
BRANCH  30  33
ATOM     33  C   UNL A   1      36.445  31.046  29.889  1.00  0.00     0.039 A 
ATOM     34  C   UNL A   1      37.597  31.757  29.542  1.00  0.00     0.014 A 
ATOM     35  C   UNL A   1      36.485  29.664  30.072  1.00  0.00     0.014 A 
ATOM     36  C   UNL A   1      38.814  31.084  29.476  1.00  0.00     0.010 A 
ATOM     37  C   UNL A   1      37.707  29.025  30.114  1.00  0.00     0.010 A 
ATOM     38  C   UNL A   1      38.878  29.718  29.793  1.00  0.00    -0.014 A 
BRANCH  38  39
ATOM     39  C   UNL A   1      40.182  29.050  29.885  1.00  0.00     0.031 A 
ATOM     40  C   UNL A   1      40.771  28.894  31.251  1.00  0.00     0.074 A 
ATOM     41  C   UNL A   1      40.748  28.379  28.859  1.00  0.00     0.049 A 
ATOM     42  N   UNL A   1      41.939  29.265  31.669  1.00  0.00    -0.248 NA
ATOM     43  C   UNL A   1      39.946  28.255  32.289  1.00  0.00     0.031 C 
ATOM     44  C   UNL A   1      40.184  28.126  27.528  1.00  0.00     0.029 A 
ATOM     45  N   UNL A   1      41.913  27.665  28.840  1.00  0.00    -0.354 N 
ATOM     46  C   UNL A   1      42.064  28.784  32.973  1.00  0.00     0.074 A 
ATOM     47  C   UNL A   1      40.774  28.255  33.336  1.00  0.00     0.031 C 
ATOM     48  C   UNL A   1      40.872  27.131  26.932  1.00  0.00     0.029 A 
ATOM     49  C   UNL A   1      42.028  26.817  27.751  1.00  0.00     0.049 A 
ATOM     50  H   UNL A   1      42.605  27.744  29.535  1.00  0.00     0.167 HD
ATOM     51  C   UNL A   1      43.274  28.684  33.592  1.00  0.00     0.037 A 
ATOM     52  C   UNL A   1      42.992  25.898  27.523  1.00  0.00     0.037 A 
ATOM     53  C   UNL A   1      44.282  29.453  32.916  1.00  0.00     0.049 A 
ATOM     54  C   UNL A   1      44.184  26.278  28.309  1.00  0.00     0.074 A 
ATOM     55  C   UNL A   1      44.541  30.789  32.704  1.00  0.00     0.029 A 
ATOM     56  N   UNL A   1      45.101  28.758  32.069  1.00  0.00    -0.354 N 
ATOM     57  N   UNL A   1      44.898  27.346  28.086  1.00  0.00    -0.248 NA
ATOM     58  C   UNL A   1      44.458  25.597  29.567  1.00  0.00     0.031 C 
ATOM     59  C   UNL A   1      45.250  30.851  31.468  1.00  0.00     0.029 A 
ATOM     60  C   UNL A   1      45.393  29.549  30.990  1.00  0.00     0.049 A 
ATOM     61  H   UNL A   1      45.426  27.840  32.211  1.00  0.00     0.167 HD
ATOM     62  C   UNL A   1      45.385  27.702  29.329  1.00  0.00     0.074 A 
ATOM     63  C   UNL A   1      45.249  26.505  30.145  1.00  0.00     0.031 C 
ATOM     64  C   UNL A   1      45.560  29.015  29.658  1.00  0.00     0.037 A 
BRANCH  51  65
ATOM     65  C   UNL A   1      43.661  27.611  34.588  1.00  0.00     0.064 A 
ATOM     66  C   UNL A   1      43.618  26.255  34.198  1.00  0.00     0.173 A 
ATOM     67  C   UNL A   1      43.750  27.839  35.977  1.00  0.00     0.173 A 
ATOM     68  F   UNL A   1      43.508  25.918  32.904  1.00  0.00    -0.203 F 
ATOM     69  C   UNL A   1      43.589  25.214  35.132  1.00  0.00     0.198 A 
ATOM     70  C   UNL A   1      43.775  26.795  36.904  1.00  0.00     0.198 A 
ATOM     71  F   UNL A   1      43.699  29.072  36.495  1.00  0.00    -0.203 F 
ATOM     72  F   UNL A   1      43.420  23.950  34.718  1.00  0.00    -0.200 F 
ATOM     73  C   UNL A   1      43.662  25.486  36.485  1.00  0.00     0.200 A 
ATOM     74  F   UNL A   1      43.825  27.078  38.213  1.00  0.00    -0.200 F 
ATOM     75  F   UNL A   1      43.573  24.497  37.385  1.00  0.00    -0.200 F 
ENDBRANCH  51  65
BRANCH  52  76
ATOM     76  C   UNL A   1      42.878  24.623  26.789  1.00  0.00     0.064 A 
ATOM     77  C   UNL A   1      43.454  24.455  25.523  1.00  0.00     0.173 A 
ATOM     78  C   UNL A   1      42.410  23.460  27.432  1.00  0.00     0.173 A 
ATOM     79  F   UNL A   1      43.957  25.510  24.865  1.00  0.00    -0.203 F 
ATOM     80  C   UNL A   1      43.577  23.191  24.940  1.00  0.00     0.198 A 
ATOM     81  C   UNL A   1      42.524  22.200  26.845  1.00  0.00     0.198 A 
ATOM     82  F   UNL A   1      41.913  23.516  28.676  1.00  0.00    -0.203 F 
ATOM     83  F   UNL A   1      44.187  23.061  23.754  1.00  0.00    -0.200 F 
ATOM     84  C   UNL A   1      43.121  22.065  25.605  1.00  0.00     0.200 A 
ATOM     85  F   UNL A   1      42.109  21.115  27.513  1.00  0.00    -0.200 F 
ATOM     86  F   UNL A   1      43.292  20.847  25.072  1.00  0.00    -0.200 F 
ENDBRANCH  52  76
BRANCH  64  87
ATOM     87  C   UNL A   1      45.681  29.994  28.529  1.00  0.00     0.064 A 
ATOM     88  C   UNL A   1      44.590  30.630  27.915  1.00  0.00     0.173 A 
ATOM     89  C   UNL A   1      46.965  30.371  28.117  1.00  0.00     0.173 A 
ATOM     90  F   UNL A   1      43.337  30.396  28.322  1.00  0.00    -0.203 F 
ATOM     91  C   UNL A   1      44.779  31.559  26.893  1.00  0.00     0.198 A 
ATOM     92  C   UNL A   1      47.153  31.329  27.124  1.00  0.00     0.198 A 
ATOM     93  F   UNL A   1      48.046  29.837  28.709  1.00  0.00    -0.203 F 
ATOM     94  F   UNL A   1      43.719  32.133  26.304  1.00  0.00    -0.200 F 
ATOM     95  C   UNL A   1      46.059  31.911  26.502  1.00  0.00     0.200 A 
ATOM     96  F   UNL A   1      48.394  31.700  26.782  1.00  0.00    -0.200 F 
ATOM     97  F   UNL A   1      46.242  32.828  25.542  1.00  0.00    -0.200 F 
ENDBRANCH  64  87
ENDBRANCH  38  39
ENDBRANCH  30  33
ENDBRANCH  28  29
ENDBRANCH  27  28
ENDBRANCH   1  27
TORSDOF 14
ENDMDL
