MODEL 1
REMARK VINA RESULT:     -12.5      0.000      0.000
REMARK SMILES CCSc1ccc(-c2cc(Cl)cc3c2O[C@H](C(F)(F)F)C(C(=O)NCCCNC(=O)c2ccc(-c4c5nc(c(-c6c(F)c(F)c(F)c(F)c6F)c6ccc([nH]6)c(-c6c(F)c(F)c(F)c(F)c6F)c6nc(c(-c7c(F)c(F)c(F)c(F)c7F)c7ccc4[nH]7)C=C6)C=C5)cc2)=C3)cc1
REMARK SMILES IDX 25 1 24 2 22 3 23 4 21 6 8 7 9 8 14 9 10 10 13 11 15 12
REMARK SMILES IDX 11 13 12 14 94 15 16 16 7 17 4 18 5 19 96 20 6 21 95 22 3 23
REMARK SMILES IDX 2 24 1 25 17 26 18 27 19 28 20 29 26 30 27 31 28 32 29 33
REMARK SMILES IDX 30 35 31 36 32 37 93 38 33 39 92 40 34 41 35 42 36 43 86 44
REMARK SMILES IDX 37 45 91 46 85 47 87 48 38 49 90 50 84 51 83 52 39 54 71 55
REMARK SMILES IDX 51 56 70 57 52 58 55 59 69 60 88 61 53 62 54 63 68 65 89 66
REMARK SMILES IDX 56 67 40 68 41 69 49 70 42 71 43 72 47 73 50 74 44 75 45 76
REMARK SMILES IDX 48 77 46 78 72 79 73 80 81 81 74 82 75 83 79 84 82 85 76 86
REMARK SMILES IDX 77 87 80 88 78 89 57 90 58 91 66 92 59 93 60 94 64 95 67 96
REMARK SMILES IDX 61 97 62 98 65 99 63 100
REMARK H PARENT 24 5 28 34 87 53 55 64
REMARK Flexibility Score: inf
ROOT
ATOM      1  C   UNL A   1      30.835  31.793  26.508  1.00  0.00     0.118 C 
ENDROOT
BRANCH   1   2
ATOM      2  N   UNL A   1      31.100  30.763  25.524  1.00  0.00    -0.352 N 
ATOM      3  C   UNL A   1      32.256  30.074  25.356  1.00  0.00     0.251 C 
ATOM      4  O   UNL A   1      32.667  29.850  24.223  1.00  0.00    -0.270 OA
ATOM      5  H   UNL A   1      30.362  30.539  24.912  1.00  0.00     0.163 HD
BRANCH   3   6
ATOM      6  C   UNL A   1      32.884  29.487  26.578  1.00  0.00     0.067 C 
ATOM      7  C   UNL A   1      33.225  25.600  25.387  1.00  0.00     0.026 A 
ATOM      8  C   UNL A   1      31.998  25.282  24.747  1.00  0.00     0.033 A 
ATOM      9  C   UNL A   1      33.238  26.801  26.128  1.00  0.00     0.135 A 
ATOM     10  C   UNL A   1      30.817  25.978  24.994  1.00  0.00     0.042 A 
ATOM     11  C   UNL A   1      32.006  27.419  26.462  1.00  0.00     0.019 A 
ATOM     12  O   UNL A   1      34.402  27.463  26.510  1.00  0.00    -0.475 OA
ATOM     13  Cl  UNL A   1      29.375  25.531  24.174  1.00  0.00    -0.084 Cl
ATOM     14  C   UNL A   1      30.797  27.000  25.920  1.00  0.00     0.032 A 
ATOM     15  C   UNL A   1      32.047  28.672  27.248  1.00  0.00     0.025 C 
ATOM     16  C   UNL A   1      34.300  28.957  26.404  1.00  0.00     0.314 C 
BRANCH   7  17
ATOM     17  C   UNL A   1      34.213  24.479  25.408  1.00  0.00    -0.015 A 
ATOM     18  C   UNL A   1      35.143  21.781  25.105  1.00  0.00     0.007 A 
ATOM     19  C   UNL A   1      35.274  22.696  24.063  1.00  0.00     0.015 A 
ATOM     20  C   UNL A   1      34.665  22.256  26.333  1.00  0.00     0.015 A 
ATOM     21  C   UNL A   1      34.834  24.028  24.220  1.00  0.00     0.010 A 
ATOM     22  C   UNL A   1      34.212  23.582  26.487  1.00  0.00     0.010 A 
BRANCH  18  23
ATOM     23  S   UNL A   1      35.653  20.068  25.001  1.00  0.00    -0.126 SA
BRANCH  23  24
ATOM     24  C   UNL A   1      34.118  19.132  24.627  1.00  0.00     0.071 C 
ATOM     25  C   UNL A   1      32.983  20.024  24.149  1.00  0.00     0.016 C 
ENDBRANCH  23  24
ENDBRANCH  18  23
ENDBRANCH   7  17
BRANCH  16  26
ATOM     26  C   UNL A   1      35.198  29.687  27.433  1.00  0.00     0.429 C 
ATOM     27  F   UNL A   1      35.473  28.935  28.521  1.00  0.00    -0.167 F 
ATOM     28  F   UNL A   1      36.377  30.057  26.876  1.00  0.00    -0.167 F 
ATOM     29  F   UNL A   1      34.631  30.835  27.896  1.00  0.00    -0.167 F 
ENDBRANCH  16  26
ENDBRANCH   3   6
ENDBRANCH   1   2
BRANCH   1  30
ATOM     30  C   UNL A   1      31.765  32.991  26.286  1.00  0.00     0.042 C 
BRANCH  30  31
ATOM     31  C   UNL A   1      32.674  33.334  27.466  1.00  0.00     0.118 C 
BRANCH  31  32
ATOM     32  N   UNL A   1      32.441  34.666  28.001  1.00  0.00    -0.352 N 
ATOM     33  C   UNL A   1      33.069  35.322  29.028  1.00  0.00     0.251 C 
ATOM     34  H   UNL A   1      31.722  35.174  27.560  1.00  0.00     0.163 HD
ATOM     35  O   UNL A   1      32.619  36.396  29.428  1.00  0.00    -0.269 OA
BRANCH  33  36
ATOM     36  C   UNL A   1      34.261  34.739  29.683  1.00  0.00     0.039 A 
ATOM     37  C   UNL A   1      34.091  34.067  30.896  1.00  0.00     0.014 A 
ATOM     38  C   UNL A   1      35.537  34.858  29.126  1.00  0.00     0.014 A 
ATOM     39  C   UNL A   1      35.188  33.462  31.513  1.00  0.00     0.010 A 
ATOM     40  C   UNL A   1      36.614  34.181  29.698  1.00  0.00     0.010 A 
ATOM     41  C   UNL A   1      36.452  33.474  30.899  1.00  0.00    -0.014 A 
BRANCH  41  42
ATOM     42  C   UNL A   1      37.589  32.731  31.503  1.00  0.00     0.031 A 
ATOM     43  C   UNL A   1      38.092  33.073  32.880  1.00  0.00     0.074 A 
ATOM     44  C   UNL A   1      38.183  31.748  30.795  1.00  0.00     0.049 A 
ATOM     45  N   UNL A   1      39.058  32.516  33.570  1.00  0.00    -0.248 NA
ATOM     46  C   UNL A   1      37.446  34.202  33.566  1.00  0.00     0.031 C 
ATOM     47  C   UNL A   1      37.832  31.364  29.426  1.00  0.00     0.029 A 
ATOM     48  N   UNL A   1      39.201  30.888  31.127  1.00  0.00    -0.354 N 
ATOM     49  C   UNL A   1      39.126  33.219  34.766  1.00  0.00     0.074 A 
ATOM     50  C   UNL A   1      38.156  34.288  34.683  1.00  0.00     0.031 C 
ATOM     51  C   UNL A   1      38.590  30.321  29.051  1.00  0.00     0.029 A 
ATOM     52  C   UNL A   1      39.508  29.988  30.135  1.00  0.00     0.049 A 
ATOM     53  H   UNL A   1      39.667  30.914  31.994  1.00  0.00     0.167 HD
ATOM     54  C   UNL A   1      39.902  32.974  35.849  1.00  0.00     0.037 A 
ATOM     55  C   UNL A   1      40.428  29.005  30.101  1.00  0.00     0.037 A 
ATOM     56  C   UNL A   1      40.862  31.903  35.935  1.00  0.00     0.049 A 
ATOM     57  C   UNL A   1      41.282  28.766  31.318  1.00  0.00     0.074 A 
ATOM     58  C   UNL A   1      41.674  31.554  37.000  1.00  0.00     0.029 A 
ATOM     59  N   UNL A   1      41.140  31.007  34.913  1.00  0.00    -0.354 N 
ATOM     60  N   UNL A   1      41.280  29.391  32.471  1.00  0.00    -0.248 NA
ATOM     61  C   UNL A   1      42.257  27.671  31.234  1.00  0.00     0.031 C 
ATOM     62  C   UNL A   1      42.476  30.478  36.607  1.00  0.00     0.029 A 
ATOM     63  C   UNL A   1      42.122  30.117  35.318  1.00  0.00     0.049 A 
ATOM     64  H   UNL A   1      40.703  31.005  34.030  1.00  0.00     0.167 HD
ATOM     65  C   UNL A   1      42.230  28.750  33.254  1.00  0.00     0.074 A 
ATOM     66  C   UNL A   1      42.762  27.664  32.458  1.00  0.00     0.031 C 
ATOM     67  C   UNL A   1      42.638  29.038  34.515  1.00  0.00     0.037 A 
BRANCH  54  68
ATOM     68  C   UNL A   1      39.732  33.864  37.047  1.00  0.00     0.064 A 
ATOM     69  C   UNL A   1      40.367  35.113  37.125  1.00  0.00     0.173 A 
ATOM     70  C   UNL A   1      38.871  33.502  38.095  1.00  0.00     0.173 A 
ATOM     71  F   UNL A   1      41.209  35.503  36.156  1.00  0.00    -0.203 F 
ATOM     72  C   UNL A   1      40.161  35.958  38.213  1.00  0.00     0.198 A 
ATOM     73  C   UNL A   1      38.644  34.363  39.166  1.00  0.00     0.198 A 
ATOM     74  F   UNL A   1      38.234  32.322  38.070  1.00  0.00    -0.203 F 
ATOM     75  F   UNL A   1      40.809  37.129  38.281  1.00  0.00    -0.200 F 
ATOM     76  C   UNL A   1      39.291  35.588  39.226  1.00  0.00     0.200 A 
ATOM     77  F   UNL A   1      37.791  34.010  40.138  1.00  0.00    -0.200 F 
ATOM     78  F   UNL A   1      39.079  36.410  40.262  1.00  0.00    -0.200 F 
ENDBRANCH  54  68
BRANCH  55  79
ATOM     79  C   UNL A   1      40.589  28.160  28.886  1.00  0.00     0.064 A 
ATOM     80  C   UNL A   1      41.416  28.561  27.827  1.00  0.00     0.173 A 
ATOM     81  C   UNL A   1      39.880  26.958  28.736  1.00  0.00     0.173 A 
ATOM     82  F   UNL A   1      42.103  29.711  27.912  1.00  0.00    -0.203 F 
ATOM     83  C   UNL A   1      41.491  27.821  26.649  1.00  0.00     0.198 A 
ATOM     84  C   UNL A   1      39.986  26.199  27.573  1.00  0.00     0.198 A 
ATOM     85  F   UNL A   1      39.081  26.521  29.720  1.00  0.00    -0.203 F 
ATOM     86  F   UNL A   1      42.229  28.269  25.624  1.00  0.00    -0.200 F 
ATOM     87  C   UNL A   1      40.777  26.638  26.524  1.00  0.00     0.200 A 
ATOM     88  F   UNL A   1      39.309  25.047  27.465  1.00  0.00    -0.200 F 
ATOM     89  F   UNL A   1      40.843  25.931  25.388  1.00  0.00    -0.200 F 
ENDBRANCH  55  79
BRANCH  67  90
ATOM     90  C   UNL A   1      43.684  28.141  35.115  1.00  0.00     0.064 A 
ATOM     91  C   UNL A   1      43.342  26.981  35.827  1.00  0.00     0.173 A 
ATOM     92  C   UNL A   1      45.046  28.450  34.982  1.00  0.00     0.173 A 
ATOM     93  F   UNL A   1      42.053  26.647  35.994  1.00  0.00    -0.203 F 
ATOM     94  C   UNL A   1      44.320  26.194  36.427  1.00  0.00     0.198 A 
ATOM     95  C   UNL A   1      46.024  27.638  35.550  1.00  0.00     0.198 A 
ATOM     96  F   UNL A   1      45.431  29.540  34.302  1.00  0.00    -0.203 F 
ATOM     97  F   UNL A   1      43.964  25.136  37.168  1.00  0.00    -0.200 F 
ATOM     98  C   UNL A   1      45.660  26.520  36.285  1.00  0.00     0.200 A 
ATOM     99  F   UNL A   1      47.320  27.945  35.396  1.00  0.00    -0.200 F 
ATOM    100  F   UNL A   1      46.600  25.765  36.868  1.00  0.00    -0.200 F 
ENDBRANCH  67  90
ENDBRANCH  41  42
ENDBRANCH  33  36
ENDBRANCH  31  32
ENDBRANCH  30  31
ENDBRANCH   1  30
TORSDOF 14
ENDMDL
MODEL 2
REMARK VINA RESULT:     -12.4      0.526      7.226
REMARK SMILES CCSc1ccc(-c2cc(Cl)cc3c2O[C@H](C(F)(F)F)C(C(=O)NCCCNC(=O)c2ccc(-c4c5nc(c(-c6c(F)c(F)c(F)c(F)c6F)c6ccc([nH]6)c(-c6c(F)c(F)c(F)c(F)c6F)c6nc(c(-c7c(F)c(F)c(F)c(F)c7F)c7ccc4[nH]7)C=C6)C=C5)cc2)=C3)cc1
REMARK SMILES IDX 25 1 24 2 22 3 23 4 21 6 8 7 9 8 14 9 10 10 13 11 15 12
REMARK SMILES IDX 11 13 12 14 94 15 16 16 7 17 4 18 5 19 96 20 6 21 95 22 3 23
REMARK SMILES IDX 2 24 1 25 17 26 18 27 19 28 20 29 26 30 27 31 28 32 29 33
REMARK SMILES IDX 30 35 31 36 32 37 93 38 33 39 92 40 34 41 35 42 36 43 86 44
REMARK SMILES IDX 37 45 91 46 85 47 87 48 38 49 90 50 84 51 83 52 39 54 71 55
REMARK SMILES IDX 51 56 70 57 52 58 55 59 69 60 88 61 53 62 54 63 68 65 89 66
REMARK SMILES IDX 56 67 40 68 41 69 49 70 42 71 43 72 47 73 50 74 44 75 45 76
REMARK SMILES IDX 48 77 46 78 72 79 73 80 81 81 74 82 75 83 79 84 82 85 76 86
REMARK SMILES IDX 77 87 80 88 78 89 57 90 58 91 66 92 59 93 60 94 64 95 67 96
REMARK SMILES IDX 61 97 62 98 65 99 63 100
REMARK H PARENT 24 5 28 34 87 53 55 64
REMARK Flexibility Score: inf
ROOT
ATOM      1  C   UNL A   1      30.801  31.737  26.390  1.00  0.00     0.118 C 
ENDROOT
BRANCH   1   2
ATOM      2  N   UNL A   1      31.079  30.689  25.427  1.00  0.00    -0.352 N 
ATOM      3  C   UNL A   1      32.236  29.993  25.291  1.00  0.00     0.251 C 
ATOM      4  O   UNL A   1      32.665  29.749  24.170  1.00  0.00    -0.270 OA
ATOM      5  H   UNL A   1      30.351  30.459  24.806  1.00  0.00     0.163 HD
BRANCH   3   6
ATOM      6  C   UNL A   1      32.838  29.424  26.533  1.00  0.00     0.067 C 
ATOM      7  C   UNL A   1      33.319  25.546  25.360  1.00  0.00     0.026 A 
ATOM      8  C   UNL A   1      32.122  25.196  24.681  1.00  0.00     0.033 A 
ATOM      9  C   UNL A   1      33.277  26.748  26.099  1.00  0.00     0.135 A 
ATOM     10  C   UNL A   1      30.916  25.861  24.889  1.00  0.00     0.042 A 
ATOM     11  C   UNL A   1      32.020  27.334  26.392  1.00  0.00     0.019 A 
ATOM     12  O   UNL A   1      34.410  27.440  26.517  1.00  0.00    -0.475 OA
ATOM     13  Cl  UNL A   1      29.513  25.375  24.024  1.00  0.00    -0.084 Cl
ATOM     14  C   UNL A   1      30.840  26.883  25.812  1.00  0.00     0.032 A 
ATOM     15  C   UNL A   1      32.002  28.588  27.178  1.00  0.00     0.025 C 
ATOM     16  C   UNL A   1      34.273  28.931  26.406  1.00  0.00     0.314 C 
BRANCH   7  17
ATOM     17  C   UNL A   1      34.335  24.452  25.415  1.00  0.00    -0.015 A 
ATOM     18  C   UNL A   1      35.358  21.788  25.101  1.00  0.00     0.007 A 
ATOM     19  C   UNL A   1      35.529  22.735  24.094  1.00  0.00     0.015 A 
ATOM     20  C   UNL A   1      34.791  22.217  26.309  1.00  0.00     0.015 A 
ATOM     21  C   UNL A   1      35.042  24.050  24.257  1.00  0.00     0.010 A 
ATOM     22  C   UNL A   1      34.292  23.525  26.467  1.00  0.00     0.010 A 
BRANCH  18  23
ATOM     23  S   UNL A   1      35.922  20.093  24.985  1.00  0.00    -0.126 SA
BRANCH  23  24
ATOM     24  C   UNL A   1      34.410  19.107  24.651  1.00  0.00     0.071 C 
ATOM     25  C   UNL A   1      34.714  17.662  24.284  1.00  0.00     0.016 C 
ENDBRANCH  23  24
ENDBRANCH  18  23
ENDBRANCH   7  17
BRANCH  16  26
ATOM     26  C   UNL A   1      35.118  29.684  27.462  1.00  0.00     0.429 C 
ATOM     27  F   UNL A   1      35.334  28.960  28.581  1.00  0.00    -0.167 F 
ATOM     28  F   UNL A   1      36.326  30.039  26.959  1.00  0.00    -0.167 F 
ATOM     29  F   UNL A   1      34.531  30.845  27.866  1.00  0.00    -0.167 F 
ENDBRANCH  16  26
ENDBRANCH   3   6
ENDBRANCH   1   2
BRANCH   1  30
ATOM     30  C   UNL A   1      31.858  32.842  26.290  1.00  0.00     0.042 C 
BRANCH  30  31
ATOM     31  C   UNL A   1      32.548  33.200  27.607  1.00  0.00     0.118 C 
BRANCH  31  32
ATOM     32  N   UNL A   1      32.441  34.610  27.946  1.00  0.00    -0.352 N 
ATOM     33  C   UNL A   1      33.145  35.348  28.862  1.00  0.00     0.251 C 
ATOM     34  H   UNL A   1      31.760  35.111  27.441  1.00  0.00     0.163 HD
ATOM     35  O   UNL A   1      32.797  36.505  29.106  1.00  0.00    -0.269 OA
BRANCH  33  36
ATOM     36  C   UNL A   1      34.295  34.762  29.584  1.00  0.00     0.039 A 
ATOM     37  C   UNL A   1      34.105  34.335  30.901  1.00  0.00     0.014 A 
ATOM     38  C   UNL A   1      35.554  34.644  28.989  1.00  0.00     0.014 A 
ATOM     39  C   UNL A   1      35.157  33.731  31.592  1.00  0.00     0.010 A 
ATOM     40  C   UNL A   1      36.577  33.964  29.650  1.00  0.00     0.010 A 
ATOM     41  C   UNL A   1      36.391  33.499  30.959  1.00  0.00    -0.014 A 
BRANCH  41  42
ATOM     42  C   UNL A   1      37.469  32.753  31.662  1.00  0.00     0.031 A 
ATOM     43  C   UNL A   1      38.147  31.578  31.011  1.00  0.00     0.074 A 
ATOM     44  C   UNL A   1      37.827  33.132  32.907  1.00  0.00     0.049 A 
ATOM     45  N   UNL A   1      39.119  30.827  31.468  1.00  0.00    -0.248 NA
ATOM     46  C   UNL A   1      37.658  31.175  29.684  1.00  0.00     0.031 C 
ATOM     47  C   UNL A   1      37.202  34.213  33.672  1.00  0.00     0.029 A 
ATOM     48  N   UNL A   1      38.805  32.659  33.745  1.00  0.00    -0.354 N 
ATOM     49  C   UNL A   1      39.360  29.876  30.485  1.00  0.00     0.074 A 
ATOM     50  C   UNL A   1      38.387  30.096  29.438  1.00  0.00     0.031 C 
ATOM     51  C   UNL A   1      37.836  34.347  34.847  1.00  0.00     0.029 A 
ATOM     52  C   UNL A   1      38.886  33.338  34.937  1.00  0.00     0.049 A 
ATOM     53  H   UNL A   1      39.393  31.903  33.514  1.00  0.00     0.167 HD
ATOM     54  C   UNL A   1      40.326  28.927  30.444  1.00  0.00     0.037 A 
ATOM     55  C   UNL A   1      39.713  33.167  35.986  1.00  0.00     0.037 A 
ATOM     56  C   UNL A   1      41.301  28.714  31.483  1.00  0.00     0.049 A 
ATOM     57  C   UNL A   1      40.770  32.096  35.912  1.00  0.00     0.074 A 
ATOM     58  C   UNL A   1      42.339  27.799  31.521  1.00  0.00     0.029 A 
ATOM     59  N   UNL A   1      41.357  29.427  32.673  1.00  0.00    -0.354 N 
ATOM     60  N   UNL A   1      41.034  31.254  34.942  1.00  0.00    -0.248 NA
ATOM     61  C   UNL A   1      41.655  31.962  37.077  1.00  0.00     0.031 C 
ATOM     62  C   UNL A   1      42.993  27.926  32.750  1.00  0.00     0.029 A 
ATOM     63  C   UNL A   1      42.401  28.960  33.455  1.00  0.00     0.049 A 
ATOM     64  H   UNL A   1      40.744  30.157  32.922  1.00  0.00     0.167 HD
ATOM     65  C   UNL A   1      42.128  30.513  35.367  1.00  0.00     0.074 A 
ATOM     66  C   UNL A   1      42.501  31.030  36.667  1.00  0.00     0.031 C 
ATOM     67  C   UNL A   1      42.762  29.488  34.746  1.00  0.00     0.037 A 
BRANCH  54  68
ATOM     68  C   UNL A   1      40.400  28.056  29.222  1.00  0.00     0.064 A 
ATOM     69  C   UNL A   1      39.659  26.868  29.126  1.00  0.00     0.173 A 
ATOM     70  C   UNL A   1      41.158  28.445  28.107  1.00  0.00     0.173 A 
ATOM     71  F   UNL A   1      38.926  26.444  30.167  1.00  0.00    -0.203 F 
ATOM     72  C   UNL A   1      39.688  26.095  27.968  1.00  0.00     0.198 A 
ATOM     73  C   UNL A   1      41.161  27.685  26.940  1.00  0.00     0.198 A 
ATOM     74  F   UNL A   1      41.882  29.574  28.141  1.00  0.00    -0.203 F 
ATOM     75  F   UNL A   1      39.001  24.945  27.916  1.00  0.00    -0.200 F 
ATOM     76  C   UNL A   1      40.429  26.509  26.873  1.00  0.00     0.200 A 
ATOM     77  F   UNL A   1      41.865  28.094  25.876  1.00  0.00    -0.200 F 
ATOM     78  F   UNL A   1      40.440  25.773  25.753  1.00  0.00    -0.200 F 
ENDBRANCH  54  68
BRANCH  55  79
ATOM     79  C   UNL A   1      39.594  34.029  37.194  1.00  0.00     0.064 A 
ATOM     80  C   UNL A   1      38.845  33.620  38.307  1.00  0.00     0.173 A 
ATOM     81  C   UNL A   1      40.182  35.302  37.240  1.00  0.00     0.173 A 
ATOM     82  F   UNL A   1      38.247  32.418  38.307  1.00  0.00    -0.203 F 
ATOM     83  C   UNL A   1      38.650  34.466  39.396  1.00  0.00     0.198 A 
ATOM     84  C   UNL A   1      40.019  36.132  38.347  1.00  0.00     0.198 A 
ATOM     85  F   UNL A   1      40.916  35.742  36.208  1.00  0.00    -0.203 F 
ATOM     86  F   UNL A   1      37.867  34.078  40.412  1.00  0.00    -0.200 F 
ATOM     87  C   UNL A   1      39.240  35.721  39.417  1.00  0.00     0.200 A 
ATOM     88  F   UNL A   1      40.606  37.336  38.370  1.00  0.00    -0.200 F 
ATOM     89  F   UNL A   1      39.046  36.538  40.461  1.00  0.00    -0.200 F 
ENDBRANCH  55  79
BRANCH  67  90
ATOM     90  C   UNL A   1      43.944  28.888  35.455  1.00  0.00     0.064 A 
ATOM     91  C   UNL A   1      45.252  29.339  35.220  1.00  0.00     0.173 A 
ATOM     92  C   UNL A   1      43.766  27.845  36.376  1.00  0.00     0.173 A 
ATOM     93  F   UNL A   1      45.479  30.326  34.339  1.00  0.00    -0.203 F 
ATOM     94  C   UNL A   1      46.341  28.732  35.840  1.00  0.00     0.198 A 
ATOM     95  C   UNL A   1      44.854  27.267  37.024  1.00  0.00     0.198 A 
ATOM     96  F   UNL A   1      42.536  27.383  36.646  1.00  0.00    -0.203 F 
ATOM     97  F   UNL A   1      47.586  29.127  35.540  1.00  0.00    -0.200 F 
ATOM     98  C   UNL A   1      46.141  27.700  36.744  1.00  0.00     0.200 A 
ATOM     99  F   UNL A   1      44.658  26.282  37.911  1.00  0.00    -0.200 F 
ATOM    100  F   UNL A   1      47.191  27.114  37.336  1.00  0.00    -0.200 F 
ENDBRANCH  67  90
ENDBRANCH  41  42
ENDBRANCH  33  36
ENDBRANCH  31  32
ENDBRANCH  30  31
ENDBRANCH   1  30
TORSDOF 14
ENDMDL
MODEL 3
REMARK VINA RESULT:     -12.2      2.475      3.949
REMARK SMILES CCSc1ccc(-c2cc(Cl)cc3c2O[C@H](C(F)(F)F)C(C(=O)NCCCNC(=O)c2ccc(-c4c5nc(c(-c6c(F)c(F)c(F)c(F)c6F)c6ccc([nH]6)c(-c6c(F)c(F)c(F)c(F)c6F)c6nc(c(-c7c(F)c(F)c(F)c(F)c7F)c7ccc4[nH]7)C=C6)C=C5)cc2)=C3)cc1
REMARK SMILES IDX 25 1 24 2 22 3 23 4 21 6 8 7 9 8 14 9 10 10 13 11 15 12
REMARK SMILES IDX 11 13 12 14 94 15 16 16 7 17 4 18 5 19 96 20 6 21 95 22 3 23
REMARK SMILES IDX 2 24 1 25 17 26 18 27 19 28 20 29 26 30 27 31 28 32 29 33
REMARK SMILES IDX 30 35 31 36 32 37 93 38 33 39 92 40 34 41 35 42 36 43 86 44
REMARK SMILES IDX 37 45 91 46 85 47 87 48 38 49 90 50 84 51 83 52 39 54 71 55
REMARK SMILES IDX 51 56 70 57 52 58 55 59 69 60 88 61 53 62 54 63 68 65 89 66
REMARK SMILES IDX 56 67 40 68 41 69 49 70 42 71 43 72 47 73 50 74 44 75 45 76
REMARK SMILES IDX 48 77 46 78 72 79 73 80 81 81 74 82 75 83 79 84 82 85 76 86
REMARK SMILES IDX 77 87 80 88 78 89 57 90 58 91 66 92 59 93 60 94 64 95 67 96
REMARK SMILES IDX 61 97 62 98 65 99 63 100
REMARK H PARENT 24 5 28 34 87 53 55 64
REMARK Flexibility Score: inf
ROOT
ATOM      1  C   UNL A   1      32.889  29.388  24.570  1.00  0.00     0.118 C 
ENDROOT
BRANCH   1   2
ATOM      2  N   UNL A   1      33.494  28.250  25.233  1.00  0.00    -0.352 N 
ATOM      3  C   UNL A   1      32.938  27.027  25.421  1.00  0.00     0.251 C 
ATOM      4  O   UNL A   1      33.089  26.454  26.494  1.00  0.00    -0.270 OA
ATOM      5  H   UNL A   1      34.404  28.379  25.585  1.00  0.00     0.163 HD
BRANCH   3   6
ATOM      6  C   UNL A   1      32.302  26.378  24.236  1.00  0.00     0.067 C 
ATOM      7  C   UNL A   1      33.505  22.524  24.823  1.00  0.00     0.026 A 
ATOM      8  C   UNL A   1      34.872  22.598  25.200  1.00  0.00     0.033 A 
ATOM      9  C   UNL A   1      32.948  23.709  24.297  1.00  0.00     0.135 A 
ATOM     10  C   UNL A   1      35.683  23.686  24.884  1.00  0.00     0.042 A 
ATOM     11  C   UNL A   1      33.813  24.751  23.876  1.00  0.00     0.019 A 
ATOM     12  O   UNL A   1      31.579  23.952  24.216  1.00  0.00    -0.475 OA
ATOM     13  Cl  UNL A   1      37.327  23.698  25.382  1.00  0.00    -0.084 Cl
ATOM     14  C   UNL A   1      35.177  24.734  24.145  1.00  0.00     0.032 A 
ATOM     15  C   UNL A   1      33.204  25.979  23.318  1.00  0.00     0.025 C 
ATOM     16  C   UNL A   1      31.205  25.369  24.544  1.00  0.00     0.314 C 
BRANCH   7  17
ATOM     17  C   UNL A   1      32.957  21.135  24.778  1.00  0.00    -0.015 A 
ATOM     18  C   UNL A   1      32.973  18.311  24.263  1.00  0.00     0.007 A 
ATOM     19  C   UNL A   1      33.300  18.802  25.525  1.00  0.00     0.015 A 
ATOM     20  C   UNL A   1      32.517  19.227  23.306  1.00  0.00     0.015 A 
ATOM     21  C   UNL A   1      33.272  20.190  25.782  1.00  0.00     0.010 A 
ATOM     22  C   UNL A   1      32.504  20.613  23.557  1.00  0.00     0.010 A 
BRANCH  18  23
ATOM     23  S   UNL A   1      32.994  16.574  23.832  1.00  0.00    -0.126 SA
BRANCH  23  24
ATOM     24  C   UNL A   1      33.378  15.695  25.397  1.00  0.00     0.071 C 
ATOM     25  C   UNL A   1      32.147  15.084  26.050  1.00  0.00     0.016 C 
ENDBRANCH  23  24
ENDBRANCH  18  23
ENDBRANCH   7  17
BRANCH  16  26
ATOM     26  C   UNL A   1      29.927  25.831  23.802  1.00  0.00     0.429 C 
ATOM     27  F   UNL A   1      28.912  26.136  24.639  1.00  0.00    -0.167 F 
ATOM     28  F   UNL A   1      30.174  26.920  23.035  1.00  0.00    -0.167 F 
ATOM     29  F   UNL A   1      29.448  24.881  22.952  1.00  0.00    -0.167 F 
ENDBRANCH  16  26
ENDBRANCH   3   6
ENDBRANCH   1   2
BRANCH   1  30
ATOM     30  C   UNL A   1      31.769  29.974  25.437  1.00  0.00     0.042 C 
BRANCH  30  31
ATOM     31  C   UNL A   1      32.207  30.463  26.818  1.00  0.00     0.118 C 
BRANCH  31  32
ATOM     32  N   UNL A   1      32.278  31.912  26.917  1.00  0.00    -0.352 N 
ATOM     33  C   UNL A   1      33.214  32.705  27.530  1.00  0.00     0.251 C 
ATOM     34  H   UNL A   1      31.542  32.398  26.479  1.00  0.00     0.163 HD
ATOM     35  O   UNL A   1      33.011  33.916  27.631  1.00  0.00    -0.269 OA
BRANCH  33  36
ATOM     36  C   UNL A   1      34.447  32.120  28.099  1.00  0.00     0.039 A 
ATOM     37  C   UNL A   1      35.570  32.940  28.237  1.00  0.00     0.014 A 
ATOM     38  C   UNL A   1      34.515  30.777  28.481  1.00  0.00     0.014 A 
ATOM     39  C   UNL A   1      36.733  32.431  28.818  1.00  0.00     0.010 A 
ATOM     40  C   UNL A   1      35.647  30.295  29.138  1.00  0.00     0.010 A 
ATOM     41  C   UNL A   1      36.769  31.117  29.315  1.00  0.00    -0.014 A 
BRANCH  41  42
ATOM     42  C   UNL A   1      37.972  30.618  30.035  1.00  0.00     0.031 A 
ATOM     43  C   UNL A   1      38.256  31.041  31.451  1.00  0.00     0.074 A 
ATOM     44  C   UNL A   1      38.822  29.787  29.397  1.00  0.00     0.049 A 
ATOM     45  N   UNL A   1      39.244  30.688  32.237  1.00  0.00    -0.248 NA
ATOM     46  C   UNL A   1      37.326  32.003  32.060  1.00  0.00     0.031 C 
ATOM     47  C   UNL A   1      38.693  29.356  28.003  1.00  0.00     0.029 A 
ATOM     48  N   UNL A   1      39.958  29.153  29.834  1.00  0.00    -0.354 N 
ATOM     49  C   UNL A   1      39.047  31.374  33.428  1.00  0.00     0.074 A 
ATOM     50  C   UNL A   1      37.890  32.221  33.240  1.00  0.00     0.031 C 
ATOM     51  C   UNL A   1      39.684  28.497  27.713  1.00  0.00     0.029 A 
ATOM     52  C   UNL A   1      40.540  28.348  28.885  1.00  0.00     0.049 A 
ATOM     53  H   UNL A   1      40.322  29.265  30.743  1.00  0.00     0.167 HD
ATOM     54  C   UNL A   1      39.748  31.283  34.584  1.00  0.00     0.037 A 
ATOM     55  C   UNL A   1      41.642  27.576  28.950  1.00  0.00     0.037 A 
ATOM     56  C   UNL A   1      40.896  30.433  34.773  1.00  0.00     0.049 A 
ATOM     57  C   UNL A   1      42.405  27.505  30.247  1.00  0.00     0.074 A 
ATOM     58  C   UNL A   1      41.654  30.247  35.916  1.00  0.00     0.029 A 
ATOM     59  N   UNL A   1      41.452  29.626  33.790  1.00  0.00    -0.354 N 
ATOM     60  N   UNL A   1      42.161  28.103  31.389  1.00  0.00    -0.248 NA
ATOM     61  C   UNL A   1      43.589  26.636  30.268  1.00  0.00     0.031 C 
ATOM     62  C   UNL A   1      42.696  29.364  35.612  1.00  0.00     0.029 A 
ATOM     63  C   UNL A   1      42.552  28.954  34.298  1.00  0.00     0.049 A 
ATOM     64  H   UNL A   1      41.113  29.543  32.869  1.00  0.00     0.167 HD
ATOM     65  C   UNL A   1      43.142  27.663  32.266  1.00  0.00     0.074 A 
ATOM     66  C   UNL A   1      43.962  26.719  31.536  1.00  0.00     0.031 C 
ATOM     67  C   UNL A   1      43.356  28.014  33.558  1.00  0.00     0.037 A 
BRANCH  54  68
ATOM     68  C   UNL A   1      39.281  32.104  35.752  1.00  0.00     0.064 A 
ATOM     69  C   UNL A   1      38.342  31.605  36.667  1.00  0.00     0.173 A 
ATOM     70  C   UNL A   1      39.829  33.372  36.004  1.00  0.00     0.173 A 
ATOM     71  F   UNL A   1      37.778  30.404  36.467  1.00  0.00    -0.203 F 
ATOM     72  C   UNL A   1      37.955  32.349  37.778  1.00  0.00     0.198 A 
ATOM     73  C   UNL A   1      39.462  34.100  37.133  1.00  0.00     0.198 A 
ATOM     74  F   UNL A   1      40.735  33.896  35.165  1.00  0.00    -0.203 F 
ATOM     75  F   UNL A   1      37.028  31.865  38.617  1.00  0.00    -0.200 F 
ATOM     76  C   UNL A   1      38.524  33.591  38.017  1.00  0.00     0.200 A 
ATOM     77  F   UNL A   1      40.025  35.294  37.371  1.00  0.00    -0.200 F 
ATOM     78  F   UNL A   1      38.165  34.296  39.098  1.00  0.00    -0.200 F 
ENDBRANCH  54  68
BRANCH  55  79
ATOM     79  C   UNL A   1      42.093  26.797  27.764  1.00  0.00     0.064 A 
ATOM     80  C   UNL A   1      41.589  25.516  27.502  1.00  0.00     0.173 A 
ATOM     81  C   UNL A   1      43.077  27.297  26.897  1.00  0.00     0.173 A 
ATOM     82  F   UNL A   1      40.659  24.984  28.310  1.00  0.00    -0.203 F 
ATOM     83  C   UNL A   1      42.082  24.746  26.450  1.00  0.00     0.198 A 
ATOM     84  C   UNL A   1      43.542  26.542  25.822  1.00  0.00     0.198 A 
ATOM     85  F   UNL A   1      43.590  28.520  27.095  1.00  0.00    -0.203 F 
ATOM     86  F   UNL A   1      41.636  23.496  26.271  1.00  0.00    -0.200 F 
ATOM     87  C   UNL A   1      43.057  25.261  25.609  1.00  0.00     0.200 A 
ATOM     88  F   UNL A   1      44.470  27.052  25.001  1.00  0.00    -0.200 F 
ATOM     89  F   UNL A   1      43.537  24.519  24.603  1.00  0.00    -0.200 F 
ENDBRANCH  55  79
BRANCH  67  90
ATOM     90  C   UNL A   1      44.502  27.346  34.266  1.00  0.00     0.064 A 
ATOM     91  C   UNL A   1      45.796  27.887  34.249  1.00  0.00     0.173 A 
ATOM     92  C   UNL A   1      44.303  26.145  34.964  1.00  0.00     0.173 A 
ATOM     93  F   UNL A   1      46.043  29.027  33.585  1.00  0.00    -0.203 F 
ATOM     94  C   UNL A   1      46.858  27.224  34.858  1.00  0.00     0.198 A 
ATOM     95  C   UNL A   1      45.360  25.505  35.606  1.00  0.00     0.198 A 
ATOM     96  F   UNL A   1      43.084  25.589  35.021  1.00  0.00    -0.203 F 
ATOM     97  F   UNL A   1      48.099  27.721  34.761  1.00  0.00    -0.200 F 
ATOM     98  C   UNL A   1      46.639  26.037  35.540  1.00  0.00     0.200 A 
ATOM     99  F   UNL A   1      45.142  24.367  36.279  1.00  0.00    -0.200 F 
ATOM    100  F   UNL A   1      47.662  25.398  36.121  1.00  0.00    -0.200 F 
ENDBRANCH  67  90
ENDBRANCH  41  42
ENDBRANCH  33  36
ENDBRANCH  31  32
ENDBRANCH  30  31
ENDBRANCH   1  30
TORSDOF 14
ENDMDL
