MODEL 1
REMARK VINA RESULT:     -13.8      0.000      0.000
REMARK SMILES COc1ccc(-n2c(SCc3cn(-c4ccc(C(=O)NCCCNC(=O)c5ccc(-c6c7nc(c(-c8c(F)c(F)c(F)c(F)c8F)c8ccc([nH]8)c(-c8c(F)c(F)c(F)c(F)c8F)c8nc(c(-c9c(F)c(F)c(F)c(F)c9F)c9ccc6[nH]9)C=C8)C=C7)cc5)cc4)nn3)nc3ccccc3c2=O)cc1
REMARK SMILES IDX 18 1 19 2 20 3 17 5 14 6 15 7 91 8 16 9 90 10 13 11 11 12
REMARK SMILES IDX 12 13 93 14 92 15 10 16 9 17 8 18 7 19 101 20 94 21 100 22
REMARK SMILES IDX 102 23 95 24 99 25 96 26 98 27 97 28 6 29 3 30 4 31 104 32
REMARK SMILES IDX 5 33 103 34 2 35 1 36 21 37 22 38 23 39 24 40 25 41 26 43
REMARK SMILES IDX 27 44 28 45 89 46 29 47 88 48 30 49 31 50 32 51 82 52 33 53
REMARK SMILES IDX 87 54 81 55 83 56 34 57 86 58 80 59 79 60 35 62 67 63 47 64
REMARK SMILES IDX 66 65 48 66 51 67 65 68 84 69 49 70 50 71 64 73 85 74 52 75
REMARK SMILES IDX 36 76 37 77 45 78 38 79 39 80 43 81 46 82 40 83 41 84 44 85
REMARK SMILES IDX 42 86 68 87 69 88 77 89 70 90 71 91 75 92 78 93 72 94 73 95
REMARK SMILES IDX 76 96 74 97 53 98 54 99 62 100 55 101 56 102 60 103 63 104
REMARK SMILES IDX 57 105 58 106 61 107 59 108
REMARK H PARENT 20 4 24 42 83 61 51 72
REMARK Flexibility Score: inf
ROOT
ATOM      1  C   UNL A   1      42.536  18.837  27.252  1.00  0.00     0.251 C 
ATOM      2  O   UNL A   1      42.318  18.341  28.357  1.00  0.00    -0.269 OA
ATOM      3  N   UNL A   1      43.643  18.397  26.562  1.00  0.00    -0.352 N 
ATOM      4  H   UNL A   1      44.197  17.762  27.069  1.00  0.00     0.163 HD
ENDROOT
BRANCH   1   5
ATOM      5  C   UNL A   1      41.567  19.823  26.700  1.00  0.00     0.039 A 
ATOM      6  C   UNL A   1      39.674  21.747  26.036  1.00  0.00     0.066 A 
ATOM      7  C   UNL A   1      40.897  22.169  26.545  1.00  0.00     0.029 A 
ATOM      8  C   UNL A   1      39.436  20.405  25.733  1.00  0.00     0.029 A 
ATOM      9  C   UNL A   1      41.829  21.192  26.907  1.00  0.00     0.016 A 
ATOM     10  C   UNL A   1      40.406  19.460  26.019  1.00  0.00     0.016 A 
BRANCH   6  11
ATOM     11  N   UNL A   1      38.586  22.623  26.021  1.00  0.00    -0.220 N 
ATOM     12  C   UNL A   1      36.589  23.400  25.701  1.00  0.00     0.093 A 
ATOM     13  C   UNL A   1      37.361  22.282  25.533  1.00  0.00     0.141 A 
ATOM     14  N   UNL A   1      37.335  24.349  26.351  1.00  0.00    -0.134 NA
ATOM     15  N   UNL A   1      38.531  23.828  26.616  1.00  0.00    -0.062 NA
BRANCH  12  16
ATOM     16  C   UNL A   1      35.177  23.631  25.349  1.00  0.00     0.138 C 
BRANCH  16  17
ATOM     17  S   UNL A   1      34.876  23.970  23.611  1.00  0.00    -0.081 SA
BRANCH  17  18
ATOM     18  C   UNL A   1      33.143  24.427  23.511  1.00  0.00     0.176 A 
ATOM     19  N   UNL A   1      32.606  24.794  24.723  1.00  0.00    -0.255 N 
ATOM     20  C   UNL A   1      31.948  23.803  25.435  1.00  0.00     0.266 A 
ATOM     21  N   UNL A   1      32.424  23.720  22.689  1.00  0.00    -0.223 NA
ATOM     22  C   UNL A   1      31.946  22.480  24.731  1.00  0.00     0.066 A 
ATOM     23  O   UNL A   1      31.434  23.918  26.540  1.00  0.00    -0.268 OA
ATOM     24  C   UNL A   1      32.051  22.515  23.326  1.00  0.00     0.079 A 
ATOM     25  C   UNL A   1      32.103  21.280  25.416  1.00  0.00     0.016 A 
ATOM     26  C   UNL A   1      32.152  21.332  22.599  1.00  0.00     0.029 A 
ATOM     27  C   UNL A   1      32.333  20.111  24.682  1.00  0.00     0.001 A 
ATOM     28  C   UNL A   1      32.316  20.129  23.282  1.00  0.00     0.002 A 
BRANCH  19  29
ATOM     29  C   UNL A   1      32.641  26.154  25.099  1.00  0.00     0.052 A 
ATOM     30  C   UNL A   1      32.245  28.533  26.500  1.00  0.00     0.119 A 
ATOM     31  C   UNL A   1      33.422  27.814  26.694  1.00  0.00     0.048 A 
ATOM     32  C   UNL A   1      31.335  28.140  25.519  1.00  0.00     0.048 A 
ATOM     33  C   UNL A   1      33.607  26.605  26.014  1.00  0.00     0.030 A 
ATOM     34  C   UNL A   1      31.544  26.962  24.799  1.00  0.00     0.030 A 
BRANCH  30  35
ATOM     35  O   UNL A   1      32.038  29.658  27.249  1.00  0.00    -0.497 OA
ATOM     36  C   UNL A   1      31.877  30.821  26.428  1.00  0.00     0.278 C 
ENDBRANCH  30  35
ENDBRANCH  19  29
ENDBRANCH  17  18
ENDBRANCH  16  17
ENDBRANCH  12  16
ENDBRANCH   6  11
ENDBRANCH   1   5
BRANCH   3  37
ATOM     37  C   UNL A   1      44.157  18.688  25.227  1.00  0.00     0.118 C 
BRANCH  37  38
ATOM     38  C   UNL A   1      45.681  18.887  25.220  1.00  0.00     0.042 C 
BRANCH  38  39
ATOM     39  C   UNL A   1      46.075  20.340  25.053  1.00  0.00     0.118 C 
BRANCH  39  40
ATOM     40  N   UNL A   1      45.598  20.925  23.793  1.00  0.00    -0.352 N 
ATOM     41  C   UNL A   1      44.809  22.056  23.605  1.00  0.00     0.251 C 
ATOM     42  H   UNL A   1      45.872  20.455  22.973  1.00  0.00     0.163 HD
ATOM     43  O   UNL A   1      44.211  22.252  22.569  1.00  0.00    -0.269 OA
BRANCH  41  44
ATOM     44  C   UNL A   1      44.732  23.022  24.716  1.00  0.00     0.039 A 
ATOM     45  C   UNL A   1      45.794  23.279  25.588  1.00  0.00     0.014 A 
ATOM     46  C   UNL A   1      43.554  23.741  24.802  1.00  0.00     0.014 A 
ATOM     47  C   UNL A   1      45.660  24.328  26.499  1.00  0.00     0.010 A 
ATOM     48  C   UNL A   1      43.572  24.942  25.434  1.00  0.00     0.010 A 
ATOM     49  C   UNL A   1      44.537  25.159  26.401  1.00  0.00    -0.014 A 
BRANCH  49  50
ATOM     50  C   UNL A   1      44.281  26.278  27.289  1.00  0.00     0.031 A 
ATOM     51  C   UNL A   1      45.134  27.473  27.088  1.00  0.00     0.074 A 
ATOM     52  C   UNL A   1      43.156  26.312  28.040  1.00  0.00     0.049 A 
ATOM     53  N   UNL A   1      45.970  27.986  27.927  1.00  0.00    -0.248 NA
ATOM     54  C   UNL A   1      45.140  28.120  25.767  1.00  0.00     0.031 C 
ATOM     55  C   UNL A   1      42.045  25.346  28.099  1.00  0.00     0.029 A 
ATOM     56  N   UNL A   1      42.701  27.318  28.826  1.00  0.00    -0.354 N 
ATOM     57  C   UNL A   1      46.484  29.124  27.315  1.00  0.00     0.074 A 
ATOM     58  C   UNL A   1      46.069  29.064  25.937  1.00  0.00     0.031 C 
ATOM     59  C   UNL A   1      40.962  25.929  28.653  1.00  0.00     0.029 A 
ATOM     60  C   UNL A   1      41.357  27.227  29.157  1.00  0.00     0.049 A 
ATOM     61  H   UNL A   1      43.277  28.053  29.136  1.00  0.00     0.167 HD
ATOM     62  C   UNL A   1      47.026  30.135  28.050  1.00  0.00     0.037 A 
ATOM     63  C   UNL A   1      40.621  28.190  29.763  1.00  0.00     0.037 A 
ATOM     64  C   UNL A   1      47.265  29.722  29.411  1.00  0.00     0.049 A 
ATOM     65  C   UNL A   1      41.585  29.098  30.442  1.00  0.00     0.074 A 
ATOM     66  C   UNL A   1      48.029  28.731  29.996  1.00  0.00     0.029 A 
ATOM     67  N   UNL A   1      46.352  30.097  30.369  1.00  0.00    -0.354 N 
ATOM     68  N   UNL A   1      42.334  28.725  31.447  1.00  0.00    -0.248 NA
ATOM     69  C   UNL A   1      42.082  30.241  29.687  1.00  0.00     0.031 C 
ATOM     70  C   UNL A   1      47.212  28.212  31.045  1.00  0.00     0.029 A 
ATOM     71  C   UNL A   1      46.040  28.968  31.086  1.00  0.00     0.049 A 
ATOM     72  H   UNL A   1      45.991  31.002  30.514  1.00  0.00     0.167 HD
ATOM     73  C   UNL A   1      43.577  29.293  31.196  1.00  0.00     0.074 A 
ATOM     74  C   UNL A   1      43.339  30.275  30.139  1.00  0.00     0.031 C 
ATOM     75  C   UNL A   1      44.731  28.709  31.640  1.00  0.00     0.037 A 
BRANCH  62  76
ATOM     76  C   UNL A   1      47.024  31.586  27.653  1.00  0.00     0.064 A 
ATOM     77  C   UNL A   1      45.794  32.262  27.532  1.00  0.00     0.173 A 
ATOM     78  C   UNL A   1      48.143  32.244  27.104  1.00  0.00     0.173 A 
ATOM     79  F   UNL A   1      44.664  31.716  28.006  1.00  0.00    -0.203 F 
ATOM     80  C   UNL A   1      45.685  33.472  26.841  1.00  0.00     0.198 A 
ATOM     81  C   UNL A   1      48.040  33.478  26.465  1.00  0.00     0.198 A 
ATOM     82  F   UNL A   1      49.352  31.672  27.060  1.00  0.00    -0.203 F 
ATOM     83  F   UNL A   1      44.478  34.017  26.640  1.00  0.00    -0.200 F 
ATOM     84  C   UNL A   1      46.807  34.075  26.303  1.00  0.00     0.200 A 
ATOM     85  F   UNL A   1      49.136  34.038  25.935  1.00  0.00    -0.200 F 
ATOM     86  F   UNL A   1      46.698  35.202  25.587  1.00  0.00    -0.200 F 
ENDBRANCH  62  76
BRANCH  63  87
ATOM     87  C   UNL A   1      39.208  28.536  29.476  1.00  0.00     0.064 A 
ATOM     88  C   UNL A   1      38.270  28.685  30.507  1.00  0.00     0.173 A 
ATOM     89  C   UNL A   1      38.803  28.973  28.195  1.00  0.00     0.173 A 
ATOM     90  F   UNL A   1      38.590  28.339  31.762  1.00  0.00    -0.203 F 
ATOM     91  C   UNL A   1      37.009  29.250  30.276  1.00  0.00     0.198 A 
ATOM     92  C   UNL A   1      37.544  29.527  27.965  1.00  0.00     0.198 A 
ATOM     93  F   UNL A   1      39.655  28.955  27.160  1.00  0.00    -0.203 F 
ATOM     94  F   UNL A   1      36.159  29.426  31.297  1.00  0.00    -0.200 F 
ATOM     95  C   UNL A   1      36.651  29.676  29.007  1.00  0.00     0.200 A 
ATOM     96  F   UNL A   1      37.226  29.970  26.740  1.00  0.00    -0.200 F 
ATOM     97  F   UNL A   1      35.466  30.267  28.798  1.00  0.00    -0.200 F 
ENDBRANCH  63  87
BRANCH  75  98
ATOM     98  C   UNL A   1      44.620  27.543  32.586  1.00  0.00     0.064 A 
ATOM     99  C   UNL A   1      44.382  27.673  33.966  1.00  0.00     0.173 A 
ATOM    100  C   UNL A   1      44.581  26.248  32.055  1.00  0.00     0.173 A 
ATOM    101  F   UNL A   1      44.288  28.876  34.538  1.00  0.00    -0.203 F 
ATOM    102  C   UNL A   1      44.160  26.563  34.779  1.00  0.00     0.198 A 
ATOM    103  C   UNL A   1      44.324  25.141  32.861  1.00  0.00     0.198 A 
ATOM    104  F   UNL A   1      44.735  26.060  30.735  1.00  0.00    -0.203 F 
ATOM    105  F   UNL A   1      43.940  26.724  36.093  1.00  0.00    -0.200 F 
ATOM    106  C   UNL A   1      44.124  25.297  34.224  1.00  0.00     0.200 A 
ATOM    107  F   UNL A   1      44.236  23.923  32.310  1.00  0.00    -0.200 F 
ATOM    108  F   UNL A   1      43.868  24.231  34.995  1.00  0.00    -0.200 F 
ENDBRANCH  75  98
ENDBRANCH  49  50
ENDBRANCH  41  44
ENDBRANCH  39  40
ENDBRANCH  38  39
ENDBRANCH  37  38
ENDBRANCH   3  37
TORSDOF 16
ENDMDL
MODEL 2
REMARK VINA RESULT:     -13.8      1.221      3.174
REMARK SMILES COc1ccc(-n2c(SCc3cn(-c4ccc(C(=O)NCCCNC(=O)c5ccc(-c6c7nc(c(-c8c(F)c(F)c(F)c(F)c8F)c8ccc([nH]8)c(-c8c(F)c(F)c(F)c(F)c8F)c8nc(c(-c9c(F)c(F)c(F)c(F)c9F)c9ccc6[nH]9)C=C8)C=C7)cc5)cc4)nn3)nc3ccccc3c2=O)cc1
REMARK SMILES IDX 18 1 19 2 20 3 17 5 14 6 15 7 91 8 16 9 90 10 13 11 11 12
REMARK SMILES IDX 12 13 93 14 92 15 10 16 9 17 8 18 7 19 101 20 94 21 100 22
REMARK SMILES IDX 102 23 95 24 99 25 96 26 98 27 97 28 6 29 3 30 4 31 104 32
REMARK SMILES IDX 5 33 103 34 2 35 1 36 21 37 22 38 23 39 24 40 25 41 26 43
REMARK SMILES IDX 27 44 28 45 89 46 29 47 88 48 30 49 31 50 32 51 82 52 33 53
REMARK SMILES IDX 87 54 81 55 83 56 34 57 86 58 80 59 79 60 35 62 67 63 47 64
REMARK SMILES IDX 66 65 48 66 51 67 65 68 84 69 49 70 50 71 64 73 85 74 52 75
REMARK SMILES IDX 36 76 37 77 45 78 38 79 39 80 43 81 46 82 40 83 41 84 44 85
REMARK SMILES IDX 42 86 68 87 69 88 77 89 70 90 71 91 75 92 78 93 72 94 73 95
REMARK SMILES IDX 76 96 74 97 53 98 54 99 62 100 55 101 56 102 60 103 63 104
REMARK SMILES IDX 57 105 58 106 61 107 59 108
REMARK H PARENT 20 4 24 42 83 61 51 72
REMARK Flexibility Score: inf
ROOT
ATOM      1  C   UNL A   1      42.893  18.565  27.239  1.00  0.00     0.251 C 
ATOM      2  O   UNL A   1      42.638  17.992  28.298  1.00  0.00    -0.269 OA
ATOM      3  N   UNL A   1      44.003  18.150  26.540  1.00  0.00    -0.352 N 
ATOM      4  H   UNL A   1      44.530  17.463  27.008  1.00  0.00     0.163 HD
ENDROOT
BRANCH   1   5
ATOM      5  C   UNL A   1      41.961  19.616  26.746  1.00  0.00     0.039 A 
ATOM      6  C   UNL A   1      40.141  21.643  26.195  1.00  0.00     0.066 A 
ATOM      7  C   UNL A   1      41.376  21.989  26.728  1.00  0.00     0.029 A 
ATOM      8  C   UNL A   1      39.855  20.330  25.813  1.00  0.00     0.029 A 
ATOM      9  C   UNL A   1      42.272  20.960  27.033  1.00  0.00     0.016 A 
ATOM     10  C   UNL A   1      40.791  19.336  26.044  1.00  0.00     0.016 A 
BRANCH   6  11
ATOM     11  N   UNL A   1      39.085  22.556  26.231  1.00  0.00    -0.220 N 
ATOM     12  C   UNL A   1      37.108  23.409  25.987  1.00  0.00     0.093 A 
ATOM     13  C   UNL A   1      37.834  22.269  25.774  1.00  0.00     0.141 A 
ATOM     14  N   UNL A   1      37.907  24.318  26.633  1.00  0.00    -0.134 NA
ATOM     15  N   UNL A   1      39.091  23.750  26.851  1.00  0.00    -0.062 NA
BRANCH  12  16
ATOM     16  C   UNL A   1      35.695  23.697  25.683  1.00  0.00     0.138 C 
BRANCH  16  17
ATOM     17  S   UNL A   1      34.524  23.132  26.921  1.00  0.00    -0.081 SA
BRANCH  17  18
ATOM     18  C   UNL A   1      33.023  22.750  26.014  1.00  0.00     0.176 A 
ATOM     19  N   UNL A   1      33.248  22.448  24.691  1.00  0.00    -0.255 N 
ATOM     20  C   UNL A   1      33.120  23.490  23.785  1.00  0.00     0.266 A 
ATOM     21  N   UNL A   1      31.981  23.462  26.330  1.00  0.00    -0.223 NA
ATOM     22  C   UNL A   1      32.750  24.788  24.437  1.00  0.00     0.066 A 
ATOM     23  O   UNL A   1      33.309  23.434  22.578  1.00  0.00    -0.268 OA
ATOM     24  C   UNL A   1      32.051  24.703  25.658  1.00  0.00     0.079 A 
ATOM     25  C   UNL A   1      33.287  26.002  24.020  1.00  0.00     0.016 A 
ATOM     26  C   UNL A   1      31.751  25.856  26.378  1.00  0.00     0.029 A 
ATOM     27  C   UNL A   1      33.089  27.134  24.817  1.00  0.00     0.001 A 
ATOM     28  C   UNL A   1      32.292  27.071  25.967  1.00  0.00     0.002 A 
BRANCH  19  29
ATOM     29  C   UNL A   1      33.460  21.101  24.328  1.00  0.00     0.052 A 
ATOM     30  C   UNL A   1      33.640  18.319  24.431  1.00  0.00     0.119 A 
ATOM     31  C   UNL A   1      32.481  18.910  23.936  1.00  0.00     0.048 A 
ATOM     32  C   UNL A   1      34.749  19.104  24.746  1.00  0.00     0.048 A 
ATOM     33  C   UNL A   1      32.379  20.306  23.913  1.00  0.00     0.030 A 
ATOM     34  C   UNL A   1      34.669  20.495  24.671  1.00  0.00     0.030 A 
BRANCH  30  35
ATOM     35  O   UNL A   1      33.682  16.956  24.540  1.00  0.00    -0.497 OA
ATOM     36  C   UNL A   1      32.791  16.477  25.555  1.00  0.00     0.278 C 
ENDBRANCH  30  35
ENDBRANCH  19  29
ENDBRANCH  17  18
ENDBRANCH  16  17
ENDBRANCH  12  16
ENDBRANCH   6  11
ENDBRANCH   1   5
BRANCH   3  37
ATOM     37  C   UNL A   1      44.554  18.528  25.242  1.00  0.00     0.118 C 
BRANCH  37  38
ATOM     38  C   UNL A   1      46.040  18.913  25.329  1.00  0.00     0.042 C 
BRANCH  38  39
ATOM     39  C   UNL A   1      46.261  20.404  25.187  1.00  0.00     0.118 C 
BRANCH  39  40
ATOM     40  N   UNL A   1      45.738  20.947  23.926  1.00  0.00    -0.352 N 
ATOM     41  C   UNL A   1      44.871  22.018  23.735  1.00  0.00     0.251 C 
ATOM     42  H   UNL A   1      46.042  20.493  23.107  1.00  0.00     0.163 HD
ATOM     43  O   UNL A   1      44.256  22.164  22.701  1.00  0.00    -0.269 OA
BRANCH  41  44
ATOM     44  C   UNL A   1      44.729  22.981  24.842  1.00  0.00     0.039 A 
ATOM     45  C   UNL A   1      45.629  23.068  25.908  1.00  0.00     0.014 A 
ATOM     46  C   UNL A   1      43.681  23.876  24.724  1.00  0.00     0.014 A 
ATOM     47  C   UNL A   1      45.483  24.122  26.810  1.00  0.00     0.010 A 
ATOM     48  C   UNL A   1      43.760  25.059  25.386  1.00  0.00     0.010 A 
ATOM     49  C   UNL A   1      44.541  25.119  26.526  1.00  0.00    -0.014 A 
BRANCH  49  50
ATOM     50  C   UNL A   1      44.293  26.263  27.384  1.00  0.00     0.031 A 
ATOM     51  C   UNL A   1      45.148  27.450  27.146  1.00  0.00     0.074 A 
ATOM     52  C   UNL A   1      43.172  26.321  28.140  1.00  0.00     0.049 A 
ATOM     53  N   UNL A   1      45.991  27.983  27.966  1.00  0.00    -0.248 NA
ATOM     54  C   UNL A   1      45.150  28.061  25.808  1.00  0.00     0.031 C 
ATOM     55  C   UNL A   1      42.059  25.360  28.231  1.00  0.00     0.029 A 
ATOM     56  N   UNL A   1      42.724  27.349  28.901  1.00  0.00    -0.354 N 
ATOM     57  C   UNL A   1      46.505  29.102  27.321  1.00  0.00     0.074 A 
ATOM     58  C   UNL A   1      46.082  29.006  25.947  1.00  0.00     0.031 C 
ATOM     59  C   UNL A   1      40.980  25.961  28.775  1.00  0.00     0.029 A 
ATOM     60  C   UNL A   1      41.381  27.272  29.241  1.00  0.00     0.049 A 
ATOM     61  H   UNL A   1      43.304  28.092  29.187  1.00  0.00     0.167 HD
ATOM     62  C   UNL A   1      47.053  30.131  28.026  1.00  0.00     0.037 A 
ATOM     63  C   UNL A   1      40.652  28.253  29.824  1.00  0.00     0.037 A 
ATOM     64  C   UNL A   1      47.298  29.756  29.396  1.00  0.00     0.049 A 
ATOM     65  C   UNL A   1      41.622  29.177  30.473  1.00  0.00     0.074 A 
ATOM     66  C   UNL A   1      48.063  28.778  30.004  1.00  0.00     0.029 A 
ATOM     67  N   UNL A   1      46.392  30.159  30.348  1.00  0.00    -0.354 N 
ATOM     68  N   UNL A   1      42.375  28.829  31.483  1.00  0.00    -0.248 NA
ATOM     69  C   UNL A   1      42.118  30.297  29.684  1.00  0.00     0.031 C 
ATOM     70  C   UNL A   1      47.249  28.291  31.070  1.00  0.00     0.029 A 
ATOM     71  C   UNL A   1      46.080  29.051  31.097  1.00  0.00     0.049 A 
ATOM     72  H   UNL A   1      46.034  31.069  30.470  1.00  0.00     0.167 HD
ATOM     73  C   UNL A   1      43.619  29.386  31.211  1.00  0.00     0.074 A 
ATOM     74  C   UNL A   1      43.378  30.340  30.128  1.00  0.00     0.031 C 
ATOM     75  C   UNL A   1      44.773  28.811  31.665  1.00  0.00     0.037 A 
BRANCH  62  76
ATOM     76  C   UNL A   1      47.053  31.571  27.588  1.00  0.00     0.064 A 
ATOM     77  C   UNL A   1      45.828  32.194  27.279  1.00  0.00     0.173 A 
ATOM     78  C   UNL A   1      48.213  32.260  27.180  1.00  0.00     0.173 A 
ATOM     79  F   UNL A   1      44.664  31.614  27.609  1.00  0.00    -0.203 F 
ATOM     80  C   UNL A   1      45.772  33.381  26.544  1.00  0.00     0.198 A 
ATOM     81  C   UNL A   1      48.154  33.473  26.496  1.00  0.00     0.198 A 
ATOM     82  F   UNL A   1      49.436  31.736  27.320  1.00  0.00    -0.203 F 
ATOM     83  F   UNL A   1      44.585  33.871  26.162  1.00  0.00    -0.200 F 
ATOM     84  C   UNL A   1      46.935  34.015  26.149  1.00  0.00     0.200 A 
ATOM     85  F   UNL A   1      49.292  34.064  26.106  1.00  0.00    -0.200 F 
ATOM     86  F   UNL A   1      46.885  35.119  25.391  1.00  0.00    -0.200 F 
ENDBRANCH  62  76
BRANCH  63  87
ATOM     87  C   UNL A   1      39.239  28.596  29.535  1.00  0.00     0.064 A 
ATOM     88  C   UNL A   1      38.294  28.721  30.563  1.00  0.00     0.173 A 
ATOM     89  C   UNL A   1      38.838  29.052  28.260  1.00  0.00     0.173 A 
ATOM     90  F   UNL A   1      38.609  28.356  31.814  1.00  0.00    -0.203 F 
ATOM     91  C   UNL A   1      37.030  29.282  30.334  1.00  0.00     0.198 A 
ATOM     92  C   UNL A   1      37.577  29.602  28.031  1.00  0.00     0.198 A 
ATOM     93  F   UNL A   1      39.695  29.057  27.229  1.00  0.00    -0.203 F 
ATOM     94  F   UNL A   1      36.173  29.436  31.353  1.00  0.00    -0.200 F 
ATOM     95  C   UNL A   1      36.677  29.728  29.071  1.00  0.00     0.200 A 
ATOM     96  F   UNL A   1      37.263  30.064  26.812  1.00  0.00    -0.200 F 
ATOM     97  F   UNL A   1      35.489  30.315  28.865  1.00  0.00    -0.200 F 
ENDBRANCH  63  87
BRANCH  75  98
ATOM     98  C   UNL A   1      44.664  27.672  32.643  1.00  0.00     0.064 A 
ATOM     99  C   UNL A   1      44.426  27.840  34.019  1.00  0.00     0.173 A 
ATOM    100  C   UNL A   1      44.625  26.363  32.148  1.00  0.00     0.173 A 
ATOM    101  F   UNL A   1      44.331  29.059  34.558  1.00  0.00    -0.203 F 
ATOM    102  C   UNL A   1      44.206  26.753  34.863  1.00  0.00     0.198 A 
ATOM    103  C   UNL A   1      44.370  25.278  32.985  1.00  0.00     0.198 A 
ATOM    104  F   UNL A   1      44.779  26.138  30.834  1.00  0.00    -0.203 F 
ATOM    105  F   UNL A   1      43.986  26.950  36.172  1.00  0.00    -0.200 F 
ATOM    106  C   UNL A   1      44.171  25.471  34.343  1.00  0.00     0.200 A 
ATOM    107  F   UNL A   1      44.284  24.045  32.468  1.00  0.00    -0.200 F 
ATOM    108  F   UNL A   1      43.916  24.427  35.143  1.00  0.00    -0.200 F 
ENDBRANCH  75  98
ENDBRANCH  49  50
ENDBRANCH  41  44
ENDBRANCH  39  40
ENDBRANCH  38  39
ENDBRANCH  37  38
ENDBRANCH   3  37
TORSDOF 16
ENDMDL
MODEL 3
REMARK VINA RESULT:     -13.7      1.265      2.190
REMARK SMILES COc1ccc(-n2c(SCc3cn(-c4ccc(C(=O)NCCCNC(=O)c5ccc(-c6c7nc(c(-c8c(F)c(F)c(F)c(F)c8F)c8ccc([nH]8)c(-c8c(F)c(F)c(F)c(F)c8F)c8nc(c(-c9c(F)c(F)c(F)c(F)c9F)c9ccc6[nH]9)C=C8)C=C7)cc5)cc4)nn3)nc3ccccc3c2=O)cc1
REMARK SMILES IDX 18 1 19 2 20 3 17 5 14 6 15 7 91 8 16 9 90 10 13 11 11 12
REMARK SMILES IDX 12 13 93 14 92 15 10 16 9 17 8 18 7 19 101 20 94 21 100 22
REMARK SMILES IDX 102 23 95 24 99 25 96 26 98 27 97 28 6 29 3 30 4 31 104 32
REMARK SMILES IDX 5 33 103 34 2 35 1 36 21 37 22 38 23 39 24 40 25 41 26 43
REMARK SMILES IDX 27 44 28 45 89 46 29 47 88 48 30 49 31 50 32 51 82 52 33 53
REMARK SMILES IDX 87 54 81 55 83 56 34 57 86 58 80 59 79 60 35 62 67 63 47 64
REMARK SMILES IDX 66 65 48 66 51 67 65 68 84 69 49 70 50 71 64 73 85 74 52 75
REMARK SMILES IDX 36 76 37 77 45 78 38 79 39 80 43 81 46 82 40 83 41 84 44 85
REMARK SMILES IDX 42 86 68 87 69 88 77 89 70 90 71 91 75 92 78 93 72 94 73 95
REMARK SMILES IDX 76 96 74 97 53 98 54 99 62 100 55 101 56 102 60 103 63 104
REMARK SMILES IDX 57 105 58 106 61 107 59 108
REMARK H PARENT 20 4 24 42 83 61 51 72
REMARK Flexibility Score: inf
ROOT
ATOM      1  C   UNL A   1      42.066  21.388  27.399  1.00  0.00     0.251 C 
ATOM      2  O   UNL A   1      42.565  22.049  28.309  1.00  0.00    -0.269 OA
ATOM      3  N   UNL A   1      42.811  20.355  26.877  1.00  0.00    -0.352 N 
ATOM      4  H   UNL A   1      43.719  20.295  27.254  1.00  0.00     0.163 HD
ENDROOT
BRANCH   1   5
ATOM      5  C   UNL A   1      40.676  21.695  26.963  1.00  0.00     0.039 A 
ATOM      6  C   UNL A   1      38.227  22.299  25.797  1.00  0.00     0.066 A 
ATOM      7  C   UNL A   1      38.774  21.041  25.573  1.00  0.00     0.029 A 
ATOM      8  C   UNL A   1      38.810  23.198  26.691  1.00  0.00     0.029 A 
ATOM      9  C   UNL A   1      40.022  20.759  26.137  1.00  0.00     0.016 A 
ATOM     10  C   UNL A   1      40.005  22.866  27.307  1.00  0.00     0.016 A 
BRANCH   6  11
ATOM     11  N   UNL A   1      37.203  22.770  24.971  1.00  0.00    -0.220 N 
ATOM     12  C   UNL A   1      35.517  23.931  24.263  1.00  0.00     0.093 A 
ATOM     13  C   UNL A   1      36.355  23.773  25.333  1.00  0.00     0.141 A 
ATOM     14  N   UNL A   1      35.925  23.086  23.263  1.00  0.00    -0.134 NA
ATOM     15  N   UNL A   1      37.012  22.441  23.681  1.00  0.00    -0.062 NA
BRANCH  12  16
ATOM     16  C   UNL A   1      34.389  24.861  24.080  1.00  0.00     0.138 C 
BRANCH  16  17
ATOM     17  S   UNL A   1      33.309  24.479  22.697  1.00  0.00    -0.081 SA
BRANCH  17  18
ATOM     18  C   UNL A   1      31.698  24.170  23.425  1.00  0.00     0.176 A 
ATOM     19  N   UNL A   1      31.498  24.839  24.610  1.00  0.00    -0.255 N 
ATOM     20  C   UNL A   1      31.776  24.138  25.773  1.00  0.00     0.266 A 
ATOM     21  N   UNL A   1      31.254  22.953  23.304  1.00  0.00    -0.223 NA
ATOM     22  C   UNL A   1      32.256  22.743  25.514  1.00  0.00     0.066 A 
ATOM     23  O   UNL A   1      31.695  24.564  26.918  1.00  0.00    -0.268 OA
ATOM     24  C   UNL A   1      31.841  22.148  24.305  1.00  0.00     0.079 A 
ATOM     25  C   UNL A   1      33.265  22.157  26.273  1.00  0.00     0.016 A 
ATOM     26  C   UNL A   1      32.316  20.891  23.941  1.00  0.00     0.029 A 
ATOM     27  C   UNL A   1      33.828  20.955  25.831  1.00  0.00     0.001 A 
ATOM     28  C   UNL A   1      33.330  20.305  24.695  1.00  0.00     0.002 A 
BRANCH  19  29
ATOM     29  C   UNL A   1      30.911  26.122  24.575  1.00  0.00     0.052 A 
ATOM     30  C   UNL A   1      30.237  28.714  23.796  1.00  0.00     0.119 A 
ATOM     31  C   UNL A   1      29.414  27.654  23.425  1.00  0.00     0.048 A 
ATOM     32  C   UNL A   1      31.312  28.500  24.659  1.00  0.00     0.048 A 
ATOM     33  C   UNL A   1      29.768  26.351  23.790  1.00  0.00     0.030 A 
ATOM     34  C   UNL A   1      31.635  27.207  25.070  1.00  0.00     0.030 A 
BRANCH  30  35
ATOM     35  O   UNL A   1      29.929  29.968  23.344  1.00  0.00    -0.497 OA
ATOM     36  C   UNL A   1      29.410  29.940  22.009  1.00  0.00     0.278 C 
ENDBRANCH  30  35
ENDBRANCH  19  29
ENDBRANCH  17  18
ENDBRANCH  16  17
ENDBRANCH  12  16
ENDBRANCH   6  11
ENDBRANCH   1   5
BRANCH   3  37
ATOM     37  C   UNL A   1      42.522  19.333  25.877  1.00  0.00     0.118 C 
BRANCH  37  38
ATOM     38  C   UNL A   1      43.791  18.844  25.159  1.00  0.00     0.042 C 
BRANCH  38  39
ATOM     39  C   UNL A   1      44.853  19.920  25.062  1.00  0.00     0.118 C 
BRANCH  39  40
ATOM     40  N   UNL A   1      44.836  20.632  23.777  1.00  0.00    -0.352 N 
ATOM     41  C   UNL A   1      44.463  21.948  23.519  1.00  0.00     0.251 C 
ATOM     42  H   UNL A   1      45.128  20.110  22.995  1.00  0.00     0.163 HD
ATOM     43  O   UNL A   1      44.175  22.321  22.403  1.00  0.00    -0.269 OA
BRANCH  41  44
ATOM     44  C   UNL A   1      44.437  22.882  24.659  1.00  0.00     0.039 A 
ATOM     45  C   UNL A   1      45.527  23.090  25.510  1.00  0.00     0.014 A 
ATOM     46  C   UNL A   1      43.278  23.624  24.797  1.00  0.00     0.014 A 
ATOM     47  C   UNL A   1      45.441  24.114  26.453  1.00  0.00     0.010 A 
ATOM     48  C   UNL A   1      43.340  24.806  25.462  1.00  0.00     0.010 A 
ATOM     49  C   UNL A   1      44.335  24.972  26.409  1.00  0.00    -0.014 A 
BRANCH  49  50
ATOM     50  C   UNL A   1      44.128  26.070  27.335  1.00  0.00     0.031 A 
ATOM     51  C   UNL A   1      45.049  27.221  27.193  1.00  0.00     0.074 A 
ATOM     52  C   UNL A   1      42.994  26.140  28.071  1.00  0.00     0.049 A 
ATOM     53  N   UNL A   1      45.900  27.654  28.062  1.00  0.00    -0.248 NA
ATOM     54  C   UNL A   1      45.115  27.916  25.897  1.00  0.00     0.031 C 
ATOM     55  C   UNL A   1      41.830  25.238  28.077  1.00  0.00     0.029 A 
ATOM     56  N   UNL A   1      42.584  27.141  28.888  1.00  0.00    -0.354 N 
ATOM     57  C   UNL A   1      46.487  28.783  27.501  1.00  0.00     0.074 A 
ATOM     58  C   UNL A   1      46.092  28.799  26.116  1.00  0.00     0.031 C 
ATOM     59  C   UNL A   1      40.772  25.861  28.637  1.00  0.00     0.029 A 
ATOM     60  C   UNL A   1      41.231  27.115  29.196  1.00  0.00     0.049 A 
ATOM     61  H   UNL A   1      43.195  27.830  29.234  1.00  0.00     0.167 HD
ATOM     62  C   UNL A   1      47.073  29.733  28.283  1.00  0.00     0.037 A 
ATOM     63  C   UNL A   1      40.541  28.094  29.827  1.00  0.00     0.037 A 
ATOM     64  C   UNL A   1      47.265  29.258  29.630  1.00  0.00     0.049 A 
ATOM     65  C   UNL A   1      41.543  28.921  30.554  1.00  0.00     0.074 A 
ATOM     66  C   UNL A   1      47.963  28.203  30.188  1.00  0.00     0.029 A 
ATOM     67  N   UNL A   1      46.360  29.648  30.589  1.00  0.00    -0.354 N 
ATOM     68  N   UNL A   1      42.254  28.468  31.555  1.00  0.00    -0.248 NA
ATOM     69  C   UNL A   1      42.116  30.060  29.851  1.00  0.00     0.031 C 
ATOM     70  C   UNL A   1      47.100  27.693  31.204  1.00  0.00     0.029 A 
ATOM     71  C   UNL A   1      45.972  28.513  31.257  1.00  0.00     0.049 A 
ATOM     72  H   UNL A   1      46.048  30.566  30.763  1.00  0.00     0.167 HD
ATOM     73  C   UNL A   1      43.531  28.973  31.344  1.00  0.00     0.074 A 
ATOM     74  C   UNL A   1      43.366  30.006  30.321  1.00  0.00     0.031 C 
ATOM     75  C   UNL A   1      44.642  28.309  31.782  1.00  0.00     0.037 A 
BRANCH  62  76
ATOM     76  C   UNL A   1      47.159  31.196  27.941  1.00  0.00     0.064 A 
ATOM     77  C   UNL A   1      48.406  31.847  28.022  1.00  0.00     0.173 A 
ATOM     78  C   UNL A   1      46.033  32.037  27.828  1.00  0.00     0.173 A 
ATOM     79  F   UNL A   1      49.539  31.140  28.148  1.00  0.00    -0.203 F 
ATOM     80  C   UNL A   1      48.506  33.240  28.067  1.00  0.00     0.198 A 
ATOM     81  C   UNL A   1      46.142  33.426  27.817  1.00  0.00     0.198 A 
ATOM     82  F   UNL A   1      44.784  31.556  27.842  1.00  0.00    -0.203 F 
ATOM     83  F   UNL A   1      49.699  33.815  28.274  1.00  0.00    -0.200 F 
ATOM     84  C   UNL A   1      47.374  34.027  27.971  1.00  0.00     0.200 A 
ATOM     85  F   UNL A   1      45.032  34.172  27.740  1.00  0.00    -0.200 F 
ATOM     86  F   UNL A   1      47.459  35.360  28.077  1.00  0.00    -0.200 F 
ENDBRANCH  62  76
BRANCH  63  87
ATOM     87  C   UNL A   1      39.155  28.532  29.534  1.00  0.00     0.064 A 
ATOM     88  C   UNL A   1      38.216  28.715  30.557  1.00  0.00     0.173 A 
ATOM     89  C   UNL A   1      38.792  29.020  28.258  1.00  0.00     0.173 A 
ATOM     90  F   UNL A   1      38.500  28.324  31.808  1.00  0.00    -0.203 F 
ATOM     91  C   UNL A   1      36.993  29.359  30.326  1.00  0.00     0.198 A 
ATOM     92  C   UNL A   1      37.571  29.653  28.027  1.00  0.00     0.198 A 
ATOM     93  F   UNL A   1      39.652  28.972  27.232  1.00  0.00    -0.203 F 
ATOM     94  F   UNL A   1      36.143  29.565  31.341  1.00  0.00    -0.200 F 
ATOM     95  C   UNL A   1      36.676  29.833  29.063  1.00  0.00     0.200 A 
ATOM     96  F   UNL A   1      37.295  30.140  26.809  1.00  0.00    -0.200 F 
ATOM     97  F   UNL A   1      35.531  30.498  28.855  1.00  0.00    -0.200 F 
ENDBRANCH  63  87
BRANCH  75  98
ATOM     98  C   UNL A   1      44.450  27.116  32.681  1.00  0.00     0.064 A 
ATOM     99  C   UNL A   1      44.373  25.790  32.219  1.00  0.00     0.173 A 
ATOM    100  C   UNL A   1      44.522  27.301  34.067  1.00  0.00     0.173 A 
ATOM    101  F   UNL A   1      44.415  25.512  30.913  1.00  0.00    -0.203 F 
ATOM    102  C   UNL A   1      44.323  24.709  33.098  1.00  0.00     0.198 A 
ATOM    103  C   UNL A   1      44.508  26.220  34.945  1.00  0.00     0.198 A 
ATOM    104  F   UNL A   1      44.663  28.537  34.571  1.00  0.00    -0.203 F 
ATOM    105  F   UNL A   1      44.245  23.457  32.622  1.00  0.00    -0.200 F 
ATOM    106  C   UNL A   1      44.398  24.925  34.462  1.00  0.00     0.200 A 
ATOM    107  F   UNL A   1      44.636  26.430  36.262  1.00  0.00    -0.200 F 
ATOM    108  F   UNL A   1      44.396  23.886  35.309  1.00  0.00    -0.200 F 
ENDBRANCH  75  98
ENDBRANCH  49  50
ENDBRANCH  41  44
ENDBRANCH  39  40
ENDBRANCH  38  39
ENDBRANCH  37  38
ENDBRANCH   3  37
TORSDOF 16
ENDMDL
