MODEL 1
REMARK VINA RESULT:     -14.4      0.000      0.000
REMARK SMILES Cc1ccc(C(=O)NCCCNC(=O)c2ccc(-c3c4nc(c(-c5c(F)c(F)c(F)c(F)c5F)c5ccc([nH]5)c(-c5c(F)c(F)c(F)c(F)c5F)c5nc(c(-c6c(F)c(F)c(F)c(F)c6F)c6ccc3[nH]6)C=C5)C=C4)cc2)cc1N1C(=O)/C(=C\c2nc3ccccc3n2C)SC1=S
REMARK SMILES IDX 10 1 9 2 8 3 6 4 7 5 5 7 1 8 2 9 3 10 79 11 4 12 78 13 80 14
REMARK SMILES IDX 81 15 96 16 82 17 83 18 95 19 97 20 84 21 85 22 86 23 93 24
REMARK SMILES IDX 87 25 92 26 94 27 88 28 91 29 89 30 90 31 11 32 12 33 13 34
REMARK SMILES IDX 14 36 15 37 16 38 77 39 17 40 76 41 18 42 19 43 20 44 70 45
REMARK SMILES IDX 21 46 75 47 69 48 71 49 22 50 74 51 68 52 67 53 23 55 55 56
REMARK SMILES IDX 35 57 54 58 36 59 39 60 53 61 72 62 37 63 38 64 52 66 73 67
REMARK SMILES IDX 40 68 24 69 25 70 33 71 26 72 27 73 31 74 34 75 28 76 29 77
REMARK SMILES IDX 32 78 30 79 56 80 57 81 65 82 58 83 59 84 63 85 66 86 60 87
REMARK SMILES IDX 61 88 64 89 62 90 41 91 42 92 50 93 43 94 44 95 48 96 51 97
REMARK SMILES IDX 45 98 46 99 49 100 47 101
REMARK H PARENT 8 6 12 35 71 54 39 65
REMARK Flexibility Score: inf
ROOT
ATOM      1  C   UNL A   1      32.483  33.707  27.754  1.00  0.00     0.042 C 
ENDROOT
BRANCH   1   2
ATOM      2  C   UNL A   1      32.325  32.270  27.247  1.00  0.00     0.118 C 
BRANCH   2   3
ATOM      3  N   UNL A   1      33.571  31.509  27.334  1.00  0.00    -0.352 N 
ATOM      4  C   UNL A   1      33.881  30.187  27.089  1.00  0.00     0.251 C 
ATOM      5  O   UNL A   1      35.076  29.881  27.115  1.00  0.00    -0.269 OA
ATOM      6  H   UNL A   1      34.341  32.048  27.626  1.00  0.00     0.163 HD
BRANCH   4   7
ATOM      7  C   UNL A   1      32.876  29.124  26.781  1.00  0.00     0.041 A 
ATOM      8  C   UNL A   1      30.086  25.852  26.126  1.00  0.00     0.046 C 
ATOM      9  C   UNL A   1      31.026  27.014  26.275  1.00  0.00    -0.027 A 
ATOM     10  C   UNL A   1      31.142  27.604  27.551  1.00  0.00     0.006 A 
ATOM     11  C   UNL A   1      31.821  27.521  25.239  1.00  0.00     0.054 A 
ATOM     12  C   UNL A   1      32.069  28.626  27.806  1.00  0.00     0.014 A 
ATOM     13  C   UNL A   1      32.681  28.595  25.514  1.00  0.00     0.041 A 
BRANCH  11  14
ATOM     14  N   UNL A   1      31.945  26.909  23.951  1.00  0.00    -0.261 N 
ATOM     15  C   UNL A   1      33.017  26.046  23.728  1.00  0.00     0.270 C 
ATOM     16  C   UNL A   1      31.264  27.304  22.815  1.00  0.00     0.152 C 
ATOM     17  O   UNL A   1      34.028  25.954  24.416  1.00  0.00    -0.268 OA
ATOM     18  C   UNL A   1      32.897  25.403  22.389  1.00  0.00     0.084 C 
ATOM     19  S   UNL A   1      31.803  26.327  21.431  1.00  0.00    -0.054 SA
ATOM     20  S   UNL A   1      30.184  28.564  22.616  1.00  0.00    -0.051 S 
ATOM     21  C   UNL A   1      33.526  24.287  21.982  1.00  0.00     0.068 C 
BRANCH  21  22
ATOM     22  C   UNL A   1      34.225  23.480  22.922  1.00  0.00     0.134 A 
ATOM     23  N   UNL A   1      35.511  23.527  23.210  1.00  0.00    -0.229 NA
ATOM     24  N   UNL A   1      33.618  22.477  23.651  1.00  0.00    -0.328 N 
ATOM     25  C   UNL A   1      35.785  22.366  23.876  1.00  0.00     0.089 A 
ATOM     26  C   UNL A   1      34.615  21.664  24.153  1.00  0.00     0.068 A 
ATOM     27  C   UNL A   1      32.203  22.288  23.861  1.00  0.00     0.152 C 
ATOM     28  C   UNL A   1      37.026  21.832  24.249  1.00  0.00     0.030 A 
ATOM     29  C   UNL A   1      34.626  20.419  24.797  1.00  0.00     0.028 A 
ATOM     30  C   UNL A   1      37.060  20.582  24.873  1.00  0.00     0.002 A 
ATOM     31  C   UNL A   1      35.878  19.889  25.138  1.00  0.00     0.002 A 
ENDBRANCH  21  22
ENDBRANCH  11  14
ENDBRANCH   4   7
ENDBRANCH   2   3
ENDBRANCH   1   2
BRANCH   1  32
ATOM     32  C   UNL A   1      33.879  34.035  28.238  1.00  0.00     0.118 C 
BRANCH  32  33
ATOM     33  N   UNL A   1      34.026  34.093  29.689  1.00  0.00    -0.352 N 
ATOM     34  C   UNL A   1      34.779  33.261  30.512  1.00  0.00     0.251 C 
ATOM     35  H   UNL A   1      33.528  34.810  30.142  1.00  0.00     0.163 HD
ATOM     36  O   UNL A   1      34.787  33.401  31.714  1.00  0.00    -0.269 OA
BRANCH  34  37
ATOM     37  C   UNL A   1      35.686  32.289  29.852  1.00  0.00     0.039 A 
ATOM     38  C   UNL A   1      35.908  31.081  30.519  1.00  0.00     0.014 A 
ATOM     39  C   UNL A   1      36.545  32.715  28.844  1.00  0.00     0.014 A 
ATOM     40  C   UNL A   1      37.145  30.459  30.389  1.00  0.00     0.010 A 
ATOM     41  C   UNL A   1      37.811  32.170  28.800  1.00  0.00     0.010 A 
ATOM     42  C   UNL A   1      38.130  31.090  29.630  1.00  0.00    -0.014 A 
BRANCH  42  43
ATOM     43  C   UNL A   1      39.527  30.689  29.660  1.00  0.00     0.031 A 
ATOM     44  C   UNL A   1      39.916  29.444  28.975  1.00  0.00     0.074 A 
ATOM     45  C   UNL A   1      40.460  31.441  30.287  1.00  0.00     0.049 A 
ATOM     46  N   UNL A   1      40.878  28.677  29.357  1.00  0.00    -0.248 NA
ATOM     47  C   UNL A   1      39.188  28.929  27.822  1.00  0.00     0.031 C 
ATOM     48  C   UNL A   1      41.909  31.278  30.213  1.00  0.00     0.029 A 
ATOM     49  N   UNL A   1      40.271  32.434  31.264  1.00  0.00    -0.354 N 
ATOM     50  C   UNL A   1      41.068  27.726  28.380  1.00  0.00     0.074 A 
ATOM     51  C   UNL A   1      39.945  27.880  27.486  1.00  0.00     0.031 C 
ATOM     52  C   UNL A   1      42.475  31.901  31.259  1.00  0.00     0.029 A 
ATOM     53  C   UNL A   1      41.405  32.379  32.113  1.00  0.00     0.049 A 
ATOM     54  H   UNL A   1      39.503  33.046  31.342  1.00  0.00     0.167 HD
ATOM     55  C   UNL A   1      42.229  27.008  28.373  1.00  0.00     0.037 A 
ATOM     56  C   UNL A   1      41.297  32.129  33.452  1.00  0.00     0.037 A 
ATOM     57  C   UNL A   1      43.077  27.388  29.502  1.00  0.00     0.049 A 
ATOM     58  C   UNL A   1      41.989  30.864  33.886  1.00  0.00     0.074 A 
ATOM     59  C   UNL A   1      44.119  28.296  29.604  1.00  0.00     0.029 A 
ATOM     60  N   UNL A   1      42.693  27.080  30.803  1.00  0.00    -0.354 N 
ATOM     61  N   UNL A   1      42.367  29.932  33.058  1.00  0.00    -0.248 NA
ATOM     62  C   UNL A   1      42.254  30.522  35.280  1.00  0.00     0.031 C 
ATOM     63  C   UNL A   1      44.327  28.573  30.976  1.00  0.00     0.029 A 
ATOM     64  C   UNL A   1      43.430  27.817  31.713  1.00  0.00     0.049 A 
ATOM     65  H   UNL A   1      41.993  26.430  31.043  1.00  0.00     0.167 HD
ATOM     66  C   UNL A   1      42.846  28.864  33.767  1.00  0.00     0.074 A 
ATOM     67  C   UNL A   1      42.793  29.298  35.151  1.00  0.00     0.031 C 
ATOM     68  C   UNL A   1      43.210  27.703  33.149  1.00  0.00     0.037 A 
BRANCH  55  69
ATOM     69  C   UNL A   1      42.734  26.213  27.186  1.00  0.00     0.064 A 
ATOM     70  C   UNL A   1      42.222  24.923  26.913  1.00  0.00     0.173 A 
ATOM     71  C   UNL A   1      43.755  26.629  26.310  1.00  0.00     0.173 A 
ATOM     72  F   UNL A   1      41.166  24.434  27.575  1.00  0.00    -0.203 F 
ATOM     73  C   UNL A   1      42.775  24.081  25.944  1.00  0.00     0.198 A 
ATOM     74  C   UNL A   1      44.346  25.768  25.378  1.00  0.00     0.198 A 
ATOM     75  F   UNL A   1      44.172  27.900  26.280  1.00  0.00    -0.203 F 
ATOM     76  F   UNL A   1      42.249  22.865  25.742  1.00  0.00    -0.200 F 
ATOM     77  C   UNL A   1      43.864  24.489  25.203  1.00  0.00     0.200 A 
ATOM     78  F   UNL A   1      45.384  26.196  24.645  1.00  0.00    -0.200 F 
ATOM     79  F   UNL A   1      44.424  23.666  24.306  1.00  0.00    -0.200 F 
ENDBRANCH  55  69
BRANCH  56  80
ATOM     80  C   UNL A   1      40.020  32.637  34.018  1.00  0.00     0.064 A 
ATOM     81  C   UNL A   1      39.122  31.671  34.507  1.00  0.00     0.173 A 
ATOM     82  C   UNL A   1      39.949  33.930  34.546  1.00  0.00     0.173 A 
ATOM     83  F   UNL A   1      39.124  30.432  33.988  1.00  0.00    -0.203 F 
ATOM     84  C   UNL A   1      38.365  31.919  35.645  1.00  0.00     0.198 A 
ATOM     85  C   UNL A   1      39.159  34.184  35.667  1.00  0.00     0.198 A 
ATOM     86  F   UNL A   1      40.747  34.901  34.080  1.00  0.00    -0.203 F 
ATOM     87  F   UNL A   1      37.667  30.926  36.210  1.00  0.00    -0.200 F 
ATOM     88  C   UNL A   1      38.430  33.160  36.256  1.00  0.00     0.200 A 
ATOM     89  F   UNL A   1      39.189  35.396  36.239  1.00  0.00    -0.200 F 
ATOM     90  F   UNL A   1      37.829  33.353  37.440  1.00  0.00    -0.200 F 
ENDBRANCH  56  80
BRANCH  68  91
ATOM     91  C   UNL A   1      43.503  26.402  33.852  1.00  0.00     0.064 A 
ATOM     92  C   UNL A   1      44.769  25.792  33.877  1.00  0.00     0.173 A 
ATOM     93  C   UNL A   1      42.511  25.770  34.638  1.00  0.00     0.173 A 
ATOM     94  F   UNL A   1      45.835  26.372  33.307  1.00  0.00    -0.203 F 
ATOM     95  C   UNL A   1      44.998  24.586  34.543  1.00  0.00     0.198 A 
ATOM     96  C   UNL A   1      42.760  24.603  35.358  1.00  0.00     0.198 A 
ATOM     97  F   UNL A   1      41.276  26.281  34.753  1.00  0.00    -0.203 F 
ATOM     98  F   UNL A   1      46.207  24.012  34.476  1.00  0.00    -0.200 F 
ATOM     99  C   UNL A   1      43.995  23.994  35.286  1.00  0.00     0.200 A 
ATOM    100  F   UNL A   1      41.798  24.079  36.132  1.00  0.00    -0.200 F 
ATOM    101  F   UNL A   1      44.228  22.855  35.951  1.00  0.00    -0.200 F 
ENDBRANCH  68  91
ENDBRANCH  42  43
ENDBRANCH  34  37
ENDBRANCH  32  33
ENDBRANCH   1  32
TORSDOF 12
ENDMDL
MODEL 2
REMARK VINA RESULT:     -14.3      1.837      2.554
REMARK SMILES Cc1ccc(C(=O)NCCCNC(=O)c2ccc(-c3c4nc(c(-c5c(F)c(F)c(F)c(F)c5F)c5ccc([nH]5)c(-c5c(F)c(F)c(F)c(F)c5F)c5nc(c(-c6c(F)c(F)c(F)c(F)c6F)c6ccc3[nH]6)C=C5)C=C4)cc2)cc1N1C(=O)/C(=C\c2nc3ccccc3n2C)SC1=S
REMARK SMILES IDX 10 1 9 2 8 3 6 4 7 5 5 7 1 8 2 9 3 10 79 11 4 12 78 13 80 14
REMARK SMILES IDX 81 15 96 16 82 17 83 18 95 19 97 20 84 21 85 22 86 23 93 24
REMARK SMILES IDX 87 25 92 26 94 27 88 28 91 29 89 30 90 31 11 32 12 33 13 34
REMARK SMILES IDX 14 36 15 37 16 38 77 39 17 40 76 41 18 42 19 43 20 44 70 45
REMARK SMILES IDX 21 46 75 47 69 48 71 49 22 50 74 51 68 52 67 53 23 55 55 56
REMARK SMILES IDX 35 57 54 58 36 59 39 60 53 61 72 62 37 63 38 64 52 66 73 67
REMARK SMILES IDX 40 68 24 69 25 70 33 71 26 72 27 73 31 74 34 75 28 76 29 77
REMARK SMILES IDX 32 78 30 79 56 80 57 81 65 82 58 83 59 84 63 85 66 86 60 87
REMARK SMILES IDX 61 88 64 89 62 90 41 91 42 92 50 93 43 94 44 95 48 96 51 97
REMARK SMILES IDX 45 98 46 99 49 100 47 101
REMARK H PARENT 8 6 12 35 71 54 39 65
REMARK Flexibility Score: inf
ROOT
ATOM      1  C   UNL A   1      33.536  33.734  27.933  1.00  0.00     0.042 C 
ENDROOT
BRANCH   1   2
ATOM      2  C   UNL A   1      33.163  32.271  27.676  1.00  0.00     0.118 C 
BRANCH   2   3
ATOM      3  N   UNL A   1      34.339  31.410  27.555  1.00  0.00    -0.352 N 
ATOM      4  C   UNL A   1      34.505  30.101  27.150  1.00  0.00     0.251 C 
ATOM      5  O   UNL A   1      35.665  29.701  27.019  1.00  0.00    -0.269 OA
ATOM      6  H   UNL A   1      35.179  31.852  27.814  1.00  0.00     0.163 HD
BRANCH   4   7
ATOM      7  C   UNL A   1      33.385  29.158  26.849  1.00  0.00     0.041 A 
ATOM      8  C   UNL A   1      30.236  26.226  26.214  1.00  0.00     0.046 C 
ATOM      9  C   UNL A   1      31.304  27.273  26.355  1.00  0.00    -0.027 A 
ATOM     10  C   UNL A   1      31.486  27.855  27.627  1.00  0.00     0.006 A 
ATOM     11  C   UNL A   1      32.153  27.677  25.317  1.00  0.00     0.054 A 
ATOM     12  C   UNL A   1      32.525  28.766  27.876  1.00  0.00     0.014 A 
ATOM     13  C   UNL A   1      33.131  28.646  25.585  1.00  0.00     0.041 A 
BRANCH  11  14
ATOM     14  N   UNL A   1      32.207  27.045  24.034  1.00  0.00    -0.261 N 
ATOM     15  C   UNL A   1      33.235  26.137  23.784  1.00  0.00     0.270 C 
ATOM     16  C   UNL A   1      31.502  27.452  22.917  1.00  0.00     0.152 C 
ATOM     17  O   UNL A   1      34.265  26.013  24.438  1.00  0.00    -0.268 OA
ATOM     18  C   UNL A   1      33.042  25.483  22.459  1.00  0.00     0.084 C 
ATOM     19  S   UNL A   1      31.952  26.438  21.528  1.00  0.00    -0.054 SA
ATOM     20  S   UNL A   1      30.466  28.751  22.739  1.00  0.00    -0.051 S 
ATOM     21  C   UNL A   1      33.611  24.337  22.046  1.00  0.00     0.068 C 
BRANCH  21  22
ATOM     22  C   UNL A   1      34.311  23.515  22.972  1.00  0.00     0.134 A 
ATOM     23  N   UNL A   1      35.600  23.547  23.249  1.00  0.00    -0.229 NA
ATOM     24  N   UNL A   1      33.701  22.509  23.696  1.00  0.00    -0.328 N 
ATOM     25  C   UNL A   1      35.869  22.377  23.901  1.00  0.00     0.089 A 
ATOM     26  C   UNL A   1      34.695  21.683  24.182  1.00  0.00     0.068 A 
ATOM     27  C   UNL A   1      32.286  22.331  23.916  1.00  0.00     0.152 C 
ATOM     28  C   UNL A   1      37.108  21.828  24.257  1.00  0.00     0.030 A 
ATOM     29  C   UNL A   1      34.700  20.432  24.812  1.00  0.00     0.028 A 
ATOM     30  C   UNL A   1      37.136  20.571  24.869  1.00  0.00     0.002 A 
ATOM     31  C   UNL A   1      35.950  19.886  25.138  1.00  0.00     0.002 A 
ENDBRANCH  21  22
ENDBRANCH  11  14
ENDBRANCH   4   7
ENDBRANCH   2   3
ENDBRANCH   1   2
BRANCH   1  32
ATOM     32  C   UNL A   1      34.061  33.997  29.329  1.00  0.00     0.118 C 
BRANCH  32  33
ATOM     33  N   UNL A   1      33.126  34.685  30.213  1.00  0.00    -0.352 N 
ATOM     34  C   UNL A   1      33.174  34.795  31.600  1.00  0.00     0.251 C 
ATOM     35  H   UNL A   1      32.365  35.126  29.773  1.00  0.00     0.163 HD
ATOM     36  O   UNL A   1      32.310  35.374  32.219  1.00  0.00    -0.269 OA
BRANCH  34  37
ATOM     37  C   UNL A   1      34.401  34.306  32.280  1.00  0.00     0.039 A 
ATOM     38  C   UNL A   1      35.464  35.206  32.387  1.00  0.00     0.014 A 
ATOM     39  C   UNL A   1      34.603  32.940  32.447  1.00  0.00     0.014 A 
ATOM     40  C   UNL A   1      36.765  34.716  32.354  1.00  0.00     0.010 A 
ATOM     41  C   UNL A   1      35.885  32.453  32.298  1.00  0.00     0.010 A 
ATOM     42  C   UNL A   1      36.955  33.347  32.176  1.00  0.00    -0.014 A 
BRANCH  42  43
ATOM     43  C   UNL A   1      38.246  32.766  31.840  1.00  0.00     0.031 A 
ATOM     44  C   UNL A   1      38.272  31.459  31.162  1.00  0.00     0.074 A 
ATOM     45  C   UNL A   1      39.400  33.408  32.127  1.00  0.00     0.049 A 
ATOM     46  N   UNL A   1      39.206  30.584  31.311  1.00  0.00    -0.248 NA
ATOM     47  C   UNL A   1      37.189  31.007  30.299  1.00  0.00     0.031 C 
ATOM     48  C   UNL A   1      40.738  33.052  31.661  1.00  0.00     0.029 A 
ATOM     49  N   UNL A   1      39.618  34.449  33.046  1.00  0.00    -0.354 N 
ATOM     50  C   UNL A   1      38.995  29.584  30.389  1.00  0.00     0.074 A 
ATOM     51  C   UNL A   1      37.688  29.856  29.838  1.00  0.00     0.031 C 
ATOM     52  C   UNL A   1      41.649  33.629  32.460  1.00  0.00     0.029 A 
ATOM     53  C   UNL A   1      40.933  34.273  33.544  1.00  0.00     0.049 A 
ATOM     54  H   UNL A   1      38.982  35.160  33.294  1.00  0.00     0.167 HD
ATOM     55  C   UNL A   1      40.012  28.719  30.106  1.00  0.00     0.037 A 
ATOM     56  C   UNL A   1      41.186  34.084  34.874  1.00  0.00     0.037 A 
ATOM     57  C   UNL A   1      41.187  29.021  30.922  1.00  0.00     0.049 A 
ATOM     58  C   UNL A   1      41.820  32.754  35.183  1.00  0.00     0.074 A 
ATOM     59  C   UNL A   1      42.313  29.786  30.665  1.00  0.00     0.029 A 
ATOM     60  N   UNL A   1      41.159  28.810  32.297  1.00  0.00    -0.354 N 
ATOM     61  N   UNL A   1      41.832  31.753  34.350  1.00  0.00    -0.248 NA
ATOM     62  C   UNL A   1      42.432  32.426  36.467  1.00  0.00     0.031 C 
ATOM     63  C   UNL A   1      42.938  30.078  31.900  1.00  0.00     0.029 A 
ATOM     64  C   UNL A   1      42.208  29.472  32.910  1.00  0.00     0.049 A 
ATOM     65  H   UNL A   1      40.487  28.267  32.769  1.00  0.00     0.167 HD
ATOM     66  C   UNL A   1      42.366  30.655  34.968  1.00  0.00     0.074 A 
ATOM     67  C   UNL A   1      42.764  31.137  36.277  1.00  0.00     0.031 C 
ATOM     68  C   UNL A   1      42.398  29.436  34.354  1.00  0.00     0.037 A 
BRANCH  55  69
ATOM     69  C   UNL A   1      40.058  27.825  28.883  1.00  0.00     0.064 A 
ATOM     70  C   UNL A   1      39.516  26.520  28.925  1.00  0.00     0.173 A 
ATOM     71  C   UNL A   1      40.666  28.162  27.659  1.00  0.00     0.173 A 
ATOM     72  F   UNL A   1      38.798  26.093  29.972  1.00  0.00    -0.203 F 
ATOM     73  C   UNL A   1      39.689  25.597  27.889  1.00  0.00     0.198 A 
ATOM     74  C   UNL A   1      40.889  27.224  26.644  1.00  0.00     0.198 A 
ATOM     75  F   UNL A   1      41.007  29.424  27.374  1.00  0.00    -0.203 F 
ATOM     76  F   UNL A   1      39.159  24.371  27.997  1.00  0.00    -0.200 F 
ATOM     77  C   UNL A   1      40.411  25.936  26.765  1.00  0.00     0.200 A 
ATOM     78  F   UNL A   1      41.565  27.584  25.544  1.00  0.00    -0.200 F 
ATOM     79  F   UNL A   1      40.617  25.039  25.792  1.00  0.00    -0.200 F 
ENDBRANCH  55  69
BRANCH  56  80
ATOM     80  C   UNL A   1      40.194  34.775  35.739  1.00  0.00     0.064 A 
ATOM     81  C   UNL A   1      39.188  33.971  36.305  1.00  0.00     0.173 A 
ATOM     82  C   UNL A   1      40.537  35.962  36.395  1.00  0.00     0.173 A 
ATOM     83  F   UNL A   1      38.794  32.851  35.678  1.00  0.00    -0.203 F 
ATOM     84  C   UNL A   1      38.729  34.214  37.594  1.00  0.00     0.198 A 
ATOM     85  C   UNL A   1      40.046  36.220  37.674  1.00  0.00     0.198 A 
ATOM     86  F   UNL A   1      41.453  36.789  35.872  1.00  0.00    -0.203 F 
ATOM     87  F   UNL A   1      37.920  33.329  38.190  1.00  0.00    -0.200 F 
ATOM     88  C   UNL A   1      39.204  35.308  38.298  1.00  0.00     0.200 A 
ATOM     89  F   UNL A   1      40.474  37.299  38.344  1.00  0.00    -0.200 F 
ATOM     90  F   UNL A   1      38.889  35.456  39.593  1.00  0.00    -0.200 F 
ENDBRANCH  56  80
BRANCH  68  91
ATOM     91  C   UNL A   1      42.725  28.131  35.036  1.00  0.00     0.064 A 
ATOM     92  C   UNL A   1      43.889  27.385  34.781  1.00  0.00     0.173 A 
ATOM     93  C   UNL A   1      41.905  27.638  36.077  1.00  0.00     0.173 A 
ATOM     94  F   UNL A   1      44.830  27.825  33.935  1.00  0.00    -0.203 F 
ATOM     95  C   UNL A   1      44.155  26.180  35.437  1.00  0.00     0.198 A 
ATOM     96  C   UNL A   1      42.208  26.472  36.778  1.00  0.00     0.198 A 
ATOM     97  F   UNL A   1      40.796  28.287  36.464  1.00  0.00    -0.203 F 
ATOM     98  F   UNL A   1      45.244  25.474  35.106  1.00  0.00    -0.200 F 
ATOM     99  C   UNL A   1      43.317  25.727  36.438  1.00  0.00     0.200 A 
ATOM    100  F   UNL A   1      41.424  26.082  37.793  1.00  0.00    -0.200 F 
ATOM    101  F   UNL A   1      43.593  24.589  37.087  1.00  0.00    -0.200 F 
ENDBRANCH  68  91
ENDBRANCH  42  43
ENDBRANCH  34  37
ENDBRANCH  32  33
ENDBRANCH   1  32
TORSDOF 12
ENDMDL
MODEL 3
REMARK VINA RESULT:     -13.9      4.096      8.938
REMARK SMILES Cc1ccc(C(=O)NCCCNC(=O)c2ccc(-c3c4nc(c(-c5c(F)c(F)c(F)c(F)c5F)c5ccc([nH]5)c(-c5c(F)c(F)c(F)c(F)c5F)c5nc(c(-c6c(F)c(F)c(F)c(F)c6F)c6ccc3[nH]6)C=C5)C=C4)cc2)cc1N1C(=O)/C(=C\c2nc3ccccc3n2C)SC1=S
REMARK SMILES IDX 10 1 9 2 8 3 6 4 7 5 5 7 1 8 2 9 3 10 79 11 4 12 78 13 80 14
REMARK SMILES IDX 81 15 96 16 82 17 83 18 95 19 97 20 84 21 85 22 86 23 93 24
REMARK SMILES IDX 87 25 92 26 94 27 88 28 91 29 89 30 90 31 11 32 12 33 13 34
REMARK SMILES IDX 14 36 15 37 16 38 77 39 17 40 76 41 18 42 19 43 20 44 70 45
REMARK SMILES IDX 21 46 75 47 69 48 71 49 22 50 74 51 68 52 67 53 23 55 55 56
REMARK SMILES IDX 35 57 54 58 36 59 39 60 53 61 72 62 37 63 38 64 52 66 73 67
REMARK SMILES IDX 40 68 24 69 25 70 33 71 26 72 27 73 31 74 34 75 28 76 29 77
REMARK SMILES IDX 32 78 30 79 56 80 57 81 65 82 58 83 59 84 63 85 66 86 60 87
REMARK SMILES IDX 61 88 64 89 62 90 41 91 42 92 50 93 43 94 44 95 48 96 51 97
REMARK SMILES IDX 45 98 46 99 49 100 47 101
REMARK H PARENT 8 6 12 35 71 54 39 65
REMARK Flexibility Score: inf
ROOT
ATOM      1  C   UNL A   1      39.152  24.469  27.787  1.00  0.00     0.042 C 
ENDROOT
BRANCH   1   2
ATOM      2  C   UNL A   1      38.403  24.067  26.513  1.00  0.00     0.118 C 
BRANCH   2   3
ATOM      3  N   UNL A   1      38.464  22.627  26.262  1.00  0.00    -0.352 N 
ATOM      4  C   UNL A   1      37.781  21.796  25.398  1.00  0.00     0.251 C 
ATOM      5  O   UNL A   1      38.171  20.629  25.322  1.00  0.00    -0.269 OA
ATOM      6  H   UNL A   1      39.124  22.157  26.822  1.00  0.00     0.163 HD
BRANCH   4   7
ATOM      7  C   UNL A   1      36.627  22.222  24.548  1.00  0.00     0.041 A 
ATOM      8  C   UNL A   1      33.418  23.745  22.038  1.00  0.00     0.046 C 
ATOM      9  C   UNL A   1      34.473  23.155  22.930  1.00  0.00    -0.027 A 
ATOM     10  C   UNL A   1      35.802  23.151  22.458  1.00  0.00     0.006 A 
ATOM     11  C   UNL A   1      34.226  22.647  24.212  1.00  0.00     0.054 A 
ATOM     12  C   UNL A   1      36.865  22.713  23.263  1.00  0.00     0.014 A 
ATOM     13  C   UNL A   1      35.303  22.147  24.958  1.00  0.00     0.041 A 
BRANCH  11  14
ATOM     14  N   UNL A   1      32.969  22.756  24.889  1.00  0.00    -0.261 N 
ATOM     15  C   UNL A   1      32.703  23.920  25.609  1.00  0.00     0.270 C 
ATOM     16  C   UNL A   1      32.103  21.706  25.131  1.00  0.00     0.152 C 
ATOM     17  O   UNL A   1      33.526  24.757  25.962  1.00  0.00    -0.268 OA
ATOM     18  C   UNL A   1      31.303  23.906  26.120  1.00  0.00     0.084 C 
ATOM     19  S   UNL A   1      30.719  22.286  26.084  1.00  0.00    -0.054 SA
ATOM     20  S   UNL A   1      32.277  20.087  24.756  1.00  0.00    -0.051 S 
ATOM     21  C   UNL A   1      30.598  24.972  26.537  1.00  0.00     0.068 C 
BRANCH  21  22
ATOM     22  C   UNL A   1      31.092  26.287  26.312  1.00  0.00     0.134 A 
ATOM     23  N   UNL A   1      31.740  27.051  27.169  1.00  0.00    -0.229 NA
ATOM     24  N   UNL A   1      30.908  26.966  25.124  1.00  0.00    -0.328 N 
ATOM     25  C   UNL A   1      31.694  28.314  26.649  1.00  0.00     0.089 A 
ATOM     26  C   UNL A   1      31.154  28.303  25.366  1.00  0.00     0.068 A 
ATOM     27  C   UNL A   1      30.524  26.406  23.851  1.00  0.00     0.152 C 
ATOM     28  C   UNL A   1      32.071  29.527  27.239  1.00  0.00     0.030 A 
ATOM     29  C   UNL A   1      30.962  29.478  24.627  1.00  0.00     0.028 A 
ATOM     30  C   UNL A   1      31.868  30.713  26.528  1.00  0.00     0.002 A 
ATOM     31  C   UNL A   1      31.320  30.685  25.244  1.00  0.00     0.002 A 
ENDBRANCH  21  22
ENDBRANCH  11  14
ENDBRANCH   4   7
ENDBRANCH   2   3
ENDBRANCH   1   2
BRANCH   1  32
ATOM     32  C   UNL A   1      39.947  25.751  27.652  1.00  0.00     0.118 C 
BRANCH  32  33
ATOM     33  N   UNL A   1      41.249  25.735  28.310  1.00  0.00    -0.352 N 
ATOM     34  C   UNL A   1      41.871  26.762  29.015  1.00  0.00     0.251 C 
ATOM     35  H   UNL A   1      41.752  24.892  28.246  1.00  0.00     0.163 HD
ATOM     36  O   UNL A   1      42.976  26.624  29.489  1.00  0.00    -0.269 OA
BRANCH  34  37
ATOM     37  C   UNL A   1      41.069  27.981  29.293  1.00  0.00     0.039 A 
ATOM     38  C   UNL A   1      41.358  29.113  28.526  1.00  0.00     0.014 A 
ATOM     39  C   UNL A   1      40.359  28.088  30.484  1.00  0.00     0.014 A 
ATOM     40  C   UNL A   1      41.207  30.370  29.101  1.00  0.00     0.010 A 
ATOM     41  C   UNL A   1      40.316  29.320  31.102  1.00  0.00     0.010 A 
ATOM     42  C   UNL A   1      40.811  30.447  30.436  1.00  0.00    -0.014 A 
BRANCH  42  43
ATOM     43  C   UNL A   1      40.899  31.671  31.216  1.00  0.00     0.031 A 
ATOM     44  C   UNL A   1      41.989  31.801  32.198  1.00  0.00     0.074 A 
ATOM     45  C   UNL A   1      40.014  32.679  31.043  1.00  0.00     0.049 A 
ATOM     46  N   UNL A   1      41.898  32.466  33.298  1.00  0.00    -0.248 NA
ATOM     47  C   UNL A   1      43.267  31.121  32.037  1.00  0.00     0.031 C 
ATOM     48  C   UNL A   1      40.109  34.030  31.590  1.00  0.00     0.029 A 
ATOM     49  N   UNL A   1      38.743  32.635  30.445  1.00  0.00    -0.354 N 
ATOM     50  C   UNL A   1      43.154  32.523  33.858  1.00  0.00     0.074 A 
ATOM     51  C   UNL A   1      43.952  31.608  33.076  1.00  0.00     0.031 C 
ATOM     52  C   UNL A   1      38.893  34.598  31.569  1.00  0.00     0.029 A 
ATOM     53  C   UNL A   1      37.949  33.591  31.126  1.00  0.00     0.049 A 
ATOM     54  H   UNL A   1      38.460  32.054  29.701  1.00  0.00     0.167 HD
ATOM     55  C   UNL A   1      43.400  33.441  34.837  1.00  0.00     0.037 A 
ATOM     56  C   UNL A   1      36.802  33.246  31.785  1.00  0.00     0.037 A 
ATOM     57  C   UNL A   1      42.191  34.204  35.145  1.00  0.00     0.049 A 
ATOM     58  C   UNL A   1      36.855  33.513  33.266  1.00  0.00     0.074 A 
ATOM     59  C   UNL A   1      41.733  35.427  34.681  1.00  0.00     0.029 A 
ATOM     60  N   UNL A   1      41.108  33.584  35.760  1.00  0.00    -0.354 N 
ATOM     61  N   UNL A   1      37.961  33.735  33.917  1.00  0.00    -0.248 NA
ATOM     62  C   UNL A   1      35.682  33.492  34.136  1.00  0.00     0.031 C 
ATOM     63  C   UNL A   1      40.353  35.519  34.977  1.00  0.00     0.029 A 
ATOM     64  C   UNL A   1      39.972  34.365  35.641  1.00  0.00     0.049 A 
ATOM     65  H   UNL A   1      41.144  32.711  36.214  1.00  0.00     0.167 HD
ATOM     66  C   UNL A   1      37.690  33.816  35.255  1.00  0.00     0.074 A 
ATOM     67  C   UNL A   1      36.246  33.698  35.338  1.00  0.00     0.031 C 
ATOM     68  C   UNL A   1      38.688  33.935  36.179  1.00  0.00     0.037 A 
BRANCH  55  69
ATOM     69  C   UNL A   1      44.786  33.868  35.278  1.00  0.00     0.064 A 
ATOM     70  C   UNL A   1      45.276  33.512  36.556  1.00  0.00     0.173 A 
ATOM     71  C   UNL A   1      45.662  34.672  34.525  1.00  0.00     0.173 A 
ATOM     72  F   UNL A   1      44.618  32.651  37.343  1.00  0.00    -0.203 F 
ATOM     73  C   UNL A   1      46.467  34.026  37.078  1.00  0.00     0.198 A 
ATOM     74  C   UNL A   1      46.825  35.232  35.065  1.00  0.00     0.198 A 
ATOM     75  F   UNL A   1      45.458  34.892  33.220  1.00  0.00    -0.203 F 
ATOM     76  F   UNL A   1      46.870  33.656  38.301  1.00  0.00    -0.200 F 
ATOM     77  C   UNL A   1      47.222  34.919  36.347  1.00  0.00     0.200 A 
ATOM     78  F   UNL A   1      47.563  36.073  34.326  1.00  0.00    -0.200 F 
ATOM     79  F   UNL A   1      48.339  35.448  36.864  1.00  0.00    -0.200 F 
ENDBRANCH  55  69
BRANCH  56  80
ATOM     80  C   UNL A   1      36.118  32.088  31.153  1.00  0.00     0.064 A 
ATOM     81  C   UNL A   1      35.372  32.357  29.991  1.00  0.00     0.173 A 
ATOM     82  C   UNL A   1      36.615  30.792  31.331  1.00  0.00     0.173 A 
ATOM     83  F   UNL A   1      34.833  33.574  29.809  1.00  0.00    -0.203 F 
ATOM     84  C   UNL A   1      35.342  31.448  28.942  1.00  0.00     0.198 A 
ATOM     85  C   UNL A   1      36.551  29.870  30.288  1.00  0.00     0.198 A 
ATOM     86  F   UNL A   1      37.289  30.469  32.443  1.00  0.00    -0.203 F 
ATOM     87  F   UNL A   1      34.795  31.799  27.771  1.00  0.00    -0.200 F 
ATOM     88  C   UNL A   1      35.982  30.227  29.072  1.00  0.00     0.200 A 
ATOM     89  F   UNL A   1      37.136  28.672  30.424  1.00  0.00    -0.200 F 
ATOM     90  F   UNL A   1      36.094  29.415  28.010  1.00  0.00    -0.200 F 
ENDBRANCH  56  80
BRANCH  68  91
ATOM     91  C   UNL A   1      38.513  33.776  37.669  1.00  0.00     0.064 A 
ATOM     92  C   UNL A   1      38.735  34.807  38.598  1.00  0.00     0.173 A 
ATOM     93  C   UNL A   1      37.995  32.576  38.208  1.00  0.00     0.173 A 
ATOM     94  F   UNL A   1      39.073  36.043  38.203  1.00  0.00    -0.203 F 
ATOM     95  C   UNL A   1      38.560  34.617  39.971  1.00  0.00     0.198 A 
ATOM     96  C   UNL A   1      37.755  32.412  39.571  1.00  0.00     0.198 A 
ATOM     97  F   UNL A   1      37.680  31.533  37.425  1.00  0.00    -0.203 F 
ATOM     98  F   UNL A   1      38.853  35.613  40.819  1.00  0.00    -0.200 F 
ATOM     99  C   UNL A   1      38.067  33.422  40.457  1.00  0.00     0.200 A 
ATOM    100  F   UNL A   1      37.210  31.272  40.019  1.00  0.00    -0.200 F 
ATOM    101  F   UNL A   1      37.868  33.256  41.770  1.00  0.00    -0.200 F 
ENDBRANCH  68  91
ENDBRANCH  42  43
ENDBRANCH  34  37
ENDBRANCH  32  33
ENDBRANCH   1  32
TORSDOF 12
ENDMDL
