MODEL 1
REMARK VINA RESULT:     -11.5      0.000      0.000
REMARK SMILES CC(C)(C)OCC[C@@H]1CCC[C@]1([NH2+]C1CC1)C(=O)NCCCNC(=O)c1ccc(-c2c3nc(c(-c4c(F)c(F)c(F)c(F)c4F)c4ccc([nH]4)c(-c4c(F)c(F)c(F)c(F)c4F)c4nc(c(-c5c(F)c(F)c(F)c(F)c5F)c5ccc2[nH]5)C=C4)C=C3)cc1
REMARK SMILES IDX 20 1 19 2 17 3 18 4 12 6 8 7 9 8 10 9 11 10 7 11 6 12 5 13
REMARK SMILES IDX 2 14 1 15 3 16 4 17 13 18 14 21 15 22 16 23 21 24 22 25
REMARK SMILES IDX 23 26 24 27 25 29 26 30 27 31 88 32 28 33 87 34 29 35 30 36
REMARK SMILES IDX 31 37 81 38 32 39 86 40 80 41 82 42 33 43 85 44 79 45 78 46
REMARK SMILES IDX 34 48 66 49 46 50 65 51 47 52 50 53 64 54 83 55 48 56 49 57
REMARK SMILES IDX 63 59 84 60 51 61 35 62 36 63 44 64 37 65 38 66 42 67 45 68
REMARK SMILES IDX 39 69 40 70 43 71 41 72 67 73 68 74 76 75 69 76 70 77 74 78
REMARK SMILES IDX 77 79 71 80 72 81 75 82 73 83 52 84 53 85 61 86 54 87 55 88
REMARK SMILES IDX 59 89 62 90 56 91 57 92 60 93 58 94
REMARK H PARENT 19 5 13 19 13 20 23 28 82 47 50 58
REMARK Flexibility Score: inf
ROOT
ATOM      1  C   UNL A   1      31.534  30.777  25.952  1.00  0.00     0.118 C 
ENDROOT
BRANCH   1   2
ATOM      2  N   UNL A   1      31.467  29.713  26.942  1.00  0.00    -0.351 N 
ATOM      3  C   UNL A   1      31.839  28.401  26.929  1.00  0.00     0.281 C 
ATOM      4  O   UNL A   1      31.723  27.821  28.019  1.00  0.00    -0.268 OA
ATOM      5  H   UNL A   1      31.072  29.999  27.798  1.00  0.00     0.163 HD
BRANCH   3   6
ATOM      6  C   UNL A   1      32.321  27.628  25.656  1.00  0.00     0.178 C 
ATOM      7  C   UNL A   1      31.143  26.962  24.870  1.00  0.00     0.063 C 
ATOM      8  C   UNL A   1      30.737  25.797  25.779  1.00  0.00     0.011 C 
ATOM      9  C   UNL A   1      32.062  25.218  26.240  1.00  0.00     0.008 C 
ATOM     10  C   UNL A   1      33.095  26.335  26.065  1.00  0.00     0.079 C 
BRANCH   7  11
ATOM     11  C   UNL A   1      29.908  27.760  24.451  1.00  0.00     0.039 C 
BRANCH  11  12
ATOM     12  C   UNL A   1      30.073  28.585  23.174  1.00  0.00     0.161 C 
BRANCH  12  13
ATOM     13  O   UNL A   1      29.486  29.885  23.240  1.00  0.00    -0.376 OA
BRANCH  13  14
ATOM     14  C   UNL A   1      28.166  30.126  22.735  1.00  0.00     0.060 C 
ATOM     15  C   UNL A   1      27.643  31.307  23.575  1.00  0.00     0.042 C 
ATOM     16  C   UNL A   1      27.248  28.920  22.996  1.00  0.00     0.042 C 
ATOM     17  C   UNL A   1      28.142  30.568  21.266  1.00  0.00     0.042 C 
ENDBRANCH  13  14
ENDBRANCH  12  13
ENDBRANCH  11  12
ENDBRANCH   7  11
BRANCH   6  18
ATOM     18  N   UNL A   1      33.165  28.468  24.780  1.00  0.00    -0.331 N 
ATOM     19  H   UNL A   1      33.813  28.965  25.391  1.00  0.00     0.347 HD
ATOM     20  H   UNL A   1      32.480  29.017  24.261  1.00  0.00     0.347 HD
BRANCH  18  21
ATOM     21  C   UNL A   1      33.975  27.860  23.713  1.00  0.00     0.183 C 
ATOM     22  C   UNL A   1      33.479  27.183  22.469  1.00  0.00     0.071 C 
ATOM     23  C   UNL A   1      34.052  28.563  22.380  1.00  0.00     0.071 C 
ENDBRANCH  18  21
ENDBRANCH   6  18
ENDBRANCH   3   6
ENDBRANCH   1   2
BRANCH   1  24
ATOM     24  C   UNL A   1      31.393  32.172  26.561  1.00  0.00     0.042 C 
BRANCH  24  25
ATOM     25  C   UNL A   1      32.652  32.728  27.210  1.00  0.00     0.118 C 
BRANCH  25  26
ATOM     26  N   UNL A   1      32.505  34.120  27.602  1.00  0.00    -0.352 N 
ATOM     27  C   UNL A   1      33.112  34.802  28.624  1.00  0.00     0.251 C 
ATOM     28  H   UNL A   1      31.880  34.647  27.056  1.00  0.00     0.163 HD
ATOM     29  O   UNL A   1      32.698  35.925  28.932  1.00  0.00    -0.269 OA
BRANCH  27  30
ATOM     30  C   UNL A   1      34.247  34.217  29.379  1.00  0.00     0.039 A 
ATOM     31  C   UNL A   1      35.549  34.437  28.916  1.00  0.00     0.014 A 
ATOM     32  C   UNL A   1      34.043  33.407  30.500  1.00  0.00     0.014 A 
ATOM     33  C   UNL A   1      36.638  33.877  29.591  1.00  0.00     0.010 A 
ATOM     34  C   UNL A   1      35.132  32.915  31.218  1.00  0.00     0.010 A 
ATOM     35  C   UNL A   1      36.441  33.124  30.759  1.00  0.00    -0.014 A 
BRANCH  35  36
ATOM     36  C   UNL A   1      37.585  32.502  31.477  1.00  0.00     0.031 A 
ATOM     37  C   UNL A   1      38.330  31.352  30.852  1.00  0.00     0.074 A 
ATOM     38  C   UNL A   1      37.929  32.931  32.707  1.00  0.00     0.049 A 
ATOM     39  N   UNL A   1      39.306  30.628  31.342  1.00  0.00    -0.248 NA
ATOM     40  C   UNL A   1      37.902  30.943  29.504  1.00  0.00     0.031 C 
ATOM     41  C   UNL A   1      37.266  34.006  33.444  1.00  0.00     0.029 A 
ATOM     42  N   UNL A   1      38.920  32.506  33.558  1.00  0.00    -0.354 N 
ATOM     43  C   UNL A   1      39.587  29.669  30.378  1.00  0.00     0.074 A 
ATOM     44  C   UNL A   1      38.652  29.872  29.294  1.00  0.00     0.031 C 
ATOM     45  C   UNL A   1      37.879  34.171  34.627  1.00  0.00     0.029 A 
ATOM     46  C   UNL A   1      38.959  33.193  34.746  1.00  0.00     0.049 A 
ATOM     47  H   UNL A   1      39.544  31.777  33.336  1.00  0.00     0.167 HD
ATOM     48  C   UNL A   1      40.553  28.719  30.384  1.00  0.00     0.037 A 
ATOM     49  C   UNL A   1      39.769  33.050  35.811  1.00  0.00     0.037 A 
ATOM     50  C   UNL A   1      41.515  28.544  31.439  1.00  0.00     0.049 A 
ATOM     51  C   UNL A   1      40.848  32.001  35.784  1.00  0.00     0.074 A 
ATOM     52  C   UNL A   1      42.574  27.655  31.504  1.00  0.00     0.029 A 
ATOM     53  N   UNL A   1      41.538  29.282  32.614  1.00  0.00    -0.354 N 
ATOM     54  N   UNL A   1      41.141  31.139  34.843  1.00  0.00    -0.248 NA
ATOM     55  C   UNL A   1      41.715  31.912  36.969  1.00  0.00     0.031 C 
ATOM     56  C   UNL A   1      43.218  27.831  32.734  1.00  0.00     0.029 A 
ATOM     57  C   UNL A   1      42.584  28.857  33.417  1.00  0.00     0.049 A 
ATOM     58  H   UNL A   1      40.905  30.000  32.843  1.00  0.00     0.167 HD
ATOM     59  C   UNL A   1      42.235  30.422  35.307  1.00  0.00     0.074 A 
ATOM     60  C   UNL A   1      42.564  30.960  36.610  1.00  0.00     0.031 C 
ATOM     61  C   UNL A   1      42.906  29.409  34.707  1.00  0.00     0.037 A 
BRANCH  48  62
ATOM     62  C   UNL A   1      40.623  27.795  29.203  1.00  0.00     0.064 A 
ATOM     63  C   UNL A   1      41.537  28.004  28.159  1.00  0.00     0.173 A 
ATOM     64  C   UNL A   1      39.789  26.669  29.130  1.00  0.00     0.173 A 
ATOM     65  F   UNL A   1      42.348  29.073  28.177  1.00  0.00    -0.203 F 
ATOM     66  C   UNL A   1      41.595  27.136  27.073  1.00  0.00     0.198 A 
ATOM     67  C   UNL A   1      39.869  25.787  28.055  1.00  0.00     0.198 A 
ATOM     68  F   UNL A   1      38.902  26.420  30.105  1.00  0.00    -0.203 F 
ATOM     69  F   UNL A   1      42.443  27.382  26.065  1.00  0.00    -0.200 F 
ATOM     70  C   UNL A   1      40.766  26.025  27.025  1.00  0.00     0.200 A 
ATOM     71  F   UNL A   1      39.075  24.708  28.016  1.00  0.00    -0.200 F 
ATOM     72  F   UNL A   1      40.825  25.188  25.980  1.00  0.00    -0.200 F 
ENDBRANCH  48  62
BRANCH  49  73
ATOM     73  C   UNL A   1      39.612  33.944  36.987  1.00  0.00     0.064 A 
ATOM     74  C   UNL A   1      40.233  35.200  37.022  1.00  0.00     0.173 A 
ATOM     75  C   UNL A   1      38.842  33.564  38.096  1.00  0.00     0.173 A 
ATOM     76  F   UNL A   1      40.999  35.596  35.994  1.00  0.00    -0.203 F 
ATOM     77  C   UNL A   1      40.104  36.037  38.128  1.00  0.00     0.198 A 
ATOM     78  C   UNL A   1      38.694  34.411  39.191  1.00  0.00     0.198 A 
ATOM     79  F   UNL A   1      38.227  32.372  38.110  1.00  0.00    -0.203 F 
ATOM     80  F   UNL A   1      40.742  37.215  38.153  1.00  0.00    -0.200 F 
ATOM     81  C   UNL A   1      39.330  35.643  39.209  1.00  0.00     0.200 A 
ATOM     82  F   UNL A   1      37.938  34.033  40.230  1.00  0.00    -0.200 F 
ATOM     83  F   UNL A   1      39.204  36.449  40.273  1.00  0.00    -0.200 F 
ENDBRANCH  49  73
BRANCH  61  84
ATOM     84  C   UNL A   1      44.082  28.834  35.438  1.00  0.00     0.064 A 
ATOM     85  C   UNL A   1      43.939  27.762  36.330  1.00  0.00     0.173 A 
ATOM     86  C   UNL A   1      45.373  29.335  35.211  1.00  0.00     0.173 A 
ATOM     87  F   UNL A   1      42.723  27.258  36.591  1.00  0.00    -0.203 F 
ATOM     88  C   UNL A   1      45.044  27.225  36.985  1.00  0.00     0.198 A 
ATOM     89  C   UNL A   1      46.478  28.779  35.848  1.00  0.00     0.198 A 
ATOM     90  F   UNL A   1      45.562  30.356  34.362  1.00  0.00    -0.203 F 
ATOM     91  F   UNL A   1      44.880  26.226  37.863  1.00  0.00    -0.200 F 
ATOM     92  C   UNL A   1      46.312  27.728  36.737  1.00  0.00     0.200 A 
ATOM     93  F   UNL A   1      47.704  29.260  35.600  1.00  0.00    -0.200 F 
ATOM     94  F   UNL A   1      47.376  27.206  37.364  1.00  0.00    -0.200 F 
ENDBRANCH  61  84
ENDBRANCH  35  36
ENDBRANCH  27  30
ENDBRANCH  25  26
ENDBRANCH  24  25
ENDBRANCH   1  24
TORSDOF 16
ENDMDL
MODEL 2
REMARK VINA RESULT:     -11.5      0.992      2.853
REMARK SMILES CC(C)(C)OCC[C@@H]1CCC[C@]1([NH2+]C1CC1)C(=O)NCCCNC(=O)c1ccc(-c2c3nc(c(-c4c(F)c(F)c(F)c(F)c4F)c4ccc([nH]4)c(-c4c(F)c(F)c(F)c(F)c4F)c4nc(c(-c5c(F)c(F)c(F)c(F)c5F)c5ccc2[nH]5)C=C4)C=C3)cc1
REMARK SMILES IDX 20 1 19 2 17 3 18 4 12 6 8 7 9 8 10 9 11 10 7 11 6 12 5 13
REMARK SMILES IDX 2 14 1 15 3 16 4 17 13 18 14 21 15 22 16 23 21 24 22 25
REMARK SMILES IDX 23 26 24 27 25 29 26 30 27 31 88 32 28 33 87 34 29 35 30 36
REMARK SMILES IDX 31 37 81 38 32 39 86 40 80 41 82 42 33 43 85 44 79 45 78 46
REMARK SMILES IDX 34 48 66 49 46 50 65 51 47 52 50 53 64 54 83 55 48 56 49 57
REMARK SMILES IDX 63 59 84 60 51 61 35 62 36 63 44 64 37 65 38 66 42 67 45 68
REMARK SMILES IDX 39 69 40 70 43 71 41 72 67 73 68 74 76 75 69 76 70 77 74 78
REMARK SMILES IDX 77 79 71 80 72 81 75 82 73 83 52 84 53 85 61 86 54 87 55 88
REMARK SMILES IDX 59 89 62 90 56 91 57 92 60 93 58 94
REMARK H PARENT 19 5 13 19 13 20 23 28 82 47 50 58
REMARK Flexibility Score: inf
ROOT
ATOM      1  C   UNL A   1      31.251  30.887  26.390  1.00  0.00     0.118 C 
ENDROOT
BRANCH   1   2
ATOM      2  N   UNL A   1      32.551  30.233  26.389  1.00  0.00    -0.351 N 
ATOM      3  C   UNL A   1      33.165  29.377  25.524  1.00  0.00     0.281 C 
ATOM      4  O   UNL A   1      34.341  29.109  25.809  1.00  0.00    -0.268 OA
ATOM      5  H   UNL A   1      33.101  30.455  27.176  1.00  0.00     0.163 HD
BRANCH   3   6
ATOM      6  C   UNL A   1      32.468  28.710  24.290  1.00  0.00     0.178 C 
ATOM      7  C   UNL A   1      31.832  27.323  24.631  1.00  0.00     0.063 C 
ATOM      8  C   UNL A   1      33.055  26.414  24.796  1.00  0.00     0.011 C 
ATOM      9  C   UNL A   1      33.968  26.823  23.656  1.00  0.00     0.008 C 
ATOM     10  C   UNL A   1      33.534  28.236  23.253  1.00  0.00     0.079 C 
BRANCH   7  11
ATOM     11  C   UNL A   1      30.879  27.147  25.814  1.00  0.00     0.039 C 
BRANCH  11  12
ATOM     12  C   UNL A   1      30.180  25.789  25.886  1.00  0.00     0.161 C 
BRANCH  12  13
ATOM     13  O   UNL A   1      30.709  24.914  26.884  1.00  0.00    -0.376 OA
BRANCH  13  14
ATOM     14  C   UNL A   1      30.855  23.510  26.633  1.00  0.00     0.060 C 
ATOM     15  C   UNL A   1      30.881  23.395  25.097  1.00  0.00     0.042 C 
ATOM     16  C   UNL A   1      29.631  22.730  27.143  1.00  0.00     0.042 C 
ATOM     17  C   UNL A   1      32.175  22.928  27.155  1.00  0.00     0.042 C 
ENDBRANCH  13  14
ENDBRANCH  12  13
ENDBRANCH  11  12
ENDBRANCH   7  11
BRANCH   6  18
ATOM     18  N   UNL A   1      31.498  29.618  23.641  1.00  0.00    -0.331 N 
ATOM     19  H   UNL A   1      32.042  30.380  23.234  1.00  0.00     0.347 HD
ATOM     20  H   UNL A   1      30.853  29.842  24.397  1.00  0.00     0.347 HD
BRANCH  18  21
ATOM     21  C   UNL A   1      30.605  29.126  22.581  1.00  0.00     0.183 C 
ATOM     22  C   UNL A   1      29.148  28.789  22.705  1.00  0.00     0.071 C 
ATOM     23  C   UNL A   1      29.557  30.063  22.032  1.00  0.00     0.071 C 
ENDBRANCH  18  21
ENDBRANCH   6  18
ENDBRANCH   3   6
ENDBRANCH   1   2
BRANCH   1  24
ATOM     24  C   UNL A   1      31.346  32.410  26.491  1.00  0.00     0.042 C 
BRANCH  24  25
ATOM     25  C   UNL A   1      32.584  32.939  27.200  1.00  0.00     0.118 C 
BRANCH  25  26
ATOM     26  N   UNL A   1      32.431  34.319  27.626  1.00  0.00    -0.352 N 
ATOM     27  C   UNL A   1      33.035  34.978  28.664  1.00  0.00     0.251 C 
ATOM     28  H   UNL A   1      31.803  34.857  27.093  1.00  0.00     0.163 HD
ATOM     29  O   UNL A   1      32.617  36.092  29.000  1.00  0.00    -0.269 OA
BRANCH  27  30
ATOM     30  C   UNL A   1      34.172  34.380  29.404  1.00  0.00     0.039 A 
ATOM     31  C   UNL A   1      35.462  34.508  28.876  1.00  0.00     0.014 A 
ATOM     32  C   UNL A   1      33.980  33.645  30.578  1.00  0.00     0.014 A 
ATOM     33  C   UNL A   1      36.552  33.933  29.537  1.00  0.00     0.010 A 
ATOM     34  C   UNL A   1      35.075  33.139  31.278  1.00  0.00     0.010 A 
ATOM     35  C   UNL A   1      36.371  33.257  30.753  1.00  0.00    -0.014 A 
BRANCH  35  36
ATOM     36  C   UNL A   1      37.514  32.618  31.458  1.00  0.00     0.031 A 
ATOM     37  C   UNL A   1      38.252  31.475  30.813  1.00  0.00     0.074 A 
ATOM     38  C   UNL A   1      37.863  33.027  32.694  1.00  0.00     0.049 A 
ATOM     39  N   UNL A   1      39.227  30.739  31.289  1.00  0.00    -0.248 NA
ATOM     40  C   UNL A   1      37.818  31.088  29.461  1.00  0.00     0.031 C 
ATOM     41  C   UNL A   1      37.207  34.094  33.449  1.00  0.00     0.029 A 
ATOM     42  N   UNL A   1      38.855  32.585  33.535  1.00  0.00    -0.354 N 
ATOM     43  C   UNL A   1      39.500  29.794  30.310  1.00  0.00     0.074 A 
ATOM     44  C   UNL A   1      38.563  30.017  29.232  1.00  0.00     0.031 C 
ATOM     45  C   UNL A   1      37.825  34.238  34.633  1.00  0.00     0.029 A 
ATOM     46  C   UNL A   1      38.900  33.254  34.733  1.00  0.00     0.049 A 
ATOM     47  H   UNL A   1      39.475  31.857  33.301  1.00  0.00     0.167 HD
ATOM     48  C   UNL A   1      40.462  28.840  30.299  1.00  0.00     0.037 A 
ATOM     49  C   UNL A   1      39.713  33.090  35.793  1.00  0.00     0.037 A 
ATOM     50  C   UNL A   1      41.427  28.644  31.348  1.00  0.00     0.049 A 
ATOM     51  C   UNL A   1      40.787  32.037  35.748  1.00  0.00     0.074 A 
ATOM     52  C   UNL A   1      42.482  27.750  31.396  1.00  0.00     0.029 A 
ATOM     53  N   UNL A   1      41.456  29.364  32.534  1.00  0.00    -0.354 N 
ATOM     54  N   UNL A   1      41.073  31.188  34.792  1.00  0.00    -0.248 NA
ATOM     55  C   UNL A   1      41.657  31.926  36.928  1.00  0.00     0.031 C 
ATOM     56  C   UNL A   1      43.130  27.904  32.626  1.00  0.00     0.029 A 
ATOM     57  C   UNL A   1      42.502  28.922  33.327  1.00  0.00     0.049 A 
ATOM     58  H   UNL A   1      40.827  30.081  32.776  1.00  0.00     0.167 HD
ATOM     59  C   UNL A   1      42.166  30.460  35.242  1.00  0.00     0.074 A 
ATOM     60  C   UNL A   1      42.502  30.976  36.552  1.00  0.00     0.031 C 
ATOM     61  C   UNL A   1      42.831  29.453  34.624  1.00  0.00     0.037 A 
BRANCH  48  62
ATOM     62  C   UNL A   1      40.524  27.934  29.103  1.00  0.00     0.064 A 
ATOM     63  C   UNL A   1      41.380  28.198  28.024  1.00  0.00     0.173 A 
ATOM     64  C   UNL A   1      39.744  26.769  29.052  1.00  0.00     0.173 A 
ATOM     65  F   UNL A   1      42.139  29.305  28.021  1.00  0.00    -0.203 F 
ATOM     66  C   UNL A   1      41.432  27.347  26.925  1.00  0.00     0.198 A 
ATOM     67  C   UNL A   1      39.819  25.904  27.963  1.00  0.00     0.198 A 
ATOM     68  F   UNL A   1      38.913  26.466  30.061  1.00  0.00    -0.203 F 
ATOM     69  F   UNL A   1      42.223  27.645  25.884  1.00  0.00    -0.200 F 
ATOM     70  C   UNL A   1      40.656  26.197  26.898  1.00  0.00     0.200 A 
ATOM     71  F   UNL A   1      39.076  24.789  27.943  1.00  0.00    -0.200 F 
ATOM     72  F   UNL A   1      40.710  25.376  25.840  1.00  0.00    -0.200 F 
ENDBRANCH  48  62
BRANCH  49  73
ATOM     73  C   UNL A   1      39.563  33.967  36.983  1.00  0.00     0.064 A 
ATOM     74  C   UNL A   1      38.805  33.553  38.088  1.00  0.00     0.173 A 
ATOM     75  C   UNL A   1      40.169  35.230  37.042  1.00  0.00     0.173 A 
ATOM     76  F   UNL A   1      38.187  32.363  38.067  1.00  0.00    -0.203 F 
ATOM     77  C   UNL A   1      38.646  34.376  39.201  1.00  0.00     0.198 A 
ATOM     78  C   UNL A   1      40.029  36.042  38.165  1.00  0.00     0.198 A 
ATOM     79  F   UNL A   1      40.905  35.670  36.011  1.00  0.00    -0.203 F 
ATOM     80  F   UNL A   1      37.882  33.974  40.225  1.00  0.00    -0.200 F 
ATOM     81  C   UNL A   1      39.263  35.618  39.240  1.00  0.00     0.200 A 
ATOM     82  F   UNL A   1      40.634  37.237  38.205  1.00  0.00    -0.200 F 
ATOM     83  F   UNL A   1      39.111  36.409  40.311  1.00  0.00    -0.200 F 
ENDBRANCH  49  73
BRANCH  61  84
ATOM     84  C   UNL A   1      44.006  28.862  35.343  1.00  0.00     0.064 A 
ATOM     85  C   UNL A   1      45.305  29.354  35.153  1.00  0.00     0.173 A 
ATOM     86  C   UNL A   1      43.824  27.820  36.265  1.00  0.00     0.173 A 
ATOM     87  F   UNL A   1      45.532  30.339  34.271  1.00  0.00    -0.203 F 
ATOM     88  C   UNL A   1      46.384  28.809  35.844  1.00  0.00     0.198 A 
ATOM     89  C   UNL A   1      44.901  27.295  36.973  1.00  0.00     0.198 A 
ATOM     90  F   UNL A   1      42.600  27.320  36.486  1.00  0.00    -0.203 F 
ATOM     91  F   UNL A   1      47.623  29.266  35.618  1.00  0.00    -0.200 F 
ATOM     92  C   UNL A   1      46.180  27.786  36.759  1.00  0.00     0.200 A 
ATOM     93  F   UNL A   1      44.701  26.314  37.863  1.00  0.00    -0.200 F 
ATOM     94  F   UNL A   1      47.219  27.267  37.428  1.00  0.00    -0.200 F 
ENDBRANCH  61  84
ENDBRANCH  35  36
ENDBRANCH  27  30
ENDBRANCH  25  26
ENDBRANCH  24  25
ENDBRANCH   1  24
TORSDOF 16
ENDMDL
MODEL 3
REMARK VINA RESULT:     -11.4      1.353      2.829
REMARK SMILES CC(C)(C)OCC[C@@H]1CCC[C@]1([NH2+]C1CC1)C(=O)NCCCNC(=O)c1ccc(-c2c3nc(c(-c4c(F)c(F)c(F)c(F)c4F)c4ccc([nH]4)c(-c4c(F)c(F)c(F)c(F)c4F)c4nc(c(-c5c(F)c(F)c(F)c(F)c5F)c5ccc2[nH]5)C=C4)C=C3)cc1
REMARK SMILES IDX 20 1 19 2 17 3 18 4 12 6 8 7 9 8 10 9 11 10 7 11 6 12 5 13
REMARK SMILES IDX 2 14 1 15 3 16 4 17 13 18 14 21 15 22 16 23 21 24 22 25
REMARK SMILES IDX 23 26 24 27 25 29 26 30 27 31 88 32 28 33 87 34 29 35 30 36
REMARK SMILES IDX 31 37 81 38 32 39 86 40 80 41 82 42 33 43 85 44 79 45 78 46
REMARK SMILES IDX 34 48 66 49 46 50 65 51 47 52 50 53 64 54 83 55 48 56 49 57
REMARK SMILES IDX 63 59 84 60 51 61 35 62 36 63 44 64 37 65 38 66 42 67 45 68
REMARK SMILES IDX 39 69 40 70 43 71 41 72 67 73 68 74 76 75 69 76 70 77 74 78
REMARK SMILES IDX 77 79 71 80 72 81 75 82 73 83 52 84 53 85 61 86 54 87 55 88
REMARK SMILES IDX 59 89 62 90 56 91 57 92 60 93 58 94
REMARK H PARENT 19 5 13 19 13 20 23 28 82 47 50 58
REMARK Flexibility Score: inf
ROOT
ATOM      1  C   UNL A   1      31.209  31.066  26.426  1.00  0.00     0.118 C 
ENDROOT
BRANCH   1   2
ATOM      2  N   UNL A   1      31.151  30.540  25.071  1.00  0.00    -0.351 N 
ATOM      3  C   UNL A   1      31.592  29.384  24.498  1.00  0.00     0.281 C 
ATOM      4  O   UNL A   1      31.259  29.233  23.314  1.00  0.00    -0.268 OA
ATOM      5  H   UNL A   1      30.699  31.142  24.436  1.00  0.00     0.163 HD
BRANCH   3   6
ATOM      6  C   UNL A   1      32.500  28.329  25.216  1.00  0.00     0.178 C 
ATOM      7  C   UNL A   1      32.628  26.993  24.411  1.00  0.00     0.063 C 
ATOM      8  C   UNL A   1      31.247  26.352  24.587  1.00  0.00     0.011 C 
ATOM      9  C   UNL A   1      30.919  26.591  26.049  1.00  0.00     0.008 C 
ATOM     10  C   UNL A   1      31.788  27.773  26.489  1.00  0.00     0.079 C 
BRANCH   7  11
ATOM     11  C   UNL A   1      33.032  26.982  22.936  1.00  0.00     0.039 C 
BRANCH  11  12
ATOM     12  C   UNL A   1      33.311  25.597  22.352  1.00  0.00     0.161 C 
BRANCH  12  13
ATOM     13  O   UNL A   1      34.497  24.981  22.855  1.00  0.00    -0.376 OA
BRANCH  13  14
ATOM     14  C   UNL A   1      34.456  23.684  23.463  1.00  0.00     0.060 C 
ATOM     15  C   UNL A   1      34.291  23.970  24.967  1.00  0.00     0.042 C 
ATOM     16  C   UNL A   1      35.790  22.942  23.268  1.00  0.00     0.042 C 
ATOM     17  C   UNL A   1      33.252  22.839  23.026  1.00  0.00     0.042 C 
ENDBRANCH  13  14
ENDBRANCH  12  13
ENDBRANCH  11  12
ENDBRANCH   7  11
BRANCH   6  18
ATOM     18  N   UNL A   1      33.822  28.885  25.577  1.00  0.00    -0.331 N 
ATOM     19  H   UNL A   1      33.869  29.814  25.159  1.00  0.00     0.347 HD
ATOM     20  H   UNL A   1      34.469  28.174  25.237  1.00  0.00     0.347 HD
BRANCH  18  21
ATOM     21  C   UNL A   1      34.210  29.036  26.988  1.00  0.00     0.183 C 
ATOM     22  C   UNL A   1      35.599  29.188  27.536  1.00  0.00     0.071 C 
ATOM     23  C   UNL A   1      34.702  30.384  27.457  1.00  0.00     0.071 C 
ENDBRANCH  18  21
ENDBRANCH   6  18
ENDBRANCH   3   6
ENDBRANCH   1   2
BRANCH   1  24
ATOM     24  C   UNL A   1      31.391  32.583  26.473  1.00  0.00     0.042 C 
BRANCH  24  25
ATOM     25  C   UNL A   1      32.586  33.071  27.278  1.00  0.00     0.118 C 
BRANCH  25  26
ATOM     26  N   UNL A   1      32.431  34.445  27.724  1.00  0.00    -0.352 N 
ATOM     27  C   UNL A   1      33.040  35.092  28.767  1.00  0.00     0.251 C 
ATOM     28  H   UNL A   1      31.798  34.987  27.203  1.00  0.00     0.163 HD
ATOM     29  O   UNL A   1      32.619  36.199  29.121  1.00  0.00    -0.269 OA
BRANCH  27  30
ATOM     30  C   UNL A   1      34.184  34.489  29.491  1.00  0.00     0.039 A 
ATOM     31  C   UNL A   1      35.468  34.616  28.949  1.00  0.00     0.014 A 
ATOM     32  C   UNL A   1      34.003  33.748  30.664  1.00  0.00     0.014 A 
ATOM     33  C   UNL A   1      36.564  34.036  29.595  1.00  0.00     0.010 A 
ATOM     34  C   UNL A   1      35.105  33.237  31.349  1.00  0.00     0.010 A 
ATOM     35  C   UNL A   1      36.395  33.355  30.810  1.00  0.00    -0.014 A 
BRANCH  35  36
ATOM     36  C   UNL A   1      37.545  32.711  31.499  1.00  0.00     0.031 A 
ATOM     37  C   UNL A   1      38.291  31.588  30.829  1.00  0.00     0.074 A 
ATOM     38  C   UNL A   1      37.894  33.096  32.742  1.00  0.00     0.049 A 
ATOM     39  N   UNL A   1      39.272  30.850  31.287  1.00  0.00    -0.248 NA
ATOM     40  C   UNL A   1      37.857  31.226  29.470  1.00  0.00     0.031 C 
ATOM     41  C   UNL A   1      37.231  34.142  33.521  1.00  0.00     0.029 A 
ATOM     42  N   UNL A   1      38.891  32.645  33.572  1.00  0.00    -0.354 N 
ATOM     43  C   UNL A   1      39.552  29.928  30.288  1.00  0.00     0.074 A 
ATOM     44  C   UNL A   1      38.610  30.165  29.217  1.00  0.00     0.031 C 
ATOM     45  C   UNL A   1      37.850  34.266  34.707  1.00  0.00     0.029 A 
ATOM     46  C   UNL A   1      38.934  33.289  34.784  1.00  0.00     0.049 A 
ATOM     47  H   UNL A   1      39.517  31.927  33.321  1.00  0.00     0.167 HD
ATOM     48  C   UNL A   1      40.521  28.981  30.254  1.00  0.00     0.037 A 
ATOM     49  C   UNL A   1      39.751  33.110  35.838  1.00  0.00     0.037 A 
ATOM     50  C   UNL A   1      41.490  28.772  31.297  1.00  0.00     0.049 A 
ATOM     51  C   UNL A   1      40.833  32.067  35.769  1.00  0.00     0.074 A 
ATOM     52  C   UNL A   1      42.552  27.885  31.325  1.00  0.00     0.029 A 
ATOM     53  N   UNL A   1      41.516  29.467  32.498  1.00  0.00    -0.354 N 
ATOM     54  N   UNL A   1      41.124  31.240  34.795  1.00  0.00    -0.248 NA
ATOM     55  C   UNL A   1      41.707  31.938  36.945  1.00  0.00     0.031 C 
ATOM     56  C   UNL A   1      43.201  28.019  32.556  1.00  0.00     0.029 A 
ATOM     57  C   UNL A   1      42.567  29.017  33.280  1.00  0.00     0.049 A 
ATOM     58  H   UNL A   1      40.881  30.173  32.757  1.00  0.00     0.167 HD
ATOM     59  C   UNL A   1      42.223  30.511  35.227  1.00  0.00     0.074 A 
ATOM     60  C   UNL A   1      42.557  31.002  36.547  1.00  0.00     0.031 C 
ATOM     61  C   UNL A   1      42.894  29.523  34.587  1.00  0.00     0.037 A 
BRANCH  48  62
ATOM     62  C   UNL A   1      40.588  28.101  29.040  1.00  0.00     0.064 A 
ATOM     63  C   UNL A   1      39.839  26.919  28.947  1.00  0.00     0.173 A 
ATOM     64  C   UNL A   1      41.384  28.463  27.943  1.00  0.00     0.173 A 
ATOM     65  F   UNL A   1      39.070  26.524  29.974  1.00  0.00    -0.203 F 
ATOM     66  C   UNL A   1      39.906  26.116  27.812  1.00  0.00     0.198 A 
ATOM     67  C   UNL A   1      41.427  27.670  26.798  1.00  0.00     0.198 A 
ATOM     68  F   UNL A   1      42.115  29.587  27.977  1.00  0.00    -0.203 F 
ATOM     69  F   UNL A   1      39.218  24.966  27.765  1.00  0.00    -0.200 F 
ATOM     70  C   UNL A   1      40.695  26.495  26.737  1.00  0.00     0.200 A 
ATOM     71  F   UNL A   1      42.182  28.044  25.755  1.00  0.00    -0.200 F 
ATOM     72  F   UNL A   1      40.755  25.722  25.643  1.00  0.00    -0.200 F 
ENDBRANCH  48  62
BRANCH  49  73
ATOM     73  C   UNL A   1      39.596  33.960  37.047  1.00  0.00     0.064 A 
ATOM     74  C   UNL A   1      40.202  35.222  37.119  1.00  0.00     0.173 A 
ATOM     75  C   UNL A   1      38.845  33.531  38.151  1.00  0.00     0.173 A 
ATOM     76  F   UNL A   1      40.949  35.664  36.096  1.00  0.00    -0.203 F 
ATOM     77  C   UNL A   1      40.075  36.018  38.255  1.00  0.00     0.198 A 
ATOM     78  C   UNL A   1      38.700  34.337  39.278  1.00  0.00     0.198 A 
ATOM     79  F   UNL A   1      38.246  32.332  38.131  1.00  0.00    -0.203 F 
ATOM     80  F   UNL A   1      40.698  37.203  38.313  1.00  0.00    -0.200 F 
ATOM     81  C   UNL A   1      39.320  35.577  39.331  1.00  0.00     0.200 A 
ATOM     82  F   UNL A   1      37.962  33.913  40.312  1.00  0.00    -0.200 F 
ATOM     83  F   UNL A   1      39.197  36.343  40.424  1.00  0.00    -0.200 F 
ENDBRANCH  49  73
BRANCH  61  84
ATOM     84  C   UNL A   1      44.076  28.927  35.291  1.00  0.00     0.064 A 
ATOM     85  C   UNL A   1      43.942  27.819  36.140  1.00  0.00     0.173 A 
ATOM     86  C   UNL A   1      45.363  29.444  35.080  1.00  0.00     0.173 A 
ATOM     87  F   UNL A   1      42.731  27.298  36.385  1.00  0.00    -0.203 F 
ATOM     88  C   UNL A   1      45.053  27.262  36.769  1.00  0.00     0.198 A 
ATOM     89  C   UNL A   1      46.474  28.869  35.690  1.00  0.00     0.198 A 
ATOM     90  F   UNL A   1      45.544  30.499  34.272  1.00  0.00    -0.203 F 
ATOM     91  F   UNL A   1      44.898  26.229  37.607  1.00  0.00    -0.200 F 
ATOM     92  C   UNL A   1      46.318  27.783  36.537  1.00  0.00     0.200 A 
ATOM     93  F   UNL A   1      47.696  29.367  35.458  1.00  0.00    -0.200 F 
ATOM     94  F   UNL A   1      47.387  27.242  37.139  1.00  0.00    -0.200 F 
ENDBRANCH  61  84
ENDBRANCH  35  36
ENDBRANCH  27  30
ENDBRANCH  25  26
ENDBRANCH  24  25
ENDBRANCH   1  24
TORSDOF 16
ENDMDL
