MODEL 1
REMARK VINA RESULT:     -11.6      0.000      0.000
REMARK SMILES C[C@@H](NC(=O)NCCC(=O)NC1CC1)C(=O)NCCCNC(=O)c1ccc(-c2c3nc(c(-c4c(F)c(F)c(F)c(F)c4F)c4ccc([nH]4)c(-c4c(F)c(F)c(F)c(F)c4F)c4nc(c(-c5c(F)c(F)c(F)c(F)c5F)c5ccc2[nH]5)C=C4)C=C3)cc1
REMARK SMILES IDX 15 1 16 2 17 3 2 5 1 6 3 7 4 8 5 10 6 11 7 13 8 14 9 15
REMARK SMILES IDX 10 16 11 17 12 19 13 20 14 21 18 22 19 23 20 24 21 25 22 26
REMARK SMILES IDX 23 28 24 29 25 30 86 31 26 32 85 33 27 34 28 35 29 36 79 37
REMARK SMILES IDX 30 38 84 39 78 40 80 41 31 42 83 43 77 44 76 45 32 47 64 48
REMARK SMILES IDX 44 49 63 50 45 51 48 52 62 53 81 54 46 55 47 56 61 58 82 59
REMARK SMILES IDX 49 60 33 61 34 62 42 63 35 64 36 65 40 66 43 67 37 68 38 69
REMARK SMILES IDX 41 70 39 71 65 72 66 73 74 74 67 75 68 76 72 77 75 78 69 79
REMARK SMILES IDX 70 80 73 81 71 82 50 83 51 84 59 85 52 86 53 87 57 88 60 89
REMARK SMILES IDX 54 90 55 91 58 92 56 93
REMARK H PARENT 17 4 3 9 6 12 11 18 21 27 80 46 48 57
REMARK Flexibility Score: inf
ROOT
ATOM      1  C   UNL A   1      31.281  26.198  25.801  1.00  0.00     0.242 C 
ATOM      2  O   UNL A   1      30.304  25.467  25.607  1.00  0.00    -0.273 OA
ATOM      3  N   UNL A   1      31.231  27.031  26.874  1.00  0.00    -0.354 N 
ATOM      4  H   UNL A   1      30.411  26.975  27.415  1.00  0.00     0.163 HD
ENDROOT
BRANCH   1   5
ATOM      5  C   UNL A   1      32.422  26.264  24.771  1.00  0.00     0.170 C 
ATOM      6  C   UNL A   1      33.540  25.375  25.329  1.00  0.00     0.041 C 
BRANCH   5   7
ATOM      7  N   UNL A   1      32.126  25.841  23.405  1.00  0.00    -0.327 N 
ATOM      8  C   UNL A   1      31.871  26.479  22.265  1.00  0.00     0.315 C 
ATOM      9  H   UNL A   1      32.112  24.861  23.305  1.00  0.00     0.166 HD
ATOM     10  O   UNL A   1      31.757  25.797  21.244  1.00  0.00    -0.249 OA
ATOM     11  N   UNL A   1      31.628  27.782  22.161  1.00  0.00    -0.338 N 
ATOM     12  H   UNL A   1      31.314  28.018  21.258  1.00  0.00     0.165 HD
BRANCH  11  13
ATOM     13  C   UNL A   1      31.701  28.950  23.016  1.00  0.00     0.127 C 
BRANCH  13  14
ATOM     14  C   UNL A   1      30.385  29.266  23.712  1.00  0.00     0.121 C 
BRANCH  14  15
ATOM     15  C   UNL A   1      29.140  28.815  22.978  1.00  0.00     0.221 C 
ATOM     16  O   UNL A   1      28.671  27.691  23.174  1.00  0.00    -0.275 OA
ATOM     17  N   UNL A   1      28.497  29.648  22.101  1.00  0.00    -0.353 N 
ATOM     18  H   UNL A   1      27.594  29.356  21.843  1.00  0.00     0.163 HD
BRANCH  17  19
ATOM     19  C   UNL A   1      28.926  30.869  21.503  1.00  0.00     0.082 C 
ATOM     20  C   UNL A   1      27.970  31.748  20.747  1.00  0.00     0.027 C 
ATOM     21  C   UNL A   1      28.585  32.236  22.022  1.00  0.00     0.027 C 
ENDBRANCH  17  19
ENDBRANCH  14  15
ENDBRANCH  13  14
ENDBRANCH  11  13
ENDBRANCH   5   7
ENDBRANCH   1   5
BRANCH   3  22
ATOM     22  C   UNL A   1      32.218  27.991  27.332  1.00  0.00     0.117 C 
BRANCH  22  23
ATOM     23  C   UNL A   1      31.736  29.414  27.146  1.00  0.00     0.042 C 
BRANCH  23  24
ATOM     24  C   UNL A   1      32.776  30.290  26.466  1.00  0.00     0.118 C 
BRANCH  24  25
ATOM     25  N   UNL A   1      32.651  31.700  26.808  1.00  0.00    -0.352 N 
ATOM     26  C   UNL A   1      33.504  32.474  27.561  1.00  0.00     0.251 C 
ATOM     27  H   UNL A   1      31.854  32.157  26.456  1.00  0.00     0.163 HD
ATOM     28  O   UNL A   1      33.197  33.618  27.881  1.00  0.00    -0.269 OA
BRANCH  26  29
ATOM     29  C   UNL A   1      34.781  31.890  28.025  1.00  0.00     0.039 A 
ATOM     30  C   UNL A   1      35.912  32.704  28.092  1.00  0.00     0.014 A 
ATOM     31  C   UNL A   1      34.835  30.566  28.472  1.00  0.00     0.014 A 
ATOM     32  C   UNL A   1      37.076  32.209  28.681  1.00  0.00     0.010 A 
ATOM     33  C   UNL A   1      35.956  30.117  29.159  1.00  0.00     0.010 A 
ATOM     34  C   UNL A   1      37.095  30.928  29.261  1.00  0.00    -0.014 A 
BRANCH  34  35
ATOM     35  C   UNL A   1      38.304  30.435  29.972  1.00  0.00     0.031 A 
ATOM     36  C   UNL A   1      38.567  30.843  31.396  1.00  0.00     0.074 A 
ATOM     37  C   UNL A   1      39.181  29.644  29.324  1.00  0.00     0.049 A 
ATOM     38  N   UNL A   1      39.542  30.482  32.193  1.00  0.00    -0.248 NA
ATOM     39  C   UNL A   1      37.635  31.810  31.998  1.00  0.00     0.031 C 
ATOM     40  C   UNL A   1      39.086  29.250  27.916  1.00  0.00     0.029 A 
ATOM     41  N   UNL A   1      40.322  29.023  29.763  1.00  0.00    -0.354 N 
ATOM     42  C   UNL A   1      39.342  31.179  33.376  1.00  0.00     0.074 A 
ATOM     43  C   UNL A   1      38.201  32.042  33.171  1.00  0.00     0.031 C 
ATOM     44  C   UNL A   1      40.094  28.413  27.624  1.00  0.00     0.029 A 
ATOM     45  C   UNL A   1      40.922  28.233  28.812  1.00  0.00     0.049 A 
ATOM     46  H   UNL A   1      40.678  29.132  30.674  1.00  0.00     0.167 HD
ATOM     47  C   UNL A   1      40.022  31.083  34.543  1.00  0.00     0.037 A 
ATOM     48  C   UNL A   1      42.005  27.438  28.896  1.00  0.00     0.037 A 
ATOM     49  C   UNL A   1      41.142  30.205  34.753  1.00  0.00     0.049 A 
ATOM     50  C   UNL A   1      42.721  27.319  30.214  1.00  0.00     0.074 A 
ATOM     51  C   UNL A   1      41.864  29.985  35.912  1.00  0.00     0.029 A 
ATOM     52  N   UNL A   1      41.702  29.396  33.773  1.00  0.00    -0.354 N 
ATOM     53  N   UNL A   1      42.465  27.913  31.355  1.00  0.00    -0.248 NA
ATOM     54  C   UNL A   1      43.869  26.402  30.260  1.00  0.00     0.031 C 
ATOM     55  C   UNL A   1      42.890  29.078  35.624  1.00  0.00     0.029 A 
ATOM     56  C   UNL A   1      42.772  28.689  34.299  1.00  0.00     0.049 A 
ATOM     57  H   UNL A   1      41.386  29.334  32.844  1.00  0.00     0.167 HD
ATOM     58  C   UNL A   1      43.397  27.422  32.259  1.00  0.00     0.074 A 
ATOM     59  C   UNL A   1      44.209  26.463  31.540  1.00  0.00     0.031 C 
ATOM     60  C   UNL A   1      43.568  27.738  33.567  1.00  0.00     0.037 A 
BRANCH  47  61
ATOM     61  C   UNL A   1      39.561  31.943  35.686  1.00  0.00     0.064 A 
ATOM     62  C   UNL A   1      40.108  33.214  35.919  1.00  0.00     0.173 A 
ATOM     63  C   UNL A   1      38.543  31.502  36.546  1.00  0.00     0.173 A 
ATOM     64  F   UNL A   1      41.094  33.678  35.135  1.00  0.00    -0.203 F 
ATOM     65  C   UNL A   1      39.680  33.997  36.987  1.00  0.00     0.198 A 
ATOM     66  C   UNL A   1      38.093  32.301  37.593  1.00  0.00     0.198 A 
ATOM     67  F   UNL A   1      37.982  30.296  36.368  1.00  0.00    -0.203 F 
ATOM     68  F   UNL A   1      40.257  35.183  37.221  1.00  0.00    -0.200 F 
ATOM     69  C   UNL A   1      38.666  33.544  37.818  1.00  0.00     0.200 A 
ATOM     70  F   UNL A   1      37.105  31.868  38.388  1.00  0.00    -0.200 F 
ATOM     71  F   UNL A   1      38.249  34.302  38.842  1.00  0.00    -0.200 F 
ENDBRANCH  47  61
BRANCH  48  72
ATOM     72  C   UNL A   1      42.445  26.648  27.716  1.00  0.00     0.064 A 
ATOM     73  C   UNL A   1      41.899  25.384  27.450  1.00  0.00     0.173 A 
ATOM     74  C   UNL A   1      43.423  27.133  26.836  1.00  0.00     0.173 A 
ATOM     75  F   UNL A   1      40.973  24.868  28.272  1.00  0.00    -0.203 F 
ATOM     76  C   UNL A   1      42.334  24.624  26.365  1.00  0.00     0.198 A 
ATOM     77  C   UNL A   1      43.836  26.385  25.734  1.00  0.00     0.198 A 
ATOM     78  F   UNL A   1      43.972  28.339  27.041  1.00  0.00    -0.203 F 
ATOM     79  F   UNL A   1      41.832  23.398  26.166  1.00  0.00    -0.200 F 
ATOM     80  C   UNL A   1      43.298  25.127  25.506  1.00  0.00     0.200 A 
ATOM     81  F   UNL A   1      44.756  26.882  24.897  1.00  0.00    -0.200 F 
ATOM     82  F   UNL A   1      43.715  24.398  24.463  1.00  0.00    -0.200 F 
ENDBRANCH  48  72
BRANCH  60  83
ATOM     83  C   UNL A   1      44.656  27.011  34.307  1.00  0.00     0.064 A 
ATOM     84  C   UNL A   1      45.958  27.524  34.398  1.00  0.00     0.173 A 
ATOM     85  C   UNL A   1      44.387  25.785  34.935  1.00  0.00     0.173 A 
ATOM     86  F   UNL A   1      46.269  28.686  33.803  1.00  0.00    -0.203 F 
ATOM     87  C   UNL A   1      46.962  26.816  35.053  1.00  0.00     0.198 A 
ATOM     88  C   UNL A   1      45.385  25.098  35.620  1.00  0.00     0.198 A 
ATOM     89  F   UNL A   1      43.156  25.255  34.887  1.00  0.00    -0.203 F 
ATOM     90  F   UNL A   1      48.214  27.293  35.068  1.00  0.00    -0.200 F 
ATOM     91  C   UNL A   1      46.674  25.606  35.666  1.00  0.00     0.200 A 
ATOM     92  F   UNL A   1      45.101  23.937  36.227  1.00  0.00    -0.200 F 
ATOM     93  F   UNL A   1      47.642  24.925  36.293  1.00  0.00    -0.200 F 
ENDBRANCH  60  83
ENDBRANCH  34  35
ENDBRANCH  26  29
ENDBRANCH  24  25
ENDBRANCH  23  24
ENDBRANCH  22  23
ENDBRANCH   3  22
TORSDOF 15
ENDMDL
MODEL 2
REMARK VINA RESULT:     -11.4      1.724      2.842
REMARK SMILES C[C@@H](NC(=O)NCCC(=O)NC1CC1)C(=O)NCCCNC(=O)c1ccc(-c2c3nc(c(-c4c(F)c(F)c(F)c(F)c4F)c4ccc([nH]4)c(-c4c(F)c(F)c(F)c(F)c4F)c4nc(c(-c5c(F)c(F)c(F)c(F)c5F)c5ccc2[nH]5)C=C4)C=C3)cc1
REMARK SMILES IDX 15 1 16 2 17 3 2 5 1 6 3 7 4 8 5 10 6 11 7 13 8 14 9 15
REMARK SMILES IDX 10 16 11 17 12 19 13 20 14 21 18 22 19 23 20 24 21 25 22 26
REMARK SMILES IDX 23 28 24 29 25 30 86 31 26 32 85 33 27 34 28 35 29 36 79 37
REMARK SMILES IDX 30 38 84 39 78 40 80 41 31 42 83 43 77 44 76 45 32 47 64 48
REMARK SMILES IDX 44 49 63 50 45 51 48 52 62 53 81 54 46 55 47 56 61 58 82 59
REMARK SMILES IDX 49 60 33 61 34 62 42 63 35 64 36 65 40 66 43 67 37 68 38 69
REMARK SMILES IDX 41 70 39 71 65 72 66 73 74 74 67 75 68 76 72 77 75 78 69 79
REMARK SMILES IDX 70 80 73 81 71 82 50 83 51 84 59 85 52 86 53 87 57 88 60 89
REMARK SMILES IDX 54 90 55 91 58 92 56 93
REMARK H PARENT 17 4 3 9 6 12 11 18 21 27 80 46 48 57
REMARK Flexibility Score: inf
ROOT
ATOM      1  C   UNL A   1      33.504  28.672  26.300  1.00  0.00     0.242 C 
ATOM      2  O   UNL A   1      34.674  28.381  26.570  1.00  0.00    -0.273 OA
ATOM      3  N   UNL A   1      32.972  29.754  26.929  1.00  0.00    -0.354 N 
ATOM      4  H   UNL A   1      33.576  30.223  27.549  1.00  0.00     0.163 HD
ENDROOT
BRANCH   1   5
ATOM      5  C   UNL A   1      32.653  27.744  25.416  1.00  0.00     0.170 C 
ATOM      6  C   UNL A   1      33.652  26.854  24.665  1.00  0.00     0.041 C 
BRANCH   5   7
ATOM      7  N   UNL A   1      31.673  26.889  26.080  1.00  0.00    -0.327 N 
ATOM      8  C   UNL A   1      30.602  26.210  25.675  1.00  0.00     0.315 C 
ATOM      9  H   UNL A   1      31.843  26.794  27.045  1.00  0.00     0.166 HD
ATOM     10  O   UNL A   1      30.038  25.490  26.502  1.00  0.00    -0.249 OA
ATOM     11  N   UNL A   1      30.034  26.327  24.478  1.00  0.00    -0.338 N 
ATOM     12  H   UNL A   1      29.172  25.855  24.442  1.00  0.00     0.165 HD
BRANCH  11  13
ATOM     13  C   UNL A   1      30.342  26.962  23.212  1.00  0.00     0.127 C 
BRANCH  13  14
ATOM     14  C   UNL A   1      29.701  28.334  23.058  1.00  0.00     0.121 C 
BRANCH  14  15
ATOM     15  C   UNL A   1      30.564  29.378  22.382  1.00  0.00     0.221 C 
ATOM     16  O   UNL A   1      31.792  29.266  22.376  1.00  0.00    -0.275 OA
ATOM     17  N   UNL A   1      30.002  30.453  21.745  1.00  0.00    -0.353 N 
ATOM     18  H   UNL A   1      30.615  30.951  21.159  1.00  0.00     0.163 HD
BRANCH  17  19
ATOM     19  C   UNL A   1      28.672  30.965  21.794  1.00  0.00     0.082 C 
ATOM     20  C   UNL A   1      28.405  32.431  21.990  1.00  0.00     0.027 C 
ATOM     21  C   UNL A   1      28.030  31.769  20.701  1.00  0.00     0.027 C 
ENDBRANCH  17  19
ENDBRANCH  14  15
ENDBRANCH  13  14
ENDBRANCH  11  13
ENDBRANCH   5   7
ENDBRANCH   1   5
BRANCH   3  22
ATOM     22  C   UNL A   1      31.639  30.314  26.813  1.00  0.00     0.117 C 
BRANCH  22  23
ATOM     23  C   UNL A   1      31.684  31.795  26.501  1.00  0.00     0.042 C 
BRANCH  23  24
ATOM     24  C   UNL A   1      32.763  32.517  27.292  1.00  0.00     0.118 C 
BRANCH  24  25
ATOM     25  N   UNL A   1      32.426  33.902  27.592  1.00  0.00    -0.352 N 
ATOM     26  C   UNL A   1      33.010  34.742  28.512  1.00  0.00     0.251 C 
ATOM     27  H   UNL A   1      31.686  34.285  27.069  1.00  0.00     0.163 HD
ATOM     28  O   UNL A   1      32.527  35.844  28.751  1.00  0.00    -0.269 OA
BRANCH  26  29
ATOM     29  C   UNL A   1      34.203  34.276  29.251  1.00  0.00     0.039 A 
ATOM     30  C   UNL A   1      34.028  33.485  30.387  1.00  0.00     0.014 A 
ATOM     31  C   UNL A   1      35.487  34.551  28.772  1.00  0.00     0.014 A 
ATOM     32  C   UNL A   1      35.143  32.906  30.995  1.00  0.00     0.010 A 
ATOM     33  C   UNL A   1      36.580  33.882  29.309  1.00  0.00     0.010 A 
ATOM     34  C   UNL A   1      36.423  33.061  30.434  1.00  0.00    -0.014 A 
BRANCH  34  35
ATOM     35  C   UNL A   1      37.598  32.368  31.025  1.00  0.00     0.031 A 
ATOM     36  C   UNL A   1      38.071  32.721  32.410  1.00  0.00     0.074 A 
ATOM     37  C   UNL A   1      38.260  31.444  30.302  1.00  0.00     0.049 A 
ATOM     38  N   UNL A   1      39.048  32.198  33.108  1.00  0.00    -0.248 NA
ATOM     39  C   UNL A   1      37.381  33.828  33.090  1.00  0.00     0.031 C 
ATOM     40  C   UNL A   1      37.956  31.076  28.917  1.00  0.00     0.029 A 
ATOM     41  N   UNL A   1      39.320  30.637  30.632  1.00  0.00    -0.354 N 
ATOM     42  C   UNL A   1      39.090  32.915  34.295  1.00  0.00     0.074 A 
ATOM     43  C   UNL A   1      38.095  33.958  34.196  1.00  0.00     0.031 C 
ATOM     44  C   UNL A   1      38.775  30.083  28.535  1.00  0.00     0.029 A 
ATOM     45  C   UNL A   1      39.677  29.762  29.636  1.00  0.00     0.049 A 
ATOM     46  H   UNL A   1      39.780  30.682  31.501  1.00  0.00     0.167 HD
ATOM     47  C   UNL A   1      39.860  32.701  35.389  1.00  0.00     0.037 A 
ATOM     48  C   UNL A   1      40.615  28.796  29.620  1.00  0.00     0.037 A 
ATOM     49  C   UNL A   1      40.832  31.646  35.496  1.00  0.00     0.049 A 
ATOM     50  C   UNL A   1      41.432  28.553  30.860  1.00  0.00     0.074 A 
ATOM     51  C   UNL A   1      41.622  31.303  36.578  1.00  0.00     0.029 A 
ATOM     52  N   UNL A   1      41.146  30.759  34.476  1.00  0.00    -0.354 N 
ATOM     53  N   UNL A   1      41.397  29.177  32.013  1.00  0.00    -0.248 NA
ATOM     54  C   UNL A   1      42.408  27.456  30.801  1.00  0.00     0.031 C 
ATOM     55  C   UNL A   1      42.446  30.238  36.200  1.00  0.00     0.029 A 
ATOM     56  C   UNL A   1      42.129  29.880  34.899  1.00  0.00     0.049 A 
ATOM     57  H   UNL A   1      40.730  30.754  33.584  1.00  0.00     0.167 HD
ATOM     58  C   UNL A   1      42.321  28.532  32.824  1.00  0.00     0.074 A 
ATOM     59  C   UNL A   1      42.883  27.454  32.039  1.00  0.00     0.031 C 
ATOM     60  C   UNL A   1      42.676  28.810  34.103  1.00  0.00     0.037 A 
BRANCH  47  61
ATOM     61  C   UNL A   1      39.669  33.622  36.561  1.00  0.00     0.064 A 
ATOM     62  C   UNL A   1      40.322  34.862  36.637  1.00  0.00     0.173 A 
ATOM     63  C   UNL A   1      38.806  33.272  37.611  1.00  0.00     0.173 A 
ATOM     64  F   UNL A   1      41.170  35.239  35.668  1.00  0.00    -0.203 F 
ATOM     65  C   UNL A   1      40.144  35.702  37.733  1.00  0.00     0.198 A 
ATOM     66  C   UNL A   1      38.604  34.129  38.689  1.00  0.00     0.198 A 
ATOM     67  F   UNL A   1      38.154  32.100  37.588  1.00  0.00    -0.203 F 
ATOM     68  F   UNL A   1      40.822  36.855  37.808  1.00  0.00    -0.200 F 
ATOM     69  C   UNL A   1      39.279  35.339  38.754  1.00  0.00     0.200 A 
ATOM     70  F   UNL A   1      37.758  33.783  39.669  1.00  0.00    -0.200 F 
ATOM     71  F   UNL A   1      39.103  36.152  39.805  1.00  0.00    -0.200 F 
ENDBRANCH  47  61
BRANCH  48  72
ATOM     72  C   UNL A   1      40.793  27.947  28.412  1.00  0.00     0.064 A 
ATOM     73  C   UNL A   1      41.634  28.350  27.365  1.00  0.00     0.173 A 
ATOM     74  C   UNL A   1      40.124  26.722  28.274  1.00  0.00     0.173 A 
ATOM     75  F   UNL A   1      42.283  29.522  27.441  1.00  0.00    -0.203 F 
ATOM     76  C   UNL A   1      41.778  27.576  26.216  1.00  0.00     0.198 A 
ATOM     77  C   UNL A   1      40.292  25.933  27.137  1.00  0.00     0.198 A 
ATOM     78  F   UNL A   1      39.315  26.286  29.250  1.00  0.00    -0.203 F 
ATOM     79  F   UNL A   1      42.548  28.012  25.208  1.00  0.00    -0.200 F 
ATOM     80  C   UNL A   1      41.111  26.365  26.104  1.00  0.00     0.200 A 
ATOM     81  F   UNL A   1      39.658  24.757  27.042  1.00  0.00    -0.200 F 
ATOM     82  F   UNL A   1      41.250  25.620  25.001  1.00  0.00    -0.200 F 
ENDBRANCH  48  72
BRANCH  60  83
ATOM     83  C   UNL A   1      43.696  27.908  34.738  1.00  0.00     0.064 A 
ATOM     84  C   UNL A   1      43.333  26.703  35.358  1.00  0.00     0.173 A 
ATOM     85  C   UNL A   1      45.056  28.254  34.721  1.00  0.00     0.173 A 
ATOM     86  F   UNL A   1      42.044  26.334  35.413  1.00  0.00    -0.203 F 
ATOM     87  C   UNL A   1      44.287  25.901  35.977  1.00  0.00     0.198 A 
ATOM     88  C   UNL A   1      46.011  27.430  35.310  1.00  0.00     0.198 A 
ATOM     89  F   UNL A   1      45.459  29.390  34.132  1.00  0.00    -0.203 F 
ATOM     90  F   UNL A   1      43.908  24.789  36.623  1.00  0.00    -0.200 F 
ATOM     91  C   UNL A   1      45.625  26.262  35.949  1.00  0.00     0.200 A 
ATOM     92  F   UNL A   1      47.307  27.773  35.267  1.00  0.00    -0.200 F 
ATOM     93  F   UNL A   1      46.542  25.491  36.548  1.00  0.00    -0.200 F 
ENDBRANCH  60  83
ENDBRANCH  34  35
ENDBRANCH  26  29
ENDBRANCH  24  25
ENDBRANCH  23  24
ENDBRANCH  22  23
ENDBRANCH   3  22
TORSDOF 15
ENDMDL
MODEL 3
REMARK VINA RESULT:     -11.4      2.002      7.926
REMARK SMILES C[C@@H](NC(=O)NCCC(=O)NC1CC1)C(=O)NCCCNC(=O)c1ccc(-c2c3nc(c(-c4c(F)c(F)c(F)c(F)c4F)c4ccc([nH]4)c(-c4c(F)c(F)c(F)c(F)c4F)c4nc(c(-c5c(F)c(F)c(F)c(F)c5F)c5ccc2[nH]5)C=C4)C=C3)cc1
REMARK SMILES IDX 15 1 16 2 17 3 2 5 1 6 3 7 4 8 5 10 6 11 7 13 8 14 9 15
REMARK SMILES IDX 10 16 11 17 12 19 13 20 14 21 18 22 19 23 20 24 21 25 22 26
REMARK SMILES IDX 23 28 24 29 25 30 86 31 26 32 85 33 27 34 28 35 29 36 79 37
REMARK SMILES IDX 30 38 84 39 78 40 80 41 31 42 83 43 77 44 76 45 32 47 64 48
REMARK SMILES IDX 44 49 63 50 45 51 48 52 62 53 81 54 46 55 47 56 61 58 82 59
REMARK SMILES IDX 49 60 33 61 34 62 42 63 35 64 36 65 40 66 43 67 37 68 38 69
REMARK SMILES IDX 41 70 39 71 65 72 66 73 74 74 67 75 68 76 72 77 75 78 69 79
REMARK SMILES IDX 70 80 73 81 71 82 50 83 51 84 59 85 52 86 53 87 57 88 60 89
REMARK SMILES IDX 54 90 55 91 58 92 56 93
REMARK H PARENT 17 4 3 9 6 12 11 18 21 27 80 46 48 57
REMARK Flexibility Score: inf
ROOT
ATOM      1  C   UNL A   1      33.866  29.125  26.738  1.00  0.00     0.242 C 
ATOM      2  O   UNL A   1      34.993  28.991  27.226  1.00  0.00    -0.273 OA
ATOM      3  N   UNL A   1      33.117  30.170  27.181  1.00  0.00    -0.354 N 
ATOM      4  H   UNL A   1      33.547  30.742  27.858  1.00  0.00     0.163 HD
ENDROOT
BRANCH   1   5
ATOM      5  C   UNL A   1      33.291  28.054  25.795  1.00  0.00     0.170 C 
ATOM      6  C   UNL A   1      33.713  28.474  24.382  1.00  0.00     0.041 C 
BRANCH   5   7
ATOM      7  N   UNL A   1      33.701  26.670  26.013  1.00  0.00    -0.327 N 
ATOM      8  C   UNL A   1      33.071  25.497  26.002  1.00  0.00     0.315 C 
ATOM      9  H   UNL A   1      34.661  26.585  26.215  1.00  0.00     0.166 HD
ATOM     10  O   UNL A   1      33.756  24.481  26.134  1.00  0.00    -0.249 OA
ATOM     11  N   UNL A   1      31.751  25.343  25.960  1.00  0.00    -0.338 N 
ATOM     12  H   UNL A   1      31.493  24.406  26.115  1.00  0.00     0.165 HD
BRANCH  11  13
ATOM     13  C   UNL A   1      30.588  26.182  25.748  1.00  0.00     0.127 C 
BRANCH  13  14
ATOM     14  C   UNL A   1      29.953  25.991  24.378  1.00  0.00     0.121 C 
BRANCH  14  15
ATOM     15  C   UNL A   1      30.796  26.446  23.206  1.00  0.00     0.221 C 
ATOM     16  O   UNL A   1      31.802  25.812  22.876  1.00  0.00    -0.275 OA
ATOM     17  N   UNL A   1      30.451  27.552  22.476  1.00  0.00    -0.353 N 
ATOM     18  H   UNL A   1      30.923  27.643  21.617  1.00  0.00     0.163 HD
BRANCH  17  19
ATOM     19  C   UNL A   1      29.518  28.593  22.758  1.00  0.00     0.082 C 
ATOM     20  C   UNL A   1      29.926  29.828  23.510  1.00  0.00     0.027 C 
ATOM     21  C   UNL A   1      29.505  29.931  22.077  1.00  0.00     0.027 C 
ENDBRANCH  17  19
ENDBRANCH  14  15
ENDBRANCH  13  14
ENDBRANCH  11  13
ENDBRANCH   5   7
ENDBRANCH   1   5
BRANCH   3  22
ATOM     22  C   UNL A   1      31.774  30.561  26.796  1.00  0.00     0.117 C 
BRANCH  22  23
ATOM     23  C   UNL A   1      31.652  32.063  26.654  1.00  0.00     0.042 C 
BRANCH  23  24
ATOM     24  C   UNL A   1      32.748  32.803  27.402  1.00  0.00     0.118 C 
BRANCH  24  25
ATOM     25  N   UNL A   1      32.424  34.199  27.665  1.00  0.00    -0.352 N 
ATOM     26  C   UNL A   1      32.974  35.041  28.603  1.00  0.00     0.251 C 
ATOM     27  H   UNL A   1      31.720  34.588  27.098  1.00  0.00     0.163 HD
ATOM     28  O   UNL A   1      32.502  36.156  28.800  1.00  0.00    -0.269 OA
BRANCH  26  29
ATOM     29  C   UNL A   1      34.116  34.564  29.411  1.00  0.00     0.039 A 
ATOM     30  C   UNL A   1      33.872  34.033  30.678  1.00  0.00     0.014 A 
ATOM     31  C   UNL A   1      35.410  34.564  28.883  1.00  0.00     0.014 A 
ATOM     32  C   UNL A   1      34.918  33.431  31.380  1.00  0.00     0.010 A 
ATOM     33  C   UNL A   1      36.420  33.864  29.532  1.00  0.00     0.010 A 
ATOM     34  C   UNL A   1      36.189  33.300  30.795  1.00  0.00    -0.014 A 
BRANCH  34  35
ATOM     35  C   UNL A   1      37.279  32.576  31.501  1.00  0.00     0.031 A 
ATOM     36  C   UNL A   1      37.985  31.427  30.834  1.00  0.00     0.074 A 
ATOM     37  C   UNL A   1      37.611  32.935  32.757  1.00  0.00     0.049 A 
ATOM     38  N   UNL A   1      38.985  30.704  31.273  1.00  0.00    -0.248 NA
ATOM     39  C   UNL A   1      37.483  31.010  29.515  1.00  0.00     0.031 C 
ATOM     40  C   UNL A   1      36.944  33.973  33.546  1.00  0.00     0.029 A 
ATOM     41  N   UNL A   1      38.599  32.473  33.589  1.00  0.00    -0.354 N 
ATOM     42  C   UNL A   1      39.222  29.751  30.293  1.00  0.00     0.074 A 
ATOM     43  C   UNL A   1      38.216  29.935  29.272  1.00  0.00     0.031 C 
ATOM     44  C   UNL A   1      37.573  34.103  34.724  1.00  0.00     0.029 A 
ATOM     45  C   UNL A   1      38.669  33.142  34.787  1.00  0.00     0.049 A 
ATOM     46  H   UNL A   1      39.201  31.731  33.351  1.00  0.00     0.167 HD
ATOM     47  C   UNL A   1      40.211  28.829  30.227  1.00  0.00     0.037 A 
ATOM     48  C   UNL A   1      39.534  33.009  35.810  1.00  0.00     0.037 A 
ATOM     49  C   UNL A   1      41.227  28.665  31.232  1.00  0.00     0.049 A 
ATOM     50  C   UNL A   1      40.647  32.004  35.697  1.00  0.00     0.074 A 
ATOM     51  C   UNL A   1      42.310  27.803  31.237  1.00  0.00     0.029 A 
ATOM     52  N   UNL A   1      41.284  29.383  32.419  1.00  0.00    -0.354 N 
ATOM     53  N   UNL A   1      40.919  31.171  34.721  1.00  0.00    -0.248 NA
ATOM     54  C   UNL A   1      41.589  31.933  36.824  1.00  0.00     0.031 C 
ATOM     55  C   UNL A   1      42.996  27.967  32.445  1.00  0.00     0.029 A 
ATOM     56  C   UNL A   1      42.374  28.972  33.169  1.00  0.00     0.049 A 
ATOM     57  H   UNL A   1      40.644  30.082  32.687  1.00  0.00     0.167 HD
ATOM     58  C   UNL A   1      42.074  30.501  35.100  1.00  0.00     0.074 A 
ATOM     59  C   UNL A   1      42.465  31.041  36.385  1.00  0.00     0.031 C 
ATOM     60  C   UNL A   1      42.748  29.523  34.446  1.00  0.00     0.037 A 
BRANCH  47  61
ATOM     61  C   UNL A   1      40.248  27.938  29.018  1.00  0.00     0.064 A 
ATOM     62  C   UNL A   1      40.966  28.292  27.864  1.00  0.00     0.173 A 
ATOM     63  C   UNL A   1      39.579  26.704  29.018  1.00  0.00     0.173 A 
ATOM     64  F   UNL A   1      41.611  29.467  27.805  1.00  0.00    -0.203 F 
ATOM     65  C   UNL A   1      40.984  27.462  26.746  1.00  0.00     0.198 A 
ATOM     66  C   UNL A   1      39.627  25.861  27.911  1.00  0.00     0.198 A 
ATOM     67  F   UNL A   1      38.881  26.314  30.096  1.00  0.00    -0.203 F 
ATOM     68  F   UNL A   1      41.630  27.849  25.638  1.00  0.00    -0.200 F 
ATOM     69  C   UNL A   1      40.323  26.244  26.773  1.00  0.00     0.200 A 
ATOM     70  F   UNL A   1      38.998  24.679  27.944  1.00  0.00    -0.200 F 
ATOM     71  F   UNL A   1      40.347  25.443  25.699  1.00  0.00    -0.200 F 
ENDBRANCH  47  61
BRANCH  48  72
ATOM     72  C   UNL A   1      39.418  33.887  37.005  1.00  0.00     0.064 A 
ATOM     73  C   UNL A   1      38.749  33.451  38.157  1.00  0.00     0.173 A 
ATOM     74  C   UNL A   1      39.966  35.178  37.019  1.00  0.00     0.173 A 
ATOM     75  F   UNL A   1      38.192  32.231  38.188  1.00  0.00    -0.203 F 
ATOM     76  C   UNL A   1      38.607  34.282  39.267  1.00  0.00     0.198 A 
ATOM     77  C   UNL A   1      39.850  35.997  38.141  1.00  0.00     0.198 A 
ATOM     78  F   UNL A   1      40.623  35.640  35.946  1.00  0.00    -0.203 F 
ATOM     79  F   UNL A   1      37.917  33.858  40.335  1.00  0.00    -0.200 F 
ATOM     80  C   UNL A   1      39.162  35.553  39.260  1.00  0.00     0.200 A 
ATOM     81  F   UNL A   1      40.401  37.218  38.135  1.00  0.00    -0.200 F 
ATOM     82  F   UNL A   1      39.028  36.351  40.327  1.00  0.00    -0.200 F 
ENDBRANCH  48  72
BRANCH  60  83
ATOM     83  C   UNL A   1      43.998  29.004  35.100  1.00  0.00     0.064 A 
ATOM     84  C   UNL A   1      43.970  27.924  35.995  1.00  0.00     0.173 A 
ATOM     85  C   UNL A   1      45.241  29.593  34.820  1.00  0.00     0.173 A 
ATOM     86  F   UNL A   1      42.806  27.334  36.306  1.00  0.00    -0.203 F 
ATOM     87  C   UNL A   1      45.133  27.484  36.622  1.00  0.00     0.198 A 
ATOM     88  C   UNL A   1      46.406  29.126  35.421  1.00  0.00     0.198 A 
ATOM     89  F   UNL A   1      45.325  30.621  33.962  1.00  0.00    -0.203 F 
ATOM     90  F   UNL A   1      45.072  26.497  37.526  1.00  0.00    -0.200 F 
ATOM     91  C   UNL A   1      46.350  28.083  36.331  1.00  0.00     0.200 A 
ATOM     92  F   UNL A   1      47.584  29.695  35.127  1.00  0.00    -0.200 F 
ATOM     93  F   UNL A   1      47.467  27.660  36.938  1.00  0.00    -0.200 F 
ENDBRANCH  60  83
ENDBRANCH  34  35
ENDBRANCH  26  29
ENDBRANCH  24  25
ENDBRANCH  23  24
ENDBRANCH  22  23
ENDBRANCH   3  22
TORSDOF 15
ENDMDL
