MODEL 1
REMARK VINA RESULT:     -13.2      0.000      0.000
REMARK SMILES Cc1c(C)c2cc(Cl)c(O[C@@H](C)C(=O)NCCCNC(=O)c3ccc(-c4c5nc(c(-c6c(F)c(F)c(F)c(F)c6F)c6ccc([nH]6)c(-c6c(F)c(F)c(F)c(F)c6F)c6nc(c(-c7c(F)c(F)c(F)c(F)c7F)c7ccc4[nH]7)C=C6)C=C5)cc3)cc2oc1=O
REMARK SMILES IDX 17 1 16 2 15 3 13 4 14 5 11 7 12 8 10 9 9 10 1 11 2 12 3 13
REMARK SMILES IDX 88 14 4 15 5 16 87 17 89 18 6 19 86 20 7 21 85 22 8 23 18 24
REMARK SMILES IDX 19 25 20 26 21 28 22 29 23 30 84 31 24 32 83 33 25 34 26 35
REMARK SMILES IDX 27 36 77 37 28 38 82 39 76 40 78 41 29 42 81 43 75 44 74 45
REMARK SMILES IDX 30 47 62 48 42 49 61 50 43 51 46 52 60 53 79 54 44 55 45 56
REMARK SMILES IDX 59 58 80 59 47 60 31 61 32 62 40 63 33 64 34 65 38 66 41 67
REMARK SMILES IDX 35 68 36 69 39 70 37 71 63 72 64 73 72 74 65 75 66 76 70 77
REMARK SMILES IDX 73 78 67 79 68 80 71 81 69 82 48 83 49 84 57 85 50 86 51 87
REMARK SMILES IDX 55 88 58 89 52 90 53 91 56 92 54 93
REMARK H PARENT 15 6 19 27 78 46 46 57
REMARK Flexibility Score: inf
ROOT
ATOM      1  C   UNL A   1      32.001  28.426  26.449  1.00  0.00     0.042 C 
ENDROOT
BRANCH   1   2
ATOM      2  C   UNL A   1      32.487  26.997  26.229  1.00  0.00     0.118 C 
BRANCH   2   3
ATOM      3  N   UNL A   1      31.426  26.038  26.474  1.00  0.00    -0.353 N 
ATOM      4  C   UNL A   1      30.305  25.694  25.786  1.00  0.00     0.260 C 
ATOM      5  O   UNL A   1      29.537  24.930  26.387  1.00  0.00    -0.271 OA
ATOM      6  H   UNL A   1      31.541  25.535  27.313  1.00  0.00     0.163 HD
BRANCH   4   7
ATOM      7  C   UNL A   1      29.973  26.129  24.324  1.00  0.00     0.258 C 
ATOM      8  C   UNL A   1      28.558  26.677  24.139  1.00  0.00     0.064 C 
BRANCH   7   9
ATOM      9  O   UNL A   1      30.489  25.469  23.167  1.00  0.00    -0.479 OA
BRANCH   9  10
ATOM     10  C   UNL A   1      31.627  24.732  23.254  1.00  0.00     0.142 A 
ATOM     11  C   UNL A   1      36.210  20.590  25.164  1.00  0.00     0.052 C 
ATOM     12  C   UNL A   1      35.074  21.347  24.539  1.00  0.00     0.038 A 
ATOM     13  C   UNL A   1      35.239  22.503  23.860  1.00  0.00    -0.030 A 
ATOM     14  C   UNL A   1      33.726  20.758  24.768  1.00  0.00     0.339 A 
ATOM     15  C   UNL A   1      36.583  23.085  23.513  1.00  0.00     0.046 C 
ATOM     16  C   UNL A   1      34.038  23.273  23.499  1.00  0.00     0.023 A 
ATOM     17  O   UNL A   1      32.666  21.355  24.112  1.00  0.00    -0.422 OA
ATOM     18  O   UNL A   1      33.555  19.763  25.465  1.00  0.00    -0.246 OA
ATOM     19  C   UNL A   1      34.058  24.618  23.114  1.00  0.00     0.036 A 
ATOM     20  C   UNL A   1      32.793  22.669  23.644  1.00  0.00     0.142 A 
ATOM     21  C   UNL A   1      32.862  25.344  23.004  1.00  0.00     0.083 A 
ATOM     22  C   UNL A   1      31.596  23.363  23.472  1.00  0.00     0.096 A 
ATOM     23  Cl  UNL A   1      32.965  27.021  22.604  1.00  0.00    -0.080 Cl
ENDBRANCH   9  10
ENDBRANCH   7   9
ENDBRANCH   4   7
ENDBRANCH   2   3
ENDBRANCH   1   2
BRANCH   1  24
ATOM     24  C   UNL A   1      32.869  29.496  25.801  1.00  0.00     0.118 C 
BRANCH  24  25
ATOM     25  N   UNL A   1      32.567  30.835  26.297  1.00  0.00    -0.352 N 
ATOM     26  C   UNL A   1      33.207  31.668  27.186  1.00  0.00     0.251 C 
ATOM     27  H   UNL A   1      31.743  31.220  25.920  1.00  0.00     0.163 HD
ATOM     28  O   UNL A   1      32.649  32.714  27.516  1.00  0.00    -0.269 OA
BRANCH  26  29
ATOM     29  C   UNL A   1      34.527  31.342  27.788  1.00  0.00     0.039 A 
ATOM     30  C   UNL A   1      34.857  30.059  28.213  1.00  0.00     0.014 A 
ATOM     31  C   UNL A   1      35.500  32.351  27.872  1.00  0.00     0.014 A 
ATOM     32  C   UNL A   1      36.051  29.830  28.893  1.00  0.00     0.010 A 
ATOM     33  C   UNL A   1      36.747  32.096  28.463  1.00  0.00     0.010 A 
ATOM     34  C   UNL A   1      37.012  30.846  29.031  1.00  0.00    -0.014 A 
BRANCH  34  35
ATOM     35  C   UNL A   1      38.290  30.519  29.718  1.00  0.00     0.031 A 
ATOM     36  C   UNL A   1      38.586  31.007  31.107  1.00  0.00     0.074 A 
ATOM     37  C   UNL A   1      39.139  29.660  29.122  1.00  0.00     0.049 A 
ATOM     38  N   UNL A   1      39.469  30.565  31.968  1.00  0.00    -0.248 NA
ATOM     39  C   UNL A   1      37.781  32.125  31.607  1.00  0.00     0.031 C 
ATOM     40  C   UNL A   1      38.977  29.128  27.769  1.00  0.00     0.029 A 
ATOM     41  N   UNL A   1      40.274  29.053  29.591  1.00  0.00    -0.354 N 
ATOM     42  C   UNL A   1      39.271  31.305  33.128  1.00  0.00     0.074 A 
ATOM     43  C   UNL A   1      38.233  32.269  32.845  1.00  0.00     0.031 C 
ATOM     44  C   UNL A   1      39.942  28.227  27.537  1.00  0.00     0.029 A 
ATOM     45  C   UNL A   1      40.809  28.145  28.710  1.00  0.00     0.049 A 
ATOM     46  H   UNL A   1      40.668  29.247  30.472  1.00  0.00     0.167 HD
ATOM     47  C   UNL A   1      39.892  31.179  34.324  1.00  0.00     0.037 A 
ATOM     48  C   UNL A   1      41.874  27.332  28.834  1.00  0.00     0.037 A 
ATOM     49  C   UNL A   1      40.992  30.288  34.573  1.00  0.00     0.049 A 
ATOM     50  C   UNL A   1      42.642  27.321  30.124  1.00  0.00     0.074 A 
ATOM     51  C   UNL A   1      41.684  30.077  35.753  1.00  0.00     0.029 A 
ATOM     52  N   UNL A   1      41.593  29.496  33.607  1.00  0.00    -0.354 N 
ATOM     53  N   UNL A   1      42.371  27.934  31.249  1.00  0.00    -0.248 NA
ATOM     54  C   UNL A   1      43.869  26.513  30.157  1.00  0.00     0.031 C 
ATOM     55  C   UNL A   1      42.749  29.211  35.482  1.00  0.00     0.029 A 
ATOM     56  C   UNL A   1      42.690  28.846  34.147  1.00  0.00     0.049 A 
ATOM     57  H   UNL A   1      41.287  29.409  32.676  1.00  0.00     0.167 HD
ATOM     58  C   UNL A   1      43.390  27.590  32.125  1.00  0.00     0.074 A 
ATOM     59  C   UNL A   1      44.274  26.694  31.407  1.00  0.00     0.031 C 
ATOM     60  C   UNL A   1      43.575  27.982  33.409  1.00  0.00     0.037 A 
BRANCH  47  61
ATOM     61  C   UNL A   1      39.402  32.027  35.460  1.00  0.00     0.064 A 
ATOM     62  C   UNL A   1      38.481  31.522  36.390  1.00  0.00     0.173 A 
ATOM     63  C   UNL A   1      39.915  33.314  35.673  1.00  0.00     0.173 A 
ATOM     64  F   UNL A   1      37.948  30.303  36.221  1.00  0.00    -0.203 F 
ATOM     65  C   UNL A   1      38.095  32.276  37.496  1.00  0.00     0.198 A 
ATOM     66  C   UNL A   1      39.537  34.059  36.787  1.00  0.00     0.198 A 
ATOM     67  F   UNL A   1      40.795  33.841  34.808  1.00  0.00    -0.203 F 
ATOM     68  F   UNL A   1      37.202  31.780  38.363  1.00  0.00    -0.200 F 
ATOM     69  C   UNL A   1      38.629  33.540  37.698  1.00  0.00     0.200 A 
ATOM     70  F   UNL A   1      40.055  35.280  36.982  1.00  0.00    -0.200 F 
ATOM     71  F   UNL A   1      38.265  34.259  38.769  1.00  0.00    -0.200 F 
ENDBRANCH  47  61
BRANCH  48  72
ATOM     72  C   UNL A   1      42.255  26.462  27.694  1.00  0.00     0.064 A 
ATOM     73  C   UNL A   1      43.243  26.851  26.783  1.00  0.00     0.173 A 
ATOM     74  C   UNL A   1      41.676  25.193  27.532  1.00  0.00     0.173 A 
ATOM     75  F   UNL A   1      43.812  28.061  26.889  1.00  0.00    -0.203 F 
ATOM     76  C   UNL A   1      43.645  26.000  25.756  1.00  0.00     0.198 A 
ATOM     77  C   UNL A   1      42.096  24.335  26.520  1.00  0.00     0.198 A 
ATOM     78  F   UNL A   1      40.726  24.776  28.382  1.00  0.00    -0.203 F 
ATOM     79  F   UNL A   1      44.584  26.400  24.886  1.00  0.00    -0.200 F 
ATOM     80  C   UNL A   1      43.080  24.739  25.632  1.00  0.00     0.200 A 
ATOM     81  F   UNL A   1      41.559  23.112  26.416  1.00  0.00    -0.200 F 
ATOM     82  F   UNL A   1      43.485  23.913  24.658  1.00  0.00    -0.200 F 
ENDBRANCH  48  72
BRANCH  60  83
ATOM     83  C   UNL A   1      44.799  27.480  34.115  1.00  0.00     0.064 A 
ATOM     84  C   UNL A   1      45.980  28.235  34.137  1.00  0.00     0.173 A 
ATOM     85  C   UNL A   1      44.768  26.279  34.839  1.00  0.00     0.173 A 
ATOM     86  F   UNL A   1      46.059  29.384  33.451  1.00  0.00    -0.203 F 
ATOM     87  C   UNL A   1      47.092  27.799  34.852  1.00  0.00     0.198 A 
ATOM     88  C   UNL A   1      45.873  25.859  35.571  1.00  0.00     0.198 A 
ATOM     89  F   UNL A   1      43.657  25.528  34.853  1.00  0.00    -0.203 F 
ATOM     90  F   UNL A   1      48.220  28.523  34.838  1.00  0.00    -0.200 F 
ATOM     91  C   UNL A   1      47.034  26.618  35.576  1.00  0.00     0.200 A 
ATOM     92  F   UNL A   1      45.812  24.724  36.282  1.00  0.00    -0.200 F 
ATOM     93  F   UNL A   1      48.101  26.209  36.277  1.00  0.00    -0.200 F 
ENDBRANCH  60  83
ENDBRANCH  34  35
ENDBRANCH  26  29
ENDBRANCH  24  25
ENDBRANCH   1  24
TORSDOF 12
ENDMDL
MODEL 2
REMARK VINA RESULT:     -13.2      0.294      1.618
REMARK SMILES Cc1c(C)c2cc(Cl)c(O[C@@H](C)C(=O)NCCCNC(=O)c3ccc(-c4c5nc(c(-c6c(F)c(F)c(F)c(F)c6F)c6ccc([nH]6)c(-c6c(F)c(F)c(F)c(F)c6F)c6nc(c(-c7c(F)c(F)c(F)c(F)c7F)c7ccc4[nH]7)C=C6)C=C5)cc3)cc2oc1=O
REMARK SMILES IDX 17 1 16 2 15 3 13 4 14 5 11 7 12 8 10 9 9 10 1 11 2 12 3 13
REMARK SMILES IDX 88 14 4 15 5 16 87 17 89 18 6 19 86 20 7 21 85 22 8 23 18 24
REMARK SMILES IDX 19 25 20 26 21 28 22 29 23 30 84 31 24 32 83 33 25 34 26 35
REMARK SMILES IDX 27 36 77 37 28 38 82 39 76 40 78 41 29 42 81 43 75 44 74 45
REMARK SMILES IDX 30 47 62 48 42 49 61 50 43 51 46 52 60 53 79 54 44 55 45 56
REMARK SMILES IDX 59 58 80 59 47 60 31 61 32 62 40 63 33 64 34 65 38 66 41 67
REMARK SMILES IDX 35 68 36 69 39 70 37 71 63 72 64 73 72 74 65 75 66 76 70 77
REMARK SMILES IDX 73 78 67 79 68 80 71 81 69 82 48 83 49 84 57 85 50 86 51 87
REMARK SMILES IDX 55 88 58 89 52 90 53 91 56 92 54 93
REMARK H PARENT 15 6 19 27 78 46 46 57
REMARK Flexibility Score: inf
ROOT
ATOM      1  C   UNL A   1      32.111  28.379  26.406  1.00  0.00     0.042 C 
ENDROOT
BRANCH   1   2
ATOM      2  C   UNL A   1      32.539  26.927  26.212  1.00  0.00     0.118 C 
BRANCH   2   3
ATOM      3  N   UNL A   1      31.448  26.015  26.501  1.00  0.00    -0.353 N 
ATOM      4  C   UNL A   1      30.325  25.663  25.821  1.00  0.00     0.260 C 
ATOM      5  O   UNL A   1      29.528  24.959  26.456  1.00  0.00    -0.271 OA
ATOM      6  H   UNL A   1      31.540  25.560  27.369  1.00  0.00     0.163 HD
BRANCH   4   7
ATOM      7  C   UNL A   1      30.021  26.020  24.331  1.00  0.00     0.258 C 
ATOM      8  C   UNL A   1      28.670  26.703  24.114  1.00  0.00     0.064 C 
BRANCH   7   9
ATOM      9  O   UNL A   1      30.446  25.222  23.226  1.00  0.00    -0.479 OA
BRANCH   9  10
ATOM     10  C   UNL A   1      31.598  24.507  23.305  1.00  0.00     0.142 A 
ATOM     11  C   UNL A   1      36.289  20.483  25.203  1.00  0.00     0.052 C 
ATOM     12  C   UNL A   1      35.129  21.207  24.587  1.00  0.00     0.038 A 
ATOM     13  C   UNL A   1      35.260  22.354  23.883  1.00  0.00    -0.030 A 
ATOM     14  C   UNL A   1      33.796  20.599  24.852  1.00  0.00     0.339 A 
ATOM     15  C   UNL A   1      36.586  22.953  23.501  1.00  0.00     0.046 C 
ATOM     16  C   UNL A   1      34.039  23.095  23.531  1.00  0.00     0.023 A 
ATOM     17  O   UNL A   1      32.713  21.165  24.205  1.00  0.00    -0.422 OA
ATOM     18  O   UNL A   1      33.655  19.615  25.570  1.00  0.00    -0.246 OA
ATOM     19  C   UNL A   1      34.028  24.433  23.121  1.00  0.00     0.036 A 
ATOM     20  C   UNL A   1      32.808  22.473  23.711  1.00  0.00     0.142 A 
ATOM     21  C   UNL A   1      32.817  25.135  23.021  1.00  0.00     0.083 A 
ATOM     22  C   UNL A   1      31.595  23.142  23.549  1.00  0.00     0.096 A 
ATOM     23  Cl  UNL A   1      32.882  26.807  22.588  1.00  0.00    -0.080 Cl
ENDBRANCH   9  10
ENDBRANCH   7   9
ENDBRANCH   4   7
ENDBRANCH   2   3
ENDBRANCH   1   2
BRANCH   1  24
ATOM     24  C   UNL A   1      33.120  29.407  25.913  1.00  0.00     0.118 C 
BRANCH  24  25
ATOM     25  N   UNL A   1      32.835  30.750  26.407  1.00  0.00    -0.352 N 
ATOM     26  C   UNL A   1      33.482  31.574  27.301  1.00  0.00     0.251 C 
ATOM     27  H   UNL A   1      32.020  31.147  26.025  1.00  0.00     0.163 HD
ATOM     28  O   UNL A   1      32.937  32.627  27.626  1.00  0.00    -0.269 OA
BRANCH  26  29
ATOM     29  C   UNL A   1      34.792  31.228  27.911  1.00  0.00     0.039 A 
ATOM     30  C   UNL A   1      35.090  29.946  28.364  1.00  0.00     0.014 A 
ATOM     31  C   UNL A   1      35.790  32.214  27.975  1.00  0.00     0.014 A 
ATOM     32  C   UNL A   1      36.278  29.703  29.050  1.00  0.00     0.010 A 
ATOM     33  C   UNL A   1      37.030  31.942  28.574  1.00  0.00     0.010 A 
ATOM     34  C   UNL A   1      37.263  30.697  29.168  1.00  0.00    -0.014 A 
BRANCH  34  35
ATOM     35  C   UNL A   1      38.532  30.354  29.864  1.00  0.00     0.031 A 
ATOM     36  C   UNL A   1      38.835  30.858  31.246  1.00  0.00     0.074 A 
ATOM     37  C   UNL A   1      39.364  29.468  29.284  1.00  0.00     0.049 A 
ATOM     38  N   UNL A   1      39.706  30.410  32.117  1.00  0.00    -0.248 NA
ATOM     39  C   UNL A   1      38.053  32.001  31.726  1.00  0.00     0.031 C 
ATOM     40  C   UNL A   1      39.194  28.918  27.939  1.00  0.00     0.029 A 
ATOM     41  N   UNL A   1      40.485  28.843  29.765  1.00  0.00    -0.354 N 
ATOM     42  C   UNL A   1      39.521  31.172  33.264  1.00  0.00     0.074 A 
ATOM     43  C   UNL A   1      38.505  32.153  32.963  1.00  0.00     0.031 C 
ATOM     44  C   UNL A   1      40.140  27.992  27.724  1.00  0.00     0.029 A 
ATOM     45  C   UNL A   1      41.002  27.911  28.900  1.00  0.00     0.049 A 
ATOM     46  H   UNL A   1      40.881  29.043  30.645  1.00  0.00     0.167 HD
ATOM     47  C   UNL A   1      40.136  31.052  34.463  1.00  0.00     0.037 A 
ATOM     48  C   UNL A   1      42.049  27.077  29.041  1.00  0.00     0.037 A 
ATOM     49  C   UNL A   1      41.216  30.142  34.730  1.00  0.00     0.049 A 
ATOM     50  C   UNL A   1      42.813  27.069  30.332  1.00  0.00     0.074 A 
ATOM     51  C   UNL A   1      41.900  29.935  35.914  1.00  0.00     0.029 A 
ATOM     52  N   UNL A   1      41.802  29.322  33.778  1.00  0.00    -0.354 N 
ATOM     53  N   UNL A   1      42.553  27.706  31.447  1.00  0.00    -0.248 NA
ATOM     54  C   UNL A   1      44.023  26.237  30.382  1.00  0.00     0.031 C 
ATOM     55  C   UNL A   1      42.947  29.041  35.661  1.00  0.00     0.029 A 
ATOM     56  C   UNL A   1      42.883  28.656  34.332  1.00  0.00     0.049 A 
ATOM     57  H   UNL A   1      41.497  29.226  32.847  1.00  0.00     0.167 HD
ATOM     58  C   UNL A   1      43.562  27.354  32.332  1.00  0.00     0.074 A 
ATOM     59  C   UNL A   1      44.428  26.428  31.631  1.00  0.00     0.031 C 
ATOM     60  C   UNL A   1      43.752  27.762  33.610  1.00  0.00     0.037 A 
BRANCH  47  61
ATOM     61  C   UNL A   1      39.662  31.928  35.585  1.00  0.00     0.064 A 
ATOM     62  C   UNL A   1      40.189  33.216  35.764  1.00  0.00     0.173 A 
ATOM     63  C   UNL A   1      38.623  31.517  36.431  1.00  0.00     0.173 A 
ATOM     64  F   UNL A   1      41.197  33.648  34.993  1.00  0.00    -0.203 F 
ATOM     65  C   UNL A   1      39.686  34.063  36.749  1.00  0.00     0.198 A 
ATOM     66  C   UNL A   1      38.114  32.372  37.405  1.00  0.00     0.198 A 
ATOM     67  F   UNL A   1      38.090  30.293  36.300  1.00  0.00    -0.203 F 
ATOM     68  F   UNL A   1      40.214  35.284  36.913  1.00  0.00    -0.200 F 
ATOM     69  C   UNL A   1      38.644  33.644  37.563  1.00  0.00     0.200 A 
ATOM     70  F   UNL A   1      37.105  31.966  38.189  1.00  0.00    -0.200 F 
ATOM     71  F   UNL A   1      38.153  34.465  38.502  1.00  0.00    -0.200 F 
ENDBRANCH  47  61
BRANCH  48  72
ATOM     72  C   UNL A   1      42.413  26.181  27.916  1.00  0.00     0.064 A 
ATOM     73  C   UNL A   1      41.761  24.957  27.723  1.00  0.00     0.173 A 
ATOM     74  C   UNL A   1      43.383  26.563  26.975  1.00  0.00     0.173 A 
ATOM     75  F   UNL A   1      40.839  24.544  28.605  1.00  0.00    -0.203 F 
ATOM     76  C   UNL A   1      42.059  24.152  26.626  1.00  0.00     0.198 A 
ATOM     77  C   UNL A   1      43.662  25.768  25.867  1.00  0.00     0.198 A 
ATOM     78  F   UNL A   1      44.032  27.727  27.117  1.00  0.00    -0.203 F 
ATOM     79  F   UNL A   1      41.432  22.977  26.470  1.00  0.00    -0.200 F 
ATOM     80  C   UNL A   1      43.000  24.563  25.693  1.00  0.00     0.200 A 
ATOM     81  F   UNL A   1      44.559  26.179  24.960  1.00  0.00    -0.200 F 
ATOM     82  F   UNL A   1      43.268  23.798  24.626  1.00  0.00    -0.200 F 
ENDBRANCH  48  72
BRANCH  60  83
ATOM     83  C   UNL A   1      44.963  27.245  34.327  1.00  0.00     0.064 A 
ATOM     84  C   UNL A   1      46.156  27.981  34.352  1.00  0.00     0.173 A 
ATOM     85  C   UNL A   1      44.907  26.050  35.059  1.00  0.00     0.173 A 
ATOM     86  F   UNL A   1      46.259  29.124  33.658  1.00  0.00    -0.203 F 
ATOM     87  C   UNL A   1      47.256  27.532  35.076  1.00  0.00     0.198 A 
ATOM     88  C   UNL A   1      46.001  25.617  35.801  1.00  0.00     0.198 A 
ATOM     89  F   UNL A   1      43.784  25.317  35.071  1.00  0.00    -0.203 F 
ATOM     90  F   UNL A   1      48.396  28.237  35.065  1.00  0.00    -0.200 F 
ATOM     91  C   UNL A   1      47.174  26.357  35.808  1.00  0.00     0.200 A 
ATOM     92  F   UNL A   1      45.917  24.489  36.520  1.00  0.00    -0.200 F 
ATOM     93  F   UNL A   1      48.229  25.935  36.519  1.00  0.00    -0.200 F 
ENDBRANCH  60  83
ENDBRANCH  34  35
ENDBRANCH  26  29
ENDBRANCH  24  25
ENDBRANCH   1  24
TORSDOF 12
ENDMDL
MODEL 3
REMARK VINA RESULT:     -13.2      1.169      1.384
REMARK SMILES Cc1c(C)c2cc(Cl)c(O[C@@H](C)C(=O)NCCCNC(=O)c3ccc(-c4c5nc(c(-c6c(F)c(F)c(F)c(F)c6F)c6ccc([nH]6)c(-c6c(F)c(F)c(F)c(F)c6F)c6nc(c(-c7c(F)c(F)c(F)c(F)c7F)c7ccc4[nH]7)C=C6)C=C5)cc3)cc2oc1=O
REMARK SMILES IDX 17 1 16 2 15 3 13 4 14 5 11 7 12 8 10 9 9 10 1 11 2 12 3 13
REMARK SMILES IDX 88 14 4 15 5 16 87 17 89 18 6 19 86 20 7 21 85 22 8 23 18 24
REMARK SMILES IDX 19 25 20 26 21 28 22 29 23 30 84 31 24 32 83 33 25 34 26 35
REMARK SMILES IDX 27 36 77 37 28 38 82 39 76 40 78 41 29 42 81 43 75 44 74 45
REMARK SMILES IDX 30 47 62 48 42 49 61 50 43 51 46 52 60 53 79 54 44 55 45 56
REMARK SMILES IDX 59 58 80 59 47 60 31 61 32 62 40 63 33 64 34 65 38 66 41 67
REMARK SMILES IDX 35 68 36 69 39 70 37 71 63 72 64 73 72 74 65 75 66 76 70 77
REMARK SMILES IDX 73 78 67 79 68 80 71 81 69 82 48 83 49 84 57 85 50 86 51 87
REMARK SMILES IDX 55 88 58 89 52 90 53 91 56 92 54 93
REMARK H PARENT 15 6 19 27 78 46 46 57
REMARK Flexibility Score: inf
ROOT
ATOM      1  C   UNL A   1      31.771  29.192  27.127  1.00  0.00     0.042 C 
ENDROOT
BRANCH   1   2
ATOM      2  C   UNL A   1      32.402  27.810  27.268  1.00  0.00     0.118 C 
BRANCH   2   3
ATOM      3  N   UNL A   1      31.410  26.762  27.116  1.00  0.00    -0.353 N 
ATOM      4  C   UNL A   1      30.665  26.331  26.064  1.00  0.00     0.260 C 
ATOM      5  O   UNL A   1      29.792  25.499  26.347  1.00  0.00    -0.271 OA
ATOM      6  H   UNL A   1      31.241  26.261  27.947  1.00  0.00     0.163 HD
BRANCH   4   7
ATOM      7  C   UNL A   1      30.875  26.752  24.575  1.00  0.00     0.258 C 
ATOM      8  C   UNL A   1      29.578  27.016  23.809  1.00  0.00     0.064 C 
BRANCH   7   9
ATOM      9  O   UNL A   1      31.935  26.257  23.757  1.00  0.00    -0.479 OA
BRANCH   9  10
ATOM     10  C   UNL A   1      32.663  25.183  24.160  1.00  0.00     0.142 A 
ATOM     11  C   UNL A   1      37.490  21.057  25.374  1.00  0.00     0.052 C 
ATOM     12  C   UNL A   1      36.399  22.087  25.364  1.00  0.00     0.038 A 
ATOM     13  C   UNL A   1      35.103  21.792  25.119  1.00  0.00    -0.030 A 
ATOM     14  C   UNL A   1      36.853  23.486  25.593  1.00  0.00     0.339 A 
ATOM     15  C   UNL A   1      34.577  20.388  24.984  1.00  0.00     0.046 C 
ATOM     16  C   UNL A   1      34.166  22.905  24.902  1.00  0.00     0.023 A 
ATOM     17  O   UNL A   1      35.869  24.449  25.711  1.00  0.00    -0.422 OA
ATOM     18  O   UNL A   1      38.037  23.778  25.719  1.00  0.00    -0.246 OA
ATOM     19  C   UNL A   1      32.905  22.762  24.312  1.00  0.00     0.036 A 
ATOM     20  C   UNL A   1      34.588  24.196  25.202  1.00  0.00     0.142 A 
ATOM     21  C   UNL A   1      32.166  23.893  23.934  1.00  0.00     0.083 A 
ATOM     22  C   UNL A   1      33.832  25.326  24.892  1.00  0.00     0.096 A 
ATOM     23  Cl  UNL A   1      30.654  23.645  23.137  1.00  0.00    -0.080 Cl
ENDBRANCH   9  10
ENDBRANCH   7   9
ENDBRANCH   4   7
ENDBRANCH   2   3
ENDBRANCH   1   2
BRANCH   1  24
ATOM     24  C   UNL A   1      32.514  30.133  26.190  1.00  0.00     0.118 C 
BRANCH  24  25
ATOM     25  N   UNL A   1      32.373  31.533  26.578  1.00  0.00    -0.352 N 
ATOM     26  C   UNL A   1      33.126  32.361  27.380  1.00  0.00     0.251 C 
ATOM     27  H   UNL A   1      31.584  31.974  26.188  1.00  0.00     0.163 HD
ATOM     28  O   UNL A   1      32.694  33.484  27.632  1.00  0.00    -0.269 OA
BRANCH  26  29
ATOM     29  C   UNL A   1      34.421  31.942  27.978  1.00  0.00     0.039 A 
ATOM     30  C   UNL A   1      34.640  30.654  28.459  1.00  0.00     0.014 A 
ATOM     31  C   UNL A   1      35.484  32.859  28.000  1.00  0.00     0.014 A 
ATOM     32  C   UNL A   1      35.820  30.348  29.133  1.00  0.00     0.010 A 
ATOM     33  C   UNL A   1      36.713  32.518  28.585  1.00  0.00     0.010 A 
ATOM     34  C   UNL A   1      36.872  31.276  29.208  1.00  0.00    -0.014 A 
BRANCH  34  35
ATOM     35  C   UNL A   1      38.127  30.864  29.893  1.00  0.00     0.031 A 
ATOM     36  C   UNL A   1      38.433  31.286  31.301  1.00  0.00     0.074 A 
ATOM     37  C   UNL A   1      38.941  29.989  29.272  1.00  0.00     0.049 A 
ATOM     38  N   UNL A   1      39.286  30.772  32.152  1.00  0.00    -0.248 NA
ATOM     39  C   UNL A   1      37.676  32.422  31.836  1.00  0.00     0.031 C 
ATOM     40  C   UNL A   1      38.767  29.516  27.899  1.00  0.00     0.029 A 
ATOM     41  N   UNL A   1      40.042  29.312  29.726  1.00  0.00    -0.354 N 
ATOM     42  C   UNL A   1      39.112  31.477  33.337  1.00  0.00     0.074 A 
ATOM     43  C   UNL A   1      38.123  32.498  33.082  1.00  0.00     0.031 C 
ATOM     44  C   UNL A   1      39.691  28.579  27.641  1.00  0.00     0.029 A 
ATOM     45  C   UNL A   1      40.542  28.414  28.816  1.00  0.00     0.049 A 
ATOM     46  H   UNL A   1      40.437  29.455  30.617  1.00  0.00     0.167 HD
ATOM     47  C   UNL A   1      39.716  31.278  34.532  1.00  0.00     0.037 A 
ATOM     48  C   UNL A   1      41.567  27.548  28.918  1.00  0.00     0.037 A 
ATOM     49  C   UNL A   1      40.771  30.328  34.756  1.00  0.00     0.049 A 
ATOM     50  C   UNL A   1      42.321  27.452  30.212  1.00  0.00     0.074 A 
ATOM     51  C   UNL A   1      41.441  30.042  35.932  1.00  0.00     0.029 A 
ATOM     52  N   UNL A   1      41.343  29.545  33.766  1.00  0.00    -0.354 N 
ATOM     53  N   UNL A   1      42.069  28.036  31.357  1.00  0.00    -0.248 NA
ATOM     54  C   UNL A   1      43.510  26.588  30.224  1.00  0.00     0.031 C 
ATOM     55  C   UNL A   1      42.467  29.137  35.638  1.00  0.00     0.029 A 
ATOM     56  C   UNL A   1      42.403  28.824  34.290  1.00  0.00     0.049 A 
ATOM     57  H   UNL A   1      41.041  29.507  32.829  1.00  0.00     0.167 HD
ATOM     58  C   UNL A   1      43.063  27.612  32.228  1.00  0.00     0.074 A 
ATOM     59  C   UNL A   1      43.911  26.703  31.484  1.00  0.00     0.031 C 
ATOM     60  C   UNL A   1      43.254  27.947  33.527  1.00  0.00     0.037 A 
BRANCH  47  61
ATOM     61  C   UNL A   1      39.255  32.105  35.695  1.00  0.00     0.064 A 
ATOM     62  C   UNL A   1      38.336  31.594  36.624  1.00  0.00     0.173 A 
ATOM     63  C   UNL A   1      39.794  33.377  35.934  1.00  0.00     0.173 A 
ATOM     64  F   UNL A   1      37.779  30.389  36.430  1.00  0.00    -0.203 F 
ATOM     65  C   UNL A   1      37.977  32.326  37.753  1.00  0.00     0.198 A 
ATOM     66  C   UNL A   1      39.443  34.101  37.071  1.00  0.00     0.198 A 
ATOM     67  F   UNL A   1      40.673  33.910  35.072  1.00  0.00    -0.203 F 
ATOM     68  F   UNL A   1      37.086  31.824  38.618  1.00  0.00    -0.200 F 
ATOM     69  C   UNL A   1      38.537  33.574  37.980  1.00  0.00     0.200 A 
ATOM     70  F   UNL A   1      39.987  35.306  37.290  1.00  0.00    -0.200 F 
ATOM     71  F   UNL A   1      38.200  34.273  39.073  1.00  0.00    -0.200 F 
ENDBRANCH  47  61
BRANCH  48  72
ATOM     72  C   UNL A   1      41.917  26.703  27.749  1.00  0.00     0.064 A 
ATOM     73  C   UNL A   1      42.920  27.087  26.851  1.00  0.00     0.173 A 
ATOM     74  C   UNL A   1      41.294  25.461  27.545  1.00  0.00     0.173 A 
ATOM     75  F   UNL A   1      43.532  28.271  26.998  1.00  0.00    -0.203 F 
ATOM     76  C   UNL A   1      43.292  26.257  25.796  1.00  0.00     0.198 A 
ATOM     77  C   UNL A   1      41.684  24.624  26.504  1.00  0.00     0.198 A 
ATOM     78  F   UNL A   1      40.329  25.051  28.381  1.00  0.00    -0.203 F 
ATOM     79  F   UNL A   1      44.246  26.652  24.940  1.00  0.00    -0.200 F 
ATOM     80  C   UNL A   1      42.683  25.022  25.630  1.00  0.00     0.200 A 
ATOM     81  F   UNL A   1      41.103  23.425  26.360  1.00  0.00    -0.200 F 
ATOM     82  F   UNL A   1      43.058  24.215  24.628  1.00  0.00    -0.200 F 
ENDBRANCH  48  72
BRANCH  60  83
ATOM     83  C   UNL A   1      44.446  27.363  34.223  1.00  0.00     0.064 A 
ATOM     84  C   UNL A   1      45.650  28.076  34.314  1.00  0.00     0.173 A 
ATOM     85  C   UNL A   1      44.362  26.121  34.869  1.00  0.00     0.173 A 
ATOM     86  F   UNL A   1      45.780  29.263  33.702  1.00  0.00    -0.203 F 
ATOM     87  C   UNL A   1      46.733  27.561  35.021  1.00  0.00     0.198 A 
ATOM     88  C   UNL A   1      45.439  25.620  35.594  1.00  0.00     0.198 A 
ATOM     89  F   UNL A   1      43.228  25.407  34.816  1.00  0.00    -0.203 F 
ATOM     90  F   UNL A   1      47.883  28.247  35.074  1.00  0.00    -0.200 F 
ATOM     91  C   UNL A   1      46.623  26.340  35.668  1.00  0.00     0.200 A 
ATOM     92  F   UNL A   1      45.328  24.447  36.232  1.00  0.00    -0.200 F 
ATOM     93  F   UNL A   1      47.661  25.853  36.362  1.00  0.00    -0.200 F 
ENDBRANCH  60  83
ENDBRANCH  34  35
ENDBRANCH  26  29
ENDBRANCH  24  25
ENDBRANCH   1  24
TORSDOF 12
ENDMDL
