MODEL 1
REMARK VINA RESULT:     -12.5      0.000      0.000
REMARK SMILES Cc1cc(C)c2c(=O)n(CCCC(=O)NCCCNC(=O)c3ccc(-c4c5nc(c(-c6c(F)c(F)c(F)c(F)c6F)c6ccc([nH]6)c(-c6c(F)c(F)c(F)c(F)c6F)c6nc(c(-c7c(F)c(F)c(F)c(F)c7F)c7ccc4[nH]7)C=C6)C=C5)cc3)sc2n1
REMARK SMILES IDX 16 1 15 2 13 3 14 4 12 6 11 7 10 8 9 9 1 10 2 11 3 12 87 13
REMARK SMILES IDX 4 14 86 15 5 16 6 17 85 18 7 19 8 20 17 21 18 22 19 23 20 24
REMARK SMILES IDX 21 26 22 27 23 28 84 29 24 30 83 31 25 32 26 33 27 34 77 35
REMARK SMILES IDX 28 36 82 37 76 38 78 39 29 40 81 41 75 42 74 43 30 45 62 46
REMARK SMILES IDX 42 47 61 48 43 49 46 50 60 51 79 52 44 53 45 54 59 56 80 57
REMARK SMILES IDX 47 58 31 59 32 60 40 61 33 62 34 63 38 64 41 65 35 66 36 67
REMARK SMILES IDX 39 68 37 69 63 70 64 71 72 72 65 73 66 74 70 75 73 76 67 77
REMARK SMILES IDX 68 78 71 79 69 80 48 81 49 82 57 83 50 84 51 85 55 86 58 87
REMARK SMILES IDX 52 88 53 89 56 90 54 91
REMARK H PARENT 15 5 19 25 78 44 46 55
REMARK Flexibility Score: inf
ROOT
ATOM      1  C   UNL A   1      37.851  23.039  25.813  1.00  0.00     0.117 C 
ENDROOT
BRANCH   1   2
ATOM      2  N   UNL A   1      37.484  23.246  24.422  1.00  0.00    -0.356 N 
ATOM      3  C   UNL A   1      36.407  22.805  23.718  1.00  0.00     0.220 C 
ATOM      4  O   UNL A   1      36.356  23.077  22.517  1.00  0.00    -0.275 OA
ATOM      5  H   UNL A   1      38.118  23.794  23.905  1.00  0.00     0.163 HD
BRANCH   3   6
ATOM      6  C   UNL A   1      35.259  22.086  24.398  1.00  0.00     0.102 C 
BRANCH   6   7
ATOM      7  C   UNL A   1      33.920  21.970  23.662  1.00  0.00     0.033 C 
BRANCH   7   8
ATOM      8  C   UNL A   1      33.153  23.213  23.190  1.00  0.00     0.139 C 
BRANCH   8   9
ATOM      9  N   UNL A   1      33.268  24.489  23.881  1.00  0.00    -0.262 N 
ATOM     10  C   UNL A   1      31.976  29.578  26.998  1.00  0.00     0.067 C 
ATOM     11  C   UNL A   1      32.500  28.635  25.958  1.00  0.00     0.039 A 
ATOM     12  C   UNL A   1      33.105  29.107  24.784  1.00  0.00     0.027 A 
ATOM     13  N   UNL A   1      32.380  27.316  26.238  1.00  0.00    -0.241 NA
ATOM     14  C   UNL A   1      33.564  28.198  23.814  1.00  0.00    -0.033 A 
ATOM     15  C   UNL A   1      32.830  26.475  25.293  1.00  0.00     0.146 A 
ATOM     16  C   UNL A   1      34.308  28.673  22.605  1.00  0.00     0.045 C 
ATOM     17  C   UNL A   1      33.344  26.849  24.066  1.00  0.00     0.081 A 
ATOM     18  S   UNL A   1      32.922  24.724  25.535  1.00  0.00    -0.035 S 
ATOM     19  C   UNL A   1      33.548  25.672  23.191  1.00  0.00     0.270 A 
ATOM     20  O   UNL A   1      33.827  25.767  22.007  1.00  0.00    -0.268 OA
ENDBRANCH   8   9
ENDBRANCH   7   8
ENDBRANCH   6   7
ENDBRANCH   3   6
ENDBRANCH   1   2
BRANCH   1  21
ATOM     21  C   UNL A   1      38.805  21.852  25.977  1.00  0.00     0.042 C 
BRANCH  21  22
ATOM     22  C   UNL A   1      40.015  22.193  26.812  1.00  0.00     0.118 C 
BRANCH  22  23
ATOM     23  N   UNL A   1      41.271  22.289  26.056  1.00  0.00    -0.352 N 
ATOM     24  C   UNL A   1      42.073  23.423  25.898  1.00  0.00     0.251 C 
ATOM     25  H   UNL A   1      41.582  21.465  25.613  1.00  0.00     0.163 HD
ATOM     26  O   UNL A   1      42.905  23.514  25.023  1.00  0.00    -0.269 OA
BRANCH  24  27
ATOM     27  C   UNL A   1      41.871  24.509  26.878  1.00  0.00     0.039 A 
ATOM     28  C   UNL A   1      42.527  24.605  28.107  1.00  0.00     0.014 A 
ATOM     29  C   UNL A   1      41.089  25.548  26.413  1.00  0.00     0.014 A 
ATOM     30  C   UNL A   1      42.412  25.805  28.812  1.00  0.00     0.010 A 
ATOM     31  C   UNL A   1      41.374  26.791  26.866  1.00  0.00     0.010 A 
ATOM     32  C   UNL A   1      41.825  26.900  28.163  1.00  0.00    -0.014 A 
BRANCH  32  33
ATOM     33  C   UNL A   1      41.629  28.215  28.749  1.00  0.00     0.031 A 
ATOM     34  C   UNL A   1      42.618  29.234  28.336  1.00  0.00     0.074 A 
ATOM     35  C   UNL A   1      40.482  28.525  29.403  1.00  0.00     0.049 A 
ATOM     36  N   UNL A   1      43.505  29.808  29.077  1.00  0.00    -0.248 NA
ATOM     37  C   UNL A   1      42.726  29.562  26.906  1.00  0.00     0.031 C 
ATOM     38  C   UNL A   1      39.266  27.717  29.612  1.00  0.00     0.029 A 
ATOM     39  N   UNL A   1      40.130  29.709  29.964  1.00  0.00    -0.354 N 
ATOM     40  C   UNL A   1      44.172  30.703  28.251  1.00  0.00     0.074 A 
ATOM     41  C   UNL A   1      43.772  30.391  26.902  1.00  0.00     0.031 C 
ATOM     42  C   UNL A   1      38.251  28.502  30.037  1.00  0.00     0.029 A 
ATOM     43  C   UNL A   1      38.788  29.815  30.322  1.00  0.00     0.049 A 
ATOM     44  H   UNL A   1      40.775  30.438  30.109  1.00  0.00     0.167 HD
ATOM     45  C   UNL A   1      44.840  31.771  28.764  1.00  0.00     0.037 A 
ATOM     46  C   UNL A   1      38.181  30.926  30.807  1.00  0.00     0.037 A 
ATOM     47  C   UNL A   1      45.024  31.640  30.187  1.00  0.00     0.049 A 
ATOM     48  C   UNL A   1      39.264  31.797  31.336  1.00  0.00     0.074 A 
ATOM     49  C   UNL A   1      45.711  30.746  30.986  1.00  0.00     0.029 A 
ATOM     50  N   UNL A   1      44.104  32.242  31.012  1.00  0.00    -0.354 N 
ATOM     51  N   UNL A   1      40.008  31.475  32.361  1.00  0.00    -0.248 NA
ATOM     52  C   UNL A   1      39.845  32.765  30.417  1.00  0.00     0.031 C 
ATOM     53  C   UNL A   1      44.844  30.499  32.091  1.00  0.00     0.029 A 
ATOM     54  C   UNL A   1      43.719  31.314  31.950  1.00  0.00     0.049 A 
ATOM     55  H   UNL A   1      43.780  33.169  30.943  1.00  0.00     0.167 HD
ATOM     56  C   UNL A   1      41.291  31.871  32.008  1.00  0.00     0.074 A 
ATOM     57  C   UNL A   1      41.118  32.707  30.819  1.00  0.00     0.031 C 
ATOM     58  C   UNL A   1      42.393  31.250  32.523  1.00  0.00     0.037 A 
BRANCH  45  59
ATOM     59  C   UNL A   1      45.044  33.072  28.041  1.00  0.00     0.064 A 
ATOM     60  C   UNL A   1      46.336  33.455  27.641  1.00  0.00     0.173 A 
ATOM     61  C   UNL A   1      44.051  34.071  27.960  1.00  0.00     0.173 A 
ATOM     62  F   UNL A   1      47.358  32.589  27.714  1.00  0.00    -0.203 F 
ATOM     63  C   UNL A   1      46.620  34.760  27.228  1.00  0.00     0.198 A 
ATOM     64  C   UNL A   1      44.326  35.355  27.495  1.00  0.00     0.198 A 
ATOM     65  F   UNL A   1      42.812  33.877  28.427  1.00  0.00    -0.203 F 
ATOM     66  F   UNL A   1      47.884  35.111  26.955  1.00  0.00    -0.200 F 
ATOM     67  C   UNL A   1      45.615  35.708  27.155  1.00  0.00     0.200 A 
ATOM     68  F   UNL A   1      43.343  36.266  27.454  1.00  0.00    -0.200 F 
ATOM     69  F   UNL A   1      45.893  36.970  26.803  1.00  0.00    -0.200 F 
ENDBRANCH  45  59
BRANCH  46  70
ATOM     70  C   UNL A   1      36.831  31.443  30.470  1.00  0.00     0.064 A 
ATOM     71  C   UNL A   1      35.944  31.849  31.482  1.00  0.00     0.173 A 
ATOM     72  C   UNL A   1      36.505  31.835  29.158  1.00  0.00     0.173 A 
ATOM     73  F   UNL A   1      36.202  31.548  32.762  1.00  0.00    -0.203 F 
ATOM     74  C   UNL A   1      34.821  32.636  31.200  1.00  0.00     0.198 A 
ATOM     75  C   UNL A   1      35.383  32.620  28.879  1.00  0.00     0.198 A 
ATOM     76  F   UNL A   1      37.321  31.551  28.133  1.00  0.00    -0.203 F 
ATOM     77  F   UNL A   1      34.036  33.063  32.200  1.00  0.00    -0.200 F 
ATOM     78  C   UNL A   1      34.551  33.035  29.901  1.00  0.00     0.200 A 
ATOM     79  F   UNL A   1      35.153  33.031  27.623  1.00  0.00    -0.200 F 
ATOM     80  F   UNL A   1      33.519  33.851  29.642  1.00  0.00    -0.200 F 
ENDBRANCH  46  70
BRANCH  58  81
ATOM     81  C   UNL A   1      42.184  30.249  33.632  1.00  0.00     0.064 A 
ATOM     82  C   UNL A   1      41.997  28.869  33.425  1.00  0.00     0.173 A 
ATOM     83  C   UNL A   1      42.348  30.675  34.955  1.00  0.00     0.173 A 
ATOM     84  F   UNL A   1      41.925  28.362  32.191  1.00  0.00    -0.203 F 
ATOM     85  C   UNL A   1      41.949  27.970  34.490  1.00  0.00     0.198 A 
ATOM     86  C   UNL A   1      42.333  29.772  36.016  1.00  0.00     0.198 A 
ATOM     87  F   UNL A   1      42.584  31.971  35.215  1.00  0.00    -0.203 F 
ATOM     88  F   UNL A   1      41.772  26.660  34.259  1.00  0.00    -0.200 F 
ATOM     89  C   UNL A   1      42.127  28.422  35.785  1.00  0.00     0.200 A 
ATOM     90  F   UNL A   1      42.553  30.210  37.264  1.00  0.00    -0.200 F 
ATOM     91  F   UNL A   1      42.128  27.556  36.808  1.00  0.00    -0.200 F 
ENDBRANCH  58  81
ENDBRANCH  32  33
ENDBRANCH  24  27
ENDBRANCH  22  23
ENDBRANCH  21  22
ENDBRANCH   1  21
TORSDOF 13
ENDMDL
MODEL 2
REMARK VINA RESULT:     -12.4      2.852      3.924
REMARK SMILES Cc1cc(C)c2c(=O)n(CCCC(=O)NCCCNC(=O)c3ccc(-c4c5nc(c(-c6c(F)c(F)c(F)c(F)c6F)c6ccc([nH]6)c(-c6c(F)c(F)c(F)c(F)c6F)c6nc(c(-c7c(F)c(F)c(F)c(F)c7F)c7ccc4[nH]7)C=C6)C=C5)cc3)sc2n1
REMARK SMILES IDX 16 1 15 2 13 3 14 4 12 6 11 7 10 8 9 9 1 10 2 11 3 12 87 13
REMARK SMILES IDX 4 14 86 15 5 16 6 17 85 18 7 19 8 20 17 21 18 22 19 23 20 24
REMARK SMILES IDX 21 26 22 27 23 28 84 29 24 30 83 31 25 32 26 33 27 34 77 35
REMARK SMILES IDX 28 36 82 37 76 38 78 39 29 40 81 41 75 42 74 43 30 45 62 46
REMARK SMILES IDX 42 47 61 48 43 49 46 50 60 51 79 52 44 53 45 54 59 56 80 57
REMARK SMILES IDX 47 58 31 59 32 60 40 61 33 62 34 63 38 64 41 65 35 66 36 67
REMARK SMILES IDX 39 68 37 69 63 70 64 71 72 72 65 73 66 74 70 75 73 76 67 77
REMARK SMILES IDX 68 78 71 79 69 80 48 81 49 82 57 83 50 84 51 85 55 86 58 87
REMARK SMILES IDX 52 88 53 89 56 90 54 91
REMARK H PARENT 15 5 19 25 78 44 46 55
REMARK Flexibility Score: inf
ROOT
ATOM      1  C   UNL A   1      40.497  20.372  26.518  1.00  0.00     0.117 C 
ENDROOT
BRANCH   1   2
ATOM      2  N   UNL A   1      39.281  20.321  25.724  1.00  0.00    -0.356 N 
ATOM      3  C   UNL A   1      38.390  21.300  25.409  1.00  0.00     0.220 C 
ATOM      4  O   UNL A   1      37.394  20.981  24.756  1.00  0.00    -0.275 OA
ATOM      5  H   UNL A   1      39.067  19.435  25.354  1.00  0.00     0.163 HD
BRANCH   3   6
ATOM      6  C   UNL A   1      38.651  22.750  25.764  1.00  0.00     0.102 C 
BRANCH   6   7
ATOM      7  C   UNL A   1      37.495  23.597  26.306  1.00  0.00     0.033 C 
BRANCH   7   8
ATOM      8  C   UNL A   1      36.305  23.993  25.421  1.00  0.00     0.139 C 
BRANCH   8   9
ATOM      9  N   UNL A   1      34.949  24.051  25.945  1.00  0.00    -0.262 N 
ATOM     10  C   UNL A   1      29.159  22.688  27.328  1.00  0.00     0.067 C 
ATOM     11  C   UNL A   1      30.382  23.418  26.858  1.00  0.00     0.039 A 
ATOM     12  C   UNL A   1      30.288  24.658  26.210  1.00  0.00     0.027 A 
ATOM     13  N   UNL A   1      31.567  22.822  27.125  1.00  0.00    -0.241 NA
ATOM     14  C   UNL A   1      31.450  25.306  25.758  1.00  0.00    -0.033 A 
ATOM     15  C   UNL A   1      32.658  23.468  26.682  1.00  0.00     0.146 A 
ATOM     16  C   UNL A   1      31.384  26.677  25.161  1.00  0.00     0.045 C 
ATOM     17  C   UNL A   1      32.654  24.637  25.947  1.00  0.00     0.081 A 
ATOM     18  S   UNL A   1      34.304  22.948  27.075  1.00  0.00    -0.035 S 
ATOM     19  C   UNL A   1      34.010  24.960  25.448  1.00  0.00     0.270 A 
ATOM     20  O   UNL A   1      34.224  25.844  24.634  1.00  0.00    -0.268 OA
ENDBRANCH   8   9
ENDBRANCH   7   8
ENDBRANCH   6   7
ENDBRANCH   3   6
ENDBRANCH   1   2
BRANCH   1  21
ATOM     21  C   UNL A   1      41.585  19.456  25.947  1.00  0.00     0.042 C 
BRANCH  21  22
ATOM     22  C   UNL A   1      42.940  19.718  26.557  1.00  0.00     0.118 C 
BRANCH  22  23
ATOM     23  N   UNL A   1      44.070  19.534  25.637  1.00  0.00    -0.352 N 
ATOM     24  C   UNL A   1      44.650  20.502  24.812  1.00  0.00     0.251 C 
ATOM     25  H   UNL A   1      44.461  18.630  25.596  1.00  0.00     0.163 HD
ATOM     26  O   UNL A   1      45.352  20.215  23.868  1.00  0.00    -0.269 OA
BRANCH  24  27
ATOM     27  C   UNL A   1      44.383  21.910  25.168  1.00  0.00     0.039 A 
ATOM     28  C   UNL A   1      43.369  22.694  24.613  1.00  0.00     0.014 A 
ATOM     29  C   UNL A   1      45.119  22.367  26.243  1.00  0.00     0.014 A 
ATOM     30  C   UNL A   1      43.090  23.919  25.220  1.00  0.00     0.010 A 
ATOM     31  C   UNL A   1      44.537  23.287  27.049  1.00  0.00     0.010 A 
ATOM     32  C   UNL A   1      43.693  24.199  26.455  1.00  0.00    -0.014 A 
BRANCH  32  33
ATOM     33  C   UNL A   1      43.512  25.421  27.219  1.00  0.00     0.031 A 
ATOM     34  C   UNL A   1      44.484  26.493  26.918  1.00  0.00     0.074 A 
ATOM     35  C   UNL A   1      42.385  25.631  27.945  1.00  0.00     0.049 A 
ATOM     36  N   UNL A   1      45.392  26.969  27.701  1.00  0.00    -0.248 NA
ATOM     37  C   UNL A   1      44.546  27.013  25.542  1.00  0.00     0.031 C 
ATOM     38  C   UNL A   1      41.179  24.793  28.080  1.00  0.00     0.029 A 
ATOM     39  N   UNL A   1      42.048  26.726  28.672  1.00  0.00    -0.354 N 
ATOM     40  C   UNL A   1      46.031  27.972  26.984  1.00  0.00     0.074 A 
ATOM     41  C   UNL A   1      45.588  27.842  25.618  1.00  0.00     0.031 C 
ATOM     42  C   UNL A   1      40.176  25.506  28.639  1.00  0.00     0.029 A 
ATOM     43  C   UNL A   1      40.718  26.772  29.082  1.00  0.00     0.049 A 
ATOM     44  H   UNL A   1      42.695  27.433  28.894  1.00  0.00     0.167 HD
ATOM     45  C   UNL A   1      46.711  28.966  27.616  1.00  0.00     0.037 A 
ATOM     46  C   UNL A   1      40.123  27.803  29.732  1.00  0.00     0.037 A 
ATOM     47  C   UNL A   1      46.941  28.644  29.002  1.00  0.00     0.049 A 
ATOM     48  C   UNL A   1      41.220  28.602  30.340  1.00  0.00     0.074 A 
ATOM     49  C   UNL A   1      47.656  27.656  29.650  1.00  0.00     0.029 A 
ATOM     50  N   UNL A   1      46.046  29.123  29.929  1.00  0.00    -0.354 N 
ATOM     51  N   UNL A   1      41.997  28.150  31.288  1.00  0.00    -0.248 NA
ATOM     52  C   UNL A   1      41.768  29.690  29.543  1.00  0.00     0.031 C 
ATOM     53  C   UNL A   1      46.825  27.255  30.738  1.00  0.00     0.029 A 
ATOM     54  C   UNL A   1      45.694  28.074  30.744  1.00  0.00     0.049 A 
ATOM     55  H   UNL A   1      45.716  30.048  29.996  1.00  0.00     0.167 HD
ATOM     56  C   UNL A   1      43.267  28.600  30.952  1.00  0.00     0.074 A 
ATOM     57  C   UNL A   1      43.053  29.587  29.894  1.00  0.00     0.031 C 
ATOM     58  C   UNL A   1      44.387  27.923  31.344  1.00  0.00     0.037 A 
BRANCH  45  59
ATOM     59  C   UNL A   1      46.887  30.354  27.070  1.00  0.00     0.064 A 
ATOM     60  C   UNL A   1      48.163  30.946  27.062  1.00  0.00     0.173 A 
ATOM     61  C   UNL A   1      45.805  31.217  26.796  1.00  0.00     0.173 A 
ATOM     62  F   UNL A   1      49.254  30.219  27.345  1.00  0.00    -0.203 F 
ATOM     63  C   UNL A   1      48.336  32.314  26.836  1.00  0.00     0.198 A 
ATOM     64  C   UNL A   1      45.986  32.570  26.516  1.00  0.00     0.198 A 
ATOM     65  F   UNL A   1      44.534  30.810  26.897  1.00  0.00    -0.203 F 
ATOM     66  F   UNL A   1      49.557  32.856  26.939  1.00  0.00    -0.200 F 
ATOM     67  C   UNL A   1      47.248  33.124  26.562  1.00  0.00     0.200 A 
ATOM     68  F   UNL A   1      44.917  33.342  26.277  1.00  0.00    -0.200 F 
ATOM     69  F   UNL A   1      47.407  34.442  26.390  1.00  0.00    -0.200 F 
ENDBRANCH  45  59
BRANCH  46  70
ATOM     70  C   UNL A   1      38.762  28.351  29.511  1.00  0.00     0.064 A 
ATOM     71  C   UNL A   1      37.913  28.628  30.596  1.00  0.00     0.173 A 
ATOM     72  C   UNL A   1      38.386  28.897  28.268  1.00  0.00     0.173 A 
ATOM     73  F   UNL A   1      38.218  28.175  31.821  1.00  0.00    -0.203 F 
ATOM     74  C   UNL A   1      36.781  29.438  30.454  1.00  0.00     0.198 A 
ATOM     75  C   UNL A   1      37.255  29.705  28.128  1.00  0.00     0.198 A 
ATOM     76  F   UNL A   1      39.163  28.743  27.187  1.00  0.00    -0.203 F 
ATOM     77  F   UNL A   1      36.034  29.737  31.526  1.00  0.00    -0.200 F 
ATOM     78  C   UNL A   1      36.462  29.990  29.224  1.00  0.00     0.200 A 
ATOM     79  F   UNL A   1      36.979  30.264  26.941  1.00  0.00    -0.200 F 
ATOM     80  F   UNL A   1      35.421  30.826  29.104  1.00  0.00    -0.200 F 
ENDBRANCH  46  70
BRANCH  58  81
ATOM     81  C   UNL A   1      44.216  26.780  32.313  1.00  0.00     0.064 A 
ATOM     82  C   UNL A   1      44.180  25.424  31.936  1.00  0.00     0.173 A 
ATOM     83  C   UNL A   1      44.262  27.055  33.685  1.00  0.00     0.173 A 
ATOM     84  F   UNL A   1      44.229  25.066  30.650  1.00  0.00    -0.203 F 
ATOM     85  C   UNL A   1      44.162  24.401  32.884  1.00  0.00     0.198 A 
ATOM     86  C   UNL A   1      44.277  26.032  34.631  1.00  0.00     0.198 A 
ATOM     87  F   UNL A   1      44.352  28.325  34.108  1.00  0.00    -0.203 F 
ATOM     88  F   UNL A   1      44.130  23.118  32.492  1.00  0.00    -0.200 F 
ATOM     89  C   UNL A   1      44.220  24.706  34.232  1.00  0.00     0.200 A 
ATOM     90  F   UNL A   1      44.381  26.333  35.933  1.00  0.00    -0.200 F 
ATOM     91  F   UNL A   1      44.250  23.726  35.146  1.00  0.00    -0.200 F 
ENDBRANCH  58  81
ENDBRANCH  32  33
ENDBRANCH  24  27
ENDBRANCH  22  23
ENDBRANCH  21  22
ENDBRANCH   1  21
TORSDOF 13
ENDMDL
MODEL 3
REMARK VINA RESULT:     -12.3      3.110      7.733
REMARK SMILES Cc1cc(C)c2c(=O)n(CCCC(=O)NCCCNC(=O)c3ccc(-c4c5nc(c(-c6c(F)c(F)c(F)c(F)c6F)c6ccc([nH]6)c(-c6c(F)c(F)c(F)c(F)c6F)c6nc(c(-c7c(F)c(F)c(F)c(F)c7F)c7ccc4[nH]7)C=C6)C=C5)cc3)sc2n1
REMARK SMILES IDX 16 1 15 2 13 3 14 4 12 6 11 7 10 8 9 9 1 10 2 11 3 12 87 13
REMARK SMILES IDX 4 14 86 15 5 16 6 17 85 18 7 19 8 20 17 21 18 22 19 23 20 24
REMARK SMILES IDX 21 26 22 27 23 28 84 29 24 30 83 31 25 32 26 33 27 34 77 35
REMARK SMILES IDX 28 36 82 37 76 38 78 39 29 40 81 41 75 42 74 43 30 45 62 46
REMARK SMILES IDX 42 47 61 48 43 49 46 50 60 51 79 52 44 53 45 54 59 56 80 57
REMARK SMILES IDX 47 58 31 59 32 60 40 61 33 62 34 63 38 64 41 65 35 66 36 67
REMARK SMILES IDX 39 68 37 69 63 70 64 71 72 72 65 73 66 74 70 75 73 76 67 77
REMARK SMILES IDX 68 78 71 79 69 80 48 81 49 82 57 83 50 84 51 85 55 86 58 87
REMARK SMILES IDX 52 88 53 89 56 90 54 91
REMARK H PARENT 15 5 19 25 78 44 46 55
REMARK Flexibility Score: inf
ROOT
ATOM      1  C   UNL A   1      36.551  20.486  25.250  1.00  0.00     0.117 C 
ENDROOT
BRANCH   1   2
ATOM      2  N   UNL A   1      36.590  21.846  25.762  1.00  0.00    -0.356 N 
ATOM      3  C   UNL A   1      36.242  23.021  25.172  1.00  0.00     0.220 C 
ATOM      4  O   UNL A   1      36.424  24.060  25.811  1.00  0.00    -0.275 OA
ATOM      5  H   UNL A   1      36.921  21.930  26.685  1.00  0.00     0.163 HD
BRANCH   3   6
ATOM      6  C   UNL A   1      35.566  23.056  23.816  1.00  0.00     0.102 C 
BRANCH   6   7
ATOM      7  C   UNL A   1      34.243  23.814  23.669  1.00  0.00     0.033 C 
BRANCH   7   8
ATOM      8  C   UNL A   1      34.178  25.193  22.998  1.00  0.00     0.139 C 
BRANCH   8   9
ATOM      9  N   UNL A   1      32.993  26.032  23.091  1.00  0.00    -0.262 N 
ATOM     10  C   UNL A   1      28.660  30.169  21.905  1.00  0.00     0.067 C 
ATOM     11  C   UNL A   1      29.720  29.371  22.603  1.00  0.00     0.039 A 
ATOM     12  C   UNL A   1      30.202  29.744  23.866  1.00  0.00     0.027 A 
ATOM     13  N   UNL A   1      30.154  28.265  21.953  1.00  0.00    -0.241 NA
ATOM     14  C   UNL A   1      31.215  28.990  24.483  1.00  0.00    -0.033 A 
ATOM     15  C   UNL A   1      31.120  27.567  22.571  1.00  0.00     0.146 A 
ATOM     16  C   UNL A   1      31.668  29.305  25.876  1.00  0.00     0.045 C 
ATOM     17  C   UNL A   1      31.724  27.915  23.763  1.00  0.00     0.081 A 
ATOM     18  S   UNL A   1      31.701  26.004  21.976  1.00  0.00    -0.035 S 
ATOM     19  C   UNL A   1      32.885  27.043  24.050  1.00  0.00     0.270 A 
ATOM     20  O   UNL A   1      33.677  27.267  24.952  1.00  0.00    -0.268 OA
ENDBRANCH   8   9
ENDBRANCH   7   8
ENDBRANCH   6   7
ENDBRANCH   3   6
ENDBRANCH   1   2
BRANCH   1  21
ATOM     21  C   UNL A   1      37.909  20.053  24.688  1.00  0.00     0.042 C 
BRANCH  21  22
ATOM     22  C   UNL A   1      39.039  20.290  25.659  1.00  0.00     0.118 C 
BRANCH  22  23
ATOM     23  N   UNL A   1      39.993  19.178  25.768  1.00  0.00    -0.352 N 
ATOM     24  C   UNL A   1      41.377  19.271  25.951  1.00  0.00     0.251 C 
ATOM     25  H   UNL A   1      39.618  18.268  25.707  1.00  0.00     0.163 HD
ATOM     26  O   UNL A   1      42.126  18.348  25.719  1.00  0.00    -0.269 OA
BRANCH  24  27
ATOM     27  C   UNL A   1      41.883  20.557  26.471  1.00  0.00     0.039 A 
ATOM     28  C   UNL A   1      42.415  21.581  25.685  1.00  0.00     0.014 A 
ATOM     29  C   UNL A   1      41.634  20.756  27.815  1.00  0.00     0.014 A 
ATOM     30  C   UNL A   1      42.626  22.821  26.290  1.00  0.00     0.010 A 
ATOM     31  C   UNL A   1      41.414  22.028  28.224  1.00  0.00     0.010 A 
ATOM     32  C   UNL A   1      42.109  23.026  27.577  1.00  0.00    -0.014 A 
BRANCH  32  33
ATOM     33  C   UNL A   1      42.238  24.250  28.347  1.00  0.00     0.031 A 
ATOM     34  C   UNL A   1      41.110  25.196  28.207  1.00  0.00     0.074 A 
ATOM     35  C   UNL A   1      43.189  24.377  29.307  1.00  0.00     0.049 A 
ATOM     36  N   UNL A   1      41.133  26.365  27.661  1.00  0.00    -0.248 NA
ATOM     37  C   UNL A   1      39.767  24.742  28.599  1.00  0.00     0.031 C 
ATOM     38  C   UNL A   1      44.179  23.396  29.790  1.00  0.00     0.029 A 
ATOM     39  N   UNL A   1      43.412  25.429  30.134  1.00  0.00    -0.354 N 
ATOM     40  C   UNL A   1      39.848  26.875  27.795  1.00  0.00     0.074 A 
ATOM     41  C   UNL A   1      39.015  25.778  28.221  1.00  0.00     0.031 C 
ATOM     42  C   UNL A   1      44.721  23.815  30.955  1.00  0.00     0.029 A 
ATOM     43  C   UNL A   1      44.272  25.169  31.197  1.00  0.00     0.049 A 
ATOM     44  H   UNL A   1      42.997  26.310  29.992  1.00  0.00     0.167 HD
ATOM     45  C   UNL A   1      39.613  28.214  27.748  1.00  0.00     0.037 A 
ATOM     46  C   UNL A   1      44.571  26.026  32.204  1.00  0.00     0.037 A 
ATOM     47  C   UNL A   1      40.754  28.928  27.232  1.00  0.00     0.049 A 
ATOM     48  C   UNL A   1      44.231  27.387  31.710  1.00  0.00     0.074 A 
ATOM     49  C   UNL A   1      41.409  28.936  26.016  1.00  0.00     0.029 A 
ATOM     50  N   UNL A   1      41.645  29.454  28.137  1.00  0.00    -0.354 N 
ATOM     51  N   UNL A   1      44.854  27.968  30.721  1.00  0.00    -0.248 NA
ATOM     52  C   UNL A   1      42.883  27.869  31.974  1.00  0.00     0.031 C 
ATOM     53  C   UNL A   1      42.796  28.984  26.346  1.00  0.00     0.029 A 
ATOM     54  C   UNL A   1      42.907  29.088  27.734  1.00  0.00     0.049 A 
ATOM     55  H   UNL A   1      41.420  29.993  28.929  1.00  0.00     0.167 HD
ATOM     56  C   UNL A   1      43.854  28.588  29.984  1.00  0.00     0.074 A 
ATOM     57  C   UNL A   1      42.666  28.534  30.836  1.00  0.00     0.031 C 
ATOM     58  C   UNL A   1      43.997  28.818  28.645  1.00  0.00     0.037 A 
BRANCH  45  59
ATOM     59  C   UNL A   1      38.485  28.903  28.460  1.00  0.00     0.064 A 
ATOM     60  C   UNL A   1      37.701  29.851  27.777  1.00  0.00     0.173 A 
ATOM     61  C   UNL A   1      38.313  28.855  29.859  1.00  0.00     0.173 A 
ATOM     62  F   UNL A   1      37.816  30.001  26.449  1.00  0.00    -0.203 F 
ATOM     63  C   UNL A   1      36.838  30.717  28.455  1.00  0.00     0.198 A 
ATOM     64  C   UNL A   1      37.411  29.681  30.526  1.00  0.00     0.198 A 
ATOM     65  F   UNL A   1      39.085  28.089  30.640  1.00  0.00    -0.203 F 
ATOM     66  F   UNL A   1      36.189  31.673  27.780  1.00  0.00    -0.200 F 
ATOM     67  C   UNL A   1      36.693  30.629  29.829  1.00  0.00     0.200 A 
ATOM     68  F   UNL A   1      37.302  29.597  31.860  1.00  0.00    -0.200 F 
ATOM     69  F   UNL A   1      35.902  31.487  30.486  1.00  0.00    -0.200 F 
ENDBRANCH  45  59
BRANCH  46  70
ATOM     70  C   UNL A   1      44.722  25.713  33.647  1.00  0.00     0.064 A 
ATOM     71  C   UNL A   1      43.595  25.492  34.457  1.00  0.00     0.173 A 
ATOM     72  C   UNL A   1      45.965  25.326  34.185  1.00  0.00     0.173 A 
ATOM     73  F   UNL A   1      42.371  25.798  34.005  1.00  0.00    -0.203 F 
ATOM     74  C   UNL A   1      43.702  24.879  35.712  1.00  0.00     0.198 A 
ATOM     75  C   UNL A   1      46.070  24.716  35.438  1.00  0.00     0.198 A 
ATOM     76  F   UNL A   1      47.090  25.438  33.466  1.00  0.00    -0.203 F 
ATOM     77  F   UNL A   1      42.598  24.621  36.426  1.00  0.00    -0.200 F 
ATOM     78  C   UNL A   1      44.937  24.477  36.193  1.00  0.00     0.200 A 
ATOM     79  F   UNL A   1      47.266  24.297  35.877  1.00  0.00    -0.200 F 
ATOM     80  F   UNL A   1      45.031  23.824  37.360  1.00  0.00    -0.200 F 
ENDBRANCH  46  70
BRANCH  58  81
ATOM     81  C   UNL A   1      45.347  28.555  28.026  1.00  0.00     0.064 A 
ATOM     82  C   UNL A   1      45.714  27.338  27.420  1.00  0.00     0.173 A 
ATOM     83  C   UNL A   1      46.238  29.625  27.888  1.00  0.00     0.173 A 
ATOM     84  F   UNL A   1      44.883  26.292  27.419  1.00  0.00    -0.203 F 
ATOM     85  C   UNL A   1      46.923  27.196  26.738  1.00  0.00     0.198 A 
ATOM     86  C   UNL A   1      47.431  29.492  27.180  1.00  0.00     0.198 A 
ATOM     87  F   UNL A   1      45.922  30.827  28.397  1.00  0.00    -0.203 F 
ATOM     88  F   UNL A   1      47.242  26.023  26.169  1.00  0.00    -0.200 F 
ATOM     89  C   UNL A   1      47.776  28.276  26.610  1.00  0.00     0.200 A 
ATOM     90  F   UNL A   1      48.230  30.555  27.019  1.00  0.00    -0.200 F 
ATOM     91  F   UNL A   1      48.917  28.157  25.917  1.00  0.00    -0.200 F 
ENDBRANCH  58  81
ENDBRANCH  32  33
ENDBRANCH  24  27
ENDBRANCH  22  23
ENDBRANCH  21  22
ENDBRANCH   1  21
TORSDOF 13
ENDMDL
