MODEL 1
REMARK VINA RESULT:     -13.0      0.000      0.000
REMARK SMILES O=C(NCCCNC(=O)[C@@H](c1c[nH]c2cc(OCc3ccccc3)ccc12)[NH+]1CCSCC1)c1ccc(-c2c3nc(c(-c4c(F)c(F)c(F)c(F)c4F)c4ccc([nH]4)c(-c4c(F)c(F)c(F)c(F)c4F)c4nc(c(-c5c(F)c(F)c(F)c(F)c5F)c5ccc2[nH]5)C=C4)C=C3)cc1
REMARK SMILES IDX 6 1 5 2 4 3 3 4 1 5 2 6 34 8 35 9 96 10 36 11 95 12 37 13
REMARK SMILES IDX 38 14 39 15 89 16 40 17 94 18 88 19 90 20 41 21 93 22 87 23
REMARK SMILES IDX 86 24 42 26 74 27 54 28 73 29 55 30 58 31 72 32 91 33 56 34
REMARK SMILES IDX 57 35 71 37 92 38 59 39 43 40 44 41 52 42 45 43 46 44 50 45
REMARK SMILES IDX 53 46 47 47 48 48 51 49 49 50 75 51 76 52 84 53 77 54 78 55
REMARK SMILES IDX 82 56 85 57 79 58 80 59 83 60 81 61 60 62 61 63 69 64 62 65
REMARK SMILES IDX 63 66 67 67 70 68 64 69 65 70 68 71 66 72 7 73 8 74 9 76
REMARK SMILES IDX 10 77 11 78 12 79 27 80 13 81 14 82 26 83 15 85 25 86 16 87
REMARK SMILES IDX 17 88 18 89 19 90 20 91 24 92 21 93 23 94 22 95 28 96 29 97
REMARK SMILES IDX 33 98 30 100 32 101 31 102
REMARK H PARENT 3 7 90 25 58 36 7 75 13 84 28 99
REMARK Flexibility Score: inf
ROOT
ATOM      1  C   UNL A   1      33.691  26.384  26.126  1.00  0.00     0.118 C 
ENDROOT
BRANCH   1   2
ATOM      2  C   UNL A   1      32.895  27.552  25.587  1.00  0.00     0.042 C 
BRANCH   2   3
ATOM      3  C   UNL A   1      33.759  28.769  25.328  1.00  0.00     0.118 C 
BRANCH   3   4
ATOM      4  N   UNL A   1      33.163  30.002  25.831  1.00  0.00    -0.352 N 
ATOM      5  O   UNL A   1      32.816  31.721  27.253  1.00  0.00    -0.269 OA
ATOM      6  C   UNL A   1      33.551  30.816  26.870  1.00  0.00     0.251 C 
ATOM      7  H   UNL A   1      32.355  30.297  25.351  1.00  0.00     0.163 HD
BRANCH   6   8
ATOM      8  C   UNL A   1      34.846  30.585  27.543  1.00  0.00     0.039 A 
ATOM      9  C   UNL A   1      35.150  29.328  28.060  1.00  0.00     0.014 A 
ATOM     10  C   UNL A   1      35.764  31.631  27.670  1.00  0.00     0.014 A 
ATOM     11  C   UNL A   1      36.248  29.177  28.891  1.00  0.00     0.010 A 
ATOM     12  C   UNL A   1      36.952  31.432  28.384  1.00  0.00     0.010 A 
ATOM     13  C   UNL A   1      37.184  30.214  29.037  1.00  0.00    -0.014 A 
BRANCH  13  14
ATOM     14  C   UNL A   1      38.415  29.936  29.821  1.00  0.00     0.031 A 
ATOM     15  C   UNL A   1      38.589  30.442  31.225  1.00  0.00     0.074 A 
ATOM     16  C   UNL A   1      39.349  29.137  29.265  1.00  0.00     0.049 A 
ATOM     17  N   UNL A   1      39.575  30.221  32.059  1.00  0.00    -0.248 NA
ATOM     18  C   UNL A   1      37.535  31.312  31.765  1.00  0.00     0.031 C 
ATOM     19  C   UNL A   1      39.293  28.607  27.899  1.00  0.00     0.029 A 
ATOM     20  N   UNL A   1      40.492  28.588  29.784  1.00  0.00    -0.354 N 
ATOM     21  C   UNL A   1      39.273  30.940  33.209  1.00  0.00     0.074 A 
ATOM     22  C   UNL A   1      38.021  31.623  32.959  1.00  0.00     0.031 C 
ATOM     23  C   UNL A   1      40.301  27.745  27.718  1.00  0.00     0.029 A 
ATOM     24  C   UNL A   1      41.123  27.725  28.920  1.00  0.00     0.049 A 
ATOM     25  H   UNL A   1      40.828  28.792  30.686  1.00  0.00     0.167 HD
ATOM     26  C   UNL A   1      39.975  31.013  34.365  1.00  0.00     0.037 A 
ATOM     27  C   UNL A   1      42.248  27.005  29.070  1.00  0.00     0.037 A 
ATOM     28  C   UNL A   1      41.213  30.316  34.609  1.00  0.00     0.049 A 
ATOM     29  C   UNL A   1      42.992  27.096  30.368  1.00  0.00     0.074 A 
ATOM     30  C   UNL A   1      42.004  30.329  35.745  1.00  0.00     0.029 A 
ATOM     31  N   UNL A   1      41.836  29.471  33.701  1.00  0.00    -0.354 N 
ATOM     32  N   UNL A   1      42.694  27.783  31.443  1.00  0.00    -0.248 NA
ATOM     33  C   UNL A   1      44.233  26.319  30.472  1.00  0.00     0.031 C 
ATOM     34  C   UNL A   1      43.120  29.517  35.514  1.00  0.00     0.029 A 
ATOM     35  C   UNL A   1      43.004  28.964  34.249  1.00  0.00     0.049 A 
ATOM     36  H   UNL A   1      41.498  29.263  32.800  1.00  0.00     0.167 HD
ATOM     37  C   UNL A   1      43.710  27.527  32.350  1.00  0.00     0.074 A 
ATOM     38  C   UNL A   1      44.611  26.587  31.714  1.00  0.00     0.031 C 
ATOM     39  C   UNL A   1      43.890  28.037  33.593  1.00  0.00     0.037 A 
BRANCH  26  40
ATOM     40  C   UNL A   1      39.432  31.888  35.457  1.00  0.00     0.064 A 
ATOM     41  C   UNL A   1      39.761  33.250  35.540  1.00  0.00     0.173 A 
ATOM     42  C   UNL A   1      38.526  31.375  36.398  1.00  0.00     0.173 A 
ATOM     43  F   UNL A   1      40.632  33.788  34.673  1.00  0.00    -0.203 F 
ATOM     44  C   UNL A   1      39.214  34.060  36.532  1.00  0.00     0.198 A 
ATOM     45  C   UNL A   1      37.962  32.194  37.374  1.00  0.00     0.198 A 
ATOM     46  F   UNL A   1      38.172  30.081  36.360  1.00  0.00    -0.203 F 
ATOM     47  F   UNL A   1      39.568  35.350  36.611  1.00  0.00    -0.200 F 
ATOM     48  C   UNL A   1      38.310  33.534  37.443  1.00  0.00     0.200 A 
ATOM     49  F   UNL A   1      37.079  31.687  38.244  1.00  0.00    -0.200 F 
ATOM     50  F   UNL A   1      37.775  34.319  38.389  1.00  0.00    -0.200 F 
ENDBRANCH  26  40
BRANCH  27  51
ATOM     51  C   UNL A   1      42.737  26.160  27.951  1.00  0.00     0.064 A 
ATOM     52  C   UNL A   1      43.613  26.669  26.984  1.00  0.00     0.173 A 
ATOM     53  C   UNL A   1      42.352  24.815  27.840  1.00  0.00     0.173 A 
ATOM     54  F   UNL A   1      43.997  27.954  27.037  1.00  0.00    -0.203 F 
ATOM     55  C   UNL A   1      44.075  25.870  25.940  1.00  0.00     0.198 A 
ATOM     56  C   UNL A   1      42.842  24.007  26.817  1.00  0.00     0.198 A 
ATOM     57  F   UNL A   1      41.522  24.277  28.745  1.00  0.00    -0.203 F 
ATOM     58  F   UNL A   1      44.880  26.393  25.005  1.00  0.00    -0.200 F 
ATOM     59  C   UNL A   1      43.696  24.538  25.863  1.00  0.00     0.200 A 
ATOM     60  F   UNL A   1      42.491  22.716  26.760  1.00  0.00    -0.200 F 
ATOM     61  F   UNL A   1      44.151  23.766  24.866  1.00  0.00    -0.200 F 
ENDBRANCH  27  51
BRANCH  39  62
ATOM     62  C   UNL A   1      45.108  27.576  34.336  1.00  0.00     0.064 A 
ATOM     63  C   UNL A   1      46.322  28.273  34.250  1.00  0.00     0.173 A 
ATOM     64  C   UNL A   1      45.060  26.428  35.139  1.00  0.00     0.173 A 
ATOM     65  F   UNL A   1      46.420  29.366  33.479  1.00  0.00    -0.203 F 
ATOM     66  C   UNL A   1      47.455  27.817  34.917  1.00  0.00     0.198 A 
ATOM     67  C   UNL A   1      46.188  25.990  35.826  1.00  0.00     0.198 A 
ATOM     68  F   UNL A   1      43.920  25.729  35.255  1.00  0.00    -0.203 F 
ATOM     69  F   UNL A   1      48.619  28.465  34.776  1.00  0.00    -0.200 F 
ATOM     70  C   UNL A   1      47.386  26.678  35.707  1.00  0.00     0.200 A 
ATOM     71  F   UNL A   1      46.119  24.895  36.595  1.00  0.00    -0.200 F 
ATOM     72  F   UNL A   1      48.480  26.239  36.344  1.00  0.00    -0.200 F 
ENDBRANCH  39  62
ENDBRANCH  13  14
ENDBRANCH   6   8
ENDBRANCH   3   4
ENDBRANCH   2   3
ENDBRANCH   1   2
BRANCH   1  73
ATOM     73  N   UNL A   1      34.504  25.726  25.115  1.00  0.00    -0.351 N 
ATOM     74  C   UNL A   1      34.340  24.466  24.579  1.00  0.00     0.283 C 
ATOM     75  H   UNL A   1      35.267  26.245  24.771  1.00  0.00     0.163 HD
ATOM     76  O   UNL A   1      35.082  24.149  23.643  1.00  0.00    -0.268 OA
BRANCH  74  77
ATOM     77  C   UNL A   1      33.227  23.481  25.136  1.00  0.00     0.307 C 
BRANCH  77  78
ATOM     78  C   UNL A   1      31.857  24.153  24.865  1.00  0.00     0.044 A 
ATOM     79  C   UNL A   1      30.791  24.091  25.769  1.00  0.00     0.094 A 
ATOM     80  C   UNL A   1      31.325  24.926  23.771  1.00  0.00     0.009 A 
ATOM     81  N   UNL A   1      29.861  25.030  25.434  1.00  0.00    -0.361 N 
ATOM     82  C   UNL A   1      30.254  25.661  24.287  1.00  0.00     0.050 A 
ATOM     83  C   UNL A   1      31.672  25.184  22.432  1.00  0.00     0.015 A 
ATOM     84  H   UNL A   1      29.037  25.223  25.938  1.00  0.00     0.166 HD
ATOM     85  C   UNL A   1      29.754  26.814  23.677  1.00  0.00     0.073 A 
ATOM     86  C   UNL A   1      31.206  26.352  21.809  1.00  0.00     0.047 A 
ATOM     87  C   UNL A   1      30.353  27.219  22.485  1.00  0.00     0.121 A 
BRANCH  87  88
ATOM     88  O   UNL A   1      30.051  28.495  22.098  1.00  0.00    -0.489 OA
BRANCH  88  89
ATOM     89  C   UNL A   1      29.453  29.363  23.070  1.00  0.00     0.265 C 
BRANCH  89  90
ATOM     90  C   UNL A   1      28.878  30.672  22.545  1.00  0.00    -0.011 A 
ATOM     91  C   UNL A   1      28.846  31.851  23.306  1.00  0.00     0.007 A 
ATOM     92  C   UNL A   1      28.462  30.746  21.204  1.00  0.00     0.007 A 
ATOM     93  C   UNL A   1      28.413  33.060  22.749  1.00  0.00     0.000 A 
ATOM     94  C   UNL A   1      28.026  31.954  20.648  1.00  0.00     0.000 A 
ATOM     95  C   UNL A   1      28.006  33.111  21.420  1.00  0.00     0.000 A 
ENDBRANCH  89  90
ENDBRANCH  88  89
ENDBRANCH  87  88
ENDBRANCH  77  78
BRANCH  77  96
ATOM     96  N   UNL A   1      33.520  22.059  24.693  1.00  0.00    -0.319 N 
ATOM     97  C   UNL A   1      32.343  21.324  24.183  1.00  0.00     0.274 C 
ATOM     98  C   UNL A   1      34.540  21.274  25.381  1.00  0.00     0.274 C 
ATOM     99  H   UNL A   1      34.093  22.251  23.871  1.00  0.00     0.349 HD
ATOM    100  C   UNL A   1      32.525  19.904  23.635  1.00  0.00     0.131 C 
ATOM    101  C   UNL A   1      34.795  19.804  25.006  1.00  0.00     0.131 C 
ATOM    102  S   UNL A   1      33.281  18.838  24.887  1.00  0.00    -0.150 SA
ENDBRANCH  77  96
ENDBRANCH  74  77
ENDBRANCH   1  73
TORSDOF 15
ENDMDL
MODEL 2
REMARK VINA RESULT:     -13.0      2.410      5.650
REMARK SMILES O=C(NCCCNC(=O)[C@@H](c1c[nH]c2cc(OCc3ccccc3)ccc12)[NH+]1CCSCC1)c1ccc(-c2c3nc(c(-c4c(F)c(F)c(F)c(F)c4F)c4ccc([nH]4)c(-c4c(F)c(F)c(F)c(F)c4F)c4nc(c(-c5c(F)c(F)c(F)c(F)c5F)c5ccc2[nH]5)C=C4)C=C3)cc1
REMARK SMILES IDX 6 1 5 2 4 3 3 4 1 5 2 6 34 8 35 9 96 10 36 11 95 12 37 13
REMARK SMILES IDX 38 14 39 15 89 16 40 17 94 18 88 19 90 20 41 21 93 22 87 23
REMARK SMILES IDX 86 24 42 26 74 27 54 28 73 29 55 30 58 31 72 32 91 33 56 34
REMARK SMILES IDX 57 35 71 37 92 38 59 39 43 40 44 41 52 42 45 43 46 44 50 45
REMARK SMILES IDX 53 46 47 47 48 48 51 49 49 50 75 51 76 52 84 53 77 54 78 55
REMARK SMILES IDX 82 56 85 57 79 58 80 59 83 60 81 61 60 62 61 63 69 64 62 65
REMARK SMILES IDX 63 66 67 67 70 68 64 69 65 70 68 71 66 72 7 73 8 74 9 76
REMARK SMILES IDX 10 77 11 78 12 79 27 80 13 81 14 82 26 83 15 85 25 86 16 87
REMARK SMILES IDX 17 88 18 89 19 90 20 91 24 92 21 93 23 94 22 95 28 96 29 97
REMARK SMILES IDX 33 98 30 100 32 101 31 102
REMARK H PARENT 3 7 90 25 58 36 7 75 13 84 28 99
REMARK Flexibility Score: inf
ROOT
ATOM      1  C   UNL A   1      31.783  30.677  25.793  1.00  0.00     0.118 C 
ENDROOT
BRANCH   1   2
ATOM      2  C   UNL A   1      31.467  31.859  26.683  1.00  0.00     0.042 C 
BRANCH   2   3
ATOM      3  C   UNL A   1      32.716  32.559  27.179  1.00  0.00     0.118 C 
BRANCH   3   4
ATOM      4  N   UNL A   1      32.466  33.938  27.583  1.00  0.00    -0.352 N 
ATOM      5  O   UNL A   1      32.573  35.782  28.882  1.00  0.00    -0.269 OA
ATOM      6  C   UNL A   1      33.043  34.688  28.581  1.00  0.00     0.251 C 
ATOM      7  H   UNL A   1      31.776  34.405  27.059  1.00  0.00     0.163 HD
BRANCH   6   8
ATOM      8  C   UNL A   1      34.217  34.165  29.311  1.00  0.00     0.039 A 
ATOM      9  C   UNL A   1      35.503  34.508  28.901  1.00  0.00     0.014 A 
ATOM     10  C   UNL A   1      34.038  33.317  30.407  1.00  0.00     0.014 A 
ATOM     11  C   UNL A   1      36.593  33.836  29.430  1.00  0.00     0.010 A 
ATOM     12  C   UNL A   1      35.153  32.755  31.041  1.00  0.00     0.010 A 
ATOM     13  C   UNL A   1      36.439  32.977  30.530  1.00  0.00    -0.014 A 
BRANCH  13  14
ATOM     14  C   UNL A   1      37.665  32.405  31.144  1.00  0.00     0.031 A 
ATOM     15  C   UNL A   1      38.096  32.771  32.536  1.00  0.00     0.074 A 
ATOM     16  C   UNL A   1      38.343  31.472  30.445  1.00  0.00     0.049 A 
ATOM     17  N   UNL A   1      39.101  32.301  33.233  1.00  0.00    -0.248 NA
ATOM     18  C   UNL A   1      37.313  33.799  33.237  1.00  0.00     0.031 C 
ATOM     19  C   UNL A   1      38.026  31.056  29.076  1.00  0.00     0.029 A 
ATOM     20  N   UNL A   1      39.398  30.670  30.797  1.00  0.00    -0.354 N 
ATOM     21  C   UNL A   1      39.085  32.988  34.440  1.00  0.00     0.074 A 
ATOM     22  C   UNL A   1      37.984  33.926  34.375  1.00  0.00     0.031 C 
ATOM     23  C   UNL A   1      38.805  30.021  28.737  1.00  0.00     0.029 A 
ATOM     24  C   UNL A   1      39.734  29.757  29.826  1.00  0.00     0.049 A 
ATOM     25  H   UNL A   1      39.868  30.742  31.658  1.00  0.00     0.167 HD
ATOM     26  C   UNL A   1      39.912  32.842  35.503  1.00  0.00     0.037 A 
ATOM     27  C   UNL A   1      40.695  28.816  29.807  1.00  0.00     0.037 A 
ATOM     28  C   UNL A   1      40.997  31.894  35.564  1.00  0.00     0.049 A 
ATOM     29  C   UNL A   1      41.581  28.669  31.007  1.00  0.00     0.074 A 
ATOM     30  C   UNL A   1      41.895  31.672  36.594  1.00  0.00     0.029 A 
ATOM     31  N   UNL A   1      41.324  31.003  34.552  1.00  0.00    -0.354 N 
ATOM     32  N   UNL A   1      41.555  29.330  32.138  1.00  0.00    -0.248 NA
ATOM     33  C   UNL A   1      42.637  27.652  30.924  1.00  0.00     0.031 C 
ATOM     34  C   UNL A   1      42.784  30.669  36.194  1.00  0.00     0.029 A 
ATOM     35  C   UNL A   1      42.415  30.235  34.931  1.00  0.00     0.049 A 
ATOM     36  H   UNL A   1      40.853  30.927  33.691  1.00  0.00     0.167 HD
ATOM     37  C   UNL A   1      42.590  28.814  32.902  1.00  0.00     0.074 A 
ATOM     38  C   UNL A   1      43.198  27.756  32.121  1.00  0.00     0.031 C 
ATOM     39  C   UNL A   1      43.010  29.194  34.133  1.00  0.00     0.037 A 
BRANCH  26  40
ATOM     40  C   UNL A   1      39.689  33.734  36.689  1.00  0.00     0.064 A 
ATOM     41  C   UNL A   1      38.902  33.327  37.778  1.00  0.00     0.173 A 
ATOM     42  C   UNL A   1      40.318  34.987  36.768  1.00  0.00     0.173 A 
ATOM     43  F   UNL A   1      38.269  32.145  37.748  1.00  0.00    -0.203 F 
ATOM     44  C   UNL A   1      38.740  34.148  38.892  1.00  0.00     0.198 A 
ATOM     45  C   UNL A   1      40.174  35.794  37.895  1.00  0.00     0.198 A 
ATOM     46  F   UNL A   1      41.087  35.422  35.759  1.00  0.00    -0.203 F 
ATOM     47  F   UNL A   1      37.957  33.751  39.905  1.00  0.00    -0.200 F 
ATOM     48  C   UNL A   1      39.382  35.375  38.953  1.00  0.00     0.200 A 
ATOM     49  F   UNL A   1      40.805  36.974  37.957  1.00  0.00    -0.200 F 
ATOM     50  F   UNL A   1      39.235  36.157  40.032  1.00  0.00    -0.200 F 
ENDBRANCH  26  40
BRANCH  27  51
ATOM     51  C   UNL A   1      40.868  27.965  28.602  1.00  0.00     0.064 A 
ATOM     52  C   UNL A   1      40.187  26.749  28.467  1.00  0.00     0.173 A 
ATOM     53  C   UNL A   1      41.705  28.365  27.549  1.00  0.00     0.173 A 
ATOM     54  F   UNL A   1      39.387  26.315  29.454  1.00  0.00    -0.203 F 
ATOM     55  C   UNL A   1      40.347  25.958  27.331  1.00  0.00     0.198 A 
ATOM     56  C   UNL A   1      41.837  27.591  26.399  1.00  0.00     0.198 A 
ATOM     57  F   UNL A   1      42.373  29.526  27.625  1.00  0.00    -0.203 F 
ATOM     58  F   UNL A   1      39.715  24.779  27.245  1.00  0.00    -0.200 F 
ATOM     59  C   UNL A   1      41.164  26.384  26.295  1.00  0.00     0.200 A 
ATOM     60  F   UNL A   1      42.610  28.018  25.393  1.00  0.00    -0.200 F 
ATOM     61  F   UNL A   1      41.308  25.629  25.198  1.00  0.00    -0.200 F 
ENDBRANCH  27  51
BRANCH  39  62
ATOM     62  C   UNL A   1      44.180  28.449  34.701  1.00  0.00     0.064 A 
ATOM     63  C   UNL A   1      45.492  28.912  34.530  1.00  0.00     0.173 A 
ATOM     64  C   UNL A   1      43.987  27.260  35.420  1.00  0.00     0.173 A 
ATOM     65  F   UNL A   1      45.727  30.034  33.833  1.00  0.00    -0.203 F 
ATOM     66  C   UNL A   1      46.574  28.194  35.032  1.00  0.00     0.198 A 
ATOM     67  C   UNL A   1      45.068  26.560  35.944  1.00  0.00     0.198 A 
ATOM     68  F   UNL A   1      42.749  26.779  35.612  1.00  0.00    -0.203 F 
ATOM     69  F   UNL A   1      47.823  28.625  34.809  1.00  0.00    -0.200 F 
ATOM     70  C   UNL A   1      46.360  27.021  35.742  1.00  0.00     0.200 A 
ATOM     71  F   UNL A   1      44.861  25.431  36.636  1.00  0.00    -0.200 F 
ATOM     72  F   UNL A   1      47.403  26.329  36.220  1.00  0.00    -0.200 F 
ENDBRANCH  39  62
ENDBRANCH  13  14
ENDBRANCH   6   8
ENDBRANCH   3   4
ENDBRANCH   2   3
ENDBRANCH   1   2
BRANCH   1  73
ATOM     73  N   UNL A   1      31.454  29.396  26.398  1.00  0.00    -0.351 N 
ATOM     74  C   UNL A   1      31.480  28.147  25.813  1.00  0.00     0.283 C 
ATOM     75  H   UNL A   1      31.177  29.423  27.343  1.00  0.00     0.163 HD
ATOM     76  O   UNL A   1      31.272  27.175  26.547  1.00  0.00    -0.268 OA
BRANCH  74  77
ATOM     77  C   UNL A   1      31.787  27.977  24.266  1.00  0.00     0.307 C 
BRANCH  77  78
ATOM     78  C   UNL A   1      32.609  26.674  24.111  1.00  0.00     0.044 A 
ATOM     79  C   UNL A   1      33.993  26.622  24.314  1.00  0.00     0.094 A 
ATOM     80  C   UNL A   1      32.271  25.317  23.760  1.00  0.00     0.009 A 
ATOM     81  N   UNL A   1      34.381  25.321  24.444  1.00  0.00    -0.361 N 
ATOM     82  C   UNL A   1      33.297  24.509  24.257  1.00  0.00     0.050 A 
ATOM     83  C   UNL A   1      31.177  24.650  23.178  1.00  0.00     0.015 A 
ATOM     84  H   UNL A   1      35.297  25.015  24.640  1.00  0.00     0.166 HD
ATOM     85  C   UNL A   1      33.147  23.140  24.493  1.00  0.00     0.073 A 
ATOM     86  C   UNL A   1      30.989  23.281  23.426  1.00  0.00     0.047 A 
ATOM     87  C   UNL A   1      31.911  22.571  24.189  1.00  0.00     0.121 A 
BRANCH  87  88
ATOM     88  O   UNL A   1      31.710  21.326  24.718  1.00  0.00    -0.489 OA
BRANCH  88  89
ATOM     89  C   UNL A   1      32.861  20.600  25.171  1.00  0.00     0.265 C 
BRANCH  89  90
ATOM     90  C   UNL A   1      33.159  19.290  24.454  1.00  0.00    -0.011 A 
ATOM     91  C   UNL A   1      32.367  18.798  23.404  1.00  0.00     0.007 A 
ATOM     92  C   UNL A   1      34.336  18.590  24.771  1.00  0.00     0.007 A 
ATOM     93  C   UNL A   1      32.737  17.648  22.697  1.00  0.00     0.000 A 
ATOM     94  C   UNL A   1      34.705  17.439  24.066  1.00  0.00     0.000 A 
ATOM     95  C   UNL A   1      33.907  16.971  23.026  1.00  0.00     0.000 A 
ENDBRANCH  89  90
ENDBRANCH  88  89
ENDBRANCH  87  88
ENDBRANCH  77  78
BRANCH  77  96
ATOM     96  N   UNL A   1      30.528  28.228  23.454  1.00  0.00    -0.319 N 
ATOM     97  C   UNL A   1      30.500  29.533  22.760  1.00  0.00     0.274 C 
ATOM     98  C   UNL A   1      29.248  27.692  23.904  1.00  0.00     0.274 C 
ATOM     99  H   UNL A   1      30.661  27.536  22.716  1.00  0.00     0.349 HD
ATOM    100  C   UNL A   1      29.315  29.872  21.848  1.00  0.00     0.131 C 
ATOM    101  C   UNL A   1      27.948  28.004  23.144  1.00  0.00     0.131 C 
ATOM    102  S   UNL A   1      27.759  29.753  22.765  1.00  0.00    -0.150 SA
ENDBRANCH  77  96
ENDBRANCH  74  77
ENDBRANCH   1  73
TORSDOF 15
ENDMDL
MODEL 3
REMARK VINA RESULT:     -12.9      2.316      5.516
REMARK SMILES O=C(NCCCNC(=O)[C@@H](c1c[nH]c2cc(OCc3ccccc3)ccc12)[NH+]1CCSCC1)c1ccc(-c2c3nc(c(-c4c(F)c(F)c(F)c(F)c4F)c4ccc([nH]4)c(-c4c(F)c(F)c(F)c(F)c4F)c4nc(c(-c5c(F)c(F)c(F)c(F)c5F)c5ccc2[nH]5)C=C4)C=C3)cc1
REMARK SMILES IDX 6 1 5 2 4 3 3 4 1 5 2 6 34 8 35 9 96 10 36 11 95 12 37 13
REMARK SMILES IDX 38 14 39 15 89 16 40 17 94 18 88 19 90 20 41 21 93 22 87 23
REMARK SMILES IDX 86 24 42 26 74 27 54 28 73 29 55 30 58 31 72 32 91 33 56 34
REMARK SMILES IDX 57 35 71 37 92 38 59 39 43 40 44 41 52 42 45 43 46 44 50 45
REMARK SMILES IDX 53 46 47 47 48 48 51 49 49 50 75 51 76 52 84 53 77 54 78 55
REMARK SMILES IDX 82 56 85 57 79 58 80 59 83 60 81 61 60 62 61 63 69 64 62 65
REMARK SMILES IDX 63 66 67 67 70 68 64 69 65 70 68 71 66 72 7 73 8 74 9 76
REMARK SMILES IDX 10 77 11 78 12 79 27 80 13 81 14 82 26 83 15 85 25 86 16 87
REMARK SMILES IDX 17 88 18 89 19 90 20 91 24 92 21 93 23 94 22 95 28 96 29 97
REMARK SMILES IDX 33 98 30 100 32 101 31 102
REMARK H PARENT 3 7 90 25 58 36 7 75 13 84 28 99
REMARK Flexibility Score: inf
ROOT
ATOM      1  C   UNL A   1      31.897  30.033  26.440  1.00  0.00     0.118 C 
ENDROOT
BRANCH   1   2
ATOM      2  C   UNL A   1      31.568  31.461  26.819  1.00  0.00     0.042 C 
BRANCH   2   3
ATOM      3  C   UNL A   1      32.797  32.344  26.865  1.00  0.00     0.118 C 
BRANCH   3   4
ATOM      4  N   UNL A   1      32.504  33.696  27.330  1.00  0.00    -0.352 N 
ATOM      5  O   UNL A   1      32.533  35.474  28.720  1.00  0.00    -0.269 OA
ATOM      6  C   UNL A   1      33.037  34.408  28.379  1.00  0.00     0.251 C 
ATOM      7  H   UNL A   1      31.816  34.172  26.811  1.00  0.00     0.163 HD
BRANCH   6   8
ATOM      8  C   UNL A   1      34.203  33.877  29.113  1.00  0.00     0.039 A 
ATOM      9  C   UNL A   1      35.481  34.357  28.836  1.00  0.00     0.014 A 
ATOM     10  C   UNL A   1      34.028  32.883  30.081  1.00  0.00     0.014 A 
ATOM     11  C   UNL A   1      36.587  33.698  29.347  1.00  0.00     0.010 A 
ATOM     12  C   UNL A   1      35.144  32.321  30.711  1.00  0.00     0.010 A 
ATOM     13  C   UNL A   1      36.436  32.695  30.319  1.00  0.00    -0.014 A 
BRANCH  13  14
ATOM     14  C   UNL A   1      37.665  32.133  30.936  1.00  0.00     0.031 A 
ATOM     15  C   UNL A   1      38.081  32.491  32.335  1.00  0.00     0.074 A 
ATOM     16  C   UNL A   1      38.362  31.217  30.233  1.00  0.00     0.049 A 
ATOM     17  N   UNL A   1      39.087  32.027  33.035  1.00  0.00    -0.248 NA
ATOM     18  C   UNL A   1      37.278  33.500  33.041  1.00  0.00     0.031 C 
ATOM     19  C   UNL A   1      38.061  30.812  28.856  1.00  0.00     0.029 A 
ATOM     20  N   UNL A   1      39.425  30.426  30.583  1.00  0.00    -0.354 N 
ATOM     21  C   UNL A   1      39.053  32.701  34.249  1.00  0.00     0.074 A 
ATOM     22  C   UNL A   1      37.939  33.624  34.185  1.00  0.00     0.031 C 
ATOM     23  C   UNL A   1      38.857  29.792  28.512  1.00  0.00     0.029 A 
ATOM     24  C   UNL A   1      39.781  29.529  29.606  1.00  0.00     0.049 A 
ATOM     25  H   UNL A   1      39.887  30.496  31.450  1.00  0.00     0.167 HD
ATOM     26  C   UNL A   1      39.873  32.555  35.317  1.00  0.00     0.037 A 
ATOM     27  C   UNL A   1      40.755  28.602  29.584  1.00  0.00     0.037 A 
ATOM     28  C   UNL A   1      40.971  31.621  35.376  1.00  0.00     0.049 A 
ATOM     29  C   UNL A   1      41.635  28.454  30.789  1.00  0.00     0.074 A 
ATOM     30  C   UNL A   1      41.864  31.401  36.410  1.00  0.00     0.029 A 
ATOM     31  N   UNL A   1      41.318  30.745  34.357  1.00  0.00    -0.354 N 
ATOM     32  N   UNL A   1      41.590  29.102  31.927  1.00  0.00    -0.248 NA
ATOM     33  C   UNL A   1      42.705  27.453  30.704  1.00  0.00     0.031 C 
ATOM     34  C   UNL A   1      42.770  30.414  36.006  1.00  0.00     0.029 A 
ATOM     35  C   UNL A   1      42.416  29.989  34.736  1.00  0.00     0.049 A 
ATOM     36  H   UNL A   1      40.854  30.673  33.492  1.00  0.00     0.167 HD
ATOM     37  C   UNL A   1      42.626  28.593  32.693  1.00  0.00     0.074 A 
ATOM     38  C   UNL A   1      43.255  27.551  31.906  1.00  0.00     0.031 C 
ATOM     39  C   UNL A   1      43.032  28.965  33.932  1.00  0.00     0.037 A 
BRANCH  26  40
ATOM     40  C   UNL A   1      39.629  33.431  36.511  1.00  0.00     0.064 A 
ATOM     41  C   UNL A   1      38.804  33.018  37.569  1.00  0.00     0.173 A 
ATOM     42  C   UNL A   1      40.273  34.672  36.629  1.00  0.00     0.173 A 
ATOM     43  F   UNL A   1      38.155  31.847  37.501  1.00  0.00    -0.203 F 
ATOM     44  C   UNL A   1      38.622  33.823  38.691  1.00  0.00     0.198 A 
ATOM     45  C   UNL A   1      40.108  35.463  37.764  1.00  0.00     0.198 A 
ATOM     46  F   UNL A   1      41.078  35.112  35.649  1.00  0.00    -0.203 F 
ATOM     47  F   UNL A   1      37.804  33.422  39.674  1.00  0.00    -0.200 F 
ATOM     48  C   UNL A   1      39.280  35.040  38.792  1.00  0.00     0.200 A 
ATOM     49  F   UNL A   1      40.755  36.632  37.864  1.00  0.00    -0.200 F 
ATOM     50  F   UNL A   1      39.113  35.806  39.878  1.00  0.00    -0.200 F 
ENDBRANCH  26  40
BRANCH  27  51
ATOM     51  C   UNL A   1      40.950  27.766  28.372  1.00  0.00     0.064 A 
ATOM     52  C   UNL A   1      41.767  28.194  27.318  1.00  0.00     0.173 A 
ATOM     53  C   UNL A   1      40.337  26.509  28.254  1.00  0.00     0.173 A 
ATOM     54  F   UNL A   1      42.362  29.396  27.376  1.00  0.00    -0.203 F 
ATOM     55  C   UNL A   1      41.953  27.404  26.186  1.00  0.00     0.198 A 
ATOM     56  C   UNL A   1      40.551  25.704  27.138  1.00  0.00     0.198 A 
ATOM     57  F   UNL A   1      39.552  26.050  29.239  1.00  0.00    -0.203 F 
ATOM     58  F   UNL A   1      42.707  27.854  25.174  1.00  0.00    -0.200 F 
ATOM     59  C   UNL A   1      41.352  26.156  26.101  1.00  0.00     0.200 A 
ATOM     60  F   UNL A   1      39.986  24.492  27.072  1.00  0.00    -0.200 F 
ATOM     61  F   UNL A   1      41.541  25.391  25.018  1.00  0.00    -0.200 F 
ENDBRANCH  27  51
BRANCH  39  62
ATOM     62  C   UNL A   1      44.208  28.230  34.501  1.00  0.00     0.064 A 
ATOM     63  C   UNL A   1      44.041  27.060  35.256  1.00  0.00     0.173 A 
ATOM     64  C   UNL A   1      45.512  28.700  34.288  1.00  0.00     0.173 A 
ATOM     65  F   UNL A   1      42.811  26.584  35.502  1.00  0.00    -0.203 F 
ATOM     66  C   UNL A   1      45.138  26.405  35.808  1.00  0.00     0.198 A 
ATOM     67  C   UNL A   1      46.608  28.026  34.818  1.00  0.00     0.198 A 
ATOM     68  F   UNL A   1      45.722  29.813  33.569  1.00  0.00    -0.203 F 
ATOM     69  F   UNL A   1      44.953  25.322  36.575  1.00  0.00    -0.200 F 
ATOM     70  C   UNL A   1      46.420  26.886  35.585  1.00  0.00     0.200 A 
ATOM     71  F   UNL A   1      47.846  28.487  34.596  1.00  0.00    -0.200 F 
ATOM     72  F   UNL A   1      47.475  26.256  36.121  1.00  0.00    -0.200 F 
ENDBRANCH  39  62
ENDBRANCH  13  14
ENDBRANCH   6   8
ENDBRANCH   3   4
ENDBRANCH   2   3
ENDBRANCH   1   2
BRANCH   1  73
ATOM     73  N   UNL A   1      32.843  29.934  25.339  1.00  0.00    -0.351 N 
ATOM     74  C   UNL A   1      32.761  29.137  24.217  1.00  0.00     0.283 C 
ATOM     75  H   UNL A   1      33.642  30.506  25.404  1.00  0.00     0.163 HD
ATOM     76  O   UNL A   1      33.624  29.296  23.347  1.00  0.00    -0.268 OA
BRANCH  74  77
ATOM     77  C   UNL A   1      31.590  28.079  24.051  1.00  0.00     0.307 C 
BRANCH  77  78
ATOM     78  C   UNL A   1      31.802  27.002  25.145  1.00  0.00     0.044 A 
ATOM     79  C   UNL A   1      30.967  26.880  26.261  1.00  0.00     0.094 A 
ATOM     80  C   UNL A   1      32.772  25.953  25.336  1.00  0.00     0.009 A 
ATOM     81  N   UNL A   1      31.178  25.670  26.853  1.00  0.00    -0.361 N 
ATOM     82  C   UNL A   1      32.185  25.020  26.197  1.00  0.00     0.050 A 
ATOM     83  C   UNL A   1      34.033  25.612  24.812  1.00  0.00     0.015 A 
ATOM     84  H   UNL A   1      30.684  25.321  27.630  1.00  0.00     0.166 HD
ATOM     85  C   UNL A   1      32.613  23.694  26.293  1.00  0.00     0.073 A 
ATOM     86  C   UNL A   1      34.470  24.280  24.870  1.00  0.00     0.047 A 
ATOM     87  C   UNL A   1      33.694  23.311  25.499  1.00  0.00     0.121 A 
BRANCH  87  88
ATOM     88  O   UNL A   1      33.873  21.960  25.392  1.00  0.00    -0.489 OA
BRANCH  88  89
ATOM     89  C   UNL A   1      32.774  21.177  24.905  1.00  0.00     0.265 C 
BRANCH  89  90
ATOM     90  C   UNL A   1      33.128  19.846  24.254  1.00  0.00    -0.011 A 
ATOM     91  C   UNL A   1      34.183  19.036  24.701  1.00  0.00     0.007 A 
ATOM     92  C   UNL A   1      32.302  19.343  23.234  1.00  0.00     0.007 A 
ATOM     93  C   UNL A   1      34.406  17.769  24.149  1.00  0.00     0.000 A 
ATOM     94  C   UNL A   1      32.526  18.078  22.681  1.00  0.00     0.000 A 
ATOM     95  C   UNL A   1      33.576  17.289  23.142  1.00  0.00     0.000 A 
ENDBRANCH  89  90
ENDBRANCH  88  89
ENDBRANCH  87  88
ENDBRANCH  77  78
BRANCH  77  96
ATOM     96  N   UNL A   1      30.261  28.793  23.881  1.00  0.00    -0.319 N 
ATOM     97  C   UNL A   1      29.195  27.962  23.281  1.00  0.00     0.274 C 
ATOM     98  C   UNL A   1      30.230  30.220  23.583  1.00  0.00     0.274 C 
ATOM     99  H   UNL A   1      29.998  28.899  24.861  1.00  0.00     0.349 HD
ATOM    100  C   UNL A   1      27.786  28.546  23.127  1.00  0.00     0.131 C 
ATOM    101  C   UNL A   1      28.900  30.947  23.322  1.00  0.00     0.131 C 
ATOM    102  S   UNL A   1      27.840  30.074  22.158  1.00  0.00    -0.150 SA
ENDBRANCH  77  96
ENDBRANCH  74  77
ENDBRANCH   1  73
TORSDOF 15
ENDMDL
