MODEL 1
REMARK VINA RESULT:     -10.4      0.000      0.000
REMARK SMILES C[C@H](c1ccccc1)[N@@H+](CC(=O)NCCCNC(=O)c1ccc(-c2c3nc(c(-c4c(F)c(F)c(F)c(F)c4F)c4ccc([nH]4)c(-c4c(F)c(F)c(F)c(F)c4F)c4nc(c(-c5c(F)c(F)c(F)c(F)c5F)c5ccc2[nH]5)C=C4)C=C3)cc1)CC(F)(F)F
REMARK SMILES IDX 14 1 13 2 11 3 12 4 10 6 9 7 2 9 1 10 3 11 4 12 8 13 5 14
REMARK SMILES IDX 7 15 6 16 83 17 84 18 85 19 86 20 87 21 15 22 16 23 17 24
REMARK SMILES IDX 18 25 19 27 20 28 21 29 82 30 22 31 81 32 23 33 24 34 25 35
REMARK SMILES IDX 75 36 26 37 80 38 74 39 76 40 27 41 79 42 73 43 72 44 28 46
REMARK SMILES IDX 60 47 40 48 59 49 41 50 44 51 58 52 77 53 42 54 43 55 57 57
REMARK SMILES IDX 78 58 45 59 29 60 30 61 38 62 31 63 32 64 36 65 39 66 33 67
REMARK SMILES IDX 34 68 37 69 35 70 61 71 62 72 70 73 63 74 64 75 68 76 71 77
REMARK SMILES IDX 65 78 66 79 69 80 67 81 46 82 47 83 55 84 48 85 49 86 53 87
REMARK SMILES IDX 56 88 50 89 51 90 54 91 52 92
REMARK H PARENT 13 5 9 8 17 26 76 45 44 56
REMARK Flexibility Score: inf
ROOT
ATOM      1  C   UNL A   1      33.687  35.481  29.477  1.00  0.00     0.118 C 
ENDROOT
BRANCH   1   2
ATOM      2  N   UNL A   1      32.925  35.071  30.650  1.00  0.00    -0.351 N 
ATOM      3  C   UNL A   1      33.130  35.255  31.990  1.00  0.00     0.275 C 
ATOM      4  O   UNL A   1      32.185  35.007  32.741  1.00  0.00    -0.269 OA
ATOM      5  H   UNL A   1      32.108  34.565  30.437  1.00  0.00     0.163 HD
BRANCH   3   6
ATOM      6  C   UNL A   1      34.483  35.707  32.544  1.00  0.00     0.364 C 
BRANCH   6   7
ATOM      7  N   UNL A   1      35.401  34.601  32.896  1.00  0.00    -0.314 N 
ATOM      8  H   UNL A   1      36.316  35.047  32.968  1.00  0.00     0.349 HD
BRANCH   7   9
ATOM      9  C   UNL A   1      35.699  33.670  31.813  1.00  0.00     0.212 C 
ATOM     10  C   UNL A   1      35.437  32.175  32.045  1.00  0.00     0.081 C 
BRANCH   9  11
ATOM     11  C   UNL A   1      37.017  33.949  31.101  1.00  0.00     0.009 A 
ATOM     12  C   UNL A   1      37.172  33.538  29.763  1.00  0.00     0.010 A 
ATOM     13  C   UNL A   1      38.121  34.512  31.753  1.00  0.00     0.010 A 
ATOM     14  C   UNL A   1      38.413  33.607  29.127  1.00  0.00     0.001 A 
ATOM     15  C   UNL A   1      39.364  34.579  31.117  1.00  0.00     0.001 A 
ATOM     16  C   UNL A   1      39.514  34.110  29.813  1.00  0.00     0.000 A 
ENDBRANCH   9  11
ENDBRANCH   7   9
BRANCH   7  17
ATOM     17  C   UNL A   1      35.358  34.120  34.290  1.00  0.00     0.380 C 
BRANCH  17  18
ATOM     18  C   UNL A   1      36.601  33.775  35.136  1.00  0.00     0.438 C 
ATOM     19  F   UNL A   1      36.333  33.828  36.461  1.00  0.00    -0.165 F 
ATOM     20  F   UNL A   1      36.997  32.503  34.878  1.00  0.00    -0.165 F 
ATOM     21  F   UNL A   1      37.652  34.577  34.891  1.00  0.00    -0.165 F 
ENDBRANCH  17  18
ENDBRANCH   7  17
ENDBRANCH   6   7
ENDBRANCH   3   6
ENDBRANCH   1   2
BRANCH   1  22
ATOM     22  C   UNL A   1      33.738  34.483  28.310  1.00  0.00     0.042 C 
BRANCH  22  23
ATOM     23  C   UNL A   1      34.315  33.097  28.606  1.00  0.00     0.118 C 
BRANCH  23  24
ATOM     24  N   UNL A   1      33.646  32.058  27.854  1.00  0.00    -0.352 N 
ATOM     25  C   UNL A   1      34.120  30.845  27.416  1.00  0.00     0.251 C 
ATOM     26  H   UNL A   1      32.709  32.250  27.619  1.00  0.00     0.163 HD
ATOM     27  O   UNL A   1      33.445  30.212  26.594  1.00  0.00    -0.269 OA
BRANCH  25  28
ATOM     28  C   UNL A   1      35.401  30.265  27.889  1.00  0.00     0.039 A 
ATOM     29  C   UNL A   1      35.432  29.703  29.171  1.00  0.00     0.014 A 
ATOM     30  C   UNL A   1      36.596  30.380  27.168  1.00  0.00     0.014 A 
ATOM     31  C   UNL A   1      36.640  29.274  29.734  1.00  0.00     0.010 A 
ATOM     32  C   UNL A   1      37.801  29.912  27.715  1.00  0.00     0.010 A 
ATOM     33  C   UNL A   1      37.841  29.385  29.015  1.00  0.00    -0.014 A 
BRANCH  33  34
ATOM     34  C   UNL A   1      39.130  29.019  29.669  1.00  0.00     0.031 A 
ATOM     35  C   UNL A   1      39.556  29.695  30.947  1.00  0.00     0.074 A 
ATOM     36  C   UNL A   1      39.911  28.056  29.144  1.00  0.00     0.049 A 
ATOM     37  N   UNL A   1      40.600  29.457  31.705  1.00  0.00    -0.248 NA
ATOM     38  C   UNL A   1      38.705  30.791  31.431  1.00  0.00     0.031 C 
ATOM     39  C   UNL A   1      39.643  27.339  27.900  1.00  0.00     0.029 A 
ATOM     40  N   UNL A   1      41.087  27.509  29.600  1.00  0.00    -0.354 N 
ATOM     41  C   UNL A   1      40.529  30.369  32.750  1.00  0.00     0.074 A 
ATOM     42  C   UNL A   1      39.368  31.197  32.505  1.00  0.00     0.031 C 
ATOM     43  C   UNL A   1      40.615  26.434  27.698  1.00  0.00     0.029 A 
ATOM     44  C   UNL A   1      41.579  26.512  28.793  1.00  0.00     0.049 A 
ATOM     45  H   UNL A   1      41.534  27.804  30.425  1.00  0.00     0.167 HD
ATOM     46  C   UNL A   1      41.339  30.492  33.830  1.00  0.00     0.037 A 
ATOM     47  C   UNL A   1      42.676  25.739  28.927  1.00  0.00     0.037 A 
ATOM     48  C   UNL A   1      42.489  29.665  34.095  1.00  0.00     0.049 A 
ATOM     49  C   UNL A   1      43.551  25.882  30.143  1.00  0.00     0.074 A 
ATOM     50  C   UNL A   1      43.346  29.698  35.181  1.00  0.00     0.029 A 
ATOM     51  N   UNL A   1      42.940  28.654  33.262  1.00  0.00    -0.354 N 
ATOM     52  N   UNL A   1      43.432  26.703  31.157  1.00  0.00    -0.248 NA
ATOM     53  C   UNL A   1      44.704  24.975  30.240  1.00  0.00     0.031 C 
ATOM     54  C   UNL A   1      44.336  28.728  34.991  1.00  0.00     0.029 A 
ATOM     55  C   UNL A   1      44.071  28.064  33.804  1.00  0.00     0.049 A 
ATOM     56  H   UNL A   1      42.521  28.393  32.410  1.00  0.00     0.167 HD
ATOM     57  C   UNL A   1      44.474  26.396  32.021  1.00  0.00     0.074 A 
ATOM     58  C   UNL A   1      45.210  25.303  31.421  1.00  0.00     0.031 C 
ATOM     59  C   UNL A   1      44.792  26.971  33.207  1.00  0.00     0.037 A 
BRANCH  46  60
ATOM     60  C   UNL A   1      41.005  31.567  34.821  1.00  0.00     0.064 A 
ATOM     61  C   UNL A   1      40.039  31.366  35.819  1.00  0.00     0.173 A 
ATOM     62  C   UNL A   1      41.681  32.796  34.800  1.00  0.00     0.173 A 
ATOM     63  F   UNL A   1      39.359  30.210  35.875  1.00  0.00    -0.203 F 
ATOM     64  C   UNL A   1      39.744  32.365  36.742  1.00  0.00     0.198 A 
ATOM     65  C   UNL A   1      41.402  33.784  35.741  1.00  0.00     0.198 A 
ATOM     66  F   UNL A   1      42.620  33.035  33.873  1.00  0.00    -0.203 F 
ATOM     67  F   UNL A   1      38.787  32.166  37.660  1.00  0.00    -0.200 F 
ATOM     68  C   UNL A   1      40.428  33.570  36.706  1.00  0.00     0.200 A 
ATOM     69  F   UNL A   1      42.072  34.944  35.713  1.00  0.00    -0.200 F 
ATOM     70  F   UNL A   1      40.146  34.530  37.598  1.00  0.00    -0.200 F 
ENDBRANCH  46  60
BRANCH  47  71
ATOM     71  C   UNL A   1      42.988  24.723  27.890  1.00  0.00     0.064 A 
ATOM     72  C   UNL A   1      43.695  25.069  26.730  1.00  0.00     0.173 A 
ATOM     73  C   UNL A   1      42.582  23.389  28.036  1.00  0.00     0.173 A 
ATOM     74  F   UNL A   1      44.083  26.339  26.536  1.00  0.00    -0.203 F 
ATOM     75  C   UNL A   1      43.972  24.121  25.748  1.00  0.00     0.198 A 
ATOM     76  C   UNL A   1      42.880  22.438  27.064  1.00  0.00     0.198 A 
ATOM     77  F   UNL A   1      41.903  23.011  29.129  1.00  0.00    -0.203 F 
ATOM     78  F   UNL A   1      44.616  24.485  24.631  1.00  0.00    -0.200 F 
ATOM     79  C   UNL A   1      43.569  22.806  25.918  1.00  0.00     0.200 A 
ATOM     80  F   UNL A   1      42.498  21.164  27.236  1.00  0.00    -0.200 F 
ATOM     81  F   UNL A   1      43.840  21.892  24.975  1.00  0.00    -0.200 F 
ENDBRANCH  47  71
BRANCH  59  82
ATOM     82  C   UNL A   1      45.969  26.411  33.952  1.00  0.00     0.064 A 
ATOM     83  C   UNL A   1      45.826  25.353  34.862  1.00  0.00     0.173 A 
ATOM     84  C   UNL A   1      47.259  26.917  33.728  1.00  0.00     0.173 A 
ATOM     85  F   UNL A   1      44.613  24.845  35.121  1.00  0.00    -0.203 F 
ATOM     86  C   UNL A   1      46.930  24.839  35.540  1.00  0.00     0.198 A 
ATOM     87  C   UNL A   1      48.361  26.384  34.389  1.00  0.00     0.198 A 
ATOM     88  F   UNL A   1      47.448  27.924  32.863  1.00  0.00    -0.203 F 
ATOM     89  F   UNL A   1      46.765  23.857  36.437  1.00  0.00    -0.200 F 
ATOM     90  C   UNL A   1      48.196  25.350  35.299  1.00  0.00     0.200 A 
ATOM     91  F   UNL A   1      49.586  26.874  34.149  1.00  0.00    -0.200 F 
ATOM     92  F   UNL A   1      49.256  24.853  35.950  1.00  0.00    -0.200 F 
ENDBRANCH  59  82
ENDBRANCH  33  34
ENDBRANCH  25  28
ENDBRANCH  23  24
ENDBRANCH  22  23
ENDBRANCH   1  22
TORSDOF 15
ENDMDL
MODEL 2
REMARK VINA RESULT:     -10.4      0.118      2.016
REMARK SMILES C[C@H](c1ccccc1)[N@@H+](CC(=O)NCCCNC(=O)c1ccc(-c2c3nc(c(-c4c(F)c(F)c(F)c(F)c4F)c4ccc([nH]4)c(-c4c(F)c(F)c(F)c(F)c4F)c4nc(c(-c5c(F)c(F)c(F)c(F)c5F)c5ccc2[nH]5)C=C4)C=C3)cc1)CC(F)(F)F
REMARK SMILES IDX 14 1 13 2 11 3 12 4 10 6 9 7 2 9 1 10 3 11 4 12 8 13 5 14
REMARK SMILES IDX 7 15 6 16 83 17 84 18 85 19 86 20 87 21 15 22 16 23 17 24
REMARK SMILES IDX 18 25 19 27 20 28 21 29 82 30 22 31 81 32 23 33 24 34 25 35
REMARK SMILES IDX 75 36 26 37 80 38 74 39 76 40 27 41 79 42 73 43 72 44 28 46
REMARK SMILES IDX 60 47 40 48 59 49 41 50 44 51 58 52 77 53 42 54 43 55 57 57
REMARK SMILES IDX 78 58 45 59 29 60 30 61 38 62 31 63 32 64 36 65 39 66 33 67
REMARK SMILES IDX 34 68 37 69 35 70 61 71 62 72 70 73 63 74 64 75 68 76 71 77
REMARK SMILES IDX 65 78 66 79 69 80 67 81 46 82 47 83 55 84 48 85 49 86 53 87
REMARK SMILES IDX 56 88 50 89 51 90 54 91 52 92
REMARK H PARENT 13 5 9 8 17 26 76 45 44 56
REMARK Flexibility Score: inf
ROOT
ATOM      1  C   UNL A   1      33.657  35.582  29.376  1.00  0.00     0.118 C 
ENDROOT
BRANCH   1   2
ATOM      2  N   UNL A   1      32.898  35.149  30.542  1.00  0.00    -0.351 N 
ATOM      3  C   UNL A   1      33.094  35.326  31.884  1.00  0.00     0.275 C 
ATOM      4  O   UNL A   1      32.150  35.055  32.630  1.00  0.00    -0.269 OA
ATOM      5  H   UNL A   1      32.092  34.629  30.322  1.00  0.00     0.163 HD
BRANCH   3   6
ATOM      6  C   UNL A   1      34.437  35.798  32.448  1.00  0.00     0.364 C 
BRANCH   6   7
ATOM      7  N   UNL A   1      35.366  34.707  32.813  1.00  0.00    -0.314 N 
ATOM      8  H   UNL A   1      36.275  35.164  32.882  1.00  0.00     0.349 HD
BRANCH   7   9
ATOM      9  C   UNL A   1      35.677  33.769  31.739  1.00  0.00     0.212 C 
ATOM     10  C   UNL A   1      35.367  32.281  31.960  1.00  0.00     0.081 C 
BRANCH   9  11
ATOM     11  C   UNL A   1      37.026  34.012  31.075  1.00  0.00     0.009 A 
ATOM     12  C   UNL A   1      37.217  33.597  29.742  1.00  0.00     0.010 A 
ATOM     13  C   UNL A   1      38.121  34.546  31.766  1.00  0.00     0.010 A 
ATOM     14  C   UNL A   1      38.482  33.633  29.152  1.00  0.00     0.001 A 
ATOM     15  C   UNL A   1      39.387  34.579  31.175  1.00  0.00     0.001 A 
ATOM     16  C   UNL A   1      39.570  34.107  29.877  1.00  0.00     0.000 A 
ENDBRANCH   9  11
ENDBRANCH   7   9
BRANCH   7  17
ATOM     17  C   UNL A   1      35.325  34.239  34.211  1.00  0.00     0.380 C 
BRANCH  17  18
ATOM     18  C   UNL A   1      36.558  33.778  35.017  1.00  0.00     0.438 C 
ATOM     19  F   UNL A   1      37.619  34.593  34.816  1.00  0.00    -0.165 F 
ATOM     20  F   UNL A   1      36.286  33.827  36.345  1.00  0.00    -0.165 F 
ATOM     21  F   UNL A   1      36.939  32.520  34.734  1.00  0.00    -0.165 F 
ENDBRANCH  17  18
ENDBRANCH   7  17
ENDBRANCH   6   7
ENDBRANCH   3   6
ENDBRANCH   1   2
BRANCH   1  22
ATOM     22  C   UNL A   1      33.734  34.593  28.203  1.00  0.00     0.042 C 
BRANCH  22  23
ATOM     23  C   UNL A   1      34.368  33.229  28.484  1.00  0.00     0.118 C 
BRANCH  23  24
ATOM     24  N   UNL A   1      33.640  32.151  27.851  1.00  0.00    -0.352 N 
ATOM     25  C   UNL A   1      34.065  30.894  27.493  1.00  0.00     0.251 C 
ATOM     26  H   UNL A   1      32.698  32.348  27.645  1.00  0.00     0.163 HD
ATOM     27  O   UNL A   1      33.337  30.215  26.757  1.00  0.00    -0.269 OA
BRANCH  25  28
ATOM     28  C   UNL A   1      35.354  30.320  27.952  1.00  0.00     0.039 A 
ATOM     29  C   UNL A   1      35.384  29.697  29.206  1.00  0.00     0.014 A 
ATOM     30  C   UNL A   1      36.553  30.498  27.252  1.00  0.00     0.014 A 
ATOM     31  C   UNL A   1      36.596  29.268  29.761  1.00  0.00     0.010 A 
ATOM     32  C   UNL A   1      37.763  30.030  27.789  1.00  0.00     0.010 A 
ATOM     33  C   UNL A   1      37.801  29.441  29.063  1.00  0.00    -0.014 A 
BRANCH  33  34
ATOM     34  C   UNL A   1      39.092  29.073  29.713  1.00  0.00     0.031 A 
ATOM     35  C   UNL A   1      39.511  29.732  31.002  1.00  0.00     0.074 A 
ATOM     36  C   UNL A   1      39.878  28.122  29.175  1.00  0.00     0.049 A 
ATOM     37  N   UNL A   1      40.556  29.488  31.758  1.00  0.00    -0.248 NA
ATOM     38  C   UNL A   1      38.653  30.815  31.502  1.00  0.00     0.031 C 
ATOM     39  C   UNL A   1      39.616  27.423  27.919  1.00  0.00     0.029 A 
ATOM     40  N   UNL A   1      41.057  27.575  29.624  1.00  0.00    -0.354 N 
ATOM     41  C   UNL A   1      40.477  30.383  32.817  1.00  0.00     0.074 A 
ATOM     42  C   UNL A   1      39.312  31.208  32.582  1.00  0.00     0.031 C 
ATOM     43  C   UNL A   1      40.594  26.527  27.706  1.00  0.00     0.029 A 
ATOM     44  C   UNL A   1      41.556  26.594  28.804  1.00  0.00     0.049 A 
ATOM     45  H   UNL A   1      41.501  27.860  30.455  1.00  0.00     0.167 HD
ATOM     46  C   UNL A   1      41.285  30.495  33.900  1.00  0.00     0.037 A 
ATOM     47  C   UNL A   1      42.657  25.825  28.927  1.00  0.00     0.037 A 
ATOM     48  C   UNL A   1      42.439  29.670  34.154  1.00  0.00     0.049 A 
ATOM     49  C   UNL A   1      43.530  25.954  30.146  1.00  0.00     0.074 A 
ATOM     50  C   UNL A   1      43.295  29.692  35.242  1.00  0.00     0.029 A 
ATOM     51  N   UNL A   1      42.898  28.674  33.306  1.00  0.00    -0.354 N 
ATOM     52  N   UNL A   1      43.404  26.759  31.173  1.00  0.00    -0.248 NA
ATOM     53  C   UNL A   1      44.688  25.052  30.232  1.00  0.00     0.031 C 
ATOM     54  C   UNL A   1      44.290  28.730  35.039  1.00  0.00     0.029 A 
ATOM     55  C   UNL A   1      44.031  28.083  33.842  1.00  0.00     0.049 A 
ATOM     56  H   UNL A   1      42.481  28.424  32.450  1.00  0.00     0.167 HD
ATOM     57  C   UNL A   1      44.447  26.445  32.034  1.00  0.00     0.074 A 
ATOM     58  C   UNL A   1      45.190  25.365  31.418  1.00  0.00     0.031 C 
ATOM     59  C   UNL A   1      44.759  27.003  33.229  1.00  0.00     0.037 A 
BRANCH  46  60
ATOM     60  C   UNL A   1      40.943  31.553  34.907  1.00  0.00     0.064 A 
ATOM     61  C   UNL A   1      41.600  32.792  34.916  1.00  0.00     0.173 A 
ATOM     62  C   UNL A   1      39.925  31.342  35.848  1.00  0.00     0.173 A 
ATOM     63  F   UNL A   1      42.588  33.038  34.041  1.00  0.00    -0.203 F 
ATOM     64  C   UNL A   1      41.269  33.772  35.847  1.00  0.00     0.198 A 
ATOM     65  C   UNL A   1      39.578  32.335  36.762  1.00  0.00     0.198 A 
ATOM     66  F   UNL A   1      39.260  30.179  35.876  1.00  0.00    -0.203 F 
ATOM     67  F   UNL A   1      41.940  34.933  35.863  1.00  0.00    -0.200 F 
ATOM     68  C   UNL A   1      40.256  33.545  36.765  1.00  0.00     0.200 A 
ATOM     69  F   UNL A   1      38.590  32.119  37.642  1.00  0.00    -0.200 F 
ATOM     70  F   UNL A   1      39.935  34.492  37.658  1.00  0.00    -0.200 F 
ENDBRANCH  46  60
BRANCH  47  71
ATOM     71  C   UNL A   1      42.976  24.827  27.875  1.00  0.00     0.064 A 
ATOM     72  C   UNL A   1      42.589  23.487  28.011  1.00  0.00     0.173 A 
ATOM     73  C   UNL A   1      43.677  25.193  26.717  1.00  0.00     0.173 A 
ATOM     74  F   UNL A   1      41.938  23.086  29.113  1.00  0.00    -0.203 F 
ATOM     75  C   UNL A   1      42.905  22.545  27.034  1.00  0.00     0.198 A 
ATOM     76  C   UNL A   1      43.971  24.255  25.731  1.00  0.00     0.198 A 
ATOM     77  F   UNL A   1      44.068  26.463  26.543  1.00  0.00    -0.203 F 
ATOM     78  F   UNL A   1      42.557  21.262  27.205  1.00  0.00    -0.200 F 
ATOM     79  C   UNL A   1      43.590  22.931  25.892  1.00  0.00     0.200 A 
ATOM     80  F   UNL A   1      44.625  24.633  24.623  1.00  0.00    -0.200 F 
ATOM     81  F   UNL A   1      43.890  22.026  24.950  1.00  0.00    -0.200 F 
ENDBRANCH  47  71
BRANCH  59  82
ATOM     82  C   UNL A   1      45.938  26.438  33.968  1.00  0.00     0.064 A 
ATOM     83  C   UNL A   1      47.227  26.967  33.809  1.00  0.00     0.173 A 
ATOM     84  C   UNL A   1      45.768  25.377  34.871  1.00  0.00     0.173 A 
ATOM     85  F   UNL A   1      47.443  27.972  32.948  1.00  0.00    -0.203 F 
ATOM     86  C   UNL A   1      48.308  26.437  34.509  1.00  0.00     0.198 A 
ATOM     87  C   UNL A   1      46.847  24.866  35.586  1.00  0.00     0.198 A 
ATOM     88  F   UNL A   1      44.554  24.840  35.062  1.00  0.00    -0.203 F 
ATOM     89  F   UNL A   1      49.539  26.929  34.311  1.00  0.00    -0.200 F 
ATOM     90  C   UNL A   1      48.117  25.392  35.401  1.00  0.00     0.200 A 
ATOM     91  F   UNL A   1      46.659  23.862  36.454  1.00  0.00    -0.200 F 
ATOM     92  F   UNL A   1      49.158  24.885  36.075  1.00  0.00    -0.200 F 
ENDBRANCH  59  82
ENDBRANCH  33  34
ENDBRANCH  25  28
ENDBRANCH  23  24
ENDBRANCH  22  23
ENDBRANCH   1  22
TORSDOF 15
ENDMDL
MODEL 3
REMARK VINA RESULT:     -10.0      3.807      6.305
REMARK SMILES C[C@H](c1ccccc1)[N@@H+](CC(=O)NCCCNC(=O)c1ccc(-c2c3nc(c(-c4c(F)c(F)c(F)c(F)c4F)c4ccc([nH]4)c(-c4c(F)c(F)c(F)c(F)c4F)c4nc(c(-c5c(F)c(F)c(F)c(F)c5F)c5ccc2[nH]5)C=C4)C=C3)cc1)CC(F)(F)F
REMARK SMILES IDX 14 1 13 2 11 3 12 4 10 6 9 7 2 9 1 10 3 11 4 12 8 13 5 14
REMARK SMILES IDX 7 15 6 16 83 17 84 18 85 19 86 20 87 21 15 22 16 23 17 24
REMARK SMILES IDX 18 25 19 27 20 28 21 29 82 30 22 31 81 32 23 33 24 34 25 35
REMARK SMILES IDX 75 36 26 37 80 38 74 39 76 40 27 41 79 42 73 43 72 44 28 46
REMARK SMILES IDX 60 47 40 48 59 49 41 50 44 51 58 52 77 53 42 54 43 55 57 57
REMARK SMILES IDX 78 58 45 59 29 60 30 61 38 62 31 63 32 64 36 65 39 66 33 67
REMARK SMILES IDX 34 68 37 69 35 70 61 71 62 72 70 73 63 74 64 75 68 76 71 77
REMARK SMILES IDX 65 78 66 79 69 80 67 81 46 82 47 83 55 84 48 85 49 86 53 87
REMARK SMILES IDX 56 88 50 89 51 90 54 91 52 92
REMARK H PARENT 13 5 9 8 17 26 76 45 44 56
REMARK Flexibility Score: inf
ROOT
ATOM      1  C   UNL A   1      33.594  28.755  25.305  1.00  0.00     0.118 C 
ENDROOT
BRANCH   1   2
ATOM      2  N   UNL A   1      34.142  28.500  23.980  1.00  0.00    -0.351 N 
ATOM      3  C   UNL A   1      33.559  28.139  22.796  1.00  0.00     0.275 C 
ATOM      4  O   UNL A   1      34.248  28.235  21.778  1.00  0.00    -0.269 OA
ATOM      5  H   UNL A   1      35.120  28.606  23.926  1.00  0.00     0.163 HD
BRANCH   3   6
ATOM      6  C   UNL A   1      32.128  27.598  22.734  1.00  0.00     0.364 C 
BRANCH   6   7
ATOM      7  N   UNL A   1      31.853  26.486  23.669  1.00  0.00    -0.314 N 
ATOM      8  H   UNL A   1      32.572  26.578  24.387  1.00  0.00     0.349 HD
BRANCH   7   9
ATOM      9  C   UNL A   1      32.206  25.158  23.179  1.00  0.00     0.212 C 
ATOM     10  C   UNL A   1      31.132  24.062  23.208  1.00  0.00     0.081 C 
BRANCH   9  11
ATOM     11  C   UNL A   1      33.576  24.672  23.636  1.00  0.00     0.009 A 
ATOM     12  C   UNL A   1      34.218  23.652  22.908  1.00  0.00     0.010 A 
ATOM     13  C   UNL A   1      34.185  25.132  24.811  1.00  0.00     0.010 A 
ATOM     14  C   UNL A   1      35.384  23.050  23.387  1.00  0.00     0.001 A 
ATOM     15  C   UNL A   1      35.351  24.528  25.290  1.00  0.00     0.001 A 
ATOM     16  C   UNL A   1      35.939  23.477  24.589  1.00  0.00     0.000 A 
ENDBRANCH   9  11
ENDBRANCH   7   9
BRANCH   7  17
ATOM     17  C   UNL A   1      30.707  26.653  24.582  1.00  0.00     0.380 C 
BRANCH  17  18
ATOM     18  C   UNL A   1      30.706  26.251  26.072  1.00  0.00     0.438 C 
ATOM     19  F   UNL A   1      31.803  25.527  26.393  1.00  0.00    -0.165 F 
ATOM     20  F   UNL A   1      30.741  27.362  26.850  1.00  0.00    -0.165 F 
ATOM     21  F   UNL A   1      29.620  25.545  26.432  1.00  0.00    -0.165 F 
ENDBRANCH  17  18
ENDBRANCH   7  17
ENDBRANCH   6   7
ENDBRANCH   3   6
ENDBRANCH   1   2
BRANCH   1  22
ATOM     22  C   UNL A   1      32.571  29.895  25.416  1.00  0.00     0.042 C 
BRANCH  22  23
ATOM     23  C   UNL A   1      32.238  30.397  26.823  1.00  0.00     0.118 C 
BRANCH  23  24
ATOM     24  N   UNL A   1      32.302  31.839  26.914  1.00  0.00    -0.352 N 
ATOM     25  C   UNL A   1      33.244  32.642  27.510  1.00  0.00     0.251 C 
ATOM     26  H   UNL A   1      31.556  32.318  26.485  1.00  0.00     0.163 HD
ATOM     27  O   UNL A   1      32.982  33.842  27.666  1.00  0.00    -0.269 OA
BRANCH  25  28
ATOM     28  C   UNL A   1      34.560  32.132  27.970  1.00  0.00     0.039 A 
ATOM     29  C   UNL A   1      34.622  30.816  28.445  1.00  0.00     0.014 A 
ATOM     30  C   UNL A   1      35.693  32.947  28.077  1.00  0.00     0.014 A 
ATOM     31  C   UNL A   1      35.794  30.323  29.031  1.00  0.00     0.010 A 
ATOM     32  C   UNL A   1      36.881  32.441  28.625  1.00  0.00     0.010 A 
ATOM     33  C   UNL A   1      36.934  31.135  29.138  1.00  0.00    -0.014 A 
BRANCH  33  34
ATOM     34  C   UNL A   1      38.138  30.628  29.857  1.00  0.00     0.031 A 
ATOM     35  C   UNL A   1      38.393  31.022  31.289  1.00  0.00     0.074 A 
ATOM     36  C   UNL A   1      38.990  29.784  29.246  1.00  0.00     0.049 A 
ATOM     37  N   UNL A   1      39.339  30.621  32.105  1.00  0.00    -0.248 NA
ATOM     38  C   UNL A   1      37.473  32.005  31.879  1.00  0.00     0.031 C 
ATOM     39  C   UNL A   1      38.888  29.340  27.858  1.00  0.00     0.029 A 
ATOM     40  N   UNL A   1      40.109  29.141  29.722  1.00  0.00    -0.354 N 
ATOM     41  C   UNL A   1      39.127  31.299  33.298  1.00  0.00     0.074 A 
ATOM     42  C   UNL A   1      37.993  32.174  33.086  1.00  0.00     0.031 C 
ATOM     43  C   UNL A   1      39.890  28.485  27.597  1.00  0.00     0.029 A 
ATOM     44  C   UNL A   1      40.711  28.325  28.795  1.00  0.00     0.049 A 
ATOM     45  H   UNL A   1      40.447  29.255  30.639  1.00  0.00     0.167 HD
ATOM     46  C   UNL A   1      39.795  31.189  34.472  1.00  0.00     0.037 A 
ATOM     47  C   UNL A   1      41.793  27.529  28.902  1.00  0.00     0.037 A 
ATOM     48  C   UNL A   1      40.915  30.312  34.701  1.00  0.00     0.049 A 
ATOM     49  C   UNL A   1      42.510  27.409  30.220  1.00  0.00     0.074 A 
ATOM     50  C   UNL A   1      41.631  30.111  35.869  1.00  0.00     0.029 A 
ATOM     51  N   UNL A   1      41.480  29.488  33.741  1.00  0.00    -0.354 N 
ATOM     52  N   UNL A   1      42.255  28.005  31.358  1.00  0.00    -0.248 NA
ATOM     53  C   UNL A   1      43.655  26.487  30.271  1.00  0.00     0.031 C 
ATOM     54  C   UNL A   1      42.651  29.189  35.608  1.00  0.00     0.029 A 
ATOM     55  C   UNL A   1      42.544  28.786  34.287  1.00  0.00     0.049 A 
ATOM     56  H   UNL A   1      41.173  29.412  32.809  1.00  0.00     0.167 HD
ATOM     57  C   UNL A   1      43.187  27.515  32.263  1.00  0.00     0.074 A 
ATOM     58  C   UNL A   1      44.007  26.560  31.547  1.00  0.00     0.031 C 
ATOM     59  C   UNL A   1      43.348  27.830  33.571  1.00  0.00     0.037 A 
BRANCH  46  60
ATOM     60  C   UNL A   1      39.327  32.041  35.614  1.00  0.00     0.064 A 
ATOM     61  C   UNL A   1      38.453  31.539  36.590  1.00  0.00     0.173 A 
ATOM     62  C   UNL A   1      39.783  33.360  35.757  1.00  0.00     0.173 A 
ATOM     63  F   UNL A   1      37.981  30.286  36.491  1.00  0.00    -0.203 F 
ATOM     64  C   UNL A   1      38.031  32.333  37.652  1.00  0.00     0.198 A 
ATOM     65  C   UNL A   1      39.380  34.144  36.836  1.00  0.00     0.198 A 
ATOM     66  F   UNL A   1      40.627  33.885  34.858  1.00  0.00    -0.203 F 
ATOM     67  F   UNL A   1      37.162  31.845  38.549  1.00  0.00    -0.200 F 
ATOM     68  C   UNL A   1      38.499  33.632  37.777  1.00  0.00     0.200 A 
ATOM     69  F   UNL A   1      39.842  35.396  36.963  1.00  0.00    -0.200 F 
ATOM     70  F   UNL A   1      38.096  34.395  38.804  1.00  0.00    -0.200 F 
ENDBRANCH  46  60
BRANCH  47  71
ATOM     71  C   UNL A   1      42.245  26.744  27.725  1.00  0.00     0.064 A 
ATOM     72  C   UNL A   1      41.723  25.469  27.465  1.00  0.00     0.173 A 
ATOM     73  C   UNL A   1      43.208  27.251  26.841  1.00  0.00     0.173 A 
ATOM     74  F   UNL A   1      40.817  24.933  28.296  1.00  0.00    -0.203 F 
ATOM     75  C   UNL A   1      42.160  24.723  26.372  1.00  0.00     0.198 A 
ATOM     76  C   UNL A   1      43.626  26.514  25.736  1.00  0.00     0.198 A 
ATOM     77  F   UNL A   1      43.736  28.465  27.049  1.00  0.00    -0.203 F 
ATOM     78  F   UNL A   1      41.674  23.491  26.167  1.00  0.00    -0.200 F 
ATOM     79  C   UNL A   1      43.106  25.249  25.506  1.00  0.00     0.200 A 
ATOM     80  F   UNL A   1      44.534  27.028  24.895  1.00  0.00    -0.200 F 
ATOM     81  F   UNL A   1      43.523  24.533  24.452  1.00  0.00    -0.200 F 
ENDBRANCH  47  71
BRANCH  59  82
ATOM     82  C   UNL A   1      44.431  27.115  34.326  1.00  0.00     0.064 A 
ATOM     83  C   UNL A   1      45.725  27.645  34.432  1.00  0.00     0.173 A 
ATOM     84  C   UNL A   1      44.161  25.902  34.978  1.00  0.00     0.173 A 
ATOM     85  F   UNL A   1      46.037  28.794  33.816  1.00  0.00    -0.203 F 
ATOM     86  C   UNL A   1      46.717  26.972  35.144  1.00  0.00     0.198 A 
ATOM     87  C   UNL A   1      45.147  25.246  35.708  1.00  0.00     0.198 A 
ATOM     88  F   UNL A   1      42.937  25.357  34.911  1.00  0.00    -0.203 F 
ATOM     89  F   UNL A   1      47.958  27.475  35.197  1.00  0.00    -0.200 F 
ATOM     90  C   UNL A   1      46.426  25.778  35.785  1.00  0.00     0.200 A 
ATOM     91  F   UNL A   1      44.863  24.096  36.334  1.00  0.00    -0.200 F 
ATOM     92  F   UNL A   1      47.381  25.134  36.471  1.00  0.00    -0.200 F 
ENDBRANCH  59  82
ENDBRANCH  33  34
ENDBRANCH  25  28
ENDBRANCH  23  24
ENDBRANCH  22  23
ENDBRANCH   1  22
TORSDOF 15
ENDMDL
