MODEL 1
REMARK VINA RESULT:     -12.0      0.000      0.000
REMARK SMILES O=C(NCCCNC(=O)c1cc(SCCn2cccn2)cs1)c1ccc(-c2c3nc(c(-c4c(F)c(F)c(F)c(F)c4F)c4ccc([nH]4)c(-c4c(F)c(F)c(F)c(F)c4F)c4nc(c(-c5c(F)c(F)c(F)c(F)c5F)c5ccc2[nH]5)C=C4)C=C3)cc1
REMARK SMILES IDX 6 1 5 2 4 3 3 4 1 5 2 6 23 8 24 9 85 10 25 11 84 12 26 13
REMARK SMILES IDX 27 14 28 15 78 16 29 17 83 18 77 19 79 20 30 21 82 22 76 23
REMARK SMILES IDX 75 24 31 26 63 27 43 28 62 29 44 30 47 31 61 32 80 33 45 34
REMARK SMILES IDX 46 35 60 37 81 38 48 39 32 40 33 41 41 42 34 43 35 44 39 45
REMARK SMILES IDX 42 46 36 47 37 48 40 49 38 50 64 51 65 52 73 53 66 54 67 55
REMARK SMILES IDX 71 56 74 57 68 58 69 59 72 60 70 61 49 62 50 63 58 64 51 65
REMARK SMILES IDX 52 66 56 67 59 68 53 69 54 70 57 71 55 72 7 73 8 74 9 76
REMARK SMILES IDX 10 77 11 78 22 79 12 80 21 81 13 82 14 83 15 84 16 85 17 86
REMARK SMILES IDX 20 87 18 88 19 89
REMARK H PARENT 3 7 79 25 47 36 7 75
REMARK Flexibility Score: inf
ROOT
ATOM      1  C   UNL A   1      31.383  29.495  25.158  1.00  0.00     0.118 C 
ENDROOT
BRANCH   1   2
ATOM      2  C   UNL A   1      32.796  29.898  25.563  1.00  0.00     0.042 C 
BRANCH   2   3
ATOM      3  C   UNL A   1      33.144  29.750  27.048  1.00  0.00     0.118 C 
BRANCH   3   4
ATOM      4  N   UNL A   1      33.553  30.960  27.746  1.00  0.00    -0.352 N 
ATOM      5  O   UNL A   1      34.700  32.834  27.998  1.00  0.00    -0.269 OA
ATOM      6  C   UNL A   1      34.756  31.605  27.889  1.00  0.00     0.251 C 
ATOM      7  H   UNL A   1      32.812  31.409  28.212  1.00  0.00     0.163 HD
BRANCH   6   8
ATOM      8  C   UNL A   1      36.083  30.942  28.034  1.00  0.00     0.039 A 
ATOM      9  C   UNL A   1      36.364  29.617  27.710  1.00  0.00     0.014 A 
ATOM     10  C   UNL A   1      37.102  31.712  28.636  1.00  0.00     0.014 A 
ATOM     11  C   UNL A   1      37.605  29.058  28.031  1.00  0.00     0.010 A 
ATOM     12  C   UNL A   1      38.342  31.161  28.955  1.00  0.00     0.010 A 
ATOM     13  C   UNL A   1      38.588  29.819  28.678  1.00  0.00    -0.014 A 
BRANCH  13  14
ATOM     14  C   UNL A   1      39.903  29.212  28.907  1.00  0.00     0.031 A 
ATOM     15  C   UNL A   1      40.262  28.983  30.340  1.00  0.00     0.074 A 
ATOM     16  C   UNL A   1      40.704  28.717  27.940  1.00  0.00     0.049 A 
ATOM     17  N   UNL A   1      41.307  29.391  30.991  1.00  0.00    -0.248 NA
ATOM     18  C   UNL A   1      39.302  28.231  31.164  1.00  0.00     0.031 C 
ATOM     19  C   UNL A   1      40.404  28.542  26.518  1.00  0.00     0.029 A 
ATOM     20  N   UNL A   1      41.951  28.165  28.062  1.00  0.00    -0.354 N 
ATOM     21  C   UNL A   1      41.209  28.835  32.267  1.00  0.00     0.074 A 
ATOM     22  C   UNL A   1      39.915  28.209  32.347  1.00  0.00     0.031 C 
ATOM     23  C   UNL A   1      41.349  27.755  25.955  1.00  0.00     0.029 A 
ATOM     24  C   UNL A   1      42.382  27.474  26.939  1.00  0.00     0.049 A 
ATOM     25  H   UNL A   1      42.494  28.252  28.878  1.00  0.00     0.167 HD
ATOM     26  C   UNL A   1      42.267  28.779  33.124  1.00  0.00     0.037 A 
ATOM     27  C   UNL A   1      43.478  26.679  26.841  1.00  0.00     0.037 A 
ATOM     28  C   UNL A   1      43.290  29.727  32.784  1.00  0.00     0.049 A 
ATOM     29  C   UNL A   1      44.395  27.016  27.954  1.00  0.00     0.074 A 
ATOM     30  C   UNL A   1      43.344  31.104  32.685  1.00  0.00     0.029 A 
ATOM     31  N   UNL A   1      44.435  29.277  32.179  1.00  0.00    -0.354 N 
ATOM     32  N   UNL A   1      45.072  28.125  28.044  1.00  0.00    -0.248 NA
ATOM     33  C   UNL A   1      44.282  26.250  29.185  1.00  0.00     0.031 C 
ATOM     34  C   UNL A   1      44.231  31.363  31.599  1.00  0.00     0.029 A 
ATOM     35  C   UNL A   1      44.684  30.129  31.134  1.00  0.00     0.049 A 
ATOM     36  H   UNL A   1      44.973  28.496  32.442  1.00  0.00     0.167 HD
ATOM     37  C   UNL A   1      45.097  28.408  29.401  1.00  0.00     0.074 A 
ATOM     38  C   UNL A   1      44.698  27.169  30.057  1.00  0.00     0.031 C 
ATOM     39  C   UNL A   1      45.172  29.695  29.848  1.00  0.00     0.037 A 
BRANCH  26  40
ATOM     40  C   UNL A   1      42.498  27.660  34.107  1.00  0.00     0.064 A 
ATOM     41  C   UNL A   1      43.084  26.453  33.675  1.00  0.00     0.173 A 
ATOM     42  C   UNL A   1      41.906  27.627  35.387  1.00  0.00     0.173 A 
ATOM     43  F   UNL A   1      43.644  26.362  32.459  1.00  0.00    -0.203 F 
ATOM     44  C   UNL A   1      43.030  25.288  34.447  1.00  0.00     0.198 A 
ATOM     45  C   UNL A   1      41.899  26.478  36.176  1.00  0.00     0.198 A 
ATOM     46  F   UNL A   1      41.217  28.667  35.872  1.00  0.00    -0.203 F 
ATOM     47  F   UNL A   1      43.498  24.136  33.949  1.00  0.00    -0.200 F 
ATOM     48  C   UNL A   1      42.435  25.302  35.697  1.00  0.00     0.200 A 
ATOM     49  F   UNL A   1      41.299  26.505  37.375  1.00  0.00    -0.200 F 
ATOM     50  F   UNL A   1      42.334  24.176  36.415  1.00  0.00    -0.200 F 
ENDBRANCH  26  40
BRANCH  27  51
ATOM     51  C   UNL A   1      43.674  25.464  26.014  1.00  0.00     0.064 A 
ATOM     52  C   UNL A   1      44.887  25.224  25.345  1.00  0.00     0.173 A 
ATOM     53  C   UNL A   1      42.780  24.381  26.095  1.00  0.00     0.173 A 
ATOM     54  F   UNL A   1      45.817  26.187  25.264  1.00  0.00    -0.203 F 
ATOM     55  C   UNL A   1      45.195  23.967  24.811  1.00  0.00     0.198 A 
ATOM     56  C   UNL A   1      43.084  23.131  25.554  1.00  0.00     0.198 A 
ATOM     57  F   UNL A   1      41.637  24.485  26.787  1.00  0.00    -0.203 F 
ATOM     58  F   UNL A   1      46.387  23.758  24.238  1.00  0.00    -0.200 F 
ATOM     59  C   UNL A   1      44.296  22.920  24.925  1.00  0.00     0.200 A 
ATOM     60  F   UNL A   1      42.221  22.116  25.705  1.00  0.00    -0.200 F 
ATOM     61  F   UNL A   1      44.614  21.700  24.469  1.00  0.00    -0.200 F 
ENDBRANCH  27  51
BRANCH  39  62
ATOM     62  C   UNL A   1      45.519  30.764  28.851  1.00  0.00     0.064 A 
ATOM     63  C   UNL A   1      46.834  31.163  28.556  1.00  0.00     0.173 A 
ATOM     64  C   UNL A   1      44.490  31.309  28.072  1.00  0.00     0.173 A 
ATOM     65  F   UNL A   1      47.881  30.607  29.180  1.00  0.00    -0.203 F 
ATOM     66  C   UNL A   1      47.098  32.106  27.565  1.00  0.00     0.198 A 
ATOM     67  C   UNL A   1      44.760  32.220  27.054  1.00  0.00     0.198 A 
ATOM     68  F   UNL A   1      43.219  30.920  28.265  1.00  0.00    -0.203 F 
ATOM     69  F   UNL A   1      48.361  32.483  27.315  1.00  0.00    -0.200 F 
ATOM     70  C   UNL A   1      46.061  32.629  26.810  1.00  0.00     0.200 A 
ATOM     71  F   UNL A   1      43.760  32.683  26.291  1.00  0.00    -0.200 F 
ATOM     72  F   UNL A   1      46.319  33.503  25.828  1.00  0.00    -0.200 F 
ENDBRANCH  39  62
ENDBRANCH  13  14
ENDBRANCH   6   8
ENDBRANCH   3   4
ENDBRANCH   2   3
ENDBRANCH   1   2
BRANCH   1  73
ATOM     73  N   UNL A   1      30.962  29.794  23.800  1.00  0.00    -0.351 N 
ATOM     74  C   UNL A   1      30.535  28.880  22.849  1.00  0.00     0.261 C 
ATOM     75  H   UNL A   1      30.983  30.740  23.527  1.00  0.00     0.163 HD
ATOM     76  O   UNL A   1      29.895  29.319  21.879  1.00  0.00    -0.268 OA
BRANCH  74  77
ATOM     77  C   UNL A   1      30.817  27.468  23.028  1.00  0.00     0.093 A 
ATOM     78  C   UNL A   1      31.996  26.758  22.822  1.00  0.00     0.040 A 
ATOM     79  S   UNL A   1      29.601  26.460  23.698  1.00  0.00    -0.137 S 
ATOM     80  C   UNL A   1      31.794  25.348  22.933  1.00  0.00     0.019 A 
ATOM     81  C   UNL A   1      30.563  25.064  23.487  1.00  0.00     0.080 A 
BRANCH  80  82
ATOM     82  S   UNL A   1      32.927  24.057  22.550  1.00  0.00    -0.123 SA
BRANCH  82  83
ATOM     83  C   UNL A   1      32.189  22.479  23.097  1.00  0.00     0.098 C 
BRANCH  83  84
ATOM     84  C   UNL A   1      32.828  21.790  24.311  1.00  0.00     0.155 C 
BRANCH  84  85
ATOM     85  N   UNL A   1      32.241  22.313  25.534  1.00  0.00    -0.272 N 
ATOM     86  C   UNL A   1      32.827  23.245  26.332  1.00  0.00     0.108 A 
ATOM     87  N   UNL A   1      30.919  22.188  25.758  1.00  0.00    -0.182 NA
ATOM     88  C   UNL A   1      31.788  23.959  26.883  1.00  0.00     0.042 A 
ATOM     89  C   UNL A   1      30.646  23.207  26.579  1.00  0.00     0.135 A 
ENDBRANCH  84  85
ENDBRANCH  83  84
ENDBRANCH  82  83
ENDBRANCH  80  82
ENDBRANCH  74  77
ENDBRANCH   1  73
TORSDOF 14
ENDMDL
MODEL 2
REMARK VINA RESULT:     -12.0      3.588      8.910
REMARK SMILES O=C(NCCCNC(=O)c1cc(SCCn2cccn2)cs1)c1ccc(-c2c3nc(c(-c4c(F)c(F)c(F)c(F)c4F)c4ccc([nH]4)c(-c4c(F)c(F)c(F)c(F)c4F)c4nc(c(-c5c(F)c(F)c(F)c(F)c5F)c5ccc2[nH]5)C=C4)C=C3)cc1
REMARK SMILES IDX 6 1 5 2 4 3 3 4 1 5 2 6 23 8 24 9 85 10 25 11 84 12 26 13
REMARK SMILES IDX 27 14 28 15 78 16 29 17 83 18 77 19 79 20 30 21 82 22 76 23
REMARK SMILES IDX 75 24 31 26 63 27 43 28 62 29 44 30 47 31 61 32 80 33 45 34
REMARK SMILES IDX 46 35 60 37 81 38 48 39 32 40 33 41 41 42 34 43 35 44 39 45
REMARK SMILES IDX 42 46 36 47 37 48 40 49 38 50 64 51 65 52 73 53 66 54 67 55
REMARK SMILES IDX 71 56 74 57 68 58 69 59 72 60 70 61 49 62 50 63 58 64 51 65
REMARK SMILES IDX 52 66 56 67 59 68 53 69 54 70 57 71 55 72 7 73 8 74 9 76
REMARK SMILES IDX 10 77 11 78 22 79 12 80 21 81 13 82 14 83 15 84 16 85 17 86
REMARK SMILES IDX 20 87 18 88 19 89
REMARK H PARENT 3 7 79 25 47 36 7 75
REMARK Flexibility Score: inf
ROOT
ATOM      1  C   UNL A   1      37.215  21.420  24.948  1.00  0.00     0.118 C 
ENDROOT
BRANCH   1   2
ATOM      2  C   UNL A   1      37.985  22.433  25.786  1.00  0.00     0.042 C 
BRANCH   2   3
ATOM      3  C   UNL A   1      39.256  21.920  26.472  1.00  0.00     0.118 C 
BRANCH   3   4
ATOM      4  N   UNL A   1      40.509  22.121  25.759  1.00  0.00    -0.352 N 
ATOM      5  O   UNL A   1      42.697  22.399  25.597  1.00  0.00    -0.269 OA
ATOM      6  C   UNL A   1      41.634  22.864  26.020  1.00  0.00     0.251 C 
ATOM      7  H   UNL A   1      40.561  21.620  24.914  1.00  0.00     0.163 HD
BRANCH   6   8
ATOM      8  C   UNL A   1      41.654  24.210  26.659  1.00  0.00     0.039 A 
ATOM      9  C   UNL A   1      42.410  24.565  27.773  1.00  0.00     0.014 A 
ATOM     10  C   UNL A   1      40.758  25.164  26.130  1.00  0.00     0.014 A 
ATOM     11  C   UNL A   1      42.233  25.813  28.380  1.00  0.00     0.010 A 
ATOM     12  C   UNL A   1      40.580  26.411  26.729  1.00  0.00     0.010 A 
ATOM     13  C   UNL A   1      41.300  26.728  27.876  1.00  0.00    -0.014 A 
BRANCH  13  14
ATOM     14  C   UNL A   1      41.223  28.057  28.494  1.00  0.00     0.031 A 
ATOM     15  C   UNL A   1      42.291  29.018  28.081  1.00  0.00     0.074 A 
ATOM     16  C   UNL A   1      40.196  28.498  29.250  1.00  0.00     0.049 A 
ATOM     17  N   UNL A   1      43.119  29.681  28.827  1.00  0.00    -0.248 NA
ATOM     18  C   UNL A   1      42.482  29.235  26.639  1.00  0.00     0.031 C 
ATOM     19  C   UNL A   1      38.911  27.843  29.502  1.00  0.00     0.029 A 
ATOM     20  N   UNL A   1      40.058  29.702  29.885  1.00  0.00    -0.354 N 
ATOM     21  C   UNL A   1      43.845  30.502  27.964  1.00  0.00     0.074 A 
ATOM     22  C   UNL A   1      43.478  30.121  26.625  1.00  0.00     0.031 C 
ATOM     23  C   UNL A   1      38.059  28.731  30.063  1.00  0.00     0.029 A 
ATOM     24  C   UNL A   1      38.769  29.973  30.323  1.00  0.00     0.049 A 
ATOM     25  H   UNL A   1      40.810  30.323  30.020  1.00  0.00     0.167 HD
ATOM     26  C   UNL A   1      44.581  31.561  28.406  1.00  0.00     0.037 A 
ATOM     27  C   UNL A   1      38.302  31.151  30.809  1.00  0.00     0.037 A 
ATOM     28  C   UNL A   1      44.901  31.452  29.801  1.00  0.00     0.049 A 
ATOM     29  C   UNL A   1      39.463  31.967  31.236  1.00  0.00     0.074 A 
ATOM     30  C   UNL A   1      45.605  30.543  30.568  1.00  0.00     0.029 A 
ATOM     31  N   UNL A   1      44.218  32.229  30.700  1.00  0.00    -0.354 N 
ATOM     32  N   UNL A   1      40.207  31.708  32.272  1.00  0.00    -0.248 NA
ATOM     33  C   UNL A   1      40.032  32.898  30.275  1.00  0.00     0.031 C 
ATOM     34  C   UNL A   1      44.914  30.497  31.814  1.00  0.00     0.029 A 
ATOM     35  C   UNL A   1      43.858  31.404  31.735  1.00  0.00     0.049 A 
ATOM     36  H   UNL A   1      44.023  33.190  30.619  1.00  0.00     0.167 HD
ATOM     37  C   UNL A   1      41.483  32.090  31.890  1.00  0.00     0.074 A 
ATOM     38  C   UNL A   1      41.294  32.915  30.702  1.00  0.00     0.031 C 
ATOM     39  C   UNL A   1      42.586  31.476  32.409  1.00  0.00     0.037 A 
BRANCH  26  40
ATOM     40  C   UNL A   1      44.766  32.841  27.633  1.00  0.00     0.064 A 
ATOM     41  C   UNL A   1      45.948  33.054  26.896  1.00  0.00     0.173 A 
ATOM     42  C   UNL A   1      43.950  33.977  27.821  1.00  0.00     0.173 A 
ATOM     43  F   UNL A   1      46.814  32.051  26.688  1.00  0.00    -0.203 F 
ATOM     44  C   UNL A   1      46.310  34.323  26.432  1.00  0.00     0.198 A 
ATOM     45  C   UNL A   1      44.289  35.230  27.312  1.00  0.00     0.198 A 
ATOM     46  F   UNL A   1      42.858  33.941  28.595  1.00  0.00    -0.203 F 
ATOM     47  F   UNL A   1      47.496  34.501  25.836  1.00  0.00    -0.200 F 
ATOM     48  C   UNL A   1      45.480  35.410  26.643  1.00  0.00     0.200 A 
ATOM     49  F   UNL A   1      43.482  36.276  27.545  1.00  0.00    -0.200 F 
ATOM     50  F   UNL A   1      45.849  36.635  26.247  1.00  0.00    -0.200 F 
ENDBRANCH  26  40
BRANCH  27  51
ATOM     51  C   UNL A   1      36.946  31.736  30.686  1.00  0.00     0.064 A 
ATOM     52  C   UNL A   1      36.106  31.874  31.805  1.00  0.00     0.173 A 
ATOM     53  C   UNL A   1      36.559  32.429  29.524  1.00  0.00     0.173 A 
ATOM     54  F   UNL A   1      36.426  31.286  32.968  1.00  0.00    -0.203 F 
ATOM     55  C   UNL A   1      34.960  32.677  31.768  1.00  0.00     0.198 A 
ATOM     56  C   UNL A   1      35.411  33.222  29.486  1.00  0.00     0.198 A 
ATOM     57  F   UNL A   1      37.338  32.431  28.434  1.00  0.00    -0.203 F 
ATOM     58  F   UNL A   1      34.220  32.837  32.873  1.00  0.00    -0.200 F 
ATOM     59  C   UNL A   1      34.620  33.358  30.611  1.00  0.00     0.200 A 
ATOM     60  F   UNL A   1      35.115  33.906  28.372  1.00  0.00    -0.200 F 
ATOM     61  F   UNL A   1      33.559  34.176  30.593  1.00  0.00    -0.200 F 
ENDBRANCH  27  51
BRANCH  39  62
ATOM     62  C   UNL A   1      42.395  30.591  33.607  1.00  0.00     0.064 A 
ATOM     63  C   UNL A   1      42.438  31.050  34.936  1.00  0.00     0.173 A 
ATOM     64  C   UNL A   1      42.024  29.256  33.399  1.00  0.00     0.173 A 
ATOM     65  F   UNL A   1      42.676  32.339  35.213  1.00  0.00    -0.203 F 
ATOM     66  C   UNL A   1      42.177  30.196  36.004  1.00  0.00     0.198 A 
ATOM     67  C   UNL A   1      41.724  28.415  34.467  1.00  0.00     0.198 A 
ATOM     68  F   UNL A   1      41.906  28.776  32.150  1.00  0.00    -0.203 F 
ATOM     69  F   UNL A   1      42.241  30.654  37.263  1.00  0.00    -0.200 F 
ATOM     70  C   UNL A   1      41.813  28.880  35.769  1.00  0.00     0.200 A 
ATOM     71  F   UNL A   1      41.320  27.158  34.233  1.00  0.00    -0.200 F 
ATOM     72  F   UNL A   1      41.519  28.070  36.795  1.00  0.00    -0.200 F 
ENDBRANCH  39  62
ENDBRANCH  13  14
ENDBRANCH   6   8
ENDBRANCH   3   4
ENDBRANCH   2   3
ENDBRANCH   1   2
BRANCH   1  73
ATOM     73  N   UNL A   1      35.979  20.893  25.500  1.00  0.00    -0.351 N 
ATOM     74  C   UNL A   1      34.706  21.410  25.312  1.00  0.00     0.261 C 
ATOM     75  H   UNL A   1      36.052  20.088  26.064  1.00  0.00     0.163 HD
ATOM     76  O   UNL A   1      33.743  20.664  25.555  1.00  0.00    -0.268 OA
BRANCH  74  77
ATOM     77  C   UNL A   1      34.543  22.765  24.820  1.00  0.00     0.093 A 
ATOM     78  C   UNL A   1      34.547  23.973  25.511  1.00  0.00     0.040 A 
ATOM     79  S   UNL A   1      34.435  23.024  23.128  1.00  0.00    -0.137 S 
ATOM     80  C   UNL A   1      34.161  25.066  24.674  1.00  0.00     0.019 A 
ATOM     81  C   UNL A   1      34.158  24.696  23.345  1.00  0.00     0.080 A 
BRANCH  80  82
ATOM     82  S   UNL A   1      33.819  26.725  25.146  1.00  0.00    -0.123 SA
BRANCH  82  83
ATOM     83  C   UNL A   1      32.006  26.940  25.177  1.00  0.00     0.098 C 
BRANCH  83  84
ATOM     84  C   UNL A   1      31.258  26.402  26.404  1.00  0.00     0.155 C 
BRANCH  84  85
ATOM     85  N   UNL A   1      30.842  25.030  26.160  1.00  0.00    -0.272 N 
ATOM     86  C   UNL A   1      30.635  24.497  24.926  1.00  0.00     0.108 A 
ATOM     87  N   UNL A   1      30.999  24.094  27.116  1.00  0.00    -0.182 NA
ATOM     88  C   UNL A   1      30.968  23.167  25.043  1.00  0.00     0.042 A 
ATOM     89  C   UNL A   1      31.086  22.955  26.423  1.00  0.00     0.135 A 
ENDBRANCH  84  85
ENDBRANCH  83  84
ENDBRANCH  82  83
ENDBRANCH  80  82
ENDBRANCH  74  77
ENDBRANCH   1  73
TORSDOF 14
ENDMDL
MODEL 3
REMARK VINA RESULT:     -11.9      3.532      9.011
REMARK SMILES O=C(NCCCNC(=O)c1cc(SCCn2cccn2)cs1)c1ccc(-c2c3nc(c(-c4c(F)c(F)c(F)c(F)c4F)c4ccc([nH]4)c(-c4c(F)c(F)c(F)c(F)c4F)c4nc(c(-c5c(F)c(F)c(F)c(F)c5F)c5ccc2[nH]5)C=C4)C=C3)cc1
REMARK SMILES IDX 6 1 5 2 4 3 3 4 1 5 2 6 23 8 24 9 85 10 25 11 84 12 26 13
REMARK SMILES IDX 27 14 28 15 78 16 29 17 83 18 77 19 79 20 30 21 82 22 76 23
REMARK SMILES IDX 75 24 31 26 63 27 43 28 62 29 44 30 47 31 61 32 80 33 45 34
REMARK SMILES IDX 46 35 60 37 81 38 48 39 32 40 33 41 41 42 34 43 35 44 39 45
REMARK SMILES IDX 42 46 36 47 37 48 40 49 38 50 64 51 65 52 73 53 66 54 67 55
REMARK SMILES IDX 71 56 74 57 68 58 69 59 72 60 70 61 49 62 50 63 58 64 51 65
REMARK SMILES IDX 52 66 56 67 59 68 53 69 54 70 57 71 55 72 7 73 8 74 9 76
REMARK SMILES IDX 10 77 11 78 22 79 12 80 21 81 13 82 14 83 15 84 16 85 17 86
REMARK SMILES IDX 20 87 18 88 19 89
REMARK H PARENT 3 7 79 25 47 36 7 75
REMARK Flexibility Score: inf
ROOT
ATOM      1  C   UNL A   1      36.646  23.234  25.627  1.00  0.00     0.118 C 
ENDROOT
BRANCH   1   2
ATOM      2  C   UNL A   1      37.728  22.231  25.249  1.00  0.00     0.042 C 
BRANCH   2   3
ATOM      3  C   UNL A   1      38.861  22.040  26.264  1.00  0.00     0.118 C 
BRANCH   3   4
ATOM      4  N   UNL A   1      40.219  22.101  25.746  1.00  0.00    -0.352 N 
ATOM      5  O   UNL A   1      42.424  22.165  25.911  1.00  0.00    -0.269 OA
ATOM      6  C   UNL A   1      41.361  22.740  26.162  1.00  0.00     0.251 C 
ATOM      7  H   UNL A   1      40.346  21.574  24.924  1.00  0.00     0.163 HD
BRANCH   6   8
ATOM      8  C   UNL A   1      41.418  24.096  26.779  1.00  0.00     0.039 A 
ATOM      9  C   UNL A   1      42.168  24.442  27.900  1.00  0.00     0.014 A 
ATOM     10  C   UNL A   1      40.564  25.071  26.220  1.00  0.00     0.014 A 
ATOM     11  C   UNL A   1      42.025  25.706  28.483  1.00  0.00     0.010 A 
ATOM     12  C   UNL A   1      40.421  26.333  26.795  1.00  0.00     0.010 A 
ATOM     13  C   UNL A   1      41.134  26.645  27.949  1.00  0.00    -0.014 A 
BRANCH  13  14
ATOM     14  C   UNL A   1      41.093  27.986  28.543  1.00  0.00     0.031 A 
ATOM     15  C   UNL A   1      42.175  28.917  28.098  1.00  0.00     0.074 A 
ATOM     16  C   UNL A   1      40.086  28.462  29.306  1.00  0.00     0.049 A 
ATOM     17  N   UNL A   1      43.028  29.575  28.820  1.00  0.00    -0.248 NA
ATOM     18  C   UNL A   1      42.350  29.103  26.649  1.00  0.00     0.031 C 
ATOM     19  C   UNL A   1      38.792  27.840  29.588  1.00  0.00     0.029 A 
ATOM     20  N   UNL A   1      39.983  29.681  29.920  1.00  0.00    -0.354 N 
ATOM     21  C   UNL A   1      43.758  30.364  27.932  1.00  0.00     0.074 A 
ATOM     22  C   UNL A   1      43.364  29.967  26.605  1.00  0.00     0.031 C 
ATOM     23  C   UNL A   1      37.967  28.756  30.144  1.00  0.00     0.029 A 
ATOM     24  C   UNL A   1      38.707  29.987  30.371  1.00  0.00     0.049 A 
ATOM     25  H   UNL A   1      40.750  30.288  30.033  1.00  0.00     0.167 HD
ATOM     26  C   UNL A   1      44.523  31.415  28.344  1.00  0.00     0.037 A 
ATOM     27  C   UNL A   1      38.272  31.183  30.842  1.00  0.00     0.037 A 
ATOM     28  C   UNL A   1      44.861  31.325  29.736  1.00  0.00     0.049 A 
ATOM     29  C   UNL A   1      39.456  31.982  31.237  1.00  0.00     0.074 A 
ATOM     30  C   UNL A   1      45.556  30.415  30.509  1.00  0.00     0.029 A 
ATOM     31  N   UNL A   1      44.207  32.132  30.630  1.00  0.00    -0.354 N 
ATOM     32  N   UNL A   1      40.209  31.725  32.268  1.00  0.00    -0.248 NA
ATOM     33  C   UNL A   1      40.030  32.883  30.251  1.00  0.00     0.031 C 
ATOM     34  C   UNL A   1      44.882  30.406  31.766  1.00  0.00     0.029 A 
ATOM     35  C   UNL A   1      43.845  31.334  31.684  1.00  0.00     0.049 A 
ATOM     36  H   UNL A   1      44.031  33.096  30.534  1.00  0.00     0.167 HD
ATOM     37  C   UNL A   1      41.487  32.073  31.860  1.00  0.00     0.074 A 
ATOM     38  C   UNL A   1      41.299  32.881  30.660  1.00  0.00     0.031 C 
ATOM     39  C   UNL A   1      42.584  31.445  32.375  1.00  0.00     0.037 A 
BRANCH  26  40
ATOM     40  C   UNL A   1      44.723  32.676  27.544  1.00  0.00     0.064 A 
ATOM     41  C   UNL A   1      45.914  32.866  26.815  1.00  0.00     0.173 A 
ATOM     42  C   UNL A   1      43.913  33.822  27.699  1.00  0.00     0.173 A 
ATOM     43  F   UNL A   1      46.776  31.853  26.637  1.00  0.00    -0.203 F 
ATOM     44  C   UNL A   1      46.289  34.123  26.327  1.00  0.00     0.198 A 
ATOM     45  C   UNL A   1      44.265  35.061  27.167  1.00  0.00     0.198 A 
ATOM     46  F   UNL A   1      42.814  33.809  28.463  1.00  0.00    -0.203 F 
ATOM     47  F   UNL A   1      47.482  34.280  25.739  1.00  0.00    -0.200 F 
ATOM     48  C   UNL A   1      45.464  35.219  26.506  1.00  0.00     0.200 A 
ATOM     49  F   UNL A   1      43.463  36.117  27.369  1.00  0.00    -0.200 F 
ATOM     50  F   UNL A   1      45.845  36.433  26.087  1.00  0.00    -0.200 F 
ENDBRANCH  26  40
BRANCH  27  51
ATOM     51  C   UNL A   1      36.927  31.795  30.727  1.00  0.00     0.064 A 
ATOM     52  C   UNL A   1      36.090  31.933  31.848  1.00  0.00     0.173 A 
ATOM     53  C   UNL A   1      36.553  32.510  29.575  1.00  0.00     0.173 A 
ATOM     54  F   UNL A   1      36.399  31.324  33.003  1.00  0.00    -0.203 F 
ATOM     55  C   UNL A   1      34.959  32.758  31.822  1.00  0.00     0.198 A 
ATOM     56  C   UNL A   1      35.420  33.325  29.548  1.00  0.00     0.198 A 
ATOM     57  F   UNL A   1      37.331  32.512  28.485  1.00  0.00    -0.203 F 
ATOM     58  F   UNL A   1      34.222  32.917  32.930  1.00  0.00    -0.200 F 
ATOM     59  C   UNL A   1      34.632  33.460  30.675  1.00  0.00     0.200 A 
ATOM     60  F   UNL A   1      35.136  34.029  28.443  1.00  0.00    -0.200 F 
ATOM     61  F   UNL A   1      33.585  34.298  30.668  1.00  0.00    -0.200 F 
ENDBRANCH  27  51
BRANCH  39  62
ATOM     62  C   UNL A   1      42.392  30.586  33.592  1.00  0.00     0.064 A 
ATOM     63  C   UNL A   1      42.457  31.070  34.911  1.00  0.00     0.173 A 
ATOM     64  C   UNL A   1      41.998  29.253  33.413  1.00  0.00     0.173 A 
ATOM     65  F   UNL A   1      42.718  32.360  35.161  1.00  0.00    -0.203 F 
ATOM     66  C   UNL A   1      42.193  30.240  35.998  1.00  0.00     0.198 A 
ATOM     67  C   UNL A   1      41.695  28.438  34.500  1.00  0.00     0.198 A 
ATOM     68  F   UNL A   1      41.859  28.753  32.175  1.00  0.00    -0.203 F 
ATOM     69  F   UNL A   1      42.278  30.722  37.247  1.00  0.00    -0.200 F 
ATOM     70  C   UNL A   1      41.806  28.926  35.792  1.00  0.00     0.200 A 
ATOM     71  F   UNL A   1      41.269  27.184  34.294  1.00  0.00    -0.200 F 
ATOM     72  F   UNL A   1      41.510  28.141  36.836  1.00  0.00    -0.200 F 
ENDBRANCH  39  62
ENDBRANCH  13  14
ENDBRANCH   6   8
ENDBRANCH   3   4
ENDBRANCH   2   3
ENDBRANCH   1   2
BRANCH   1  73
ATOM     73  N   UNL A   1      35.843  22.945  26.801  1.00  0.00    -0.351 N 
ATOM     74  C   UNL A   1      34.458  22.934  26.870  1.00  0.00     0.261 C 
ATOM     75  H   UNL A   1      36.329  22.736  27.632  1.00  0.00     0.163 HD
ATOM     76  O   UNL A   1      33.937  22.342  27.831  1.00  0.00    -0.268 OA
BRANCH  74  77
ATOM     77  C   UNL A   1      33.678  23.573  25.827  1.00  0.00     0.093 A 
ATOM     78  C   UNL A   1      33.635  24.907  25.435  1.00  0.00     0.040 A 
ATOM     79  S   UNL A   1      32.718  22.596  24.795  1.00  0.00    -0.137 S 
ATOM     80  C   UNL A   1      32.589  25.151  24.491  1.00  0.00     0.019 A 
ATOM     81  C   UNL A   1      32.078  23.967  24.000  1.00  0.00     0.080 A 
BRANCH  80  82
ATOM     82  S   UNL A   1      32.018  26.698  23.880  1.00  0.00    -0.123 SA
BRANCH  82  83
ATOM     83  C   UNL A   1      33.326  27.938  24.171  1.00  0.00     0.098 C 
BRANCH  83  84
ATOM     84  C   UNL A   1      32.881  29.329  24.642  1.00  0.00     0.155 C 
BRANCH  84  85
ATOM     85  N   UNL A   1      33.274  29.525  26.028  1.00  0.00    -0.272 N 
ATOM     86  C   UNL A   1      34.295  28.865  26.639  1.00  0.00     0.108 A 
ATOM     87  N   UNL A   1      32.900  30.638  26.687  1.00  0.00    -0.182 NA
ATOM     88  C   UNL A   1      34.795  29.748  27.568  1.00  0.00     0.042 A 
ATOM     89  C   UNL A   1      33.843  30.775  27.625  1.00  0.00     0.135 A 
ENDBRANCH  84  85
ENDBRANCH  83  84
ENDBRANCH  82  83
ENDBRANCH  80  82
ENDBRANCH  74  77
ENDBRANCH   1  73
TORSDOF 14
ENDMDL
