MODEL 1
REMARK VINA RESULT:     -14.1      0.000      0.000
REMARK SMILES O=C(C[C@]12CSc3[nH]c(=O)sc3[C@H]1c1cc(Cl)ccc1OC2=O)NCCCNC(=O)c1ccc(-c2c3nc(c(-c4c(F)c(F)c(F)c(F)c4F)c4ccc([nH]4)c(-c4c(F)c(F)c(F)c(F)c4F)c4nc(c(-c5c(F)c(F)c(F)c(F)c5F)c5ccc2[nH]5)C=C4)C=C3)cc1
REMARK SMILES IDX 26 1 25 2 24 3 1 4 2 5 3 7 4 8 5 9 13 10 22 11 6 12 12 13
REMARK SMILES IDX 14 14 21 15 23 16 7 17 11 18 15 19 20 20 8 21 9 22 16 23
REMARK SMILES IDX 19 24 10 26 17 27 18 28 27 29 28 30 29 31 30 33 31 34 32 35
REMARK SMILES IDX 93 36 33 37 92 38 34 39 35 40 36 41 86 42 37 43 91 44 85 45
REMARK SMILES IDX 87 46 38 47 90 48 84 49 83 50 39 52 71 53 51 54 70 55 52 56
REMARK SMILES IDX 55 57 69 58 88 59 53 60 54 61 68 63 89 64 56 65 40 66 41 67
REMARK SMILES IDX 49 68 42 69 43 70 47 71 50 72 44 73 45 74 48 75 46 76 72 77
REMARK SMILES IDX 73 78 81 79 74 80 75 81 79 82 82 83 76 84 77 85 80 86 78 87
REMARK SMILES IDX 57 88 58 89 66 90 59 91 60 92 64 93 67 94 61 95 62 96 65 97
REMARK SMILES IDX 63 98
REMARK H PARENT 24 6 8 25 28 32 87 51 55 62
REMARK Flexibility Score: inf
ROOT
ATOM      1  C   UNL A   1      34.623  28.881  27.355  1.00  0.00     0.042 C 
ENDROOT
BRANCH   1   2
ATOM      2  C   UNL A   1      33.196  28.379  27.174  1.00  0.00     0.117 C 
BRANCH   2   3
ATOM      3  N   UNL A   1      33.111  27.011  26.627  1.00  0.00    -0.356 N 
ATOM      4  O   UNL A   1      33.376  27.547  24.435  1.00  0.00    -0.275 OA
ATOM      5  C   UNL A   1      33.437  26.695  25.318  1.00  0.00     0.221 C 
ATOM      6  H   UNL A   1      32.808  26.288  27.222  1.00  0.00     0.163 HD
BRANCH   5   7
ATOM      7  C   UNL A   1      33.926  25.222  24.996  1.00  0.00     0.120 C 
BRANCH   7   8
ATOM      8  C   UNL A   1      33.348  24.015  25.856  1.00  0.00     0.098 C 
ATOM      9  C   UNL A   1      34.497  23.682  26.840  1.00  0.00     0.097 C 
ATOM     10  C   UNL A   1      32.681  23.073  24.812  1.00  0.00     0.085 C 
ATOM     11  C   UNL A   1      32.170  23.852  26.900  1.00  0.00     0.319 C 
ATOM     12  S   UNL A   1      35.490  22.331  26.283  1.00  0.00    -0.106 SA
ATOM     13  C   UNL A   1      33.073  21.634  25.094  1.00  0.00     0.049 A 
ATOM     14  C   UNL A   1      31.377  23.919  24.417  1.00  0.00     0.006 A 
ATOM     15  O   UNL A   1      31.040  24.566  26.756  1.00  0.00    -0.426 OA
ATOM     16  O   UNL A   1      32.153  22.952  27.746  1.00  0.00    -0.251 OA
ATOM     17  C   UNL A   1      34.260  21.313  25.672  1.00  0.00     0.090 A 
ATOM     18  S   UNL A   1      32.528  20.240  24.168  1.00  0.00    -0.077 S 
ATOM     19  C   UNL A   1      31.286  24.492  23.120  1.00  0.00     0.028 A 
ATOM     20  C   UNL A   1      30.766  24.720  25.415  1.00  0.00     0.134 A 
ATOM     21  N   UNL A   1      34.699  20.046  25.476  1.00  0.00    -0.307 N 
ATOM     22  C   UNL A   1      33.968  19.296  24.624  1.00  0.00     0.305 A 
ATOM     23  C   UNL A   1      30.766  25.802  22.922  1.00  0.00     0.041 A 
ATOM     24  C   UNL A   1      30.103  25.938  25.199  1.00  0.00     0.049 A 
ATOM     25  H   UNL A   1      35.501  19.694  25.926  1.00  0.00     0.171 HD
ATOM     26  O   UNL A   1      34.279  18.187  24.181  1.00  0.00    -0.257 OA
ATOM     27  Cl  UNL A   1      31.030  26.626  21.429  1.00  0.00    -0.084 Cl
ATOM     28  C   UNL A   1      30.175  26.521  23.955  1.00  0.00     0.024 A 
ENDBRANCH   7   8
ENDBRANCH   5   7
ENDBRANCH   2   3
ENDBRANCH   1   2
BRANCH   1  29
ATOM     29  C   UNL A   1      34.729  30.396  27.201  1.00  0.00     0.118 C 
BRANCH  29  30
ATOM     30  N   UNL A   1      34.459  31.140  28.416  1.00  0.00    -0.352 N 
ATOM     31  C   UNL A   1      35.245  31.574  29.447  1.00  0.00     0.251 C 
ATOM     32  H   UNL A   1      33.511  31.384  28.520  1.00  0.00     0.163 HD
ATOM     33  O   UNL A   1      34.768  32.450  30.170  1.00  0.00    -0.269 OA
BRANCH  31  34
ATOM     34  C   UNL A   1      36.562  30.988  29.800  1.00  0.00     0.039 A 
ATOM     35  C   UNL A   1      37.803  31.573  29.539  1.00  0.00     0.014 A 
ATOM     36  C   UNL A   1      36.523  29.689  30.340  1.00  0.00     0.014 A 
ATOM     37  C   UNL A   1      38.966  30.835  29.665  1.00  0.00     0.010 A 
ATOM     38  C   UNL A   1      37.686  28.953  30.494  1.00  0.00     0.010 A 
ATOM     39  C   UNL A   1      38.894  29.510  30.084  1.00  0.00    -0.014 A 
BRANCH  39  40
ATOM     40  C   UNL A   1      40.133  28.753  30.146  1.00  0.00     0.031 A 
ATOM     41  C   UNL A   1      40.701  28.596  31.518  1.00  0.00     0.074 A 
ATOM     42  C   UNL A   1      40.632  28.160  29.046  1.00  0.00     0.049 A 
ATOM     43  N   UNL A   1      41.896  28.870  31.933  1.00  0.00    -0.248 NA
ATOM     44  C   UNL A   1      39.777  28.187  32.591  1.00  0.00     0.031 C 
ATOM     45  C   UNL A   1      40.028  28.073  27.712  1.00  0.00     0.029 A 
ATOM     46  N   UNL A   1      41.751  27.401  28.917  1.00  0.00    -0.354 N 
ATOM     47  C   UNL A   1      41.921  28.524  33.284  1.00  0.00     0.074 A 
ATOM     48  C   UNL A   1      40.564  28.230  33.664  1.00  0.00     0.031 C 
ATOM     49  C   UNL A   1      40.654  27.109  27.002  1.00  0.00     0.029 A 
ATOM     50  C   UNL A   1      41.767  26.601  27.782  1.00  0.00     0.049 A 
ATOM     51  H   UNL A   1      42.487  27.418  29.570  1.00  0.00     0.167 HD
ATOM     52  C   UNL A   1      43.083  28.320  33.961  1.00  0.00     0.037 A 
ATOM     53  C   UNL A   1      42.579  25.535  27.572  1.00  0.00     0.037 A 
ATOM     54  C   UNL A   1      44.202  28.929  33.301  1.00  0.00     0.049 A 
ATOM     55  C   UNL A   1      43.718  25.658  28.520  1.00  0.00     0.074 A 
ATOM     56  C   UNL A   1      44.552  30.233  33.018  1.00  0.00     0.029 A 
ATOM     57  N   UNL A   1      44.994  28.144  32.500  1.00  0.00    -0.354 N 
ATOM     58  N   UNL A   1      44.635  26.582  28.431  1.00  0.00    -0.248 NA
ATOM     59  C   UNL A   1      43.571  25.049  29.837  1.00  0.00     0.031 C 
ATOM     60  C   UNL A   1      45.159  30.179  31.731  1.00  0.00     0.029 A 
ATOM     61  C   UNL A   1      45.198  28.843  31.335  1.00  0.00     0.049 A 
ATOM     62  H   UNL A   1      45.347  27.252  32.717  1.00  0.00     0.167 HD
ATOM     63  C   UNL A   1      44.884  26.962  29.742  1.00  0.00     0.074 A 
ATOM     64  C   UNL A   1      44.254  25.934  30.568  1.00  0.00     0.031 C 
ATOM     65  C   UNL A   1      45.320  28.220  30.040  1.00  0.00     0.037 A 
BRANCH  52  66
ATOM     66  C   UNL A   1      43.239  27.315  35.068  1.00  0.00     0.064 A 
ATOM     67  C   UNL A   1      43.623  27.731  36.356  1.00  0.00     0.173 A 
ATOM     68  C   UNL A   1      43.293  25.924  34.830  1.00  0.00     0.173 A 
ATOM     69  F   UNL A   1      43.644  29.034  36.674  1.00  0.00    -0.203 F 
ATOM     70  C   UNL A   1      44.068  26.821  37.319  1.00  0.00     0.198 A 
ATOM     71  C   UNL A   1      43.686  25.016  35.808  1.00  0.00     0.198 A 
ATOM     72  F   UNL A   1      43.072  25.408  33.613  1.00  0.00    -0.203 F 
ATOM     73  F   UNL A   1      44.525  27.268  38.497  1.00  0.00    -0.200 F 
ATOM     74  C   UNL A   1      44.099  25.465  37.044  1.00  0.00     0.200 A 
ATOM     75  F   UNL A   1      43.731  23.709  35.514  1.00  0.00    -0.200 F 
ATOM     76  F   UNL A   1      44.572  24.597  37.949  1.00  0.00    -0.200 F 
ENDBRANCH  52  66
BRANCH  53  77
ATOM     77  C   UNL A   1      42.258  24.270  26.866  1.00  0.00     0.064 A 
ATOM     78  C   UNL A   1      43.153  23.712  25.938  1.00  0.00     0.173 A 
ATOM     79  C   UNL A   1      41.190  23.444  27.273  1.00  0.00     0.173 A 
ATOM     80  F   UNL A   1      44.224  24.409  25.531  1.00  0.00    -0.203 F 
ATOM     81  C   UNL A   1      43.002  22.403  25.467  1.00  0.00     0.198 A 
ATOM     82  C   UNL A   1      41.034  22.144  26.793  1.00  0.00     0.198 A 
ATOM     83  F   UNL A   1      40.327  23.845  28.216  1.00  0.00    -0.203 F 
ATOM     84  F   UNL A   1      43.912  21.884  24.630  1.00  0.00    -0.200 F 
ATOM     85  C   UNL A   1      41.947  21.617  25.900  1.00  0.00     0.200 A 
ATOM     86  F   UNL A   1      40.027  21.384  27.249  1.00  0.00    -0.200 F 
ATOM     87  F   UNL A   1      41.835  20.345  25.496  1.00  0.00    -0.200 F 
ENDBRANCH  53  77
BRANCH  65  88
ATOM     88  C   UNL A   1      45.708  29.117  28.899  1.00  0.00     0.064 A 
ATOM     89  C   UNL A   1      44.795  29.933  28.207  1.00  0.00     0.173 A 
ATOM     90  C   UNL A   1      47.069  29.294  28.618  1.00  0.00     0.173 A 
ATOM     91  F   UNL A   1      43.489  29.901  28.497  1.00  0.00    -0.203 F 
ATOM     92  C   UNL A   1      45.222  30.854  27.254  1.00  0.00     0.198 A 
ATOM     93  C   UNL A   1      47.496  30.242  27.692  1.00  0.00     0.198 A 
ATOM     94  F   UNL A   1      47.991  28.589  29.292  1.00  0.00    -0.203 F 
ATOM     95  F   UNL A   1      44.327  31.619  26.610  1.00  0.00    -0.200 F 
ATOM     96  C   UNL A   1      46.574  31.015  27.004  1.00  0.00     0.200 A 
ATOM     97  F   UNL A   1      48.808  30.434  27.493  1.00  0.00    -0.200 F 
ATOM     98  F   UNL A   1      46.990  31.938  26.126  1.00  0.00    -0.200 F 
ENDBRANCH  65  88
ENDBRANCH  39  40
ENDBRANCH  31  34
ENDBRANCH  29  30
ENDBRANCH   1  29
TORSDOF 11
ENDMDL
MODEL 2
REMARK VINA RESULT:     -13.9      1.227      2.049
REMARK SMILES O=C(C[C@]12CSc3[nH]c(=O)sc3[C@H]1c1cc(Cl)ccc1OC2=O)NCCCNC(=O)c1ccc(-c2c3nc(c(-c4c(F)c(F)c(F)c(F)c4F)c4ccc([nH]4)c(-c4c(F)c(F)c(F)c(F)c4F)c4nc(c(-c5c(F)c(F)c(F)c(F)c5F)c5ccc2[nH]5)C=C4)C=C3)cc1
REMARK SMILES IDX 26 1 25 2 24 3 1 4 2 5 3 7 4 8 5 9 13 10 22 11 6 12 12 13
REMARK SMILES IDX 14 14 21 15 23 16 7 17 11 18 15 19 20 20 8 21 9 22 16 23
REMARK SMILES IDX 19 24 10 26 17 27 18 28 27 29 28 30 29 31 30 33 31 34 32 35
REMARK SMILES IDX 93 36 33 37 92 38 34 39 35 40 36 41 86 42 37 43 91 44 85 45
REMARK SMILES IDX 87 46 38 47 90 48 84 49 83 50 39 52 71 53 51 54 70 55 52 56
REMARK SMILES IDX 55 57 69 58 88 59 53 60 54 61 68 63 89 64 56 65 40 66 41 67
REMARK SMILES IDX 49 68 42 69 43 70 47 71 50 72 44 73 45 74 48 75 46 76 72 77
REMARK SMILES IDX 73 78 81 79 74 80 75 81 79 82 82 83 76 84 77 85 80 86 78 87
REMARK SMILES IDX 57 88 58 89 66 90 59 91 60 92 64 93 67 94 61 95 62 96 65 97
REMARK SMILES IDX 63 98
REMARK H PARENT 24 6 8 25 28 32 87 51 55 62
REMARK Flexibility Score: inf
ROOT
ATOM      1  C   UNL A   1      32.292  29.384  26.855  1.00  0.00     0.042 C 
ENDROOT
BRANCH   1   2
ATOM      2  C   UNL A   1      32.405  27.936  27.314  1.00  0.00     0.117 C 
BRANCH   2   3
ATOM      3  N   UNL A   1      32.574  26.973  26.209  1.00  0.00    -0.356 N 
ATOM      4  O   UNL A   1      34.845  27.005  26.127  1.00  0.00    -0.275 OA
ATOM      5  C   UNL A   1      33.797  26.421  25.864  1.00  0.00     0.221 C 
ATOM      6  H   UNL A   1      31.779  26.711  25.691  1.00  0.00     0.163 HD
BRANCH   5   7
ATOM      7  C   UNL A   1      33.812  25.002  25.157  1.00  0.00     0.120 C 
BRANCH   7   8
ATOM      8  C   UNL A   1      33.235  23.745  25.943  1.00  0.00     0.098 C 
ATOM      9  C   UNL A   1      34.374  23.373  26.926  1.00  0.00     0.097 C 
ATOM     10  C   UNL A   1      32.595  22.852  24.842  1.00  0.00     0.085 C 
ATOM     11  C   UNL A   1      32.045  23.515  26.960  1.00  0.00     0.319 C 
ATOM     12  S   UNL A   1      35.390  22.063  26.313  1.00  0.00    -0.106 SA
ATOM     13  C   UNL A   1      32.998  21.404  25.054  1.00  0.00     0.049 A 
ATOM     14  C   UNL A   1      31.287  23.704  24.472  1.00  0.00     0.006 A 
ATOM     15  O   UNL A   1      30.908  24.224  26.836  1.00  0.00    -0.426 OA
ATOM     16  O   UNL A   1      32.025  22.572  27.757  1.00  0.00    -0.251 OA
ATOM     17  C   UNL A   1      34.180  21.066  25.632  1.00  0.00     0.090 A 
ATOM     18  S   UNL A   1      32.482  20.056  24.047  1.00  0.00    -0.077 S 
ATOM     19  C   UNL A   1      31.208  24.344  23.206  1.00  0.00     0.028 A 
ATOM     20  C   UNL A   1      30.653  24.445  25.502  1.00  0.00     0.134 A 
ATOM     21  N   UNL A   1      34.636  19.816  25.376  1.00  0.00    -0.307 N 
ATOM     22  C   UNL A   1      33.925  19.104  24.474  1.00  0.00     0.305 A 
ATOM     23  C   UNL A   1      30.676  25.657  23.069  1.00  0.00     0.041 A 
ATOM     24  C   UNL A   1      29.979  25.666  25.340  1.00  0.00     0.049 A 
ATOM     25  H   UNL A   1      35.435  19.449  25.818  1.00  0.00     0.171 HD
ATOM     26  O   UNL A   1      34.255  18.023  23.979  1.00  0.00    -0.257 OA
ATOM     27  Cl  UNL A   1      30.953  26.561  21.626  1.00  0.00    -0.084 Cl
ATOM     28  C   UNL A   1      30.063  26.315  24.130  1.00  0.00     0.024 A 
ENDBRANCH   7   8
ENDBRANCH   5   7
ENDBRANCH   2   3
ENDBRANCH   1   2
BRANCH   1  29
ATOM     29  C   UNL A   1      33.635  30.107  26.879  1.00  0.00     0.118 C 
BRANCH  29  30
ATOM     30  N   UNL A   1      33.840  30.952  28.040  1.00  0.00    -0.352 N 
ATOM     31  C   UNL A   1      34.954  31.416  28.680  1.00  0.00     0.251 C 
ATOM     32  H   UNL A   1      32.999  31.253  28.455  1.00  0.00     0.163 HD
ATOM     33  O   UNL A   1      34.791  32.367  29.447  1.00  0.00    -0.269 OA
BRANCH  31  34
ATOM     34  C   UNL A   1      36.296  30.788  28.589  1.00  0.00     0.039 A 
ATOM     35  C   UNL A   1      36.541  29.446  28.292  1.00  0.00     0.014 A 
ATOM     36  C   UNL A   1      37.379  31.614  28.944  1.00  0.00     0.014 A 
ATOM     37  C   UNL A   1      37.797  28.902  28.490  1.00  0.00     0.010 A 
ATOM     38  C   UNL A   1      38.645  31.083  29.118  1.00  0.00     0.010 A 
ATOM     39  C   UNL A   1      38.827  29.712  28.960  1.00  0.00    -0.014 A 
BRANCH  39  40
ATOM     40  C   UNL A   1      40.116  29.088  29.210  1.00  0.00     0.031 A 
ATOM     41  C   UNL A   1      40.418  28.836  30.650  1.00  0.00     0.074 A 
ATOM     42  C   UNL A   1      40.893  28.681  28.189  1.00  0.00     0.049 A 
ATOM     43  N   UNL A   1      41.464  29.184  31.329  1.00  0.00    -0.248 NA
ATOM     44  C   UNL A   1      39.360  28.210  31.465  1.00  0.00     0.031 C 
ATOM     45  C   UNL A   1      40.579  28.685  26.756  1.00  0.00     0.029 A 
ATOM     46  N   UNL A   1      42.103  28.065  28.228  1.00  0.00    -0.354 N 
ATOM     47  C   UNL A   1      41.265  28.690  32.618  1.00  0.00     0.074 A 
ATOM     48  C   UNL A   1      39.909  28.212  32.678  1.00  0.00     0.031 C 
ATOM     49  C   UNL A   1      41.450  27.880  26.108  1.00  0.00     0.029 A 
ATOM     50  C   UNL A   1      42.442  27.407  27.054  1.00  0.00     0.049 A 
ATOM     51  H   UNL A   1      42.687  28.084  29.020  1.00  0.00     0.167 HD
ATOM     52  C   UNL A   1      42.288  28.534  33.502  1.00  0.00     0.037 A 
ATOM     53  C   UNL A   1      43.408  26.464  26.922  1.00  0.00     0.037 A 
ATOM     54  C   UNL A   1      43.429  29.329  33.148  1.00  0.00     0.049 A 
ATOM     55  C   UNL A   1      44.314  26.596  28.094  1.00  0.00     0.074 A 
ATOM     56  C   UNL A   1      43.659  30.687  33.064  1.00  0.00     0.029 A 
ATOM     57  N   UNL A   1      44.455  28.730  32.462  1.00  0.00    -0.354 N 
ATOM     58  N   UNL A   1      45.106  27.617  28.283  1.00  0.00    -0.248 NA
ATOM     59  C   UNL A   1      43.989  25.828  29.290  1.00  0.00     0.031 C 
ATOM     60  C   UNL A   1      44.509  30.846  31.932  1.00  0.00     0.029 A 
ATOM     61  C   UNL A   1      44.795  29.575  31.435  1.00  0.00     0.049 A 
ATOM     62  H   UNL A   1      44.869  27.860  32.666  1.00  0.00     0.167 HD
ATOM     63  C   UNL A   1      45.042  27.867  29.646  1.00  0.00     0.074 A 
ATOM     64  C   UNL A   1      44.397  26.690  30.225  1.00  0.00     0.031 C 
ATOM     65  C   UNL A   1      45.247  29.122  30.142  1.00  0.00     0.037 A 
BRANCH  52  66
ATOM     66  C   UNL A   1      42.350  27.430  34.521  1.00  0.00     0.064 A 
ATOM     67  C   UNL A   1      42.841  26.161  34.164  1.00  0.00     0.173 A 
ATOM     68  C   UNL A   1      41.681  27.503  35.762  1.00  0.00     0.173 A 
ATOM     69  F   UNL A   1      43.459  25.975  32.987  1.00  0.00    -0.203 F 
ATOM     70  C   UNL A   1      42.640  25.041  34.974  1.00  0.00     0.198 A 
ATOM     71  C   UNL A   1      41.528  26.396  36.592  1.00  0.00     0.198 A 
ATOM     72  F   UNL A   1      41.060  28.620  36.164  1.00  0.00    -0.203 F 
ATOM     73  F   UNL A   1      43.031  23.832  34.550  1.00  0.00    -0.200 F 
ATOM     74  C   UNL A   1      41.983  25.160  36.187  1.00  0.00     0.200 A 
ATOM     75  F   UNL A   1      40.869  26.528  37.751  1.00  0.00    -0.200 F 
ATOM     76  F   UNL A   1      41.745  24.078  36.942  1.00  0.00    -0.200 F 
ENDBRANCH  52  66
BRANCH  53  77
ATOM     77  C   UNL A   1      43.396  25.262  26.052  1.00  0.00     0.064 A 
ATOM     78  C   UNL A   1      44.490  24.954  25.227  1.00  0.00     0.173 A 
ATOM     79  C   UNL A   1      42.426  24.248  26.201  1.00  0.00     0.173 A 
ATOM     80  F   UNL A   1      45.483  25.841  25.065  1.00  0.00    -0.203 F 
ATOM     81  C   UNL A   1      44.618  23.704  24.611  1.00  0.00     0.198 A 
ATOM     82  C   UNL A   1      42.549  23.007  25.577  1.00  0.00     0.198 A 
ATOM     83  F   UNL A   1      41.386  24.404  27.031  1.00  0.00    -0.203 F 
ATOM     84  F   UNL A   1      45.708  23.426  23.881  1.00  0.00    -0.200 F 
ATOM     85  C   UNL A   1      43.651  22.729  24.792  1.00  0.00     0.200 A 
ATOM     86  F   UNL A   1      41.622  22.062  25.791  1.00  0.00    -0.200 F 
ATOM     87  F   UNL A   1      43.801  21.512  24.251  1.00  0.00    -0.200 F 
ENDBRANCH  53  77
BRANCH  65  88
ATOM     88  C   UNL A   1      45.735  30.180  29.193  1.00  0.00     0.064 A 
ATOM     89  C   UNL A   1      47.092  30.371  28.877  1.00  0.00     0.173 A 
ATOM     90  C   UNL A   1      44.793  30.897  28.445  1.00  0.00     0.173 A 
ATOM     91  F   UNL A   1      48.046  29.643  29.470  1.00  0.00    -0.203 F 
ATOM     92  C   UNL A   1      47.487  31.265  27.884  1.00  0.00     0.198 A 
ATOM     93  C   UNL A   1      45.189  31.762  27.428  1.00  0.00     0.198 A 
ATOM     94  F   UNL A   1      43.482  30.708  28.658  1.00  0.00    -0.203 F 
ATOM     95  F   UNL A   1      48.789  31.427  27.605  1.00  0.00    -0.200 F 
ATOM     96  C   UNL A   1      46.533  31.953  27.154  1.00  0.00     0.200 A 
ATOM     97  F   UNL A   1      44.261  32.383  26.685  1.00  0.00    -0.200 F 
ATOM     98  F   UNL A   1      46.909  32.773  26.162  1.00  0.00    -0.200 F 
ENDBRANCH  65  88
ENDBRANCH  39  40
ENDBRANCH  31  34
ENDBRANCH  29  30
ENDBRANCH   1  29
TORSDOF 11
ENDMDL
MODEL 3
REMARK VINA RESULT:     -13.9      3.076      8.005
REMARK SMILES O=C(C[C@]12CSc3[nH]c(=O)sc3[C@H]1c1cc(Cl)ccc1OC2=O)NCCCNC(=O)c1ccc(-c2c3nc(c(-c4c(F)c(F)c(F)c(F)c4F)c4ccc([nH]4)c(-c4c(F)c(F)c(F)c(F)c4F)c4nc(c(-c5c(F)c(F)c(F)c(F)c5F)c5ccc2[nH]5)C=C4)C=C3)cc1
REMARK SMILES IDX 26 1 25 2 24 3 1 4 2 5 3 7 4 8 5 9 13 10 22 11 6 12 12 13
REMARK SMILES IDX 14 14 21 15 23 16 7 17 11 18 15 19 20 20 8 21 9 22 16 23
REMARK SMILES IDX 19 24 10 26 17 27 18 28 27 29 28 30 29 31 30 33 31 34 32 35
REMARK SMILES IDX 93 36 33 37 92 38 34 39 35 40 36 41 86 42 37 43 91 44 85 45
REMARK SMILES IDX 87 46 38 47 90 48 84 49 83 50 39 52 71 53 51 54 70 55 52 56
REMARK SMILES IDX 55 57 69 58 88 59 53 60 54 61 68 63 89 64 56 65 40 66 41 67
REMARK SMILES IDX 49 68 42 69 43 70 47 71 50 72 44 73 45 74 48 75 46 76 72 77
REMARK SMILES IDX 73 78 81 79 74 80 75 81 79 82 82 83 76 84 77 85 80 86 78 87
REMARK SMILES IDX 57 88 58 89 66 90 59 91 60 92 64 93 67 94 61 95 62 96 65 97
REMARK SMILES IDX 63 98
REMARK H PARENT 24 6 8 25 28 32 87 51 55 62
REMARK Flexibility Score: inf
ROOT
ATOM      1  C   UNL A   1      38.663  23.391  26.460  1.00  0.00     0.042 C 
ENDROOT
BRANCH   1   2
ATOM      2  C   UNL A   1      37.364  23.065  25.734  1.00  0.00     0.117 C 
BRANCH   2   3
ATOM      3  N   UNL A   1      36.273  24.021  26.006  1.00  0.00    -0.356 N 
ATOM      4  O   UNL A   1      35.310  23.973  23.949  1.00  0.00    -0.275 OA
ATOM      5  C   UNL A   1      35.204  24.218  25.148  1.00  0.00     0.221 C 
ATOM      6  H   UNL A   1      36.308  24.545  26.839  1.00  0.00     0.163 HD
BRANCH   5   7
ATOM      7  C   UNL A   1      33.832  24.729  25.755  1.00  0.00     0.120 C 
BRANCH   7   8
ATOM      8  C   UNL A   1      32.730  23.659  26.170  1.00  0.00     0.098 C 
ATOM      9  C   UNL A   1      33.215  23.149  27.550  1.00  0.00     0.097 C 
ATOM     10  C   UNL A   1      32.481  22.829  24.878  1.00  0.00     0.085 C 
ATOM     11  C   UNL A   1      31.192  23.728  26.539  1.00  0.00     0.319 C 
ATOM     12  S   UNL A   1      34.114  21.633  27.428  1.00  0.00    -0.106 SA
ATOM     13  C   UNL A   1      32.452  21.349  25.215  1.00  0.00     0.049 A 
ATOM     14  C   UNL A   1      31.671  23.884  23.981  1.00  0.00     0.006 A 
ATOM     15  O   UNL A   1      30.395  24.627  25.936  1.00  0.00    -0.426 OA
ATOM     16  O   UNL A   1      30.635  22.862  27.221  1.00  0.00    -0.251 OA
ATOM     17  C   UNL A   1      33.161  20.835  26.254  1.00  0.00     0.090 A 
ATOM     18  S   UNL A   1      32.180  20.056  24.053  1.00  0.00    -0.077 S 
ATOM     19  C   UNL A   1      32.291  24.438  22.829  1.00  0.00     0.028 A 
ATOM     20  C   UNL A   1      30.808  24.800  24.634  1.00  0.00     0.134 A 
ATOM     21  N   UNL A   1      33.425  19.508  26.200  1.00  0.00    -0.307 N 
ATOM     22  C   UNL A   1      33.062  18.882  25.060  1.00  0.00     0.305 A 
ATOM     23  C   UNL A   1      32.148  25.815  22.498  1.00  0.00     0.041 A 
ATOM     24  C   UNL A   1      30.533  26.111  24.215  1.00  0.00     0.049 A 
ATOM     25  H   UNL A   1      33.854  19.028  26.946  1.00  0.00     0.171 HD
ATOM     26  O   UNL A   1      33.356  17.726  24.740  1.00  0.00    -0.257 OA
ATOM     27  Cl  UNL A   1      33.209  26.550  21.353  1.00  0.00    -0.084 Cl
ATOM     28  C   UNL A   1      31.272  26.648  23.187  1.00  0.00     0.024 A 
ENDBRANCH   7   8
ENDBRANCH   5   7
ENDBRANCH   2   3
ENDBRANCH   1   2
BRANCH   1  29
ATOM     29  C   UNL A   1      39.543  22.160  26.656  1.00  0.00     0.118 C 
BRANCH  29  30
ATOM     30  N   UNL A   1      40.713  22.121  25.799  1.00  0.00    -0.352 N 
ATOM     31  C   UNL A   1      41.907  22.786  25.808  1.00  0.00     0.251 C 
ATOM     32  H   UNL A   1      40.630  21.480  25.056  1.00  0.00     0.163 HD
ATOM     33  O   UNL A   1      42.813  22.298  25.128  1.00  0.00    -0.269 OA
BRANCH  31  34
ATOM     34  C   UNL A   1      42.137  24.087  26.484  1.00  0.00     0.039 A 
ATOM     35  C   UNL A   1      42.689  24.249  27.757  1.00  0.00     0.014 A 
ATOM     36  C   UNL A   1      41.645  25.218  25.807  1.00  0.00     0.014 A 
ATOM     37  C   UNL A   1      42.616  25.471  28.401  1.00  0.00     0.010 A 
ATOM     38  C   UNL A   1      41.593  26.451  26.436  1.00  0.00     0.010 A 
ATOM     39  C   UNL A   1      42.015  26.549  27.758  1.00  0.00    -0.014 A 
BRANCH  39  40
ATOM     40  C   UNL A   1      41.907  27.798  28.493  1.00  0.00     0.031 A 
ATOM     41  C   UNL A   1      43.011  28.770  28.239  1.00  0.00     0.074 A 
ATOM     42  C   UNL A   1      40.820  28.063  29.244  1.00  0.00     0.049 A 
ATOM     43  N   UNL A   1      43.771  29.372  29.097  1.00  0.00    -0.248 NA
ATOM     44  C   UNL A   1      43.389  29.014  26.835  1.00  0.00     0.031 C 
ATOM     45  C   UNL A   1      39.595  27.268  29.372  1.00  0.00     0.029 A 
ATOM     46  N   UNL A   1      40.535  29.173  29.973  1.00  0.00    -0.354 N 
ATOM     47  C   UNL A   1      44.622  30.186  28.350  1.00  0.00     0.074 A 
ATOM     48  C   UNL A   1      44.429  29.834  26.968  1.00  0.00     0.031 C 
ATOM     49  C   UNL A   1      38.623  28.034  29.917  1.00  0.00     0.029 A 
ATOM     50  C   UNL A   1      39.189  29.319  30.280  1.00  0.00     0.049 A 
ATOM     51  H   UNL A   1      41.223  29.816  30.260  1.00  0.00     0.167 HD
ATOM     52  C   UNL A   1      45.298  31.230  28.901  1.00  0.00     0.037 A 
ATOM     53  C   UNL A   1      38.590  30.461  30.700  1.00  0.00     0.037 A 
ATOM     54  C   UNL A   1      45.402  31.109  30.327  1.00  0.00     0.049 A 
ATOM     55  C   UNL A   1      39.661  31.359  31.206  1.00  0.00     0.074 A 
ATOM     56  C   UNL A   1      46.028  30.212  31.167  1.00  0.00     0.029 A 
ATOM     57  N   UNL A   1      44.504  31.792  31.108  1.00  0.00    -0.354 N 
ATOM     58  N   UNL A   1      40.347  31.125  32.292  1.00  0.00    -0.248 NA
ATOM     59  C   UNL A   1      40.292  32.263  30.252  1.00  0.00     0.031 C 
ATOM     60  C   UNL A   1      45.139  30.057  32.268  1.00  0.00     0.029 A 
ATOM     61  C   UNL A   1      44.058  30.913  32.064  1.00  0.00     0.049 A 
ATOM     62  H   UNL A   1      44.231  32.732  31.004  1.00  0.00     0.167 HD
ATOM     63  C   UNL A   1      41.645  31.503  31.979  1.00  0.00     0.074 A 
ATOM     64  C   UNL A   1      41.537  32.264  30.736  1.00  0.00     0.031 C 
ATOM     65  C   UNL A   1      42.715  30.920  32.592  1.00  0.00     0.037 A 
BRANCH  52  66
ATOM     66  C   UNL A   1      45.603  32.507  28.168  1.00  0.00     0.064 A 
ATOM     67  C   UNL A   1      44.573  33.417  27.869  1.00  0.00     0.173 A 
ATOM     68  C   UNL A   1      46.832  32.730  27.508  1.00  0.00     0.173 A 
ATOM     69  F   UNL A   1      43.355  33.273  28.414  1.00  0.00    -0.203 F 
ATOM     70  C   UNL A   1      44.752  34.450  26.944  1.00  0.00     0.198 A 
ATOM     71  C   UNL A   1      47.022  33.790  26.627  1.00  0.00     0.198 A 
ATOM     72  F   UNL A   1      47.853  31.868  27.610  1.00  0.00    -0.203 F 
ATOM     73  F   UNL A   1      43.715  35.230  26.608  1.00  0.00    -0.200 F 
ATOM     74  C   UNL A   1      45.975  34.634  26.324  1.00  0.00     0.200 A 
ATOM     75  F   UNL A   1      48.207  33.937  26.021  1.00  0.00    -0.200 F 
ATOM     76  F   UNL A   1      46.133  35.592  25.400  1.00  0.00    -0.200 F 
ENDBRANCH  52  66
BRANCH  53  77
ATOM     77  C   UNL A   1      37.225  30.946  30.377  1.00  0.00     0.064 A 
ATOM     78  C   UNL A   1      36.368  31.422  31.383  1.00  0.00     0.173 A 
ATOM     79  C   UNL A   1      36.823  31.199  29.049  1.00  0.00     0.173 A 
ATOM     80  F   UNL A   1      36.694  31.267  32.675  1.00  0.00    -0.203 F 
ATOM     81  C   UNL A   1      35.198  32.126  31.080  1.00  0.00     0.198 A 
ATOM     82  C   UNL A   1      35.650  31.891  28.748  1.00  0.00     0.198 A 
ATOM     83  F   UNL A   1      37.606  30.864  28.015  1.00  0.00    -0.203 F 
ATOM     84  F   UNL A   1      34.438  32.619  32.070  1.00  0.00    -0.200 F 
ATOM     85  C   UNL A   1      34.843  32.367  29.763  1.00  0.00     0.200 A 
ATOM     86  F   UNL A   1      35.340  32.146  27.469  1.00  0.00    -0.200 F 
ATOM     87  F   UNL A   1      33.755  33.092  29.473  1.00  0.00    -0.200 F 
ENDBRANCH  53  77
BRANCH  65  88
ATOM     88  C   UNL A   1      42.446  30.001  33.750  1.00  0.00     0.064 A 
ATOM     89  C   UNL A   1      42.145  28.635  33.603  1.00  0.00     0.173 A 
ATOM     90  C   UNL A   1      42.678  30.472  35.048  1.00  0.00     0.173 A 
ATOM     91  F   UNL A   1      42.018  28.086  32.389  1.00  0.00    -0.203 F 
ATOM     92  C   UNL A   1      42.046  27.790  34.706  1.00  0.00     0.198 A 
ATOM     93  C   UNL A   1      42.615  29.618  36.147  1.00  0.00     0.198 A 
ATOM     94  F   UNL A   1      43.032  31.751  35.246  1.00  0.00    -0.203 F 
ATOM     95  F   UNL A   1      41.757  26.491  34.534  1.00  0.00    -0.200 F 
ATOM     96  C   UNL A   1      42.291  28.281  35.977  1.00  0.00     0.200 A 
ATOM     97  F   UNL A   1      42.908  30.083  37.369  1.00  0.00    -0.200 F 
ATOM     98  F   UNL A   1      42.248  27.459  37.034  1.00  0.00    -0.200 F 
ENDBRANCH  65  88
ENDBRANCH  39  40
ENDBRANCH  31  34
ENDBRANCH  29  30
ENDBRANCH   1  29
TORSDOF 11
ENDMDL
