MODEL 1
REMARK VINA RESULT:     -13.0      0.000      0.000
REMARK SMILES CCCC1CN(c2cc(C(=O)NCCCNC(=O)c3ccc(-c4c5nc(c(-c6c(F)c(F)c(F)c(F)c6F)c6ccc([nH]6)c(-c6c(F)c(F)c(F)c(F)c6F)c6nc(c(-c7c(F)c(F)c(F)c(F)c7F)c7ccc4[nH]7)C=C6)C=C5)cc3)ccc2C)C1
REMARK SMILES IDX 13 1 12 2 10 3 11 4 9 6 7 7 8 8 84 9 83 10 85 11 82 12 6 13
REMARK SMILES IDX 4 14 5 15 86 16 3 17 2 18 1 19 14 20 15 21 16 22 17 23 18 25
REMARK SMILES IDX 19 26 20 27 81 28 21 29 80 30 22 31 23 32 24 33 74 34 25 35
REMARK SMILES IDX 79 36 73 37 75 38 26 39 78 40 72 41 71 42 27 44 59 45 39 46
REMARK SMILES IDX 58 47 40 48 43 49 57 50 76 51 41 52 42 53 56 55 77 56 44 57
REMARK SMILES IDX 28 58 29 59 37 60 30 61 31 62 35 63 38 64 32 65 33 66 36 67
REMARK SMILES IDX 34 68 60 69 61 70 69 71 62 72 63 73 67 74 70 75 64 76 65 77
REMARK SMILES IDX 68 78 66 79 45 80 46 81 54 82 47 83 48 84 52 85 55 86 49 87
REMARK SMILES IDX 50 88 53 89 51 90
REMARK H PARENT 12 5 16 24 75 43 43 54
REMARK Flexibility Score: inf
ROOT
ATOM      1  C   UNL A   1      32.213  30.291  25.888  1.00  0.00     0.118 C 
ENDROOT
BRANCH   1   2
ATOM      2  N   UNL A   1      33.107  29.666  24.922  1.00  0.00    -0.352 N 
ATOM      3  C   UNL A   1      33.300  28.369  24.506  1.00  0.00     0.251 C 
ATOM      4  O   UNL A   1      34.124  28.213  23.601  1.00  0.00    -0.269 OA
ATOM      5  H   UNL A   1      33.698  30.310  24.471  1.00  0.00     0.163 HD
BRANCH   3   6
ATOM      6  C   UNL A   1      32.604  27.163  25.058  1.00  0.00     0.041 A 
ATOM      7  C   UNL A   1      32.474  24.802  25.740  1.00  0.00     0.040 A 
ATOM      8  C   UNL A   1      33.184  25.909  25.242  1.00  0.00     0.040 A 
ATOM      9  C   UNL A   1      31.117  24.958  26.061  1.00  0.00    -0.028 A 
ATOM     10  C   UNL A   1      30.514  26.213  25.880  1.00  0.00     0.006 A 
ATOM     11  C   UNL A   1      30.282  23.847  26.634  1.00  0.00     0.046 C 
ATOM     12  C   UNL A   1      31.248  27.298  25.387  1.00  0.00     0.014 A 
BRANCH   7  13
ATOM     13  N   UNL A   1      33.131  23.564  25.910  1.00  0.00    -0.371 N 
ATOM     14  C   UNL A   1      34.778  22.456  25.281  1.00  0.00     0.028 C 
ATOM     15  C   UNL A   1      33.299  22.575  24.879  1.00  0.00     0.122 C 
ATOM     16  C   UNL A   1      34.418  23.318  26.494  1.00  0.00     0.122 C 
BRANCH  14  17
ATOM     17  C   UNL A   1      35.324  21.076  25.627  1.00  0.00     0.007 C 
BRANCH  17  18
ATOM     18  C   UNL A   1      36.659  20.800  24.938  1.00  0.00    -0.003 C 
ATOM     19  C   UNL A   1      37.349  22.071  24.458  1.00  0.00     0.004 C 
ENDBRANCH  17  18
ENDBRANCH  14  17
ENDBRANCH   7  13
ENDBRANCH   3   6
ENDBRANCH   1   2
BRANCH   1  20
ATOM     20  C   UNL A   1      32.775  30.235  27.313  1.00  0.00     0.042 C 
BRANCH  20  21
ATOM     21  C   UNL A   1      34.293  30.297  27.373  1.00  0.00     0.118 C 
BRANCH  21  22
ATOM     22  N   UNL A   1      34.807  31.175  28.425  1.00  0.00    -0.352 N 
ATOM     23  C   UNL A   1      35.950  31.006  29.194  1.00  0.00     0.251 C 
ATOM     24  H   UNL A   1      34.278  31.983  28.610  1.00  0.00     0.163 HD
ATOM     25  O   UNL A   1      36.271  31.809  30.047  1.00  0.00    -0.269 OA
BRANCH  23  26
ATOM     26  C   UNL A   1      36.828  29.865  28.856  1.00  0.00     0.039 A 
ATOM     27  C   UNL A   1      37.081  28.927  29.860  1.00  0.00     0.014 A 
ATOM     28  C   UNL A   1      37.616  29.932  27.708  1.00  0.00     0.014 A 
ATOM     29  C   UNL A   1      38.284  28.230  29.833  1.00  0.00     0.010 A 
ATOM     30  C   UNL A   1      38.846  29.304  27.726  1.00  0.00     0.010 A 
ATOM     31  C   UNL A   1      39.211  28.523  28.829  1.00  0.00    -0.014 A 
BRANCH  31  32
ATOM     32  C   UNL A   1      40.627  28.199  28.965  1.00  0.00     0.031 A 
ATOM     33  C   UNL A   1      41.182  26.953  28.406  1.00  0.00     0.074 A 
ATOM     34  C   UNL A   1      41.454  29.085  29.566  1.00  0.00     0.049 A 
ATOM     35  N   UNL A   1      42.236  26.358  28.858  1.00  0.00    -0.248 NA
ATOM     36  C   UNL A   1      40.549  26.244  27.304  1.00  0.00     0.031 C 
ATOM     37  C   UNL A   1      42.914  29.066  29.581  1.00  0.00     0.029 A 
ATOM     38  N   UNL A   1      41.109  30.101  30.476  1.00  0.00    -0.354 N 
ATOM     39  C   UNL A   1      42.586  25.381  27.954  1.00  0.00     0.074 A 
ATOM     40  C   UNL A   1      41.458  25.296  27.055  1.00  0.00     0.031 C 
ATOM     41  C   UNL A   1      43.344  29.770  30.639  1.00  0.00     0.029 A 
ATOM     42  C   UNL A   1      42.172  30.147  31.408  1.00  0.00     0.049 A 
ATOM     43  H   UNL A   1      40.301  30.661  30.468  1.00  0.00     0.167 HD
ATOM     44  C   UNL A   1      43.853  24.867  27.987  1.00  0.00     0.037 A 
ATOM     45  C   UNL A   1      41.984  29.878  32.731  1.00  0.00     0.037 A 
ATOM     46  C   UNL A   1      44.615  25.405  29.115  1.00  0.00     0.049 A 
ATOM     47  C   UNL A   1      42.843  28.754  33.259  1.00  0.00     0.074 A 
ATOM     48  C   UNL A   1      45.576  26.400  29.206  1.00  0.00     0.029 A 
ATOM     49  N   UNL A   1      44.224  25.119  30.421  1.00  0.00    -0.354 N 
ATOM     50  N   UNL A   1      43.394  27.848  32.502  1.00  0.00    -0.248 NA
ATOM     51  C   UNL A   1      43.103  28.535  34.678  1.00  0.00     0.031 C 
ATOM     52  C   UNL A   1      45.745  26.729  30.572  1.00  0.00     0.029 A 
ATOM     53  C   UNL A   1      44.893  25.932  31.315  1.00  0.00     0.049 A 
ATOM     54  H   UNL A   1      43.565  24.432  30.671  1.00  0.00     0.167 HD
ATOM     55  C   UNL A   1      44.040  26.928  33.290  1.00  0.00     0.074 A 
ATOM     56  C   UNL A   1      43.849  27.417  34.642  1.00  0.00     0.031 C 
ATOM     57  C   UNL A   1      44.660  25.838  32.749  1.00  0.00     0.037 A 
BRANCH  44  58
ATOM     58  C   UNL A   1      44.505  24.142  26.819  1.00  0.00     0.064 A 
ATOM     59  C   UNL A   1      44.255  22.770  26.585  1.00  0.00     0.173 A 
ATOM     60  C   UNL A   1      45.444  24.712  25.942  1.00  0.00     0.173 A 
ATOM     61  F   UNL A   1      43.278  22.114  27.222  1.00  0.00    -0.203 F 
ATOM     62  C   UNL A   1      44.998  22.010  25.675  1.00  0.00     0.198 A 
ATOM     63  C   UNL A   1      46.227  23.946  25.070  1.00  0.00     0.198 A 
ATOM     64  F   UNL A   1      45.590  26.038  25.843  1.00  0.00    -0.203 F 
ATOM     65  F   UNL A   1      44.725  20.707  25.519  1.00  0.00    -0.200 F 
ATOM     66  C   UNL A   1      46.017  22.588  24.951  1.00  0.00     0.200 A 
ATOM     67  F   UNL A   1      47.184  24.539  24.342  1.00  0.00    -0.200 F 
ATOM     68  F   UNL A   1      46.766  21.853  24.118  1.00  0.00    -0.200 F 
ENDBRANCH  44  58
BRANCH  45  69
ATOM     69  C   UNL A   1      40.618  30.194  33.219  1.00  0.00     0.064 A 
ATOM     70  C   UNL A   1      40.254  31.546  33.372  1.00  0.00     0.173 A 
ATOM     71  C   UNL A   1      39.590  29.245  33.195  1.00  0.00     0.173 A 
ATOM     72  F   UNL A   1      41.200  32.497  33.390  1.00  0.00    -0.203 F 
ATOM     73  C   UNL A   1      38.918  31.939  33.388  1.00  0.00     0.198 A 
ATOM     74  C   UNL A   1      38.252  29.642  33.227  1.00  0.00     0.198 A 
ATOM     75  F   UNL A   1      39.869  27.945  33.029  1.00  0.00    -0.203 F 
ATOM     76  F   UNL A   1      38.605  33.243  33.416  1.00  0.00    -0.200 F 
ATOM     77  C   UNL A   1      37.918  30.988  33.292  1.00  0.00     0.200 A 
ATOM     78  F   UNL A   1      37.281  28.726  33.098  1.00  0.00    -0.200 F 
ATOM     79  F   UNL A   1      36.635  31.369  33.214  1.00  0.00    -0.200 F 
ENDBRANCH  45  69
BRANCH  57  80
ATOM     80  C   UNL A   1      45.201  24.644  33.503  1.00  0.00     0.064 A 
ATOM     81  C   UNL A   1      44.485  23.454  33.718  1.00  0.00     0.173 A 
ATOM     82  C   UNL A   1      46.553  24.619  33.929  1.00  0.00     0.173 A 
ATOM     83  F   UNL A   1      43.242  23.291  33.251  1.00  0.00    -0.203 F 
ATOM     84  C   UNL A   1      45.052  22.354  34.372  1.00  0.00     0.198 A 
ATOM     85  C   UNL A   1      47.133  23.499  34.526  1.00  0.00     0.198 A 
ATOM     86  F   UNL A   1      47.365  25.672  33.752  1.00  0.00    -0.203 F 
ATOM     87  F   UNL A   1      44.311  21.259  34.591  1.00  0.00    -0.200 F 
ATOM     88  C   UNL A   1      46.377  22.372  34.765  1.00  0.00     0.200 A 
ATOM     89  F   UNL A   1      48.434  23.515  34.850  1.00  0.00    -0.200 F 
ATOM     90  F   UNL A   1      46.927  21.299  35.349  1.00  0.00    -0.200 F 
ENDBRANCH  57  80
ENDBRANCH  31  32
ENDBRANCH  23  26
ENDBRANCH  21  22
ENDBRANCH  20  21
ENDBRANCH   1  20
TORSDOF 13
ENDMDL
MODEL 2
REMARK VINA RESULT:     -12.9      3.793     10.173
REMARK SMILES CCCC1CN(c2cc(C(=O)NCCCNC(=O)c3ccc(-c4c5nc(c(-c6c(F)c(F)c(F)c(F)c6F)c6ccc([nH]6)c(-c6c(F)c(F)c(F)c(F)c6F)c6nc(c(-c7c(F)c(F)c(F)c(F)c7F)c7ccc4[nH]7)C=C6)C=C5)cc3)ccc2C)C1
REMARK SMILES IDX 13 1 12 2 10 3 11 4 9 6 7 7 8 8 84 9 83 10 85 11 82 12 6 13
REMARK SMILES IDX 4 14 5 15 86 16 3 17 2 18 1 19 14 20 15 21 16 22 17 23 18 25
REMARK SMILES IDX 19 26 20 27 81 28 21 29 80 30 22 31 23 32 24 33 74 34 25 35
REMARK SMILES IDX 79 36 73 37 75 38 26 39 78 40 72 41 71 42 27 44 59 45 39 46
REMARK SMILES IDX 58 47 40 48 43 49 57 50 76 51 41 52 42 53 56 55 77 56 44 57
REMARK SMILES IDX 28 58 29 59 37 60 30 61 31 62 35 63 38 64 32 65 33 66 36 67
REMARK SMILES IDX 34 68 60 69 61 70 69 71 62 72 63 73 67 74 70 75 64 76 65 77
REMARK SMILES IDX 68 78 66 79 45 80 46 81 54 82 47 83 48 84 52 85 55 86 49 87
REMARK SMILES IDX 50 88 53 89 51 90
REMARK H PARENT 12 5 16 24 75 43 43 54
REMARK Flexibility Score: inf
ROOT
ATOM      1  C   UNL A   1      36.103  21.984  24.783  1.00  0.00     0.118 C 
ENDROOT
BRANCH   1   2
ATOM      2  N   UNL A   1      35.429  21.636  26.026  1.00  0.00    -0.352 N 
ATOM      3  C   UNL A   1      34.222  21.989  26.583  1.00  0.00     0.251 C 
ATOM      4  O   UNL A   1      33.943  21.439  27.653  1.00  0.00    -0.269 OA
ATOM      5  H   UNL A   1      35.947  21.016  26.586  1.00  0.00     0.163 HD
BRANCH   3   6
ATOM      6  C   UNL A   1      33.247  22.969  26.006  1.00  0.00     0.041 A 
ATOM      7  C   UNL A   1      32.410  25.232  25.519  1.00  0.00     0.040 A 
ATOM      8  C   UNL A   1      33.372  24.357  26.056  1.00  0.00     0.040 A 
ATOM      9  C   UNL A   1      31.267  24.690  24.912  1.00  0.00    -0.028 A 
ATOM     10  C   UNL A   1      31.123  23.295  24.855  1.00  0.00     0.006 A 
ATOM     11  C   UNL A   1      30.201  25.539  24.277  1.00  0.00     0.046 C 
ATOM     12  C   UNL A   1      32.099  22.449  25.394  1.00  0.00     0.014 A 
BRANCH   7  13
ATOM     13  N   UNL A   1      32.609  26.628  25.597  1.00  0.00    -0.371 N 
ATOM     14  C   UNL A   1      33.680  28.101  26.607  1.00  0.00     0.028 C 
ATOM     15  C   UNL A   1      32.298  27.439  26.744  1.00  0.00     0.122 C 
ATOM     16  C   UNL A   1      33.787  27.374  25.263  1.00  0.00     0.122 C 
BRANCH  14  17
ATOM     17  C   UNL A   1      33.745  29.620  26.509  1.00  0.00     0.007 C 
BRANCH  17  18
ATOM     18  C   UNL A   1      34.631  30.225  27.597  1.00  0.00    -0.003 C 
ATOM     19  C   UNL A   1      34.263  31.668  27.922  1.00  0.00     0.004 C 
ENDBRANCH  17  18
ENDBRANCH  14  17
ENDBRANCH   7  13
ENDBRANCH   3   6
ENDBRANCH   1   2
BRANCH   1  20
ATOM     20  C   UNL A   1      37.629  21.967  24.931  1.00  0.00     0.042 C 
BRANCH  20  21
ATOM     21  C   UNL A   1      38.168  23.080  25.815  1.00  0.00     0.118 C 
BRANCH  21  22
ATOM     22  N   UNL A   1      39.576  22.915  26.180  1.00  0.00    -0.352 N 
ATOM     23  C   UNL A   1      40.420  23.846  26.767  1.00  0.00     0.251 C 
ATOM     24  H   UNL A   1      39.972  22.036  25.984  1.00  0.00     0.163 HD
ATOM     25  O   UNL A   1      41.581  23.589  27.018  1.00  0.00    -0.269 OA
BRANCH  23  26
ATOM     26  C   UNL A   1      39.820  25.133  27.181  1.00  0.00     0.039 A 
ATOM     27  C   UNL A   1      40.219  26.281  26.492  1.00  0.00     0.014 A 
ATOM     28  C   UNL A   1      39.166  25.212  28.409  1.00  0.00     0.014 A 
ATOM     29  C   UNL A   1      40.195  27.501  27.159  1.00  0.00     0.010 A 
ATOM     30  C   UNL A   1      39.222  26.408  29.100  1.00  0.00     0.010 A 
ATOM     31  C   UNL A   1      39.814  27.528  28.503  1.00  0.00    -0.014 A 
BRANCH  31  32
ATOM     32  C   UNL A   1      40.177  28.629  29.389  1.00  0.00     0.031 A 
ATOM     33  C   UNL A   1      39.215  29.700  29.705  1.00  0.00     0.074 A 
ATOM     34  C   UNL A   1      41.397  28.635  29.971  1.00  0.00     0.049 A 
ATOM     35  N   UNL A   1      39.550  30.900  30.049  1.00  0.00    -0.248 NA
ATOM     36  C   UNL A   1      37.775  29.509  29.611  1.00  0.00     0.031 C 
ATOM     37  C   UNL A   1      41.855  29.494  31.061  1.00  0.00     0.029 A 
ATOM     38  N   UNL A   1      42.560  27.972  29.538  1.00  0.00    -0.354 N 
ATOM     39  C   UNL A   1      38.415  31.540  30.496  1.00  0.00     0.074 A 
ATOM     40  C   UNL A   1      37.331  30.662  30.121  1.00  0.00     0.031 C 
ATOM     41  C   UNL A   1      43.195  29.558  31.025  1.00  0.00     0.029 A 
ATOM     42  C   UNL A   1      43.626  28.852  29.833  1.00  0.00     0.049 A 
ATOM     43  H   UNL A   1      42.619  27.083  29.119  1.00  0.00     0.167 HD
ATOM     44  C   UNL A   1      38.544  32.665  31.263  1.00  0.00     0.037 A 
ATOM     45  C   UNL A   1      44.419  29.377  28.856  1.00  0.00     0.037 A 
ATOM     46  C   UNL A   1      39.947  33.067  31.384  1.00  0.00     0.049 A 
ATOM     47  C   UNL A   1      44.448  30.886  28.832  1.00  0.00     0.074 A 
ATOM     48  C   UNL A   1      40.884  32.903  32.392  1.00  0.00     0.029 A 
ATOM     49  N   UNL A   1      40.652  33.483  30.258  1.00  0.00    -0.354 N 
ATOM     50  N   UNL A   1      43.529  31.637  29.372  1.00  0.00    -0.248 NA
ATOM     51  C   UNL A   1      45.482  31.663  28.157  1.00  0.00     0.031 C 
ATOM     52  C   UNL A   1      42.162  33.199  31.861  1.00  0.00     0.029 A 
ATOM     53  C   UNL A   1      42.005  33.549  30.532  1.00  0.00     0.049 A 
ATOM     54  H   UNL A   1      40.244  33.701  29.389  1.00  0.00     0.167 HD
ATOM     55  C   UNL A   1      43.805  32.955  29.109  1.00  0.00     0.074 A 
ATOM     56  C   UNL A   1      45.051  32.919  28.367  1.00  0.00     0.031 C 
ATOM     57  C   UNL A   1      42.967  33.953  29.518  1.00  0.00     0.037 A 
BRANCH  44  58
ATOM     58  C   UNL A   1      37.448  33.203  32.171  1.00  0.00     0.064 A 
ATOM     59  C   UNL A   1      36.395  33.990  31.650  1.00  0.00     0.173 A 
ATOM     60  C   UNL A   1      37.415  33.051  33.568  1.00  0.00     0.173 A 
ATOM     61  F   UNL A   1      36.186  34.104  30.333  1.00  0.00    -0.203 F 
ATOM     62  C   UNL A   1      35.501  34.692  32.466  1.00  0.00     0.198 A 
ATOM     63  C   UNL A   1      36.557  33.794  34.389  1.00  0.00     0.198 A 
ATOM     64  F   UNL A   1      38.159  32.128  34.187  1.00  0.00    -0.203 F 
ATOM     65  F   UNL A   1      34.538  35.439  31.907  1.00  0.00    -0.200 F 
ATOM     66  C   UNL A   1      35.612  34.631  33.837  1.00  0.00     0.200 A 
ATOM     67  F   UNL A   1      36.655  33.684  35.722  1.00  0.00    -0.200 F 
ATOM     68  F   UNL A   1      34.791  35.343  34.621  1.00  0.00    -0.200 F 
ENDBRANCH  44  58
BRANCH  45  69
ATOM     69  C   UNL A   1      44.541  28.514  27.655  1.00  0.00     0.064 A 
ATOM     70  C   UNL A   1      45.273  27.315  27.759  1.00  0.00     0.173 A 
ATOM     71  C   UNL A   1      43.690  28.659  26.553  1.00  0.00     0.173 A 
ATOM     72  F   UNL A   1      46.096  27.120  28.801  1.00  0.00    -0.203 F 
ATOM     73  C   UNL A   1      45.078  26.267  26.864  1.00  0.00     0.198 A 
ATOM     74  C   UNL A   1      43.508  27.611  25.649  1.00  0.00     0.198 A 
ATOM     75  F   UNL A   1      42.949  29.766  26.409  1.00  0.00    -0.203 F 
ATOM     76  F   UNL A   1      45.702  25.096  27.059  1.00  0.00    -0.200 F 
ATOM     77  C   UNL A   1      44.177  26.407  25.823  1.00  0.00     0.200 A 
ATOM     78  F   UNL A   1      42.610  27.732  24.661  1.00  0.00    -0.200 F 
ATOM     79  F   UNL A   1      43.918  25.370  25.015  1.00  0.00    -0.200 F 
ENDBRANCH  45  69
BRANCH  57  80
ATOM     80  C   UNL A   1      43.029  35.406  29.103  1.00  0.00     0.064 A 
ATOM     81  C   UNL A   1      42.484  35.912  27.910  1.00  0.00     0.173 A 
ATOM     82  C   UNL A   1      43.541  36.384  29.992  1.00  0.00     0.173 A 
ATOM     83  F   UNL A   1      41.850  35.118  27.038  1.00  0.00    -0.203 F 
ATOM     84  C   UNL A   1      42.515  37.276  27.599  1.00  0.00     0.198 A 
ATOM     85  C   UNL A   1      43.516  37.749  29.706  1.00  0.00     0.198 A 
ATOM     86  F   UNL A   1      44.057  36.047  31.184  1.00  0.00    -0.203 F 
ATOM     87  F   UNL A   1      42.021  37.700  26.427  1.00  0.00    -0.200 F 
ATOM     88  C   UNL A   1      43.020  38.194  28.500  1.00  0.00     0.200 A 
ATOM     89  F   UNL A   1      43.959  38.629  30.616  1.00  0.00    -0.200 F 
ATOM     90  F   UNL A   1      43.005  39.503  28.216  1.00  0.00    -0.200 F 
ENDBRANCH  57  80
ENDBRANCH  31  32
ENDBRANCH  23  26
ENDBRANCH  21  22
ENDBRANCH  20  21
ENDBRANCH   1  20
TORSDOF 13
ENDMDL
MODEL 3
REMARK VINA RESULT:     -12.9      3.960     10.281
REMARK SMILES CCCC1CN(c2cc(C(=O)NCCCNC(=O)c3ccc(-c4c5nc(c(-c6c(F)c(F)c(F)c(F)c6F)c6ccc([nH]6)c(-c6c(F)c(F)c(F)c(F)c6F)c6nc(c(-c7c(F)c(F)c(F)c(F)c7F)c7ccc4[nH]7)C=C6)C=C5)cc3)ccc2C)C1
REMARK SMILES IDX 13 1 12 2 10 3 11 4 9 6 7 7 8 8 84 9 83 10 85 11 82 12 6 13
REMARK SMILES IDX 4 14 5 15 86 16 3 17 2 18 1 19 14 20 15 21 16 22 17 23 18 25
REMARK SMILES IDX 19 26 20 27 81 28 21 29 80 30 22 31 23 32 24 33 74 34 25 35
REMARK SMILES IDX 79 36 73 37 75 38 26 39 78 40 72 41 71 42 27 44 59 45 39 46
REMARK SMILES IDX 58 47 40 48 43 49 57 50 76 51 41 52 42 53 56 55 77 56 44 57
REMARK SMILES IDX 28 58 29 59 37 60 30 61 31 62 35 63 38 64 32 65 33 66 36 67
REMARK SMILES IDX 34 68 60 69 61 70 69 71 62 72 63 73 67 74 70 75 64 76 65 77
REMARK SMILES IDX 68 78 66 79 45 80 46 81 54 82 47 83 48 84 52 85 55 86 49 87
REMARK SMILES IDX 50 88 53 89 51 90
REMARK H PARENT 12 5 16 24 75 43 43 54
REMARK Flexibility Score: inf
ROOT
ATOM      1  C   UNL A   1      37.198  21.231  25.015  1.00  0.00     0.118 C 
ENDROOT
BRANCH   1   2
ATOM      2  N   UNL A   1      36.195  21.235  26.070  1.00  0.00    -0.352 N 
ATOM      3  C   UNL A   1      34.957  21.822  26.203  1.00  0.00     0.251 C 
ATOM      4  O   UNL A   1      34.344  21.551  27.240  1.00  0.00    -0.269 OA
ATOM      5  H   UNL A   1      36.458  20.704  26.856  1.00  0.00     0.163 HD
BRANCH   3   6
ATOM      6  C   UNL A   1      34.318  22.744  25.211  1.00  0.00     0.041 A 
ATOM      7  C   UNL A   1      33.360  24.890  24.483  1.00  0.00     0.040 A 
ATOM      8  C   UNL A   1      33.985  24.077  25.445  1.00  0.00     0.040 A 
ATOM      9  C   UNL A   1      33.047  24.339  23.231  1.00  0.00    -0.028 A 
ATOM     10  C   UNL A   1      33.372  22.997  22.979  1.00  0.00     0.006 A 
ATOM     11  C   UNL A   1      32.412  25.135  22.125  1.00  0.00     0.046 C 
ATOM     12  C   UNL A   1      33.998  22.213  23.954  1.00  0.00     0.014 A 
BRANCH   7  13
ATOM     13  N   UNL A   1      33.062  26.237  24.787  1.00  0.00    -0.371 N 
ATOM     14  C   UNL A   1      33.854  27.962  25.644  1.00  0.00     0.028 C 
ATOM     15  C   UNL A   1      32.989  26.781  26.117  1.00  0.00     0.122 C 
ATOM     16  C   UNL A   1      33.645  27.421  24.226  1.00  0.00     0.122 C 
BRANCH  14  17
ATOM     17  C   UNL A   1      33.328  29.375  25.863  1.00  0.00     0.007 C 
BRANCH  17  18
ATOM     18  C   UNL A   1      33.515  29.836  27.308  1.00  0.00    -0.003 C 
ATOM     19  C   UNL A   1      33.364  31.344  27.470  1.00  0.00     0.004 C 
ENDBRANCH  17  18
ENDBRANCH  14  17
ENDBRANCH   7  13
ENDBRANCH   3   6
ENDBRANCH   1   2
BRANCH   1  20
ATOM     20  C   UNL A   1      38.623  21.308  25.575  1.00  0.00     0.042 C 
BRANCH  20  21
ATOM     21  C   UNL A   1      39.000  22.685  26.095  1.00  0.00     0.118 C 
BRANCH  21  22
ATOM     22  N   UNL A   1      40.416  22.820  26.440  1.00  0.00    -0.352 N 
ATOM     23  C   UNL A   1      41.102  23.972  26.797  1.00  0.00     0.251 C 
ATOM     24  H   UNL A   1      40.947  21.992  26.414  1.00  0.00     0.163 HD
ATOM     25  O   UNL A   1      42.289  23.956  27.057  1.00  0.00    -0.269 OA
BRANCH  23  26
ATOM     26  C   UNL A   1      40.305  25.208  26.961  1.00  0.00     0.039 A 
ATOM     27  C   UNL A   1      40.759  26.358  26.309  1.00  0.00     0.014 A 
ATOM     28  C   UNL A   1      39.361  25.275  27.984  1.00  0.00     0.014 A 
ATOM     29  C   UNL A   1      40.460  27.598  26.862  1.00  0.00     0.010 A 
ATOM     30  C   UNL A   1      39.137  26.501  28.581  1.00  0.00     0.010 A 
ATOM     31  C   UNL A   1      39.756  27.647  28.068  1.00  0.00    -0.014 A 
BRANCH  31  32
ATOM     32  C   UNL A   1      39.787  28.820  28.935  1.00  0.00     0.031 A 
ATOM     33  C   UNL A   1      38.771  29.883  28.816  1.00  0.00     0.074 A 
ATOM     34  C   UNL A   1      40.731  28.906  29.900  1.00  0.00     0.049 A 
ATOM     35  N   UNL A   1      38.963  31.114  29.159  1.00  0.00    -0.248 NA
ATOM     36  C   UNL A   1      37.454  29.642  28.247  1.00  0.00     0.031 C 
ATOM     37  C   UNL A   1      40.781  29.855  31.009  1.00  0.00     0.029 A 
ATOM     38  N   UNL A   1      41.973  28.248  29.947  1.00  0.00    -0.354 N 
ATOM     39  C   UNL A   1      37.742  31.750  29.136  1.00  0.00     0.074 A 
ATOM     40  C   UNL A   1      36.857  30.815  28.481  1.00  0.00     0.031 C 
ATOM     41  C   UNL A   1      42.050  29.956  31.432  1.00  0.00     0.029 A 
ATOM     42  C   UNL A   1      42.869  29.179  30.521  1.00  0.00     0.049 A 
ATOM     43  H   UNL A   1      42.176  27.334  29.645  1.00  0.00     0.167 HD
ATOM     44  C   UNL A   1      37.595  32.931  29.809  1.00  0.00     0.037 A 
ATOM     45  C   UNL A   1      43.949  29.656  29.839  1.00  0.00     0.037 A 
ATOM     46  C   UNL A   1      38.868  33.383  30.374  1.00  0.00     0.049 A 
ATOM     47  C   UNL A   1      43.980  31.159  29.707  1.00  0.00     0.074 A 
ATOM     48  C   UNL A   1      39.399  33.321  31.652  1.00  0.00     0.029 A 
ATOM     49  N   UNL A   1      39.918  33.737  29.531  1.00  0.00    -0.354 N 
ATOM     50  N   UNL A   1      42.929  31.919  29.837  1.00  0.00    -0.248 NA
ATOM     51  C   UNL A   1      45.182  31.915  29.371  1.00  0.00     0.031 C 
ATOM     52  C   UNL A   1      40.781  33.616  31.573  1.00  0.00     0.029 A 
ATOM     53  C   UNL A   1      41.092  33.864  30.247  1.00  0.00     0.049 A 
ATOM     54  H   UNL A   1      39.834  33.879  28.561  1.00  0.00     0.167 HD
ATOM     55  C   UNL A   1      43.275  33.222  29.583  1.00  0.00     0.074 A 
ATOM     56  C   UNL A   1      44.700  33.170  29.320  1.00  0.00     0.031 C 
ATOM     57  C   UNL A   1      42.344  34.222  29.598  1.00  0.00     0.037 A 
BRANCH  44  58
ATOM     58  C   UNL A   1      36.250  33.500  30.240  1.00  0.00     0.064 A 
ATOM     59  C   UNL A   1      35.359  34.052  29.291  1.00  0.00     0.173 A 
ATOM     60  C   UNL A   1      35.812  33.608  31.571  1.00  0.00     0.173 A 
ATOM     61  F   UNL A   1      35.546  33.896  27.975  1.00  0.00    -0.203 F 
ATOM     62  C   UNL A   1      34.226  34.788  29.656  1.00  0.00     0.198 A 
ATOM     63  C   UNL A   1      34.709  34.387  31.943  1.00  0.00     0.198 A 
ATOM     64  F   UNL A   1      36.386  32.906  32.553  1.00  0.00    -0.203 F 
ATOM     65  F   UNL A   1      33.434  35.305  28.705  1.00  0.00    -0.200 F 
ATOM     66  C   UNL A   1      33.927  34.995  30.985  1.00  0.00     0.200 A 
ATOM     67  F   UNL A   1      34.412  34.539  33.241  1.00  0.00    -0.200 F 
ATOM     68  F   UNL A   1      32.873  35.743  31.339  1.00  0.00    -0.200 F 
ENDBRANCH  44  58
BRANCH  45  69
ATOM     69  C   UNL A   1      44.482  28.711  28.824  1.00  0.00     0.064 A 
ATOM     70  C   UNL A   1      45.193  27.579  29.267  1.00  0.00     0.173 A 
ATOM     71  C   UNL A   1      44.018  28.709  27.504  1.00  0.00     0.173 A 
ATOM     72  F   UNL A   1      45.651  27.525  30.527  1.00  0.00    -0.203 F 
ATOM     73  C   UNL A   1      45.335  26.452  28.461  1.00  0.00     0.198 A 
ATOM     74  C   UNL A   1      44.176  27.583  26.694  1.00  0.00     0.198 A 
ATOM     75  F   UNL A   1      43.314  29.747  27.030  1.00  0.00    -0.203 F 
ATOM     76  F   UNL A   1      45.914  25.347  28.954  1.00  0.00    -0.200 F 
ATOM     77  C   UNL A   1      44.806  26.446  27.183  1.00  0.00     0.200 A 
ATOM     78  F   UNL A   1      43.633  27.562  25.469  1.00  0.00    -0.200 F 
ATOM     79  F   UNL A   1      44.860  25.333  26.439  1.00  0.00    -0.200 F 
ENDBRANCH  45  69
BRANCH  57  80
ATOM     80  C   UNL A   1      42.541  35.642  29.117  1.00  0.00     0.064 A 
ATOM     81  C   UNL A   1      41.895  36.194  27.997  1.00  0.00     0.173 A 
ATOM     82  C   UNL A   1      43.312  36.556  29.879  1.00  0.00     0.173 A 
ATOM     83  F   UNL A   1      41.034  35.480  27.264  1.00  0.00    -0.203 F 
ATOM     84  C   UNL A   1      42.065  37.533  27.627  1.00  0.00     0.198 A 
ATOM     85  C   UNL A   1      43.430  37.904  29.541  1.00  0.00     0.198 A 
ATOM     86  F   UNL A   1      43.951  36.175  30.995  1.00  0.00    -0.203 F 
ATOM     87  F   UNL A   1      41.462  37.997  26.524  1.00  0.00    -0.200 F 
ATOM     88  C   UNL A   1      42.823  38.389  28.404  1.00  0.00     0.200 A 
ATOM     89  F   UNL A   1      44.123  38.732  30.337  1.00  0.00    -0.200 F 
ATOM     90  F   UNL A   1      42.945  39.681  28.070  1.00  0.00    -0.200 F 
ENDBRANCH  57  80
ENDBRANCH  31  32
ENDBRANCH  23  26
ENDBRANCH  21  22
ENDBRANCH  20  21
ENDBRANCH   1  20
TORSDOF 13
ENDMDL
