MODEL 1
REMARK VINA RESULT:     -12.7      0.000      0.000
REMARK SMILES O=C(NCCCNC(=O)[C@@H](c1ccccc1)[C@H](C(=O)c1ccccc1)c1ccccc1)c1ccc(-c2c3nc(c(-c4c(F)c(F)c(F)c(F)c4F)c4ccc([nH]4)c(-c4c(F)c(F)c(F)c(F)c4F)c4nc(c(-c5c(F)c(F)c(F)c(F)c5F)c5ccc2[nH]5)C=C4)C=C3)cc1
REMARK SMILES IDX 5 1 4 2 3 3 1 4 2 5 32 7 33 8 94 9 34 10 93 11 35 12 36 13
REMARK SMILES IDX 37 14 87 15 38 16 92 17 86 18 88 19 39 20 91 21 85 22 84 23
REMARK SMILES IDX 40 25 72 26 52 27 71 28 53 29 56 30 70 31 89 32 54 33 55 34
REMARK SMILES IDX 69 36 90 37 57 38 41 39 42 40 50 41 43 42 44 43 48 44 51 45
REMARK SMILES IDX 45 46 46 47 49 48 47 49 73 50 74 51 82 52 75 53 76 54 80 55
REMARK SMILES IDX 83 56 77 57 78 58 81 59 79 60 58 61 59 62 67 63 60 64 61 65
REMARK SMILES IDX 65 66 68 67 62 68 63 69 66 70 64 71 6 72 7 73 8 74 9 76
REMARK SMILES IDX 10 77 11 78 12 79 16 80 13 81 15 82 14 83 17 84 26 85 27 86
REMARK SMILES IDX 31 87 28 88 30 89 29 90 18 91 19 92 20 93 21 94 25 95 22 96
REMARK SMILES IDX 24 97 23 98
REMARK H PARENT 3 6 88 24 56 35 7 75
REMARK Flexibility Score: inf
ROOT
ATOM      1  C   UNL A   1      32.924  29.147  23.815  1.00  0.00     0.042 C 
ENDROOT
BRANCH   1   2
ATOM      2  C   UNL A   1      33.311  29.392  25.262  1.00  0.00     0.118 C 
BRANCH   2   3
ATOM      3  N   UNL A   1      32.822  30.679  25.743  1.00  0.00    -0.352 N 
ATOM      4  O   UNL A   1      32.480  32.323  27.247  1.00  0.00    -0.269 OA
ATOM      5  C   UNL A   1      33.182  31.389  26.857  1.00  0.00     0.251 C 
ATOM      6  H   UNL A   1      32.130  31.100  25.183  1.00  0.00     0.163 HD
BRANCH   5   7
ATOM      7  C   UNL A   1      34.409  31.030  27.591  1.00  0.00     0.039 A 
ATOM      8  C   UNL A   1      35.399  31.989  27.818  1.00  0.00     0.014 A 
ATOM      9  C   UNL A   1      34.562  29.732  28.082  1.00  0.00     0.014 A 
ATOM     10  C   UNL A   1      36.604  31.616  28.392  1.00  0.00     0.010 A 
ATOM     11  C   UNL A   1      35.730  29.386  28.765  1.00  0.00     0.010 A 
ATOM     12  C   UNL A   1      36.768  30.321  28.903  1.00  0.00    -0.014 A 
BRANCH  12  13
ATOM     13  C   UNL A   1      37.999  29.998  29.662  1.00  0.00     0.031 A 
ATOM     14  C   UNL A   1      39.024  29.053  29.113  1.00  0.00     0.074 A 
ATOM     15  C   UNL A   1      38.175  30.573  30.866  1.00  0.00     0.049 A 
ATOM     16  N   UNL A   1      40.137  28.636  29.661  1.00  0.00    -0.248 NA
ATOM     17  C   UNL A   1      38.763  28.491  27.779  1.00  0.00     0.031 C 
ATOM     18  C   UNL A   1      37.230  31.497  31.502  1.00  0.00     0.029 A 
ATOM     19  N   UNL A   1      39.199  30.472  31.771  1.00  0.00    -0.354 N 
ATOM     20  C   UNL A   1      40.697  27.748  28.754  1.00  0.00     0.074 A 
ATOM     21  C   UNL A   1      39.788  27.664  27.630  1.00  0.00     0.031 C 
ATOM     22  C   UNL A   1      37.730  31.897  32.678  1.00  0.00     0.029 A 
ATOM     23  C   UNL A   1      38.989  31.202  32.914  1.00  0.00     0.049 A 
ATOM     24  H   UNL A   1      40.005  29.930  31.616  1.00  0.00     0.167 HD
ATOM     25  C   UNL A   1      41.868  27.072  28.854  1.00  0.00     0.037 A 
ATOM     26  C   UNL A   1      39.710  31.276  34.046  1.00  0.00     0.037 A 
ATOM     27  C   UNL A   1      42.763  27.173  29.979  1.00  0.00     0.049 A 
ATOM     28  C   UNL A   1      40.985  30.492  34.146  1.00  0.00     0.074 A 
ATOM     29  C   UNL A   1      43.997  26.571  30.157  1.00  0.00     0.029 A 
ATOM     30  N   UNL A   1      42.512  27.913  31.128  1.00  0.00    -0.354 N 
ATOM     31  N   UNL A   1      41.533  29.695  33.261  1.00  0.00    -0.248 NA
ATOM     32  C   UNL A   1      41.742  30.618  35.396  1.00  0.00     0.031 C 
ATOM     33  C   UNL A   1      44.460  26.892  31.438  1.00  0.00     0.029 A 
ATOM     34  C   UNL A   1      43.551  27.752  32.033  1.00  0.00     0.049 A 
ATOM     35  H   UNL A   1      41.715  28.471  31.277  1.00  0.00     0.167 HD
ATOM     36  C   UNL A   1      42.707  29.235  33.839  1.00  0.00     0.074 A 
ATOM     37  C   UNL A   1      42.799  29.858  35.145  1.00  0.00     0.031 C 
ATOM     38  C   UNL A   1      43.625  28.376  33.331  1.00  0.00     0.037 A 
BRANCH  25  39
ATOM     39  C   UNL A   1      42.229  26.137  27.735  1.00  0.00     0.064 A 
ATOM     40  C   UNL A   1      43.165  26.483  26.748  1.00  0.00     0.173 A 
ATOM     41  C   UNL A   1      41.643  24.863  27.659  1.00  0.00     0.173 A 
ATOM     42  F   UNL A   1      43.750  27.690  26.764  1.00  0.00    -0.203 F 
ATOM     43  C   UNL A   1      43.470  25.606  25.708  1.00  0.00     0.198 A 
ATOM     44  C   UNL A   1      41.976  23.976  26.639  1.00  0.00     0.198 A 
ATOM     45  F   UNL A   1      40.748  24.475  28.580  1.00  0.00    -0.203 F 
ATOM     46  F   UNL A   1      44.321  25.982  24.743  1.00  0.00    -0.200 F 
ATOM     47  C   UNL A   1      42.880  24.352  25.658  1.00  0.00     0.200 A 
ATOM     48  F   UNL A   1      41.416  22.760  26.601  1.00  0.00    -0.200 F 
ATOM     49  F   UNL A   1      43.174  23.510  24.657  1.00  0.00    -0.200 F 
ENDBRANCH  25  39
BRANCH  26  50
ATOM     50  C   UNL A   1      39.212  32.109  35.171  1.00  0.00     0.064 A 
ATOM     51  C   UNL A   1      38.485  31.545  36.226  1.00  0.00     0.173 A 
ATOM     52  C   UNL A   1      39.499  33.483  35.234  1.00  0.00     0.173 A 
ATOM     53  F   UNL A   1      38.176  30.240  36.203  1.00  0.00    -0.203 F 
ATOM     54  C   UNL A   1      38.054  32.324  37.297  1.00  0.00     0.198 A 
ATOM     55  C   UNL A   1      39.095  34.253  36.320  1.00  0.00     0.198 A 
ATOM     56  F   UNL A   1      40.203  34.068  34.254  1.00  0.00    -0.203 F 
ATOM     57  F   UNL A   1      37.330  31.768  38.278  1.00  0.00    -0.200 F 
ATOM     58  C   UNL A   1      38.366  33.675  37.348  1.00  0.00     0.200 A 
ATOM     59  F   UNL A   1      39.420  35.552  36.376  1.00  0.00    -0.200 F 
ATOM     60  F   UNL A   1      37.966  34.419  38.387  1.00  0.00    -0.200 F 
ENDBRANCH  26  50
BRANCH  38  61
ATOM     61  C   UNL A   1      44.826  28.077  34.182  1.00  0.00     0.064 A 
ATOM     62  C   UNL A   1      44.866  26.970  35.042  1.00  0.00     0.173 A 
ATOM     63  C   UNL A   1      45.970  28.885  34.097  1.00  0.00     0.173 A 
ATOM     64  F   UNL A   1      43.792  26.178  35.172  1.00  0.00    -0.203 F 
ATOM     65  C   UNL A   1      46.000  26.696  35.802  1.00  0.00     0.198 A 
ATOM     66  C   UNL A   1      47.113  28.589  34.834  1.00  0.00     0.198 A 
ATOM     67  F   UNL A   1      45.985  29.955  33.287  1.00  0.00    -0.203 F 
ATOM     68  F   UNL A   1      45.999  25.660  36.652  1.00  0.00    -0.200 F 
ATOM     69  C   UNL A   1      47.125  27.499  35.690  1.00  0.00     0.200 A 
ATOM     70  F   UNL A   1      48.204  29.358  34.712  1.00  0.00    -0.200 F 
ATOM     71  F   UNL A   1      48.220  27.226  36.412  1.00  0.00    -0.200 F 
ENDBRANCH  38  61
ENDBRANCH  12  13
ENDBRANCH   5   7
ENDBRANCH   2   3
ENDBRANCH   1   2
BRANCH   1  72
ATOM     72  C   UNL A   1      34.067  28.560  23.008  1.00  0.00     0.117 C 
BRANCH  72  73
ATOM     73  N   UNL A   1      33.583  27.639  22.000  1.00  0.00    -0.355 N 
ATOM     74  C   UNL A   1      33.493  26.280  22.027  1.00  0.00     0.228 C 
ATOM     75  H   UNL A   1      33.270  28.060  21.167  1.00  0.00     0.163 HD
ATOM     76  O   UNL A   1      33.268  25.702  20.960  1.00  0.00    -0.274 OA
BRANCH  74  77
ATOM     77  C   UNL A   1      33.669  25.494  23.337  1.00  0.00     0.124 C 
BRANCH  77  78
ATOM     78  C   UNL A   1      32.420  25.678  24.214  1.00  0.00    -0.035 A 
ATOM     79  C   UNL A   1      32.603  25.930  25.589  1.00  0.00     0.004 A 
ATOM     80  C   UNL A   1      31.104  25.654  23.736  1.00  0.00     0.004 A 
ATOM     81  C   UNL A   1      31.517  26.146  26.442  1.00  0.00     0.000 A 
ATOM     82  C   UNL A   1      30.014  25.845  24.592  1.00  0.00     0.000 A 
ATOM     83  C   UNL A   1      30.220  26.095  25.943  1.00  0.00     0.000 A 
ENDBRANCH  77  78
BRANCH  77  84
ATOM     84  C   UNL A   1      34.222  24.053  23.064  1.00  0.00     0.108 C 
BRANCH  84  85
ATOM     85  C   UNL A   1      35.450  23.656  23.890  1.00  0.00    -0.036 A 
ATOM     86  C   UNL A   1      36.330  22.643  23.481  1.00  0.00     0.004 A 
ATOM     87  C   UNL A   1      35.670  24.262  25.140  1.00  0.00     0.004 A 
ATOM     88  C   UNL A   1      37.349  22.198  24.328  1.00  0.00     0.000 A 
ATOM     89  C   UNL A   1      36.703  23.832  25.976  1.00  0.00     0.000 A 
ATOM     90  C   UNL A   1      37.531  22.788  25.577  1.00  0.00     0.000 A 
ENDBRANCH  84  85
BRANCH  84  91
ATOM     91  C   UNL A   1      33.100  23.021  23.211  1.00  0.00     0.171 C 
ATOM     92  O   UNL A   1      32.271  22.794  22.333  1.00  0.00    -0.293 OA
BRANCH  91  93
ATOM     93  C   UNL A   1      33.106  22.175  24.442  1.00  0.00     0.018 A 
ATOM     94  C   UNL A   1      33.584  20.866  24.339  1.00  0.00     0.012 A 
ATOM     95  C   UNL A   1      32.780  22.701  25.701  1.00  0.00     0.012 A 
ATOM     96  C   UNL A   1      33.796  20.111  25.494  1.00  0.00     0.001 A 
ATOM     97  C   UNL A   1      33.004  21.945  26.853  1.00  0.00     0.001 A 
ATOM     98  C   UNL A   1      33.523  20.655  26.749  1.00  0.00     0.000 A 
ENDBRANCH  91  93
ENDBRANCH  84  91
ENDBRANCH  77  84
ENDBRANCH  74  77
ENDBRANCH  72  73
ENDBRANCH   1  72
TORSDOF 15
ENDMDL
MODEL 2
REMARK VINA RESULT:     -12.5      0.353      7.324
REMARK SMILES O=C(NCCCNC(=O)[C@@H](c1ccccc1)[C@H](C(=O)c1ccccc1)c1ccccc1)c1ccc(-c2c3nc(c(-c4c(F)c(F)c(F)c(F)c4F)c4ccc([nH]4)c(-c4c(F)c(F)c(F)c(F)c4F)c4nc(c(-c5c(F)c(F)c(F)c(F)c5F)c5ccc2[nH]5)C=C4)C=C3)cc1
REMARK SMILES IDX 5 1 4 2 3 3 1 4 2 5 32 7 33 8 94 9 34 10 93 11 35 12 36 13
REMARK SMILES IDX 37 14 87 15 38 16 92 17 86 18 88 19 39 20 91 21 85 22 84 23
REMARK SMILES IDX 40 25 72 26 52 27 71 28 53 29 56 30 70 31 89 32 54 33 55 34
REMARK SMILES IDX 69 36 90 37 57 38 41 39 42 40 50 41 43 42 44 43 48 44 51 45
REMARK SMILES IDX 45 46 46 47 49 48 47 49 73 50 74 51 82 52 75 53 76 54 80 55
REMARK SMILES IDX 83 56 77 57 78 58 81 59 79 60 58 61 59 62 67 63 60 64 61 65
REMARK SMILES IDX 65 66 68 67 62 68 63 69 66 70 64 71 6 72 7 73 8 74 9 76
REMARK SMILES IDX 10 77 11 78 12 79 16 80 13 81 15 82 14 83 17 84 26 85 27 86
REMARK SMILES IDX 31 87 28 88 30 89 29 90 18 91 19 92 20 93 21 94 25 95 22 96
REMARK SMILES IDX 24 97 23 98
REMARK H PARENT 3 6 88 24 56 35 7 75
REMARK Flexibility Score: inf
ROOT
ATOM      1  C   UNL A   1      33.045  29.068  23.741  1.00  0.00     0.042 C 
ENDROOT
BRANCH   1   2
ATOM      2  C   UNL A   1      33.549  29.362  25.143  1.00  0.00     0.118 C 
BRANCH   2   3
ATOM      3  N   UNL A   1      32.971  30.588  25.681  1.00  0.00    -0.352 N 
ATOM      4  O   UNL A   1      32.475  32.109  27.269  1.00  0.00    -0.269 OA
ATOM      5  C   UNL A   1      33.242  31.240  26.854  1.00  0.00     0.251 C 
ATOM      6  H   UNL A   1      32.285  31.011  25.116  1.00  0.00     0.163 HD
BRANCH   5   7
ATOM      7  C   UNL A   1      34.452  30.893  27.624  1.00  0.00     0.039 A 
ATOM      8  C   UNL A   1      34.581  29.625  28.195  1.00  0.00     0.014 A 
ATOM      9  C   UNL A   1      35.478  31.831  27.752  1.00  0.00     0.014 A 
ATOM     10  C   UNL A   1      35.657  29.347  29.024  1.00  0.00     0.010 A 
ATOM     11  C   UNL A   1      36.616  31.509  28.493  1.00  0.00     0.010 A 
ATOM     12  C   UNL A   1      36.703  30.272  29.153  1.00  0.00    -0.014 A 
BRANCH  12  13
ATOM     13  C   UNL A   1      37.917  29.885  29.908  1.00  0.00     0.031 A 
ATOM     14  C   UNL A   1      38.172  30.406  31.289  1.00  0.00     0.074 A 
ATOM     15  C   UNL A   1      38.794  29.051  29.318  1.00  0.00     0.049 A 
ATOM     16  N   UNL A   1      39.200  30.194  32.072  1.00  0.00    -0.248 NA
ATOM     17  C   UNL A   1      37.148  31.290  31.865  1.00  0.00     0.031 C 
ATOM     18  C   UNL A   1      38.650  28.497  27.969  1.00  0.00     0.029 A 
ATOM     19  N   UNL A   1      39.976  28.523  29.768  1.00  0.00    -0.354 N 
ATOM     20  C   UNL A   1      38.960  30.933  33.221  1.00  0.00     0.074 A 
ATOM     21  C   UNL A   1      37.701  31.623  33.023  1.00  0.00     0.031 C 
ATOM     22  C   UNL A   1      39.686  27.688  27.711  1.00  0.00     0.029 A 
ATOM     23  C   UNL A   1      40.603  27.727  28.843  1.00  0.00     0.049 A 
ATOM     24  H   UNL A   1      40.338  28.697  30.666  1.00  0.00     0.167 HD
ATOM     25  C   UNL A   1      39.721  31.020  34.339  1.00  0.00     0.037 A 
ATOM     26  C   UNL A   1      41.804  27.123  28.883  1.00  0.00     0.037 A 
ATOM     27  C   UNL A   1      40.969  30.322  34.520  1.00  0.00     0.049 A 
ATOM     28  C   UNL A   1      42.644  27.262  30.118  1.00  0.00     0.074 A 
ATOM     29  C   UNL A   1      41.793  30.300  35.632  1.00  0.00     0.029 A 
ATOM     30  N   UNL A   1      41.583  29.533  33.555  1.00  0.00    -0.354 N 
ATOM     31  N   UNL A   1      42.385  27.922  31.221  1.00  0.00    -0.248 NA
ATOM     32  C   UNL A   1      43.939  26.573  30.117  1.00  0.00     0.031 C 
ATOM     33  C   UNL A   1      42.934  29.555  35.317  1.00  0.00     0.029 A 
ATOM     34  C   UNL A   1      42.792  29.051  34.034  1.00  0.00     0.049 A 
ATOM     35  H   UNL A   1      41.213  29.342  32.663  1.00  0.00     0.167 HD
ATOM     36  C   UNL A   1      43.475  27.716  32.052  1.00  0.00     0.074 A 
ATOM     37  C   UNL A   1      44.391  26.855  31.331  1.00  0.00     0.031 C 
ATOM     38  C   UNL A   1      43.695  28.198  33.301  1.00  0.00     0.037 A 
BRANCH  25  39
ATOM     39  C   UNL A   1      39.246  31.930  35.437  1.00  0.00     0.064 A 
ATOM     40  C   UNL A   1      38.428  31.472  36.481  1.00  0.00     0.173 A 
ATOM     41  C   UNL A   1      39.631  33.280  35.455  1.00  0.00     0.173 A 
ATOM     42  F   UNL A   1      38.021  30.193  36.511  1.00  0.00    -0.203 F 
ATOM     43  C   UNL A   1      37.983  32.338  37.478  1.00  0.00     0.198 A 
ATOM     44  C   UNL A   1      39.214  34.135  36.471  1.00  0.00     0.198 A 
ATOM     45  F   UNL A   1      40.418  33.771  34.486  1.00  0.00    -0.203 F 
ATOM     46  F   UNL A   1      37.153  31.891  38.431  1.00  0.00    -0.200 F 
ATOM     47  C   UNL A   1      38.381  33.666  37.475  1.00  0.00     0.200 A 
ATOM     48  F   UNL A   1      39.611  35.414  36.474  1.00  0.00    -0.200 F 
ATOM     49  F   UNL A   1      37.952  34.499  38.435  1.00  0.00    -0.200 F 
ENDBRANCH  25  39
BRANCH  26  50
ATOM     50  C   UNL A   1      42.273  26.360  27.698  1.00  0.00     0.064 A 
ATOM     51  C   UNL A   1      43.177  26.919  26.786  1.00  0.00     0.173 A 
ATOM     52  C   UNL A   1      41.860  25.035  27.482  1.00  0.00     0.173 A 
ATOM     53  F   UNL A   1      43.589  28.185  26.943  1.00  0.00    -0.203 F 
ATOM     54  C   UNL A   1      43.643  26.186  25.697  1.00  0.00     0.198 A 
ATOM     55  C   UNL A   1      42.352  24.294  26.412  1.00  0.00     0.198 A 
ATOM     56  F   UNL A   1      41.005  24.451  28.335  1.00  0.00    -0.203 F 
ATOM     57  F   UNL A   1      44.481  26.754  24.820  1.00  0.00    -0.200 F 
ATOM     58  C   UNL A   1      43.237  24.871  25.516  1.00  0.00     0.200 A 
ATOM     59  F   UNL A   1      41.975  23.016  26.256  1.00  0.00    -0.200 F 
ATOM     60  F   UNL A   1      43.700  24.162  24.479  1.00  0.00    -0.200 F 
ENDBRANCH  26  50
BRANCH  38  61
ATOM     61  C   UNL A   1      44.968  27.782  33.980  1.00  0.00     0.064 A 
ATOM     62  C   UNL A   1      46.137  28.552  33.894  1.00  0.00     0.173 A 
ATOM     63  C   UNL A   1      45.002  26.620  34.765  1.00  0.00     0.173 A 
ATOM     64  F   UNL A   1      46.161  29.661  33.141  1.00  0.00    -0.203 F 
ATOM     65  C   UNL A   1      47.300  28.162  34.554  1.00  0.00     0.198 A 
ATOM     66  C   UNL A   1      46.157  26.250  35.449  1.00  0.00     0.198 A 
ATOM     67  F   UNL A   1      43.909  25.849  34.883  1.00  0.00    -0.203 F 
ATOM     68  F   UNL A   1      48.418  28.888  34.421  1.00  0.00    -0.200 F 
ATOM     69  C   UNL A   1      47.306  27.018  35.338  1.00  0.00     0.200 A 
ATOM     70  F   UNL A   1      46.155  25.153  36.219  1.00  0.00    -0.200 F 
ATOM     71  F   UNL A   1      48.422  26.651  35.983  1.00  0.00    -0.200 F 
ENDBRANCH  38  61
ENDBRANCH  12  13
ENDBRANCH   5   7
ENDBRANCH   2   3
ENDBRANCH   1   2
BRANCH   1  72
ATOM     72  C   UNL A   1      34.142  28.537  22.838  1.00  0.00     0.117 C 
BRANCH  72  73
ATOM     73  N   UNL A   1      33.615  27.613  21.854  1.00  0.00    -0.355 N 
ATOM     74  C   UNL A   1      33.459  26.262  21.918  1.00  0.00     0.228 C 
ATOM     75  H   UNL A   1      33.323  28.027  21.010  1.00  0.00     0.163 HD
ATOM     76  O   UNL A   1      33.207  25.666  20.867  1.00  0.00    -0.274 OA
BRANCH  74  77
ATOM     77  C   UNL A   1      33.597  25.505  23.250  1.00  0.00     0.124 C 
BRANCH  77  78
ATOM     78  C   UNL A   1      32.333  25.726  24.096  1.00  0.00    -0.035 A 
ATOM     79  C   UNL A   1      31.084  25.711  23.441  1.00  0.00     0.004 A 
ATOM     80  C   UNL A   1      32.328  25.901  25.485  1.00  0.00     0.004 A 
ATOM     81  C   UNL A   1      29.889  25.865  24.149  1.00  0.00     0.000 A 
ATOM     82  C   UNL A   1      31.133  26.082  26.192  1.00  0.00     0.000 A 
ATOM     83  C   UNL A   1      29.915  26.060  25.525  1.00  0.00     0.000 A 
ENDBRANCH  77  78
BRANCH  77  84
ATOM     84  C   UNL A   1      34.135  24.050  23.021  1.00  0.00     0.108 C 
BRANCH  84  85
ATOM     85  C   UNL A   1      35.375  23.675  23.840  1.00  0.00    -0.036 A 
ATOM     86  C   UNL A   1      36.296  22.710  23.403  1.00  0.00     0.004 A 
ATOM     87  C   UNL A   1      35.567  24.250  25.110  1.00  0.00     0.004 A 
ATOM     88  C   UNL A   1      37.328  22.279  24.240  1.00  0.00     0.000 A 
ATOM     89  C   UNL A   1      36.614  23.833  25.936  1.00  0.00     0.000 A 
ATOM     90  C   UNL A   1      37.484  22.835  25.508  1.00  0.00     0.000 A 
ENDBRANCH  84  85
BRANCH  84  91
ATOM     91  C   UNL A   1      33.009  23.033  23.228  1.00  0.00     0.171 C 
ATOM     92  O   UNL A   1      32.147  22.799  22.385  1.00  0.00    -0.293 OA
BRANCH  91  93
ATOM     93  C   UNL A   1      33.049  22.210  24.474  1.00  0.00     0.018 A 
ATOM     94  C   UNL A   1      33.654  20.952  24.413  1.00  0.00     0.012 A 
ATOM     95  C   UNL A   1      32.629  22.721  25.711  1.00  0.00     0.012 A 
ATOM     96  C   UNL A   1      33.895  20.238  25.589  1.00  0.00     0.001 A 
ATOM     97  C   UNL A   1      32.881  22.009  26.884  1.00  0.00     0.001 A 
ATOM     98  C   UNL A   1      33.524  20.773  26.823  1.00  0.00     0.000 A 
ENDBRANCH  91  93
ENDBRANCH  84  91
ENDBRANCH  77  84
ENDBRANCH  74  77
ENDBRANCH  72  73
ENDBRANCH   1  72
TORSDOF 15
ENDMDL
MODEL 3
REMARK VINA RESULT:     -12.3      4.018      9.235
REMARK SMILES O=C(NCCCNC(=O)[C@@H](c1ccccc1)[C@H](C(=O)c1ccccc1)c1ccccc1)c1ccc(-c2c3nc(c(-c4c(F)c(F)c(F)c(F)c4F)c4ccc([nH]4)c(-c4c(F)c(F)c(F)c(F)c4F)c4nc(c(-c5c(F)c(F)c(F)c(F)c5F)c5ccc2[nH]5)C=C4)C=C3)cc1
REMARK SMILES IDX 5 1 4 2 3 3 1 4 2 5 32 7 33 8 94 9 34 10 93 11 35 12 36 13
REMARK SMILES IDX 37 14 87 15 38 16 92 17 86 18 88 19 39 20 91 21 85 22 84 23
REMARK SMILES IDX 40 25 72 26 52 27 71 28 53 29 56 30 70 31 89 32 54 33 55 34
REMARK SMILES IDX 69 36 90 37 57 38 41 39 42 40 50 41 43 42 44 43 48 44 51 45
REMARK SMILES IDX 45 46 46 47 49 48 47 49 73 50 74 51 82 52 75 53 76 54 80 55
REMARK SMILES IDX 83 56 77 57 78 58 81 59 79 60 58 61 59 62 67 63 60 64 61 65
REMARK SMILES IDX 65 66 68 67 62 68 63 69 66 70 64 71 6 72 7 73 8 74 9 76
REMARK SMILES IDX 10 77 11 78 12 79 16 80 13 81 15 82 14 83 17 84 26 85 27 86
REMARK SMILES IDX 31 87 28 88 30 89 29 90 18 91 19 92 20 93 21 94 25 95 22 96
REMARK SMILES IDX 24 97 23 98
REMARK H PARENT 3 6 88 24 56 35 7 75
REMARK Flexibility Score: inf
ROOT
ATOM      1  C   UNL A   1      34.552  21.773  26.677  1.00  0.00     0.042 C 
ENDROOT
BRANCH   1   2
ATOM      2  C   UNL A   1      35.915  22.311  26.281  1.00  0.00     0.118 C 
BRANCH   2   3
ATOM      3  N   UNL A   1      36.865  21.236  26.013  1.00  0.00    -0.352 N 
ATOM      4  O   UNL A   1      38.829  20.333  25.376  1.00  0.00    -0.269 OA
ATOM      5  C   UNL A   1      38.224  21.290  25.860  1.00  0.00     0.251 C 
ATOM      6  H   UNL A   1      36.469  20.338  25.931  1.00  0.00     0.163 HD
BRANCH   5   7
ATOM      7  C   UNL A   1      38.961  22.501  26.269  1.00  0.00     0.039 A 
ATOM      8  C   UNL A   1      38.606  23.748  25.751  1.00  0.00     0.014 A 
ATOM      9  C   UNL A   1      39.997  22.393  27.199  1.00  0.00     0.014 A 
ATOM     10  C   UNL A   1      39.382  24.861  26.037  1.00  0.00     0.010 A 
ATOM     11  C   UNL A   1      40.705  23.536  27.576  1.00  0.00     0.010 A 
ATOM     12  C   UNL A   1      40.417  24.774  26.979  1.00  0.00    -0.014 A 
BRANCH  12  13
ATOM     13  C   UNL A   1      41.120  26.010  27.392  1.00  0.00     0.031 A 
ATOM     14  C   UNL A   1      40.404  27.102  28.127  1.00  0.00     0.074 A 
ATOM     15  C   UNL A   1      42.425  26.134  27.085  1.00  0.00     0.049 A 
ATOM     16  N   UNL A   1      40.860  28.261  28.529  1.00  0.00    -0.248 NA
ATOM     17  C   UNL A   1      38.986  26.871  28.442  1.00  0.00     0.031 C 
ATOM     18  C   UNL A   1      43.215  25.137  26.358  1.00  0.00     0.029 A 
ATOM     19  N   UNL A   1      43.318  27.141  27.343  1.00  0.00    -0.354 N 
ATOM     20  C   UNL A   1      39.786  28.906  29.123  1.00  0.00     0.074 A 
ATOM     21  C   UNL A   1      38.645  28.022  29.004  1.00  0.00     0.031 C 
ATOM     22  C   UNL A   1      44.479  25.569  26.250  1.00  0.00     0.029 A 
ATOM     23  C   UNL A   1      44.569  26.902  26.831  1.00  0.00     0.049 A 
ATOM     24  H   UNL A   1      43.085  27.955  27.844  1.00  0.00     0.167 HD
ATOM     25  C   UNL A   1      39.761  30.124  29.718  1.00  0.00     0.037 A 
ATOM     26  C   UNL A   1      45.662  27.685  26.798  1.00  0.00     0.037 A 
ATOM     27  C   UNL A   1      40.909  30.989  29.831  1.00  0.00     0.049 A 
ATOM     28  C   UNL A   1      45.600  29.042  27.433  1.00  0.00     0.074 A 
ATOM     29  C   UNL A   1      41.004  32.220  30.458  1.00  0.00     0.029 A 
ATOM     30  N   UNL A   1      42.160  30.720  29.289  1.00  0.00    -0.354 N 
ATOM     31  N   UNL A   1      44.593  29.624  28.039  1.00  0.00    -0.248 NA
ATOM     32  C   UNL A   1      46.823  29.852  27.382  1.00  0.00     0.031 C 
ATOM     33  C   UNL A   1      42.291  32.724  30.238  1.00  0.00     0.029 A 
ATOM     34  C   UNL A   1      43.021  31.779  29.535  1.00  0.00     0.049 A 
ATOM     35  H   UNL A   1      42.400  29.899  28.802  1.00  0.00     0.167 HD
ATOM     36  C   UNL A   1      45.062  30.860  28.456  1.00  0.00     0.074 A 
ATOM     37  C   UNL A   1      46.451  30.936  28.048  1.00  0.00     0.031 C 
ATOM     38  C   UNL A   1      44.401  31.841  29.118  1.00  0.00     0.037 A 
BRANCH  25  39
ATOM     39  C   UNL A   1      38.445  30.609  30.257  1.00  0.00     0.064 A 
ATOM     40  C   UNL A   1      38.159  30.611  31.631  1.00  0.00     0.173 A 
ATOM     41  C   UNL A   1      37.460  31.100  29.386  1.00  0.00     0.173 A 
ATOM     42  F   UNL A   1      39.059  30.146  32.511  1.00  0.00    -0.203 F 
ATOM     43  C   UNL A   1      36.924  31.048  32.107  1.00  0.00     0.198 A 
ATOM     44  C   UNL A   1      36.240  31.568  29.866  1.00  0.00     0.198 A 
ATOM     45  F   UNL A   1      37.682  31.129  28.062  1.00  0.00    -0.203 F 
ATOM     46  F   UNL A   1      36.651  30.983  33.418  1.00  0.00    -0.200 F 
ATOM     47  C   UNL A   1      35.969  31.531  31.225  1.00  0.00     0.200 A 
ATOM     48  F   UNL A   1      35.325  32.048  29.014  1.00  0.00    -0.200 F 
ATOM     49  F   UNL A   1      34.781  31.951  31.684  1.00  0.00    -0.200 F 
ENDBRANCH  25  39
BRANCH  26  50
ATOM     50  C   UNL A   1      46.886  27.194  26.115  1.00  0.00     0.064 A 
ATOM     51  C   UNL A   1      47.123  27.471  24.763  1.00  0.00     0.173 A 
ATOM     52  C   UNL A   1      47.867  26.477  26.818  1.00  0.00     0.173 A 
ATOM     53  F   UNL A   1      46.209  28.141  24.047  1.00  0.00    -0.203 F 
ATOM     54  C   UNL A   1      48.291  27.041  24.137  1.00  0.00     0.198 A 
ATOM     55  C   UNL A   1      49.048  26.077  26.199  1.00  0.00     0.198 A 
ATOM     56  F   UNL A   1      47.693  26.198  28.118  1.00  0.00    -0.203 F 
ATOM     57  F   UNL A   1      48.479  27.289  22.834  1.00  0.00    -0.200 F 
ATOM     58  C   UNL A   1      49.256  26.352  24.858  1.00  0.00     0.200 A 
ATOM     59  F   UNL A   1      49.988  25.433  26.906  1.00  0.00    -0.200 F 
ATOM     60  F   UNL A   1      50.386  25.955  24.258  1.00  0.00    -0.200 F 
ENDBRANCH  26  50
BRANCH  38  61
ATOM     61  C   UNL A   1      45.181  33.076  29.468  1.00  0.00     0.064 A 
ATOM     62  C   UNL A   1      45.213  34.194  28.622  1.00  0.00     0.173 A 
ATOM     63  C   UNL A   1      45.866  33.156  30.689  1.00  0.00     0.173 A 
ATOM     64  F   UNL A   1      44.589  34.161  27.435  1.00  0.00    -0.203 F 
ATOM     65  C   UNL A   1      45.920  35.339  28.977  1.00  0.00     0.198 A 
ATOM     66  C   UNL A   1      46.545  34.314  31.056  1.00  0.00     0.198 A 
ATOM     67  F   UNL A   1      45.864  32.115  31.537  1.00  0.00    -0.203 F 
ATOM     68  F   UNL A   1      45.976  36.379  28.133  1.00  0.00    -0.200 F 
ATOM     69  C   UNL A   1      46.577  35.403  30.197  1.00  0.00     0.200 A 
ATOM     70  F   UNL A   1      47.165  34.378  32.242  1.00  0.00    -0.200 F 
ATOM     71  F   UNL A   1      47.246  36.511  30.544  1.00  0.00    -0.200 F 
ENDBRANCH  38  61
ENDBRANCH  12  13
ENDBRANCH   5   7
ENDBRANCH   2   3
ENDBRANCH   1   2
BRANCH   1  72
ATOM     72  C   UNL A   1      33.916  22.587  27.788  1.00  0.00     0.117 C 
BRANCH  72  73
ATOM     73  N   UNL A   1      32.477  22.660  27.632  1.00  0.00    -0.355 N 
ATOM     74  C   UNL A   1      31.708  23.622  27.053  1.00  0.00     0.228 C 
ATOM     75  H   UNL A   1      31.980  21.894  28.001  1.00  0.00     0.163 HD
ATOM     76  O   UNL A   1      30.490  23.575  27.250  1.00  0.00    -0.274 OA
BRANCH  74  77
ATOM     77  C   UNL A   1      32.332  24.732  26.190  1.00  0.00     0.124 C 
BRANCH  77  78
ATOM     78  C   UNL A   1      32.740  24.148  24.827  1.00  0.00    -0.035 A 
ATOM     79  C   UNL A   1      33.966  24.562  24.267  1.00  0.00     0.004 A 
ATOM     80  C   UNL A   1      31.997  23.198  24.116  1.00  0.00     0.004 A 
ATOM     81  C   UNL A   1      34.422  24.046  23.051  1.00  0.00     0.000 A 
ATOM     82  C   UNL A   1      32.439  22.699  22.886  1.00  0.00     0.000 A 
ATOM     83  C   UNL A   1      33.653  23.119  22.355  1.00  0.00     0.000 A 
ENDBRANCH  77  78
BRANCH  77  84
ATOM     84  C   UNL A   1      31.477  26.044  26.249  1.00  0.00     0.108 C 
BRANCH  84  85
ATOM     85  C   UNL A   1      32.278  27.338  26.433  1.00  0.00    -0.036 A 
ATOM     86  C   UNL A   1      33.656  27.407  26.178  1.00  0.00     0.004 A 
ATOM     87  C   UNL A   1      31.640  28.481  26.949  1.00  0.00     0.004 A 
ATOM     88  C   UNL A   1      34.384  28.555  26.502  1.00  0.00     0.000 A 
ATOM     89  C   UNL A   1      32.366  29.635  27.251  1.00  0.00     0.000 A 
ATOM     90  C   UNL A   1      33.742  29.665  27.044  1.00  0.00     0.000 A 
ENDBRANCH  84  85
BRANCH  84  91
ATOM     91  C   UNL A   1      30.559  26.132  25.026  1.00  0.00     0.171 C 
ATOM     92  O   UNL A   1      29.527  25.478  24.908  1.00  0.00    -0.293 OA
BRANCH  91  93
ATOM     93  C   UNL A   1      30.892  27.159  23.993  1.00  0.00     0.018 A 
ATOM     94  C   UNL A   1      30.056  28.272  23.878  1.00  0.00     0.012 A 
ATOM     95  C   UNL A   1      32.079  27.100  23.248  1.00  0.00     0.012 A 
ATOM     96  C   UNL A   1      30.436  29.348  23.073  1.00  0.00     0.001 A 
ATOM     97  C   UNL A   1      32.460  28.182  22.453  1.00  0.00     0.001 A 
ATOM     98  C   UNL A   1      31.644  29.310  22.376  1.00  0.00     0.000 A 
ENDBRANCH  91  93
ENDBRANCH  84  91
ENDBRANCH  77  84
ENDBRANCH  74  77
ENDBRANCH  72  73
ENDBRANCH   1  72
TORSDOF 15
ENDMDL
