MODEL 1
REMARK VINA RESULT:     -12.8      0.000      0.000
REMARK SMILES O=C(CSc1nnc(Cc2ccncc2)n1-c1ccccc1Cl)NCCCNC(=O)c1ccc(-c2c3nc(c(-c4c(F)c(F)c(F)c(F)c4F)c4ccc([nH]4)c(-c4c(F)c(F)c(F)c(F)c4F)c4nc(c(-c5c(F)c(F)c(F)c(F)c5F)c5ccc2[nH]5)C=C4)C=C3)cc1
REMARK SMILES IDX 25 1 24 2 1 3 2 4 3 6 4 7 5 8 6 9 16 10 7 11 8 12 17 13
REMARK SMILES IDX 18 14 22 15 19 16 21 17 23 18 20 19 9 20 10 21 11 22 15 23
REMARK SMILES IDX 12 24 14 25 13 26 26 27 27 28 28 29 29 30 30 32 31 33 32 34
REMARK SMILES IDX 93 35 33 36 92 37 34 38 35 39 36 40 86 41 37 42 91 43 85 44
REMARK SMILES IDX 87 45 38 46 90 47 84 48 83 49 39 51 71 52 51 53 70 54 52 55
REMARK SMILES IDX 55 56 69 57 88 58 53 59 54 60 68 62 89 63 56 64 40 65 41 66
REMARK SMILES IDX 49 67 42 68 43 69 47 70 50 71 44 72 45 73 48 74 46 75 72 76
REMARK SMILES IDX 73 77 81 78 74 79 75 80 79 81 82 82 76 83 77 84 80 85 78 86
REMARK SMILES IDX 57 87 58 88 66 89 59 90 60 91 64 92 67 93 61 94 62 95 65 96
REMARK SMILES IDX 63 97
REMARK H PARENT 24 5 28 31 87 50 55 61
REMARK Flexibility Score: inf
ROOT
ATOM      1  C   UNL A   1      38.186  23.052  26.048  1.00  0.00     0.117 C 
ENDROOT
BRANCH   1   2
ATOM      2  N   UNL A   1      36.806  22.808  26.439  1.00  0.00    -0.355 N 
ATOM      3  O   UNL A   1      36.069  22.196  24.355  1.00  0.00    -0.274 OA
ATOM      4  C   UNL A   1      35.853  22.348  25.555  1.00  0.00     0.230 C 
ATOM      5  H   UNL A   1      36.542  22.979  27.372  1.00  0.00     0.163 HD
BRANCH   4   6
ATOM      6  C   UNL A   1      34.463  22.168  26.136  1.00  0.00     0.178 C 
BRANCH   6   7
ATOM      7  S   UNL A   1      33.140  22.041  24.915  1.00  0.00    -0.076 SA
BRANCH   7   8
ATOM      8  C   UNL A   1      31.904  23.093  25.530  1.00  0.00     0.196 A 
ATOM      9  N   UNL A   1      31.337  22.928  26.703  1.00  0.00    -0.123 NA
ATOM     10  N   UNL A   1      31.633  24.363  25.053  1.00  0.00    -0.272 N 
ATOM     11  N   UNL A   1      30.698  24.097  27.029  1.00  0.00    -0.134 NA
ATOM     12  C   UNL A   1      30.884  24.963  26.050  1.00  0.00     0.142 A 
BRANCH  10  13
ATOM     13  C   UNL A   1      32.132  24.970  23.883  1.00  0.00     0.068 A 
ATOM     14  C   UNL A   1      31.358  24.917  22.715  1.00  0.00     0.028 A 
ATOM     15  C   UNL A   1      33.369  25.626  23.887  1.00  0.00     0.065 A 
ATOM     16  C   UNL A   1      31.807  25.566  21.564  1.00  0.00     0.002 A 
ATOM     17  C   UNL A   1      33.795  26.291  22.736  1.00  0.00     0.023 A 
ATOM     18  Cl  UNL A   1      34.470  25.525  25.209  1.00  0.00    -0.082 Cl
ATOM     19  C   UNL A   1      33.013  26.267  21.580  1.00  0.00     0.002 A 
ENDBRANCH  10  13
BRANCH  12  20
ATOM     20  C   UNL A   1      30.341  26.355  26.006  1.00  0.00     0.113 C 
BRANCH  20  21
ATOM     21  C   UNL A   1      31.414  27.411  26.116  1.00  0.00    -0.037 A 
ATOM     22  C   UNL A   1      31.574  28.368  25.107  1.00  0.00     0.024 A 
ATOM     23  C   UNL A   1      32.277  27.456  27.214  1.00  0.00     0.024 A 
ATOM     24  C   UNL A   1      32.569  29.322  25.244  1.00  0.00     0.111 A 
ATOM     25  C   UNL A   1      33.239  28.454  27.262  1.00  0.00     0.111 A 
ATOM     26  N   UNL A   1      33.400  29.392  26.305  1.00  0.00    -0.265 NA
ENDBRANCH  20  21
ENDBRANCH  12  20
ENDBRANCH   7   8
ENDBRANCH   6   7
ENDBRANCH   4   6
ENDBRANCH   1   2
BRANCH   1  27
ATOM     27  C   UNL A   1      39.034  21.780  25.953  1.00  0.00     0.042 C 
BRANCH  27  28
ATOM     28  C   UNL A   1      40.283  21.816  26.820  1.00  0.00     0.118 C 
BRANCH  28  29
ATOM     29  N   UNL A   1      41.528  22.030  26.082  1.00  0.00    -0.352 N 
ATOM     30  C   UNL A   1      42.175  23.231  25.837  1.00  0.00     0.251 C 
ATOM     31  H   UNL A   1      41.958  21.223  25.716  1.00  0.00     0.163 HD
ATOM     32  O   UNL A   1      43.020  23.326  24.963  1.00  0.00    -0.269 OA
BRANCH  30  33
ATOM     33  C   UNL A   1      41.809  24.412  26.647  1.00  0.00     0.039 A 
ATOM     34  C   UNL A   1      42.360  24.616  27.914  1.00  0.00     0.014 A 
ATOM     35  C   UNL A   1      40.930  25.345  26.106  1.00  0.00     0.014 A 
ATOM     36  C   UNL A   1      42.092  25.812  28.579  1.00  0.00     0.010 A 
ATOM     37  C   UNL A   1      40.798  26.586  26.684  1.00  0.00     0.010 A 
ATOM     38  C   UNL A   1      41.338  26.816  27.942  1.00  0.00    -0.014 A 
BRANCH  38  39
ATOM     39  C   UNL A   1      41.211  28.140  28.549  1.00  0.00     0.031 A 
ATOM     40  C   UNL A   1      42.281  29.105  28.166  1.00  0.00     0.074 A 
ATOM     41  C   UNL A   1      40.144  28.559  29.269  1.00  0.00     0.049 A 
ATOM     42  N   UNL A   1      43.180  29.622  28.936  1.00  0.00    -0.248 NA
ATOM     43  C   UNL A   1      42.444  29.451  26.746  1.00  0.00     0.031 C 
ATOM     44  C   UNL A   1      38.864  27.886  29.510  1.00  0.00     0.029 A 
ATOM     45  N   UNL A   1      39.965  29.760  29.888  1.00  0.00    -0.354 N 
ATOM     46  C   UNL A   1      43.929  30.486  28.142  1.00  0.00     0.074 A 
ATOM     47  C   UNL A   1      43.522  30.238  26.783  1.00  0.00     0.031 C 
ATOM     48  C   UNL A   1      37.972  28.769  30.013  1.00  0.00     0.029 A 
ATOM     49  C   UNL A   1      38.663  30.011  30.303  1.00  0.00     0.049 A 
ATOM     50  H   UNL A   1      40.700  30.400  30.030  1.00  0.00     0.167 HD
ATOM     51  C   UNL A   1      44.673  31.481  28.703  1.00  0.00     0.037 A 
ATOM     52  C   UNL A   1      38.187  31.161  30.842  1.00  0.00     0.037 A 
ATOM     53  C   UNL A   1      44.915  31.220  30.100  1.00  0.00     0.049 A 
ATOM     54  C   UNL A   1      39.350  31.910  31.376  1.00  0.00     0.074 A 
ATOM     55  C   UNL A   1      45.521  30.194  30.802  1.00  0.00     0.029 A 
ATOM     56  N   UNL A   1      44.170  31.902  31.032  1.00  0.00    -0.354 N 
ATOM     57  N   UNL A   1      40.052  31.521  32.403  1.00  0.00    -0.248 NA
ATOM     58  C   UNL A   1      40.010  32.848  30.482  1.00  0.00     0.031 C 
ATOM     59  C   UNL A   1      44.699  30.004  31.955  1.00  0.00     0.029 A 
ATOM     60  C   UNL A   1      43.696  30.972  31.922  1.00  0.00     0.049 A 
ATOM     61  H   UNL A   1      44.007  32.872  31.056  1.00  0.00     0.167 HD
ATOM     62  C   UNL A   1      41.362  31.798  32.052  1.00  0.00     0.074 A 
ATOM     63  C   UNL A   1      41.269  32.688  30.896  1.00  0.00     0.031 C 
ATOM     64  C   UNL A   1      42.399  31.060  32.547  1.00  0.00     0.037 A 
BRANCH  51  65
ATOM     65  C   UNL A   1      44.858  32.855  28.101  1.00  0.00     0.064 A 
ATOM     66  C   UNL A   1      46.148  33.253  27.692  1.00  0.00     0.173 A 
ATOM     67  C   UNL A   1      43.909  33.894  28.209  1.00  0.00     0.173 A 
ATOM     68  F   UNL A   1      47.133  32.352  27.559  1.00  0.00    -0.203 F 
ATOM     69  C   UNL A   1      46.485  34.597  27.515  1.00  0.00     0.198 A 
ATOM     70  C   UNL A   1      44.238  35.229  27.980  1.00  0.00     0.198 A 
ATOM     71  F   UNL A   1      42.664  33.684  28.647  1.00  0.00    -0.203 F 
ATOM     72  F   UNL A   1      47.758  34.936  27.269  1.00  0.00    -0.200 F 
ATOM     73  C   UNL A   1      45.533  35.586  27.672  1.00  0.00     0.200 A 
ATOM     74  F   UNL A   1      43.303  36.175  28.154  1.00  0.00    -0.200 F 
ATOM     75  F   UNL A   1      45.869  36.878  27.578  1.00  0.00    -0.200 F 
ENDBRANCH  51  65
BRANCH  52  76
ATOM     76  C   UNL A   1      36.859  31.796  30.664  1.00  0.00     0.064 A 
ATOM     77  C   UNL A   1      35.960  31.901  31.738  1.00  0.00     0.173 A 
ATOM     78  C   UNL A   1      36.574  32.579  29.530  1.00  0.00     0.173 A 
ATOM     79  F   UNL A   1      36.179  31.219  32.871  1.00  0.00    -0.203 F 
ATOM     80  C   UNL A   1      34.864  32.770  31.696  1.00  0.00     0.198 A 
ATOM     81  C   UNL A   1      35.478  33.442  29.487  1.00  0.00     0.198 A 
ATOM     82  F   UNL A   1      37.408  32.599  28.480  1.00  0.00    -0.203 F 
ATOM     83  F   UNL A   1      34.070  32.897  32.768  1.00  0.00    -0.200 F 
ATOM     84  C   UNL A   1      34.633  33.550  30.576  1.00  0.00     0.200 A 
ATOM     85  F   UNL A   1      35.285  34.220  28.411  1.00  0.00    -0.200 F 
ATOM     86  F   UNL A   1      33.625  34.435  30.562  1.00  0.00    -0.200 F 
ENDBRANCH  52  76
BRANCH  64  87
ATOM     87  C   UNL A   1      42.117  30.105  33.674  1.00  0.00     0.064 A 
ATOM     88  C   UNL A   1      41.701  28.773  33.501  1.00  0.00     0.173 A 
ATOM     89  C   UNL A   1      42.414  30.520  34.979  1.00  0.00     0.173 A 
ATOM     90  F   UNL A   1      41.490  28.265  32.282  1.00  0.00    -0.203 F 
ATOM     91  C   UNL A   1      41.547  27.916  34.591  1.00  0.00     0.198 A 
ATOM     92  C   UNL A   1      42.298  29.651  36.060  1.00  0.00     0.198 A 
ATOM     93  F   UNL A   1      42.865  31.765  35.202  1.00  0.00    -0.203 F 
ATOM     94  F   UNL A   1      41.133  26.653  34.401  1.00  0.00    -0.200 F 
ATOM     95  C   UNL A   1      41.853  28.353  35.868  1.00  0.00     0.200 A 
ATOM     96  F   UNL A   1      42.641  30.066  37.287  1.00  0.00    -0.200 F 
ATOM     97  F   UNL A   1      41.744  27.519  36.911  1.00  0.00    -0.200 F 
ENDBRANCH  64  87
ENDBRANCH  38  39
ENDBRANCH  30  33
ENDBRANCH  28  29
ENDBRANCH  27  28
ENDBRANCH   1  27
TORSDOF 15
ENDMDL
MODEL 2
REMARK VINA RESULT:     -12.7      2.856      4.563
REMARK SMILES O=C(CSc1nnc(Cc2ccncc2)n1-c1ccccc1Cl)NCCCNC(=O)c1ccc(-c2c3nc(c(-c4c(F)c(F)c(F)c(F)c4F)c4ccc([nH]4)c(-c4c(F)c(F)c(F)c(F)c4F)c4nc(c(-c5c(F)c(F)c(F)c(F)c5F)c5ccc2[nH]5)C=C4)C=C3)cc1
REMARK SMILES IDX 25 1 24 2 1 3 2 4 3 6 4 7 5 8 6 9 16 10 7 11 8 12 17 13
REMARK SMILES IDX 18 14 22 15 19 16 21 17 23 18 20 19 9 20 10 21 11 22 15 23
REMARK SMILES IDX 12 24 14 25 13 26 26 27 27 28 28 29 29 30 30 32 31 33 32 34
REMARK SMILES IDX 93 35 33 36 92 37 34 38 35 39 36 40 86 41 37 42 91 43 85 44
REMARK SMILES IDX 87 45 38 46 90 47 84 48 83 49 39 51 71 52 51 53 70 54 52 55
REMARK SMILES IDX 55 56 69 57 88 58 53 59 54 60 68 62 89 63 56 64 40 65 41 66
REMARK SMILES IDX 49 67 42 68 43 69 47 70 50 71 44 72 45 73 48 74 46 75 72 76
REMARK SMILES IDX 73 77 81 78 74 79 75 80 79 81 82 82 76 83 77 84 80 85 78 86
REMARK SMILES IDX 57 87 58 88 66 89 59 90 60 91 64 92 67 93 61 94 62 95 65 96
REMARK SMILES IDX 63 97
REMARK H PARENT 24 5 28 31 87 50 55 61
REMARK Flexibility Score: inf
ROOT
ATOM      1  C   UNL A   1      40.174  21.517  26.705  1.00  0.00     0.117 C 
ENDROOT
BRANCH   1   2
ATOM      2  N   UNL A   1      39.262  22.135  25.754  1.00  0.00    -0.355 N 
ATOM      3  O   UNL A   1      38.400  23.680  27.214  1.00  0.00    -0.274 OA
ATOM      4  C   UNL A   1      38.467  23.214  26.079  1.00  0.00     0.230 C 
ATOM      5  H   UNL A   1      39.210  21.766  24.842  1.00  0.00     0.163 HD
BRANCH   4   6
ATOM      6  C   UNL A   1      37.567  23.714  24.965  1.00  0.00     0.178 C 
BRANCH   6   7
ATOM      7  S   UNL A   1      35.812  23.780  25.379  1.00  0.00    -0.076 SA
BRANCH   7   8
ATOM      8  C   UNL A   1      35.218  22.213  24.924  1.00  0.00     0.196 A 
ATOM      9  N   UNL A   1      35.916  21.110  25.068  1.00  0.00    -0.123 NA
ATOM     10  N   UNL A   1      33.888  21.901  24.705  1.00  0.00    -0.272 N 
ATOM     11  N   UNL A   1      35.052  20.049  24.966  1.00  0.00    -0.134 NA
ATOM     12  C   UNL A   1      33.835  20.519  24.762  1.00  0.00     0.142 A 
BRANCH  10  13
ATOM     13  C   UNL A   1      32.799  22.789  24.599  1.00  0.00     0.068 A 
ATOM     14  C   UNL A   1      32.041  23.063  25.747  1.00  0.00     0.028 A 
ATOM     15  C   UNL A   1      32.486  23.397  23.378  1.00  0.00     0.065 A 
ATOM     16  C   UNL A   1      30.997  23.987  25.675  1.00  0.00     0.002 A 
ATOM     17  C   UNL A   1      31.455  24.337  23.326  1.00  0.00     0.023 A 
ATOM     18  Cl  UNL A   1      33.219  22.927  21.890  1.00  0.00    -0.082 Cl
ATOM     19  C   UNL A   1      30.717  24.636  24.472  1.00  0.00     0.002 A 
ENDBRANCH  10  13
BRANCH  12  20
ATOM     20  C   UNL A   1      32.604  19.692  24.582  1.00  0.00     0.113 C 
BRANCH  20  21
ATOM     21  C   UNL A   1      32.880  18.208  24.611  1.00  0.00    -0.037 A 
ATOM     22  C   UNL A   1      33.473  17.575  23.512  1.00  0.00     0.024 A 
ATOM     23  C   UNL A   1      32.546  17.429  25.722  1.00  0.00     0.024 A 
ATOM     24  C   UNL A   1      33.712  16.212  23.575  1.00  0.00     0.111 A 
ATOM     25  C   UNL A   1      32.830  16.072  25.692  1.00  0.00     0.111 A 
ATOM     26  N   UNL A   1      33.412  15.447  24.646  1.00  0.00    -0.265 NA
ENDBRANCH  20  21
ENDBRANCH  12  20
ENDBRANCH   7   8
ENDBRANCH   6   7
ENDBRANCH   4   6
ENDBRANCH   1   2
BRANCH   1  27
ATOM     27  C   UNL A   1      40.796  20.210  26.204  1.00  0.00     0.042 C 
BRANCH  27  28
ATOM     28  C   UNL A   1      42.122  19.875  26.868  1.00  0.00     0.118 C 
BRANCH  28  29
ATOM     29  N   UNL A   1      43.217  19.609  25.935  1.00  0.00    -0.352 N 
ATOM     30  C   UNL A   1      43.954  20.528  25.205  1.00  0.00     0.251 C 
ATOM     31  H   UNL A   1      43.460  18.662  25.811  1.00  0.00     0.163 HD
ATOM     32  O   UNL A   1      44.619  20.183  24.243  1.00  0.00    -0.269 OA
BRANCH  30  33
ATOM     33  C   UNL A   1      43.909  21.951  25.604  1.00  0.00     0.039 A 
ATOM     34  C   UNL A   1      43.055  22.852  24.966  1.00  0.00     0.014 A 
ATOM     35  C   UNL A   1      44.710  22.372  26.661  1.00  0.00     0.014 A 
ATOM     36  C   UNL A   1      42.946  24.147  25.469  1.00  0.00     0.010 A 
ATOM     37  C   UNL A   1      44.483  23.591  27.255  1.00  0.00     0.010 A 
ATOM     38  C   UNL A   1      43.637  24.505  26.642  1.00  0.00    -0.014 A 
BRANCH  38  39
ATOM     39  C   UNL A   1      43.384  25.796  27.283  1.00  0.00     0.031 A 
ATOM     40  C   UNL A   1      44.321  26.883  26.881  1.00  0.00     0.074 A 
ATOM     41  C   UNL A   1      42.307  26.076  28.051  1.00  0.00     0.049 A 
ATOM     42  N   UNL A   1      45.186  27.487  27.628  1.00  0.00    -0.248 NA
ATOM     43  C   UNL A   1      44.387  27.271  25.463  1.00  0.00     0.031 C 
ATOM     44  C   UNL A   1      41.123  25.256  28.326  1.00  0.00     0.029 A 
ATOM     45  N   UNL A   1      42.017  27.237  28.704  1.00  0.00    -0.354 N 
ATOM     46  C   UNL A   1      45.798  28.445  26.825  1.00  0.00     0.074 A 
ATOM     47  C   UNL A   1      45.368  28.176  25.478  1.00  0.00     0.031 C 
ATOM     48  C   UNL A   1      40.156  26.021  28.882  1.00  0.00     0.029 A 
ATOM     49  C   UNL A   1      40.713  27.329  29.174  1.00  0.00     0.049 A 
ATOM     50  H   UNL A   1      42.679  27.955  28.832  1.00  0.00     0.167 HD
ATOM     51  C   UNL A   1      46.446  29.509  27.379  1.00  0.00     0.037 A 
ATOM     52  C   UNL A   1      40.130  28.407  29.755  1.00  0.00     0.037 A 
ATOM     53  C   UNL A   1      46.772  29.252  28.761  1.00  0.00     0.049 A 
ATOM     54  C   UNL A   1      41.221  29.275  30.261  1.00  0.00     0.074 A 
ATOM     55  C   UNL A   1      47.519  28.290  29.416  1.00  0.00     0.029 A 
ATOM     56  N   UNL A   1      45.993  29.827  29.735  1.00  0.00    -0.354 N 
ATOM     57  N   UNL A   1      42.004  28.951  31.252  1.00  0.00    -0.248 NA
ATOM     58  C   UNL A   1      41.732  30.299  29.364  1.00  0.00     0.031 C 
ATOM     59  C   UNL A   1      46.771  27.987  30.595  1.00  0.00     0.029 A 
ATOM     60  C   UNL A   1      45.664  28.833  30.621  1.00  0.00     0.049 A 
ATOM     61  H   UNL A   1      45.721  30.771  29.786  1.00  0.00     0.167 HD
ATOM     62  C   UNL A   1      43.258  29.383  30.858  1.00  0.00     0.074 A 
ATOM     63  C   UNL A   1      43.017  30.277  29.726  1.00  0.00     0.031 C 
ATOM     64  C   UNL A   1      44.391  28.761  31.297  1.00  0.00     0.037 A 
BRANCH  51  65
ATOM     65  C   UNL A   1      46.449  30.905  26.802  1.00  0.00     0.064 A 
ATOM     66  C   UNL A   1      47.648  31.647  26.814  1.00  0.00     0.173 A 
ATOM     67  C   UNL A   1      45.278  31.651  26.542  1.00  0.00     0.173 A 
ATOM     68  F   UNL A   1      48.823  31.045  27.055  1.00  0.00    -0.203 F 
ATOM     69  C   UNL A   1      47.658  33.038  26.689  1.00  0.00     0.198 A 
ATOM     70  C   UNL A   1      45.300  33.033  26.366  1.00  0.00     0.198 A 
ATOM     71  F   UNL A   1      44.060  31.100  26.562  1.00  0.00    -0.203 F 
ATOM     72  F   UNL A   1      48.805  33.712  26.854  1.00  0.00    -0.200 F 
ATOM     73  C   UNL A   1      46.482  33.732  26.478  1.00  0.00     0.200 A 
ATOM     74  F   UNL A   1      44.145  33.689  26.178  1.00  0.00    -0.200 F 
ATOM     75  F   UNL A   1      46.478  35.070  26.433  1.00  0.00    -0.200 F 
ENDBRANCH  51  65
BRANCH  52  76
ATOM     76  C   UNL A   1      38.733  28.889  29.642  1.00  0.00     0.064 A 
ATOM     77  C   UNL A   1      37.949  29.106  30.787  1.00  0.00     0.173 A 
ATOM     78  C   UNL A   1      38.246  29.433  28.438  1.00  0.00     0.173 A 
ATOM     79  F   UNL A   1      38.360  28.655  31.981  1.00  0.00    -0.203 F 
ATOM     80  C   UNL A   1      36.772  29.860  30.740  1.00  0.00     0.198 A 
ATOM     81  C   UNL A   1      37.069  30.181  28.391  1.00  0.00     0.198 A 
ATOM     82  F   UNL A   1      38.955  29.336  27.304  1.00  0.00    -0.203 F 
ATOM     83  F   UNL A   1      36.090  30.108  31.867  1.00  0.00    -0.200 F 
ATOM     84  C   UNL A   1      36.341  30.409  29.544  1.00  0.00     0.200 A 
ATOM     85  F   UNL A   1      36.681  30.738  27.234  1.00  0.00    -0.200 F 
ATOM     86  F   UNL A   1      35.252  31.191  29.510  1.00  0.00    -0.200 F 
ENDBRANCH  52  76
BRANCH  64  87
ATOM     87  C   UNL A   1      44.266  27.760  32.412  1.00  0.00     0.064 A 
ATOM     88  C   UNL A   1      44.097  26.377  32.223  1.00  0.00     0.173 A 
ATOM     89  C   UNL A   1      44.462  28.209  33.725  1.00  0.00     0.173 A 
ATOM     90  F   UNL A   1      44.001  25.851  30.996  1.00  0.00    -0.203 F 
ATOM     91  C   UNL A   1      44.081  25.495  33.304  1.00  0.00     0.198 A 
ATOM     92  C   UNL A   1      44.485  27.322  34.798  1.00  0.00     0.198 A 
ATOM     93  F   UNL A   1      44.680  29.511  33.964  1.00  0.00    -0.203 F 
ATOM     94  F   UNL A   1      43.902  24.181  33.098  1.00  0.00    -0.200 F 
ATOM     95  C   UNL A   1      44.283  25.968  34.589  1.00  0.00     0.200 A 
ATOM     96  F   UNL A   1      44.728  27.780  36.034  1.00  0.00    -0.200 F 
ATOM     97  F   UNL A   1      44.307  25.117  35.625  1.00  0.00    -0.200 F 
ENDBRANCH  64  87
ENDBRANCH  38  39
ENDBRANCH  30  33
ENDBRANCH  28  29
ENDBRANCH  27  28
ENDBRANCH   1  27
TORSDOF 15
ENDMDL
MODEL 3
REMARK VINA RESULT:     -12.7      3.347      8.771
REMARK SMILES O=C(CSc1nnc(Cc2ccncc2)n1-c1ccccc1Cl)NCCCNC(=O)c1ccc(-c2c3nc(c(-c4c(F)c(F)c(F)c(F)c4F)c4ccc([nH]4)c(-c4c(F)c(F)c(F)c(F)c4F)c4nc(c(-c5c(F)c(F)c(F)c(F)c5F)c5ccc2[nH]5)C=C4)C=C3)cc1
REMARK SMILES IDX 25 1 24 2 1 3 2 4 3 6 4 7 5 8 6 9 16 10 7 11 8 12 17 13
REMARK SMILES IDX 18 14 22 15 19 16 21 17 23 18 20 19 9 20 10 21 11 22 15 23
REMARK SMILES IDX 12 24 14 25 13 26 26 27 27 28 28 29 29 30 30 32 31 33 32 34
REMARK SMILES IDX 93 35 33 36 92 37 34 38 35 39 36 40 86 41 37 42 91 43 85 44
REMARK SMILES IDX 87 45 38 46 90 47 84 48 83 49 39 51 71 52 51 53 70 54 52 55
REMARK SMILES IDX 55 56 69 57 88 58 53 59 54 60 68 62 89 63 56 64 40 65 41 66
REMARK SMILES IDX 49 67 42 68 43 69 47 70 50 71 44 72 45 73 48 74 46 75 72 76
REMARK SMILES IDX 73 77 81 78 74 79 75 80 79 81 82 82 76 83 77 84 80 85 78 86
REMARK SMILES IDX 57 87 58 88 66 89 59 90 60 91 64 92 67 93 61 94 62 95 65 96
REMARK SMILES IDX 63 97
REMARK H PARENT 24 5 28 31 87 50 55 61
REMARK Flexibility Score: inf
ROOT
ATOM      1  C   UNL A   1      34.392  29.987  27.324  1.00  0.00     0.117 C 
ENDROOT
BRANCH   1   2
ATOM      2  N   UNL A   1      34.143  29.470  25.987  1.00  0.00    -0.355 N 
ATOM      3  O   UNL A   1      31.954  28.890  26.355  1.00  0.00    -0.274 OA
ATOM      4  C   UNL A   1      32.910  28.996  25.590  1.00  0.00     0.230 C 
ATOM      5  H   UNL A   1      34.885  29.457  25.340  1.00  0.00     0.163 HD
BRANCH   4   6
ATOM      6  C   UNL A   1      32.843  28.480  24.165  1.00  0.00     0.178 C 
BRANCH   6   7
ATOM      7  S   UNL A   1      31.438  27.404  23.813  1.00  0.00    -0.076 SA
BRANCH   7   8
ATOM      8  C   UNL A   1      32.125  26.117  22.872  1.00  0.00     0.196 A 
ATOM      9  N   UNL A   1      32.744  26.314  21.731  1.00  0.00    -0.123 NA
ATOM     10  N   UNL A   1      32.408  24.849  23.347  1.00  0.00    -0.272 N 
ATOM     11  N   UNL A   1      33.465  25.182  21.443  1.00  0.00    -0.134 NA
ATOM     12  C   UNL A   1      33.276  24.307  22.415  1.00  0.00     0.142 A 
BRANCH  10  13
ATOM     13  C   UNL A   1      32.024  24.284  24.579  1.00  0.00     0.068 A 
ATOM     14  C   UNL A   1      30.864  23.498  24.625  1.00  0.00     0.028 A 
ATOM     15  C   UNL A   1      32.790  24.489  25.732  1.00  0.00     0.065 A 
ATOM     16  C   UNL A   1      30.501  22.879  25.823  1.00  0.00     0.002 A 
ATOM     17  C   UNL A   1      32.430  23.845  26.917  1.00  0.00     0.023 A 
ATOM     18  Cl  UNL A   1      34.083  25.628  25.799  1.00  0.00    -0.082 Cl
ATOM     19  C   UNL A   1      31.293  23.037  26.961  1.00  0.00     0.002 A 
ENDBRANCH  10  13
BRANCH  12  20
ATOM     20  C   UNL A   1      33.873  22.939  22.480  1.00  0.00     0.113 C 
BRANCH  20  21
ATOM     21  C   UNL A   1      34.894  22.793  23.584  1.00  0.00    -0.037 A 
ATOM     22  C   UNL A   1      34.729  21.823  24.579  1.00  0.00     0.024 A 
ATOM     23  C   UNL A   1      36.017  23.621  23.646  1.00  0.00     0.024 A 
ATOM     24  C   UNL A   1      35.687  21.717  25.574  1.00  0.00     0.111 A 
ATOM     25  C   UNL A   1      36.923  23.434  24.680  1.00  0.00     0.111 A 
ATOM     26  N   UNL A   1      36.787  22.496  25.641  1.00  0.00    -0.265 NA
ENDBRANCH  20  21
ENDBRANCH  12  20
ENDBRANCH   7   8
ENDBRANCH   6   7
ENDBRANCH   4   6
ENDBRANCH   1   2
BRANCH   1  27
ATOM     27  C   UNL A   1      33.705  31.327  27.605  1.00  0.00     0.042 C 
BRANCH  27  28
ATOM     28  C   UNL A   1      34.656  32.407  28.097  1.00  0.00     0.118 C 
BRANCH  28  29
ATOM     29  N   UNL A   1      34.569  32.684  29.530  1.00  0.00    -0.352 N 
ATOM     30  C   UNL A   1      35.293  32.096  30.556  1.00  0.00     0.251 C 
ATOM     31  H   UNL A   1      33.917  33.372  29.800  1.00  0.00     0.163 HD
ATOM     32  O   UNL A   1      34.926  32.176  31.715  1.00  0.00    -0.269 OA
BRANCH  30  33
ATOM     33  C   UNL A   1      36.522  31.346  30.216  1.00  0.00     0.039 A 
ATOM     34  C   UNL A   1      37.722  32.010  29.954  1.00  0.00     0.014 A 
ATOM     35  C   UNL A   1      36.471  29.956  30.202  1.00  0.00     0.014 A 
ATOM     36  C   UNL A   1      38.881  31.257  29.777  1.00  0.00     0.010 A 
ATOM     37  C   UNL A   1      37.634  29.223  30.190  1.00  0.00     0.010 A 
ATOM     38  C   UNL A   1      38.842  29.858  29.934  1.00  0.00    -0.014 A 
BRANCH  38  39
ATOM     39  C   UNL A   1      40.080  29.080  29.938  1.00  0.00     0.031 A 
ATOM     40  C   UNL A   1      40.683  28.879  31.287  1.00  0.00     0.074 A 
ATOM     41  C   UNL A   1      40.588  28.434  28.864  1.00  0.00     0.049 A 
ATOM     42  N   UNL A   1      41.811  29.342  31.716  1.00  0.00    -0.248 NA
ATOM     43  C   UNL A   1      39.897  28.180  32.315  1.00  0.00     0.031 C 
ATOM     44  C   UNL A   1      40.006  28.249  27.531  1.00  0.00     0.029 A 
ATOM     45  N   UNL A   1      41.744  27.717  28.781  1.00  0.00    -0.354 N 
ATOM     46  C   UNL A   1      41.963  28.864  33.015  1.00  0.00     0.074 A 
ATOM     47  C   UNL A   1      40.701  28.272  33.377  1.00  0.00     0.031 C 
ATOM     48  C   UNL A   1      40.690  27.292  26.863  1.00  0.00     0.029 A 
ATOM     49  C   UNL A   1      41.861  26.933  27.640  1.00  0.00     0.049 A 
ATOM     50  H   UNL A   1      42.443  27.752  29.475  1.00  0.00     0.167 HD
ATOM     51  C   UNL A   1      43.193  28.815  33.600  1.00  0.00     0.037 A 
ATOM     52  C   UNL A   1      42.848  26.046  27.359  1.00  0.00     0.037 A 
ATOM     53  C   UNL A   1      44.123  29.685  32.922  1.00  0.00     0.049 A 
ATOM     54  C   UNL A   1      44.016  26.409  28.197  1.00  0.00     0.074 A 
ATOM     55  C   UNL A   1      44.160  31.041  32.655  1.00  0.00     0.029 A 
ATOM     56  N   UNL A   1      45.036  29.124  32.062  1.00  0.00    -0.354 N 
ATOM     57  N   UNL A   1      44.715  27.496  28.034  1.00  0.00    -0.248 NA
ATOM     58  C   UNL A   1      44.118  25.786  29.508  1.00  0.00     0.031 C 
ATOM     59  C   UNL A   1      44.672  31.138  31.325  1.00  0.00     0.029 A 
ATOM     60  C   UNL A   1      44.985  29.848  30.898  1.00  0.00     0.049 A 
ATOM     61  H   UNL A   1      45.615  28.350  32.246  1.00  0.00     0.167 HD
ATOM     62  C   UNL A   1      44.977  27.937  29.320  1.00  0.00     0.074 A 
ATOM     63  C   UNL A   1      44.657  26.803  30.185  1.00  0.00     0.031 C 
ATOM     64  C   UNL A   1      45.156  29.263  29.591  1.00  0.00     0.037 A 
BRANCH  51  65
ATOM     65  C   UNL A   1      43.656  27.718  34.531  1.00  0.00     0.064 A 
ATOM     66  C   UNL A   1      43.620  26.381  34.082  1.00  0.00     0.173 A 
ATOM     67  C   UNL A   1      43.818  27.884  35.923  1.00  0.00     0.173 A 
ATOM     68  F   UNL A   1      43.465  26.100  32.779  1.00  0.00    -0.203 F 
ATOM     69  C   UNL A   1      43.633  25.302  34.969  1.00  0.00     0.198 A 
ATOM     70  C   UNL A   1      43.883  26.803  36.800  1.00  0.00     0.198 A 
ATOM     71  F   UNL A   1      43.806  29.087  36.506  1.00  0.00    -0.203 F 
ATOM     72  F   UNL A   1      43.450  24.058  34.506  1.00  0.00    -0.200 F 
ATOM     73  C   UNL A   1      43.752  25.514  36.329  1.00  0.00     0.200 A 
ATOM     74  F   UNL A   1      43.982  27.031  38.118  1.00  0.00    -0.200 F 
ATOM     75  F   UNL A   1      43.689  24.489  37.187  1.00  0.00    -0.200 F 
ENDBRANCH  51  65
BRANCH  52  76
ATOM     76  C   UNL A   1      42.761  24.744  26.655  1.00  0.00     0.064 A 
ATOM     77  C   UNL A   1      43.409  24.544  25.425  1.00  0.00     0.173 A 
ATOM     78  C   UNL A   1      42.304  23.589  27.317  1.00  0.00     0.173 A 
ATOM     79  F   UNL A   1      43.909  25.588  24.748  1.00  0.00    -0.203 F 
ATOM     80  C   UNL A   1      43.624  23.262  24.908  1.00  0.00     0.198 A 
ATOM     81  C   UNL A   1      42.515  22.311  26.798  1.00  0.00     0.198 A 
ATOM     82  F   UNL A   1      41.733  23.670  28.528  1.00  0.00    -0.203 F 
ATOM     83  F   UNL A   1      44.311  23.107  23.767  1.00  0.00    -0.200 F 
ATOM     84  C   UNL A   1      43.190  22.146  25.603  1.00  0.00     0.200 A 
ATOM     85  F   UNL A   1      42.122  21.236  27.498  1.00  0.00    -0.200 F 
ATOM     86  F   UNL A   1      43.459  20.915  25.144  1.00  0.00    -0.200 F 
ENDBRANCH  52  76
BRANCH  64  87
ATOM     87  C   UNL A   1      45.315  30.209  28.434  1.00  0.00     0.064 A 
ATOM     88  C   UNL A   1      44.245  30.807  27.743  1.00  0.00     0.173 A 
ATOM     89  C   UNL A   1      46.609  30.634  28.103  1.00  0.00     0.173 A 
ATOM     90  F   UNL A   1      42.975  30.533  28.062  1.00  0.00    -0.203 F 
ATOM     91  C   UNL A   1      44.469  31.749  26.738  1.00  0.00     0.198 A 
ATOM     92  C   UNL A   1      46.827  31.602  27.128  1.00  0.00     0.198 A 
ATOM     93  F   UNL A   1      47.668  30.138  28.763  1.00  0.00    -0.203 F 
ATOM     94  F   UNL A   1      43.432  32.292  26.083  1.00  0.00    -0.200 F 
ATOM     95  C   UNL A   1      45.758  32.151  26.438  1.00  0.00     0.200 A 
ATOM     96  F   UNL A   1      48.074  32.023  26.874  1.00  0.00    -0.200 F 
ATOM     97  F   UNL A   1      45.972  33.084  25.499  1.00  0.00    -0.200 F 
ENDBRANCH  64  87
ENDBRANCH  38  39
ENDBRANCH  30  33
ENDBRANCH  28  29
ENDBRANCH  27  28
ENDBRANCH   1  27
TORSDOF 15
ENDMDL
