MODEL 1
REMARK VINA RESULT:     -12.2      0.000      0.000
REMARK SMILES O=C(NCCCNC(=O)[C@H]1CC[C@@H]2CCCC[C@H]2[NH2+]1)c1ccc(-c2c3nc(c(-c4c(F)c(F)c(F)c(F)c4F)c4ccc([nH]4)c(-c4c(F)c(F)c(F)c(F)c4F)c4nc(c(-c5c(F)c(F)c(F)c(F)c5F)c5ccc2[nH]5)C=C4)C=C3)cc1
REMARK SMILES IDX 4 1 3 2 1 3 2 4 20 6 21 7 82 8 22 9 81 10 23 11 24 12 25 13
REMARK SMILES IDX 75 14 26 15 80 16 74 17 76 18 27 19 79 20 73 21 72 22 28 24
REMARK SMILES IDX 60 25 40 26 59 27 41 28 44 29 58 30 77 31 42 32 43 33 57 35
REMARK SMILES IDX 78 36 45 37 29 38 30 39 38 40 31 41 32 42 36 43 39 44 33 45
REMARK SMILES IDX 34 46 37 47 35 48 61 49 62 50 70 51 63 52 64 53 68 54 71 55
REMARK SMILES IDX 65 56 66 57 69 58 67 59 46 60 47 61 55 62 48 63 49 64 53 65
REMARK SMILES IDX 56 66 50 67 51 68 54 69 52 70 5 71 6 72 7 73 8 74 9 76 10 77
REMARK SMILES IDX 11 78 19 79 12 80 18 81 13 84 17 85 14 86 16 87 15 88
REMARK H PARENT 3 5 76 23 44 34 7 75 19 82 19 83
REMARK Flexibility Score: inf
ROOT
ATOM      1  C   UNL A   1      32.608  32.418  26.990  1.00  0.00     0.118 C 
ENDROOT
BRANCH   1   2
ATOM      2  N   UNL A   1      32.428  33.798  27.421  1.00  0.00    -0.352 N 
ATOM      3  O   UNL A   1      32.641  35.616  28.734  1.00  0.00    -0.269 OA
ATOM      4  C   UNL A   1      33.062  34.508  28.411  1.00  0.00     0.251 C 
ATOM      5  H   UNL A   1      31.744  34.301  26.924  1.00  0.00     0.163 HD
BRANCH   4   6
ATOM      6  C   UNL A   1      34.233  33.937  29.112  1.00  0.00     0.039 A 
ATOM      7  C   UNL A   1      35.528  34.368  28.819  1.00  0.00     0.014 A 
ATOM      8  C   UNL A   1      34.028  32.965  30.095  1.00  0.00     0.014 A 
ATOM      9  C   UNL A   1      36.618  33.711  29.376  1.00  0.00     0.010 A 
ATOM     10  C   UNL A   1      35.124  32.375  30.731  1.00  0.00     0.010 A 
ATOM     11  C   UNL A   1      36.431  32.713  30.345  1.00  0.00    -0.014 A 
BRANCH  11  12
ATOM     12  C   UNL A   1      37.616  32.069  30.965  1.00  0.00     0.031 A 
ATOM     13  C   UNL A   1      38.048  32.419  32.362  1.00  0.00     0.074 A 
ATOM     14  C   UNL A   1      38.289  31.136  30.267  1.00  0.00     0.049 A 
ATOM     15  N   UNL A   1      39.039  31.932  33.068  1.00  0.00    -0.248 NA
ATOM     16  C   UNL A   1      37.275  33.459  33.057  1.00  0.00     0.031 C 
ATOM     17  C   UNL A   1      37.971  30.717  28.900  1.00  0.00     0.029 A 
ATOM     18  N   UNL A   1      39.363  30.354  30.610  1.00  0.00    -0.354 N 
ATOM     19  C   UNL A   1      39.023  32.620  34.274  1.00  0.00     0.074 A 
ATOM     20  C   UNL A   1      37.943  33.580  34.195  1.00  0.00     0.031 C 
ATOM     21  C   UNL A   1      38.792  29.721  28.542  1.00  0.00     0.029 A 
ATOM     22  C   UNL A   1      39.735  29.472  29.627  1.00  0.00     0.049 A 
ATOM     23  H   UNL A   1      39.822  30.420  31.479  1.00  0.00     0.167 HD
ATOM     24  C   UNL A   1      39.832  32.459  35.350  1.00  0.00     0.037 A 
ATOM     25  C   UNL A   1      40.731  28.569  29.596  1.00  0.00     0.037 A 
ATOM     26  C   UNL A   1      40.895  31.488  35.428  1.00  0.00     0.049 A 
ATOM     27  C   UNL A   1      41.626  28.427  30.793  1.00  0.00     0.074 A 
ATOM     28  C   UNL A   1      41.740  31.216  36.490  1.00  0.00     0.029 A 
ATOM     29  N   UNL A   1      41.265  30.634  34.397  1.00  0.00    -0.354 N 
ATOM     30  N   UNL A   1      41.575  29.054  31.943  1.00  0.00    -0.248 NA
ATOM     31  C   UNL A   1      42.718  27.453  30.685  1.00  0.00     0.031 C 
ATOM     32  C   UNL A   1      42.655  30.237  36.083  1.00  0.00     0.029 A 
ATOM     33  C   UNL A   1      42.342  29.854  34.790  1.00  0.00     0.049 A 
ATOM     34  H   UNL A   1      40.826  30.590  33.518  1.00  0.00     0.167 HD
ATOM     35  C   UNL A   1      42.607  28.531  32.708  1.00  0.00     0.074 A 
ATOM     36  C   UNL A   1      43.261  27.526  31.893  1.00  0.00     0.031 C 
ATOM     37  C   UNL A   1      42.979  28.853  33.971  1.00  0.00     0.037 A 
BRANCH  24  38
ATOM     38  C   UNL A   1      39.618  33.374  36.524  1.00  0.00     0.064 A 
ATOM     39  C   UNL A   1      38.776  33.028  37.591  1.00  0.00     0.173 A 
ATOM     40  C   UNL A   1      40.286  34.607  36.592  1.00  0.00     0.173 A 
ATOM     41  F   UNL A   1      38.105  31.867  37.574  1.00  0.00    -0.203 F 
ATOM     42  C   UNL A   1      38.582  33.898  38.663  1.00  0.00     0.198 A 
ATOM     43  C   UNL A   1      40.115  35.459  37.679  1.00  0.00     0.198 A 
ATOM     44  F   UNL A   1      41.110  34.985  35.603  1.00  0.00    -0.203 F 
ATOM     45  F   UNL A   1      37.729  33.571  39.644  1.00  0.00    -0.200 F 
ATOM     46  C   UNL A   1      39.256  35.109  38.709  1.00  0.00     0.200 A 
ATOM     47  F   UNL A   1      40.778  36.623  37.728  1.00  0.00    -0.200 F 
ATOM     48  F   UNL A   1      39.070  35.943  39.741  1.00  0.00    -0.200 F 
ENDBRANCH  24  38
BRANCH  25  49
ATOM     49  C   UNL A   1      40.913  27.718  28.393  1.00  0.00     0.064 A 
ATOM     50  C   UNL A   1      40.273  26.477  28.287  1.00  0.00     0.173 A 
ATOM     51  C   UNL A   1      41.710  28.137  27.316  1.00  0.00     0.173 A 
ATOM     52  F   UNL A   1      39.516  26.026  29.298  1.00  0.00    -0.203 F 
ATOM     53  C   UNL A   1      40.430  25.681  27.154  1.00  0.00     0.198 A 
ATOM     54  C   UNL A   1      41.842  27.353  26.172  1.00  0.00     0.198 A 
ATOM     55  F   UNL A   1      42.339  29.320  27.367  1.00  0.00    -0.203 F 
ATOM     56  F   UNL A   1      39.835  24.481  27.095  1.00  0.00    -0.200 F 
ATOM     57  C   UNL A   1      41.207  26.124  26.095  1.00  0.00     0.200 A 
ATOM     58  F   UNL A   1      42.580  27.794  25.144  1.00  0.00    -0.200 F 
ATOM     59  F   UNL A   1      41.348  25.363  25.001  1.00  0.00    -0.200 F 
ENDBRANCH  25  49
BRANCH  37  60
ATOM     60  C   UNL A   1      44.116  28.076  34.568  1.00  0.00     0.064 A 
ATOM     61  C   UNL A   1      45.444  28.524  34.485  1.00  0.00     0.173 A 
ATOM     62  C   UNL A   1      43.870  26.875  35.251  1.00  0.00     0.173 A 
ATOM     63  F   UNL A   1      45.734  29.657  33.829  1.00  0.00    -0.203 F 
ATOM     64  C   UNL A   1      46.484  27.783  35.038  1.00  0.00     0.198 A 
ATOM     65  C   UNL A   1      44.910  26.153  35.829  1.00  0.00     0.198 A 
ATOM     66  F   UNL A   1      42.619  26.404  35.362  1.00  0.00    -0.203 F 
ATOM     67  F   UNL A   1      47.750  28.201  34.899  1.00  0.00    -0.200 F 
ATOM     68  C   UNL A   1      46.217  26.601  35.715  1.00  0.00     0.200 A 
ATOM     69  F   UNL A   1      44.647  25.019  36.494  1.00  0.00    -0.200 F 
ATOM     70  F   UNL A   1      47.219  25.891  36.248  1.00  0.00    -0.200 F 
ENDBRANCH  37  60
ENDBRANCH  11  12
ENDBRANCH   4   6
ENDBRANCH   1   2
BRANCH   1  71
ATOM     71  C   UNL A   1      31.317  31.778  26.501  1.00  0.00     0.042 C 
BRANCH  71  72
ATOM     72  C   UNL A   1      31.522  30.469  25.751  1.00  0.00     0.118 C 
BRANCH  72  73
ATOM     73  N   UNL A   1      30.814  30.453  24.481  1.00  0.00    -0.351 N 
ATOM     74  C   UNL A   1      30.445  29.403  23.691  1.00  0.00     0.278 C 
ATOM     75  H   UNL A   1      30.560  31.339  24.136  1.00  0.00     0.163 HD
ATOM     76  O   UNL A   1      29.848  29.661  22.641  1.00  0.00    -0.268 OA
BRANCH  74  77
ATOM     77  C   UNL A   1      30.769  27.947  24.076  1.00  0.00     0.272 C 
ATOM     78  C   UNL A   1      29.583  27.025  23.780  1.00  0.00     0.076 C 
ATOM     79  N   UNL A   1      32.022  27.527  23.414  1.00  0.00    -0.333 N 
ATOM     80  C   UNL A   1      29.931  25.563  24.046  1.00  0.00     0.016 C 
ATOM     81  C   UNL A   1      32.363  26.132  23.687  1.00  0.00     0.186 C 
ATOM     82  H   UNL A   1      32.782  28.120  23.747  1.00  0.00     0.347 HD
ATOM     83  H   UNL A   1      31.885  27.620  22.407  1.00  0.00     0.347 HD
ATOM     84  C   UNL A   1      31.210  25.188  23.293  1.00  0.00     0.048 C 
ATOM     85  C   UNL A   1      33.633  25.774  22.904  1.00  0.00     0.065 C 
ATOM     86  C   UNL A   1      31.602  23.729  23.551  1.00  0.00     0.010 C 
ATOM     87  C   UNL A   1      34.028  24.316  23.126  1.00  0.00     0.006 C 
ATOM     88  C   UNL A   1      32.882  23.360  22.803  1.00  0.00     0.001 C 
ENDBRANCH  74  77
ENDBRANCH  72  73
ENDBRANCH  71  72
ENDBRANCH   1  71
TORSDOF 10
ENDMDL
MODEL 2
REMARK VINA RESULT:     -12.2      0.131      1.663
REMARK SMILES O=C(NCCCNC(=O)[C@H]1CC[C@@H]2CCCC[C@H]2[NH2+]1)c1ccc(-c2c3nc(c(-c4c(F)c(F)c(F)c(F)c4F)c4ccc([nH]4)c(-c4c(F)c(F)c(F)c(F)c4F)c4nc(c(-c5c(F)c(F)c(F)c(F)c5F)c5ccc2[nH]5)C=C4)C=C3)cc1
REMARK SMILES IDX 4 1 3 2 1 3 2 4 20 6 21 7 82 8 22 9 81 10 23 11 24 12 25 13
REMARK SMILES IDX 75 14 26 15 80 16 74 17 76 18 27 19 79 20 73 21 72 22 28 24
REMARK SMILES IDX 60 25 40 26 59 27 41 28 44 29 58 30 77 31 42 32 43 33 57 35
REMARK SMILES IDX 78 36 45 37 29 38 30 39 38 40 31 41 32 42 36 43 39 44 33 45
REMARK SMILES IDX 34 46 37 47 35 48 61 49 62 50 70 51 63 52 64 53 68 54 71 55
REMARK SMILES IDX 65 56 66 57 69 58 67 59 46 60 47 61 55 62 48 63 49 64 53 65
REMARK SMILES IDX 56 66 50 67 51 68 54 69 52 70 5 71 6 72 7 73 8 74 9 76 10 77
REMARK SMILES IDX 11 78 19 79 12 80 18 81 13 84 17 85 14 86 16 87 15 88
REMARK H PARENT 3 5 76 23 44 34 7 75 19 82 19 83
REMARK Flexibility Score: inf
ROOT
ATOM      1  C   UNL A   1      32.606  32.411  26.969  1.00  0.00     0.118 C 
ENDROOT
BRANCH   1   2
ATOM      2  N   UNL A   1      32.410  33.786  27.409  1.00  0.00    -0.352 N 
ATOM      3  O   UNL A   1      32.603  35.599  28.731  1.00  0.00    -0.269 OA
ATOM      4  C   UNL A   1      33.037  34.499  28.401  1.00  0.00     0.251 C 
ATOM      5  H   UNL A   1      31.716  34.283  26.918  1.00  0.00     0.163 HD
BRANCH   4   6
ATOM      6  C   UNL A   1      34.219  33.939  29.094  1.00  0.00     0.039 A 
ATOM      7  C   UNL A   1      35.507  34.387  28.797  1.00  0.00     0.014 A 
ATOM      8  C   UNL A   1      34.030  32.961  30.075  1.00  0.00     0.014 A 
ATOM      9  C   UNL A   1      36.607  33.740  29.346  1.00  0.00     0.010 A 
ATOM     10  C   UNL A   1      35.136  32.382  30.703  1.00  0.00     0.010 A 
ATOM     11  C   UNL A   1      36.437  32.737  30.313  1.00  0.00    -0.014 A 
BRANCH  11  12
ATOM     12  C   UNL A   1      37.632  32.104  30.925  1.00  0.00     0.031 A 
ATOM     13  C   UNL A   1      38.064  32.451  32.323  1.00  0.00     0.074 A 
ATOM     14  C   UNL A   1      38.315  31.185  30.218  1.00  0.00     0.049 A 
ATOM     15  N   UNL A   1      39.063  31.973  33.023  1.00  0.00    -0.248 NA
ATOM     16  C   UNL A   1      37.278  33.476  33.027  1.00  0.00     0.031 C 
ATOM     17  C   UNL A   1      37.999  30.771  28.849  1.00  0.00     0.029 A 
ATOM     18  N   UNL A   1      39.401  30.416  30.553  1.00  0.00    -0.354 N 
ATOM     19  C   UNL A   1      39.042  32.652  34.233  1.00  0.00     0.074 A 
ATOM     20  C   UNL A   1      37.948  33.598  34.164  1.00  0.00     0.031 C 
ATOM     21  C   UNL A   1      38.832  29.789  28.482  1.00  0.00     0.029 A 
ATOM     22  C   UNL A   1      39.782  29.546  29.563  1.00  0.00     0.049 A 
ATOM     23  H   UNL A   1      39.861  30.482  31.420  1.00  0.00     0.167 HD
ATOM     24  C   UNL A   1      39.856  32.495  35.306  1.00  0.00     0.037 A 
ATOM     25  C   UNL A   1      40.790  28.657  29.523  1.00  0.00     0.037 A 
ATOM     26  C   UNL A   1      40.933  31.538  35.374  1.00  0.00     0.049 A 
ATOM     27  C   UNL A   1      41.690  28.519  30.716  1.00  0.00     0.074 A 
ATOM     28  C   UNL A   1      41.784  31.271  36.431  1.00  0.00     0.029 A 
ATOM     29  N   UNL A   1      41.310  30.696  34.336  1.00  0.00    -0.354 N 
ATOM     30  N   UNL A   1      41.634  29.137  31.870  1.00  0.00    -0.248 NA
ATOM     31  C   UNL A   1      42.795  27.560  30.598  1.00  0.00     0.031 C 
ATOM     32  C   UNL A   1      42.711  30.307  36.015  1.00  0.00     0.029 A 
ATOM     33  C   UNL A   1      42.400  29.928  34.720  1.00  0.00     0.049 A 
ATOM     34  H   UNL A   1      40.869  30.652  33.458  1.00  0.00     0.167 HD
ATOM     35  C   UNL A   1      42.676  28.622  32.628  1.00  0.00     0.074 A 
ATOM     36  C   UNL A   1      43.341  27.632  31.805  1.00  0.00     0.031 C 
ATOM     37  C   UNL A   1      43.047  28.941  33.893  1.00  0.00     0.037 A 
BRANCH  24  38
ATOM     38  C   UNL A   1      39.634  33.399  36.486  1.00  0.00     0.064 A 
ATOM     39  C   UNL A   1      40.266  34.648  36.595  1.00  0.00     0.173 A 
ATOM     40  C   UNL A   1      38.755  33.021  37.513  1.00  0.00     0.173 A 
ATOM     41  F   UNL A   1      41.124  35.055  35.647  1.00  0.00    -0.203 F 
ATOM     42  C   UNL A   1      40.056  35.465  37.704  1.00  0.00     0.198 A 
ATOM     43  C   UNL A   1      38.522  33.853  38.604  1.00  0.00     0.198 A 
ATOM     44  F   UNL A   1      38.116  31.843  37.456  1.00  0.00    -0.203 F 
ATOM     45  F   UNL A   1      40.714  36.626  37.814  1.00  0.00    -0.200 F 
ATOM     46  C   UNL A   1      39.180  35.069  38.704  1.00  0.00     0.200 A 
ATOM     47  F   UNL A   1      37.664  33.477  39.562  1.00  0.00    -0.200 F 
ATOM     48  F   UNL A   1      38.977  35.857  39.770  1.00  0.00    -0.200 F 
ENDBRANCH  24  38
BRANCH  25  49
ATOM     49  C   UNL A   1      40.980  27.816  28.313  1.00  0.00     0.064 A 
ATOM     50  C   UNL A   1      41.764  28.264  27.243  1.00  0.00     0.173 A 
ATOM     51  C   UNL A   1      40.404  26.540  28.213  1.00  0.00     0.173 A 
ATOM     52  F   UNL A   1      42.321  29.484  27.285  1.00  0.00    -0.203 F 
ATOM     53  C   UNL A   1      41.957  27.473  26.112  1.00  0.00     0.198 A 
ATOM     54  C   UNL A   1      40.622  25.739  27.095  1.00  0.00     0.198 A 
ATOM     55  F   UNL A   1      39.650  26.064  29.214  1.00  0.00    -0.203 F 
ATOM     56  F   UNL A   1      42.681  27.941  25.086  1.00  0.00    -0.200 F 
ATOM     57  C   UNL A   1      41.392  26.209  26.043  1.00  0.00     0.200 A 
ATOM     58  F   UNL A   1      40.089  24.511  27.041  1.00  0.00    -0.200 F 
ATOM     59  F   UNL A   1      41.588  25.444  24.960  1.00  0.00    -0.200 F 
ENDBRANCH  25  49
BRANCH  37  60
ATOM     60  C   UNL A   1      44.197  28.176  34.481  1.00  0.00     0.064 A 
ATOM     61  C   UNL A   1      45.518  28.642  34.397  1.00  0.00     0.173 A 
ATOM     62  C   UNL A   1      43.969  26.968  35.158  1.00  0.00     0.173 A 
ATOM     63  F   UNL A   1      45.790  29.783  33.746  1.00  0.00    -0.203 F 
ATOM     64  C   UNL A   1      46.570  27.911  34.941  1.00  0.00     0.198 A 
ATOM     65  C   UNL A   1      45.020  26.256  35.728  1.00  0.00     0.198 A 
ATOM     66  F   UNL A   1      42.725  26.480  35.270  1.00  0.00    -0.203 F 
ATOM     67  F   UNL A   1      47.829  28.347  34.801  1.00  0.00    -0.200 F 
ATOM     68  C   UNL A   1      46.320  26.722  35.612  1.00  0.00     0.200 A 
ATOM     69  F   UNL A   1      44.774  25.115  36.387  1.00  0.00    -0.200 F 
ATOM     70  F   UNL A   1      47.334  26.022  36.137  1.00  0.00    -0.200 F 
ENDBRANCH  37  60
ENDBRANCH  11  12
ENDBRANCH   4   6
ENDBRANCH   1   2
BRANCH   1  71
ATOM     71  C   UNL A   1      31.312  31.738  26.536  1.00  0.00     0.042 C 
BRANCH  71  72
ATOM     72  C   UNL A   1      31.519  30.455  25.743  1.00  0.00     0.118 C 
BRANCH  72  73
ATOM     73  N   UNL A   1      30.806  30.477  24.476  1.00  0.00    -0.351 N 
ATOM     74  C   UNL A   1      30.411  29.449  23.669  1.00  0.00     0.278 C 
ATOM     75  H   UNL A   1      30.570  31.375  24.148  1.00  0.00     0.163 HD
ATOM     76  O   UNL A   1      29.816  29.739  22.626  1.00  0.00    -0.268 OA
BRANCH  74  77
ATOM     77  C   UNL A   1      30.705  27.980  24.026  1.00  0.00     0.272 C 
ATOM     78  C   UNL A   1      29.498  27.089  23.715  1.00  0.00     0.076 C 
ATOM     79  N   UNL A   1      31.947  27.546  23.354  1.00  0.00    -0.333 N 
ATOM     80  C   UNL A   1      29.816  25.616  23.954  1.00  0.00     0.016 C 
ATOM     81  C   UNL A   1      32.259  26.139  23.600  1.00  0.00     0.186 C 
ATOM     82  H   UNL A   1      32.721  28.116  23.697  1.00  0.00     0.347 HD
ATOM     83  H   UNL A   1      31.811  27.660  22.350  1.00  0.00     0.347 HD
ATOM     84  C   UNL A   1      31.086  25.227  23.192  1.00  0.00     0.048 C 
ATOM     85  C   UNL A   1      33.520  25.768  22.809  1.00  0.00     0.065 C 
ATOM     86  C   UNL A   1      31.447  23.755  23.422  1.00  0.00     0.010 C 
ATOM     87  C   UNL A   1      33.884  24.299  23.003  1.00  0.00     0.006 C 
ATOM     88  C   UNL A   1      32.718  23.374  22.664  1.00  0.00     0.001 C 
ENDBRANCH  74  77
ENDBRANCH  72  73
ENDBRANCH  71  72
ENDBRANCH   1  71
TORSDOF 10
ENDMDL
MODEL 3
REMARK VINA RESULT:     -12.2      5.827     11.114
REMARK SMILES O=C(NCCCNC(=O)[C@H]1CC[C@@H]2CCCC[C@H]2[NH2+]1)c1ccc(-c2c3nc(c(-c4c(F)c(F)c(F)c(F)c4F)c4ccc([nH]4)c(-c4c(F)c(F)c(F)c(F)c4F)c4nc(c(-c5c(F)c(F)c(F)c(F)c5F)c5ccc2[nH]5)C=C4)C=C3)cc1
REMARK SMILES IDX 4 1 3 2 1 3 2 4 20 6 21 7 82 8 22 9 81 10 23 11 24 12 25 13
REMARK SMILES IDX 75 14 26 15 80 16 74 17 76 18 27 19 79 20 73 21 72 22 28 24
REMARK SMILES IDX 60 25 40 26 59 27 41 28 44 29 58 30 77 31 42 32 43 33 57 35
REMARK SMILES IDX 78 36 45 37 29 38 30 39 38 40 31 41 32 42 36 43 39 44 33 45
REMARK SMILES IDX 34 46 37 47 35 48 61 49 62 50 70 51 63 52 64 53 68 54 71 55
REMARK SMILES IDX 65 56 66 57 69 58 67 59 46 60 47 61 55 62 48 63 49 64 53 65
REMARK SMILES IDX 56 66 50 67 51 68 54 69 52 70 5 71 6 72 7 73 8 74 9 76 10 77
REMARK SMILES IDX 11 78 19 79 12 80 18 81 13 84 17 85 14 86 16 87 15 88
REMARK H PARENT 3 5 76 23 44 34 7 75 19 82 19 83
REMARK Flexibility Score: inf
ROOT
ATOM      1  C   UNL A   1      38.955  20.180  25.755  1.00  0.00     0.118 C 
ENDROOT
BRANCH   1   2
ATOM      2  N   UNL A   1      40.030  19.207  25.891  1.00  0.00    -0.352 N 
ATOM      3  O   UNL A   1      42.145  18.442  26.022  1.00  0.00    -0.269 OA
ATOM      4  C   UNL A   1      41.373  19.393  26.113  1.00  0.00     0.251 C 
ATOM      5  H   UNL A   1      39.751  18.267  25.809  1.00  0.00     0.163 HD
BRANCH   4   6
ATOM      6  C   UNL A   1      41.901  20.737  26.436  1.00  0.00     0.039 A 
ATOM      7  C   UNL A   1      42.247  21.079  27.744  1.00  0.00     0.014 A 
ATOM      8  C   UNL A   1      42.070  21.665  25.405  1.00  0.00     0.014 A 
ATOM      9  C   UNL A   1      42.593  22.391  28.047  1.00  0.00     0.010 A 
ATOM     10  C   UNL A   1      42.517  22.957  25.697  1.00  0.00     0.010 A 
ATOM     11  C   UNL A   1      42.741  23.343  27.027  1.00  0.00    -0.014 A 
BRANCH  11  12
ATOM     12  C   UNL A   1      43.168  24.722  27.376  1.00  0.00     0.031 A 
ATOM     13  C   UNL A   1      44.566  25.197  27.090  1.00  0.00     0.074 A 
ATOM     14  C   UNL A   1      42.272  25.560  27.928  1.00  0.00     0.049 A 
ATOM     15  N   UNL A   1      45.098  26.377  27.299  1.00  0.00    -0.248 NA
ATOM     16  C   UNL A   1      45.494  24.221  26.499  1.00  0.00     0.031 C 
ATOM     17  C   UNL A   1      40.889  25.212  28.261  1.00  0.00     0.029 A 
ATOM     18  N   UNL A   1      42.376  26.880  28.288  1.00  0.00    -0.354 N 
ATOM     19  C   UNL A   1      46.421  26.277  26.893  1.00  0.00     0.074 A 
ATOM     20  C   UNL A   1      46.622  24.914  26.450  1.00  0.00     0.031 C 
ATOM     21  C   UNL A   1      40.260  26.300  28.724  1.00  0.00     0.029 A 
ATOM     22  C   UNL A   1      41.209  27.407  28.781  1.00  0.00     0.049 A 
ATOM     23  H   UNL A   1      43.209  27.398  28.203  1.00  0.00     0.167 HD
ATOM     24  C   UNL A   1      47.378  27.237  26.883  1.00  0.00     0.037 A 
ATOM     25  C   UNL A   1      40.933  28.641  29.238  1.00  0.00     0.037 A 
ATOM     26  C   UNL A   1      47.165  28.599  27.309  1.00  0.00     0.049 A 
ATOM     27  C   UNL A   1      42.017  29.680  29.237  1.00  0.00     0.074 A 
ATOM     28  C   UNL A   1      48.057  29.657  27.295  1.00  0.00     0.029 A 
ATOM     29  N   UNL A   1      45.976  29.087  27.834  1.00  0.00    -0.354 N 
ATOM     30  N   UNL A   1      43.253  29.585  28.810  1.00  0.00    -0.248 NA
ATOM     31  C   UNL A   1      41.666  30.996  29.782  1.00  0.00     0.031 C 
ATOM     32  C   UNL A   1      47.425  30.771  27.861  1.00  0.00     0.029 A 
ATOM     33  C   UNL A   1      46.120  30.425  28.172  1.00  0.00     0.049 A 
ATOM     34  H   UNL A   1      45.153  28.561  27.949  1.00  0.00     0.167 HD
ATOM     35  C   UNL A   1      43.821  30.836  29.008  1.00  0.00     0.074 A 
ATOM     36  C   UNL A   1      42.788  31.676  29.582  1.00  0.00     0.031 C 
ATOM     37  C   UNL A   1      45.083  31.251  28.737  1.00  0.00     0.037 A 
BRANCH  24  38
ATOM     38  C   UNL A   1      48.754  26.844  26.423  1.00  0.00     0.064 A 
ATOM     39  C   UNL A   1      49.709  26.316  27.306  1.00  0.00     0.173 A 
ATOM     40  C   UNL A   1      49.115  26.975  25.073  1.00  0.00     0.173 A 
ATOM     41  F   UNL A   1      49.422  26.179  28.609  1.00  0.00    -0.203 F 
ATOM     42  C   UNL A   1      50.984  25.970  26.861  1.00  0.00     0.198 A 
ATOM     43  C   UNL A   1      50.378  26.598  24.625  1.00  0.00     0.198 A 
ATOM     44  F   UNL A   1      48.238  27.464  24.184  1.00  0.00    -0.203 F 
ATOM     45  F   UNL A   1      51.898  25.521  27.732  1.00  0.00    -0.200 F 
ATOM     46  C   UNL A   1      51.315  26.106  25.521  1.00  0.00     0.200 A 
ATOM     47  F   UNL A   1      50.691  26.716  23.328  1.00  0.00    -0.200 F 
ATOM     48  F   UNL A   1      52.540  25.770  25.094  1.00  0.00    -0.200 F 
ENDBRANCH  24  38
BRANCH  25  49
ATOM     49  C   UNL A   1      39.562  28.960  29.712  1.00  0.00     0.064 A 
ATOM     50  C   UNL A   1      38.600  29.474  28.834  1.00  0.00     0.173 A 
ATOM     51  C   UNL A   1      39.180  28.733  31.043  1.00  0.00     0.173 A 
ATOM     52  F   UNL A   1      38.924  29.724  27.557  1.00  0.00    -0.203 F 
ATOM     53  C   UNL A   1      37.308  29.761  29.271  1.00  0.00     0.198 A 
ATOM     54  C   UNL A   1      37.880  28.993  31.471  1.00  0.00     0.198 A 
ATOM     55  F   UNL A   1      40.063  28.236  31.920  1.00  0.00    -0.203 F 
ATOM     56  F   UNL A   1      36.417  30.288  28.419  1.00  0.00    -0.200 F 
ATOM     57  C   UNL A   1      36.948  29.513  30.587  1.00  0.00     0.200 A 
ATOM     58  F   UNL A   1      37.531  28.734  32.739  1.00  0.00    -0.200 F 
ATOM     59  F   UNL A   1      35.702  29.778  31.003  1.00  0.00    -0.200 F 
ENDBRANCH  25  49
BRANCH  37  60
ATOM     60  C   UNL A   1      45.403  32.690  29.013  1.00  0.00     0.064 A 
ATOM     61  C   UNL A   1      45.950  33.107  30.236  1.00  0.00     0.173 A 
ATOM     62  C   UNL A   1      45.177  33.666  28.029  1.00  0.00     0.173 A 
ATOM     63  F   UNL A   1      46.169  32.216  31.215  1.00  0.00    -0.203 F 
ATOM     64  C   UNL A   1      46.230  34.449  30.474  1.00  0.00     0.198 A 
ATOM     65  C   UNL A   1      45.488  35.003  28.260  1.00  0.00     0.198 A 
ATOM     66  F   UNL A   1      44.659  33.321  26.841  1.00  0.00    -0.203 F 
ATOM     67  F   UNL A   1      46.700  34.832  31.670  1.00  0.00    -0.200 F 
ATOM     68  C   UNL A   1      46.005  35.395  29.485  1.00  0.00     0.200 A 
ATOM     69  F   UNL A   1      45.282  35.913  27.297  1.00  0.00    -0.200 F 
ATOM     70  F   UNL A   1      46.278  36.686  29.715  1.00  0.00    -0.200 F 
ENDBRANCH  37  60
ENDBRANCH  11  12
ENDBRANCH   4   6
ENDBRANCH   1   2
BRANCH   1  71
ATOM     71  C   UNL A   1      37.829  19.696  24.853  1.00  0.00     0.042 C 
BRANCH  71  72
ATOM     72  C   UNL A   1      36.525  20.463  25.028  1.00  0.00     0.118 C 
BRANCH  72  73
ATOM     73  N   UNL A   1      35.374  19.576  25.064  1.00  0.00    -0.351 N 
ATOM     74  C   UNL A   1      34.056  19.832  24.817  1.00  0.00     0.278 C 
ATOM     75  H   UNL A   1      35.576  18.643  25.306  1.00  0.00     0.163 HD
ATOM     76  O   UNL A   1      33.262  18.892  24.924  1.00  0.00    -0.268 OA
BRANCH  74  77
ATOM     77  C   UNL A   1      33.562  21.240  24.434  1.00  0.00     0.272 C 
ATOM     78  C   UNL A   1      32.457  21.164  23.377  1.00  0.00     0.076 C 
ATOM     79  N   UNL A   1      33.163  21.974  25.653  1.00  0.00    -0.333 N 
ATOM     80  C   UNL A   1      31.878  22.543  23.074  1.00  0.00     0.016 C 
ATOM     81  C   UNL A   1      32.627  23.302  25.362  1.00  0.00     0.186 C 
ATOM     82  H   UNL A   1      33.981  22.077  26.255  1.00  0.00     0.347 HD
ATOM     83  H   UNL A   1      32.425  21.436  26.109  1.00  0.00     0.347 HD
ATOM     84  C   UNL A   1      31.444  23.223  24.376  1.00  0.00     0.048 C 
ATOM     85  C   UNL A   1      32.179  23.952  26.677  1.00  0.00     0.065 C 
ATOM     86  C   UNL A   1      30.873  24.620  24.113  1.00  0.00     0.010 C 
ATOM     87  C   UNL A   1      31.581  25.336  26.436  1.00  0.00     0.006 C 
ATOM     88  C   UNL A   1      30.447  25.297  25.416  1.00  0.00     0.001 C 
ENDBRANCH  74  77
ENDBRANCH  72  73
ENDBRANCH  71  72
ENDBRANCH   1  71
TORSDOF 10
ENDMDL
