MODEL 1
REMARK VINA RESULT:     -12.5      0.000      0.000
REMARK SMILES CO[C@@H]1C[C@H](C(=O)NCCCNC(=O)c2ccc(-c3c4nc(c(-c5c(F)c(F)c(F)c(F)c5F)c5ccc([nH]5)c(-c5c(F)c(F)c(F)c(F)c5F)c5nc(c(-c6c(F)c(F)c(F)c(F)c6F)c6ccc3[nH]6)C=C5)C=C4)cc2)N(C(=O)c2ncc(Cl)c(Cl)c2Cl)C1
REMARK SMILES IDX 10 1 9 2 8 3 6 4 7 5 5 7 3 8 4 9 90 10 78 11 2 12 1 13 79 14
REMARK SMILES IDX 80 15 81 16 82 17 88 18 83 19 86 20 89 21 84 22 87 23 85 24
REMARK SMILES IDX 11 25 12 26 13 27 14 29 15 30 16 31 77 32 17 33 76 34 18 35
REMARK SMILES IDX 19 36 20 37 70 38 21 39 75 40 69 41 71 42 22 43 74 44 68 45
REMARK SMILES IDX 67 46 23 48 55 49 35 50 54 51 36 52 39 53 53 54 72 55 37 56
REMARK SMILES IDX 38 57 52 59 73 60 40 61 24 62 25 63 33 64 26 65 27 66 31 67
REMARK SMILES IDX 34 68 28 69 29 70 32 71 30 72 56 73 57 74 65 75 58 76 59 77
REMARK SMILES IDX 63 78 66 79 60 80 61 81 64 82 62 83 41 84 42 85 50 86 43 87
REMARK SMILES IDX 44 88 48 89 51 90 45 91 46 92 49 93 47 94
REMARK H PARENT 8 6 12 28 71 47 39 58
REMARK Flexibility Score: inf
ROOT
ATOM      1  C   UNL A   1      31.413  32.112  26.504  1.00  0.00     0.042 C 
ENDROOT
BRANCH   1   2
ATOM      2  C   UNL A   1      31.383  30.622  26.039  1.00  0.00     0.117 C 
BRANCH   2   3
ATOM      3  N   UNL A   1      32.371  30.076  25.079  1.00  0.00    -0.354 N 
ATOM      4  C   UNL A   1      32.594  28.979  24.288  1.00  0.00     0.242 C 
ATOM      5  O   UNL A   1      33.562  29.109  23.517  1.00  0.00    -0.273 OA
ATOM      6  H   UNL A   1      33.114  30.713  24.972  1.00  0.00     0.163 HD
BRANCH   4   7
ATOM      7  C   UNL A   1      31.922  27.560  24.313  1.00  0.00     0.177 C 
ATOM      8  C   UNL A   1      29.852  27.889  23.275  1.00  0.00     0.139 C 
ATOM      9  C   UNL A   1      30.425  27.358  24.563  1.00  0.00     0.069 C 
ATOM     10  C   UNL A   1      30.848  27.190  22.247  1.00  0.00     0.152 C 
ATOM     11  N   UNL A   1      32.069  26.929  23.034  1.00  0.00    -0.323 N 
BRANCH   8  12
ATOM     12  O   UNL A   1      29.879  29.320  23.242  1.00  0.00    -0.380 OA
ATOM     13  C   UNL A   1      29.823  30.044  22.010  1.00  0.00     0.195 C 
ENDBRANCH   8  12
BRANCH  11  14
ATOM     14  C   UNL A   1      33.074  26.009  22.756  1.00  0.00     0.274 C 
ATOM     15  O   UNL A   1      33.656  25.940  21.679  1.00  0.00    -0.267 OA
BRANCH  14  16
ATOM     16  C   UNL A   1      33.351  24.971  23.826  1.00  0.00     0.148 A 
ATOM     17  N   UNL A   1      34.436  25.206  24.617  1.00  0.00    -0.248 NA
ATOM     18  C   UNL A   1      32.387  23.999  24.115  1.00  0.00     0.092 A 
ATOM     19  C   UNL A   1      34.571  24.427  25.723  1.00  0.00     0.134 A 
ATOM     20  C   UNL A   1      32.550  23.235  25.285  1.00  0.00     0.082 A 
ATOM     21  Cl  UNL A   1      30.980  23.820  23.117  1.00  0.00    -0.080 Cl
ATOM     22  C   UNL A   1      33.664  23.448  26.104  1.00  0.00     0.079 A 
ATOM     23  Cl  UNL A   1      31.348  22.067  25.753  1.00  0.00    -0.081 Cl
ATOM     24  Cl  UNL A   1      33.946  22.582  27.571  1.00  0.00    -0.081 Cl
ENDBRANCH  14  16
ENDBRANCH  11  14
ENDBRANCH   4   7
ENDBRANCH   2   3
ENDBRANCH   1   2
BRANCH   1  25
ATOM     25  C   UNL A   1      32.723  32.748  26.995  1.00  0.00     0.118 C 
BRANCH  25  26
ATOM     26  N   UNL A   1      32.531  34.056  27.593  1.00  0.00    -0.352 N 
ATOM     27  C   UNL A   1      33.135  34.608  28.691  1.00  0.00     0.251 C 
ATOM     28  H   UNL A   1      31.870  34.630  27.142  1.00  0.00     0.163 HD
ATOM     29  O   UNL A   1      32.716  35.677  29.142  1.00  0.00    -0.269 OA
BRANCH  27  30
ATOM     30  C   UNL A   1      34.278  33.950  29.363  1.00  0.00     0.039 A 
ATOM     31  C   UNL A   1      35.568  34.201  28.885  1.00  0.00     0.014 A 
ATOM     32  C   UNL A   1      34.085  33.008  30.379  1.00  0.00     0.014 A 
ATOM     33  C   UNL A   1      36.666  33.535  29.440  1.00  0.00     0.010 A 
ATOM     34  C   UNL A   1      35.189  32.365  30.954  1.00  0.00     0.010 A 
ATOM     35  C   UNL A   1      36.492  32.619  30.491  1.00  0.00    -0.014 A 
BRANCH  35  36
ATOM     36  C   UNL A   1      37.670  31.947  31.109  1.00  0.00     0.031 A 
ATOM     37  C   UNL A   1      38.136  32.316  32.492  1.00  0.00     0.074 A 
ATOM     38  C   UNL A   1      38.339  31.008  30.409  1.00  0.00     0.049 A 
ATOM     39  N   UNL A   1      39.143  31.840  33.184  1.00  0.00    -0.248 NA
ATOM     40  C   UNL A   1      37.380  33.369  33.185  1.00  0.00     0.031 C 
ATOM     41  C   UNL A   1      38.009  30.583  29.049  1.00  0.00     0.029 A 
ATOM     42  N   UNL A   1      39.433  30.244  30.739  1.00  0.00    -0.354 N 
ATOM     43  C   UNL A   1      39.145  32.538  34.386  1.00  0.00     0.074 A 
ATOM     44  C   UNL A   1      38.068  33.504  34.309  1.00  0.00     0.031 C 
ATOM     45  C   UNL A   1      38.866  29.622  28.668  1.00  0.00     0.029 A 
ATOM     46  C   UNL A   1      39.829  29.388  29.740  1.00  0.00     0.049 A 
ATOM     47  H   UNL A   1      39.889  30.306  31.609  1.00  0.00     0.167 HD
ATOM     48  C   UNL A   1      39.956  32.376  35.460  1.00  0.00     0.037 A 
ATOM     49  C   UNL A   1      40.856  28.516  29.689  1.00  0.00     0.037 A 
ATOM     50  C   UNL A   1      41.020  31.405  35.535  1.00  0.00     0.049 A 
ATOM     51  C   UNL A   1      41.756  28.372  30.888  1.00  0.00     0.074 A 
ATOM     52  C   UNL A   1      41.866  31.131  36.597  1.00  0.00     0.029 A 
ATOM     53  N   UNL A   1      41.390  30.555  34.503  1.00  0.00    -0.354 N 
ATOM     54  N   UNL A   1      41.701  28.988  32.044  1.00  0.00    -0.248 NA
ATOM     55  C   UNL A   1      42.854  27.401  30.780  1.00  0.00     0.031 C 
ATOM     56  C   UNL A   1      42.783  30.158  36.187  1.00  0.00     0.029 A 
ATOM     57  C   UNL A   1      42.469  29.777  34.893  1.00  0.00     0.049 A 
ATOM     58  H   UNL A   1      40.950  30.512  33.623  1.00  0.00     0.167 HD
ATOM     59  C   UNL A   1      42.733  28.460  32.809  1.00  0.00     0.074 A 
ATOM     60  C   UNL A   1      43.388  27.460  31.992  1.00  0.00     0.031 C 
ATOM     61  C   UNL A   1      43.104  28.776  34.073  1.00  0.00     0.037 A 
BRANCH  48  62
ATOM     62  C   UNL A   1      39.732  33.270  36.649  1.00  0.00     0.064 A 
ATOM     63  C   UNL A   1      40.421  34.483  36.801  1.00  0.00     0.173 A 
ATOM     64  C   UNL A   1      38.778  32.935  37.623  1.00  0.00     0.173 A 
ATOM     65  F   UNL A   1      41.346  34.851  35.903  1.00  0.00    -0.203 F 
ATOM     66  C   UNL A   1      40.189  35.308  37.900  1.00  0.00     0.198 A 
ATOM     67  C   UNL A   1      38.525  33.779  38.702  1.00  0.00     0.198 A 
ATOM     68  F   UNL A   1      38.078  31.794  37.523  1.00  0.00    -0.203 F 
ATOM     69  F   UNL A   1      40.897  36.436  38.049  1.00  0.00    -0.200 F 
ATOM     70  C   UNL A   1      39.236  34.960  38.845  1.00  0.00     0.200 A 
ATOM     71  F   UNL A   1      37.590  33.449  39.605  1.00  0.00    -0.200 F 
ATOM     72  F   UNL A   1      39.008  35.759  39.896  1.00  0.00    -0.200 F 
ENDBRANCH  48  62
BRANCH  49  73
ATOM     73  C   UNL A   1      41.083  27.700  28.465  1.00  0.00     0.064 A 
ATOM     74  C   UNL A   1      41.955  28.134  27.456  1.00  0.00     0.173 A 
ATOM     75  C   UNL A   1      40.419  26.479  28.270  1.00  0.00     0.173 A 
ATOM     76  F   UNL A   1      42.598  29.304  27.585  1.00  0.00    -0.203 F 
ATOM     77  C   UNL A   1      42.134  27.394  26.289  1.00  0.00     0.198 A 
ATOM     78  C   UNL A   1      40.624  25.723  27.116  1.00  0.00     0.198 A 
ATOM     79  F   UNL A   1      39.577  26.014  29.203  1.00  0.00    -0.203 F 
ATOM     80  F   UNL A   1      42.929  27.861  25.318  1.00  0.00    -0.200 F 
ATOM     81  C   UNL A   1      41.473  26.186  26.123  1.00  0.00     0.200 A 
ATOM     82  F   UNL A   1      39.996  24.549  26.968  1.00  0.00    -0.200 F 
ATOM     83  F   UNL A   1      41.645  25.473  25.001  1.00  0.00    -0.200 F 
ENDBRANCH  49  73
BRANCH  61  84
ATOM     84  C   UNL A   1      44.245  28.002  34.672  1.00  0.00     0.064 A 
ATOM     85  C   UNL A   1      45.570  28.461  34.602  1.00  0.00     0.173 A 
ATOM     86  C   UNL A   1      44.003  26.804  35.361  1.00  0.00     0.173 A 
ATOM     87  F   UNL A   1      45.858  29.593  33.942  1.00  0.00    -0.203 F 
ATOM     88  C   UNL A   1      46.610  27.733  35.175  1.00  0.00     0.198 A 
ATOM     89  C   UNL A   1      45.041  26.098  35.963  1.00  0.00     0.198 A 
ATOM     90  F   UNL A   1      42.754  26.323  35.465  1.00  0.00    -0.203 F 
ATOM     91  F   UNL A   1      47.873  28.164  35.049  1.00  0.00    -0.200 F 
ATOM     92  C   UNL A   1      46.345  26.558  35.862  1.00  0.00     0.200 A 
ATOM     93  F   UNL A   1      44.780  24.971  36.640  1.00  0.00    -0.200 F 
ATOM     94  F   UNL A   1      47.347  25.866  36.420  1.00  0.00    -0.200 F 
ENDBRANCH  61  84
ENDBRANCH  35  36
ENDBRANCH  27  30
ENDBRANCH  25  26
ENDBRANCH   1  25
TORSDOF 13
ENDMDL
MODEL 2
REMARK VINA RESULT:     -12.3      0.761      1.870
REMARK SMILES CO[C@@H]1C[C@H](C(=O)NCCCNC(=O)c2ccc(-c3c4nc(c(-c5c(F)c(F)c(F)c(F)c5F)c5ccc([nH]5)c(-c5c(F)c(F)c(F)c(F)c5F)c5nc(c(-c6c(F)c(F)c(F)c(F)c6F)c6ccc3[nH]6)C=C5)C=C4)cc2)N(C(=O)c2ncc(Cl)c(Cl)c2Cl)C1
REMARK SMILES IDX 10 1 9 2 8 3 6 4 7 5 5 7 3 8 4 9 90 10 78 11 2 12 1 13 79 14
REMARK SMILES IDX 80 15 81 16 82 17 88 18 83 19 86 20 89 21 84 22 87 23 85 24
REMARK SMILES IDX 11 25 12 26 13 27 14 29 15 30 16 31 77 32 17 33 76 34 18 35
REMARK SMILES IDX 19 36 20 37 70 38 21 39 75 40 69 41 71 42 22 43 74 44 68 45
REMARK SMILES IDX 67 46 23 48 55 49 35 50 54 51 36 52 39 53 53 54 72 55 37 56
REMARK SMILES IDX 38 57 52 59 73 60 40 61 24 62 25 63 33 64 26 65 27 66 31 67
REMARK SMILES IDX 34 68 28 69 29 70 32 71 30 72 56 73 57 74 65 75 58 76 59 77
REMARK SMILES IDX 63 78 66 79 60 80 61 81 64 82 62 83 41 84 42 85 50 86 43 87
REMARK SMILES IDX 44 88 48 89 51 90 45 91 46 92 49 93 47 94
REMARK H PARENT 8 6 12 28 71 47 39 58
REMARK Flexibility Score: inf
ROOT
ATOM      1  C   UNL A   1      31.403  32.076  26.501  1.00  0.00     0.042 C 
ENDROOT
BRANCH   1   2
ATOM      2  C   UNL A   1      31.402  30.584  26.044  1.00  0.00     0.117 C 
BRANCH   2   3
ATOM      3  N   UNL A   1      32.325  30.078  25.001  1.00  0.00    -0.354 N 
ATOM      4  C   UNL A   1      32.535  28.982  24.205  1.00  0.00     0.242 C 
ATOM      5  O   UNL A   1      33.417  29.153  23.344  1.00  0.00    -0.273 OA
ATOM      6  H   UNL A   1      33.017  30.754  24.817  1.00  0.00     0.163 HD
BRANCH   4   7
ATOM      7  C   UNL A   1      31.950  27.528  24.311  1.00  0.00     0.177 C 
ATOM      8  C   UNL A   1      29.810  27.704  23.385  1.00  0.00     0.139 C 
ATOM      9  C   UNL A   1      30.485  27.248  24.652  1.00  0.00     0.069 C 
ATOM     10  C   UNL A   1      30.786  27.031  22.321  1.00  0.00     0.152 C 
ATOM     11  N   UNL A   1      32.063  26.865  23.044  1.00  0.00    -0.323 N 
BRANCH   8  12
ATOM     12  O   UNL A   1      29.750  29.133  23.309  1.00  0.00    -0.380 OA
ATOM     13  C   UNL A   1      29.692  29.816  22.054  1.00  0.00     0.195 C 
ENDBRANCH   8  12
BRANCH  11  14
ATOM     14  C   UNL A   1      33.104  25.996  22.734  1.00  0.00     0.274 C 
ATOM     15  O   UNL A   1      34.028  26.281  21.982  1.00  0.00    -0.267 OA
BRANCH  14  16
ATOM     16  C   UNL A   1      32.987  24.586  23.280  1.00  0.00     0.148 A 
ATOM     17  N   UNL A   1      32.441  23.665  22.437  1.00  0.00    -0.248 NA
ATOM     18  C   UNL A   1      33.647  24.246  24.466  1.00  0.00     0.092 A 
ATOM     19  C   UNL A   1      32.540  22.359  22.805  1.00  0.00     0.134 A 
ATOM     20  C   UNL A   1      33.752  22.881  24.795  1.00  0.00     0.082 A 
ATOM     21  Cl  UNL A   1      34.404  25.462  25.442  1.00  0.00    -0.080 Cl
ATOM     22  C   UNL A   1      33.185  21.919  23.952  1.00  0.00     0.079 A 
ATOM     23  Cl  UNL A   1      34.631  22.377  26.209  1.00  0.00    -0.081 Cl
ATOM     24  Cl  UNL A   1      33.277  20.221  24.251  1.00  0.00    -0.081 Cl
ENDBRANCH  14  16
ENDBRANCH  11  14
ENDBRANCH   4   7
ENDBRANCH   2   3
ENDBRANCH   1   2
BRANCH   1  25
ATOM     25  C   UNL A   1      32.718  32.773  26.885  1.00  0.00     0.118 C 
BRANCH  25  26
ATOM     26  N   UNL A   1      32.517  34.071  27.499  1.00  0.00    -0.352 N 
ATOM     27  C   UNL A   1      33.111  34.611  28.608  1.00  0.00     0.251 C 
ATOM     28  H   UNL A   1      31.855  34.649  27.052  1.00  0.00     0.163 HD
ATOM     29  O   UNL A   1      32.684  35.672  29.071  1.00  0.00    -0.269 OA
BRANCH  27  30
ATOM     30  C   UNL A   1      34.253  33.950  29.278  1.00  0.00     0.039 A 
ATOM     31  C   UNL A   1      35.550  34.289  28.879  1.00  0.00     0.014 A 
ATOM     32  C   UNL A   1      34.059  32.924  30.209  1.00  0.00     0.014 A 
ATOM     33  C   UNL A   1      36.652  33.626  29.429  1.00  0.00     0.010 A 
ATOM     34  C   UNL A   1      35.166  32.283  30.783  1.00  0.00     0.010 A 
ATOM     35  C   UNL A   1      36.475  32.625  30.399  1.00  0.00    -0.014 A 
BRANCH  35  36
ATOM     36  C   UNL A   1      37.655  31.954  31.015  1.00  0.00     0.031 A 
ATOM     37  C   UNL A   1      38.122  32.325  32.398  1.00  0.00     0.074 A 
ATOM     38  C   UNL A   1      38.324  31.016  30.315  1.00  0.00     0.049 A 
ATOM     39  N   UNL A   1      39.131  31.851  33.088  1.00  0.00    -0.248 NA
ATOM     40  C   UNL A   1      37.365  33.378  33.091  1.00  0.00     0.031 C 
ATOM     41  C   UNL A   1      37.992  30.590  28.955  1.00  0.00     0.029 A 
ATOM     42  N   UNL A   1      39.419  30.254  30.644  1.00  0.00    -0.354 N 
ATOM     43  C   UNL A   1      39.134  32.550  34.289  1.00  0.00     0.074 A 
ATOM     44  C   UNL A   1      38.056  33.514  34.214  1.00  0.00     0.031 C 
ATOM     45  C   UNL A   1      38.850  29.630  28.574  1.00  0.00     0.029 A 
ATOM     46  C   UNL A   1      39.814  29.398  29.645  1.00  0.00     0.049 A 
ATOM     47  H   UNL A   1      39.876  30.317  31.513  1.00  0.00     0.167 HD
ATOM     48  C   UNL A   1      39.947  32.389  35.363  1.00  0.00     0.037 A 
ATOM     49  C   UNL A   1      40.843  28.527  29.593  1.00  0.00     0.037 A 
ATOM     50  C   UNL A   1      41.011  31.421  35.437  1.00  0.00     0.049 A 
ATOM     51  C   UNL A   1      41.744  28.385  30.791  1.00  0.00     0.074 A 
ATOM     52  C   UNL A   1      41.860  31.148  36.497  1.00  0.00     0.029 A 
ATOM     53  N   UNL A   1      41.381  30.570  34.404  1.00  0.00    -0.354 N 
ATOM     54  N   UNL A   1      41.691  29.002  31.946  1.00  0.00    -0.248 NA
ATOM     55  C   UNL A   1      42.844  27.416  30.682  1.00  0.00     0.031 C 
ATOM     56  C   UNL A   1      42.777  30.176  36.087  1.00  0.00     0.029 A 
ATOM     57  C   UNL A   1      42.462  29.794  34.793  1.00  0.00     0.049 A 
ATOM     58  H   UNL A   1      40.940  30.525  33.525  1.00  0.00     0.167 HD
ATOM     59  C   UNL A   1      42.725  28.476  32.710  1.00  0.00     0.074 A 
ATOM     60  C   UNL A   1      43.379  27.476  31.892  1.00  0.00     0.031 C 
ATOM     61  C   UNL A   1      43.097  28.793  33.973  1.00  0.00     0.037 A 
BRANCH  48  62
ATOM     62  C   UNL A   1      39.723  33.284  36.552  1.00  0.00     0.064 A 
ATOM     63  C   UNL A   1      40.396  34.507  36.693  1.00  0.00     0.173 A 
ATOM     64  C   UNL A   1      38.784  32.939  37.537  1.00  0.00     0.173 A 
ATOM     65  F   UNL A   1      41.307  34.885  35.783  1.00  0.00    -0.203 F 
ATOM     66  C   UNL A   1      40.166  35.333  37.792  1.00  0.00     0.198 A 
ATOM     67  C   UNL A   1      38.531  33.783  38.616  1.00  0.00     0.198 A 
ATOM     68  F   UNL A   1      38.099  31.789  37.448  1.00  0.00    -0.203 F 
ATOM     69  F   UNL A   1      40.860  36.470  37.930  1.00  0.00    -0.200 F 
ATOM     70  C   UNL A   1      39.228  34.974  38.748  1.00  0.00     0.200 A 
ATOM     71  F   UNL A   1      37.611  33.443  39.530  1.00  0.00    -0.200 F 
ATOM     72  F   UNL A   1      39.000  35.774  39.799  1.00  0.00    -0.200 F 
ENDBRANCH  48  62
BRANCH  49  73
ATOM     73  C   UNL A   1      41.068  27.710  28.370  1.00  0.00     0.064 A 
ATOM     74  C   UNL A   1      40.445  26.464  28.205  1.00  0.00     0.173 A 
ATOM     75  C   UNL A   1      41.925  28.147  27.349  1.00  0.00     0.173 A 
ATOM     76  F   UNL A   1      39.633  25.991  29.161  1.00  0.00    -0.203 F 
ATOM     77  C   UNL A   1      40.690  25.677  27.082  1.00  0.00     0.198 A 
ATOM     78  C   UNL A   1      42.144  27.374  26.210  1.00  0.00     0.198 A 
ATOM     79  F   UNL A   1      42.545  29.332  27.452  1.00  0.00    -0.203 F 
ATOM     80  F   UNL A   1      40.125  24.467  26.978  1.00  0.00    -0.200 F 
ATOM     81  C   UNL A   1      41.535  26.135  26.082  1.00  0.00     0.200 A 
ATOM     82  F   UNL A   1      42.948  27.829  25.239  1.00  0.00    -0.200 F 
ATOM     83  F   UNL A   1      41.770  25.379  25.001  1.00  0.00    -0.200 F 
ENDBRANCH  49  73
BRANCH  61  84
ATOM     84  C   UNL A   1      44.240  28.021  34.571  1.00  0.00     0.064 A 
ATOM     85  C   UNL A   1      44.042  26.806  35.245  1.00  0.00     0.173 A 
ATOM     86  C   UNL A   1      45.558  28.486  34.432  1.00  0.00     0.173 A 
ATOM     87  F   UNL A   1      42.802  26.325  35.418  1.00  0.00    -0.203 F 
ATOM     88  C   UNL A   1      45.118  26.101  35.780  1.00  0.00     0.198 A 
ATOM     89  C   UNL A   1      46.633  27.760  34.938  1.00  0.00     0.198 A 
ATOM     90  F   UNL A   1      45.805  29.638  33.790  1.00  0.00    -0.203 F 
ATOM     91  F   UNL A   1      44.898  24.970  36.465  1.00  0.00    -0.200 F 
ATOM     92  C   UNL A   1      46.412  26.573  35.619  1.00  0.00     0.200 A 
ATOM     93  F   UNL A   1      47.884  28.210  34.766  1.00  0.00    -0.200 F 
ATOM     94  F   UNL A   1      47.444  25.888  36.127  1.00  0.00    -0.200 F 
ENDBRANCH  61  84
ENDBRANCH  35  36
ENDBRANCH  27  30
ENDBRANCH  25  26
ENDBRANCH   1  25
TORSDOF 13
ENDMDL
MODEL 3
REMARK VINA RESULT:     -12.3      5.281     10.792
REMARK SMILES CO[C@@H]1C[C@H](C(=O)NCCCNC(=O)c2ccc(-c3c4nc(c(-c5c(F)c(F)c(F)c(F)c5F)c5ccc([nH]5)c(-c5c(F)c(F)c(F)c(F)c5F)c5nc(c(-c6c(F)c(F)c(F)c(F)c6F)c6ccc3[nH]6)C=C5)C=C4)cc2)N(C(=O)c2ncc(Cl)c(Cl)c2Cl)C1
REMARK SMILES IDX 10 1 9 2 8 3 6 4 7 5 5 7 3 8 4 9 90 10 78 11 2 12 1 13 79 14
REMARK SMILES IDX 80 15 81 16 82 17 88 18 83 19 86 20 89 21 84 22 87 23 85 24
REMARK SMILES IDX 11 25 12 26 13 27 14 29 15 30 16 31 77 32 17 33 76 34 18 35
REMARK SMILES IDX 19 36 20 37 70 38 21 39 75 40 69 41 71 42 22 43 74 44 68 45
REMARK SMILES IDX 67 46 23 48 55 49 35 50 54 51 36 52 39 53 53 54 72 55 37 56
REMARK SMILES IDX 38 57 52 59 73 60 40 61 24 62 25 63 33 64 26 65 27 66 31 67
REMARK SMILES IDX 34 68 28 69 29 70 32 71 30 72 56 73 57 74 65 75 58 76 59 77
REMARK SMILES IDX 63 78 66 79 60 80 61 81 64 82 62 83 41 84 42 85 50 86 43 87
REMARK SMILES IDX 44 88 48 89 51 90 45 91 46 92 49 93 47 94
REMARK H PARENT 8 6 12 28 71 47 39 58
REMARK Flexibility Score: inf
ROOT
ATOM      1  C   UNL A   1      37.931  19.523  25.011  1.00  0.00     0.042 C 
ENDROOT
BRANCH   1   2
ATOM      2  C   UNL A   1      36.632  20.352  24.765  1.00  0.00     0.117 C 
BRANCH   2   3
ATOM      3  N   UNL A   1      35.905  21.025  25.868  1.00  0.00    -0.354 N 
ATOM      4  C   UNL A   1      34.757  21.734  26.111  1.00  0.00     0.242 C 
ATOM      5  O   UNL A   1      34.547  21.941  27.319  1.00  0.00    -0.273 OA
ATOM      6  H   UNL A   1      36.415  20.931  26.704  1.00  0.00     0.163 HD
BRANCH   4   7
ATOM      7  C   UNL A   1      33.771  22.436  25.110  1.00  0.00     0.177 C 
ATOM      8  C   UNL A   1      32.533  20.674  24.197  1.00  0.00     0.139 C 
ATOM      9  C   UNL A   1      33.394  21.829  23.757  1.00  0.00     0.069 C 
ATOM     10  C   UNL A   1      31.651  21.420  25.294  1.00  0.00     0.152 C 
ATOM     11  N   UNL A   1      32.477  22.569  25.715  1.00  0.00    -0.323 N 
BRANCH   8  12
ATOM     12  O   UNL A   1      33.325  19.597  24.710  1.00  0.00    -0.380 OA
ATOM     13  C   UNL A   1      32.757  18.572  25.529  1.00  0.00     0.195 C 
ENDBRANCH   8  12
BRANCH  11  14
ATOM     14  C   UNL A   1      32.048  23.737  26.335  1.00  0.00     0.274 C 
ATOM     15  O   UNL A   1      31.358  23.756  27.348  1.00  0.00    -0.267 OA
BRANCH  14  16
ATOM     16  C   UNL A   1      32.369  25.035  25.621  1.00  0.00     0.148 A 
ATOM     17  N   UNL A   1      33.426  25.741  26.113  1.00  0.00    -0.248 NA
ATOM     18  C   UNL A   1      31.766  25.315  24.389  1.00  0.00     0.092 A 
ATOM     19  C   UNL A   1      33.881  26.776  25.357  1.00  0.00     0.134 A 
ATOM     20  C   UNL A   1      32.286  26.377  23.626  1.00  0.00     0.082 A 
ATOM     21  Cl  UNL A   1      30.487  24.315  23.779  1.00  0.00    -0.080 Cl
ATOM     22  C   UNL A   1      33.361  27.125  24.119  1.00  0.00     0.079 A 
ATOM     23  Cl  UNL A   1      31.642  26.731  22.049  1.00  0.00    -0.081 Cl
ATOM     24  Cl  UNL A   1      34.086  28.431  23.254  1.00  0.00    -0.081 Cl
ENDBRANCH  14  16
ENDBRANCH  11  14
ENDBRANCH   4   7
ENDBRANCH   2   3
ENDBRANCH   1   2
BRANCH   1  25
ATOM     25  C   UNL A   1      39.101  20.124  25.806  1.00  0.00     0.118 C 
BRANCH  25  26
ATOM     26  N   UNL A   1      40.227  19.219  25.934  1.00  0.00    -0.352 N 
ATOM     27  C   UNL A   1      41.554  19.502  26.119  1.00  0.00     0.251 C 
ATOM     28  H   UNL A   1      40.004  18.261  25.878  1.00  0.00     0.163 HD
ATOM     29  O   UNL A   1      42.386  18.594  26.038  1.00  0.00    -0.269 OA
BRANCH  27  30
ATOM     30  C   UNL A   1      42.023  20.875  26.408  1.00  0.00     0.039 A 
ATOM     31  C   UNL A   1      42.147  21.273  27.743  1.00  0.00     0.014 A 
ATOM     32  C   UNL A   1      42.233  21.805  25.384  1.00  0.00     0.014 A 
ATOM     33  C   UNL A   1      42.508  22.588  28.055  1.00  0.00     0.010 A 
ATOM     34  C   UNL A   1      42.625  23.114  25.699  1.00  0.00     0.010 A 
ATOM     35  C   UNL A   1      42.765  23.521  27.037  1.00  0.00    -0.014 A 
BRANCH  35  36
ATOM     36  C   UNL A   1      43.194  24.908  27.375  1.00  0.00     0.031 A 
ATOM     37  C   UNL A   1      44.610  25.362  27.138  1.00  0.00     0.074 A 
ATOM     38  C   UNL A   1      42.304  25.762  27.920  1.00  0.00     0.049 A 
ATOM     39  N   UNL A   1      45.160  26.528  27.377  1.00  0.00    -0.248 NA
ATOM     40  C   UNL A   1      45.535  24.369  26.571  1.00  0.00     0.031 C 
ATOM     41  C   UNL A   1      40.912  25.437  28.230  1.00  0.00     0.029 A 
ATOM     42  N   UNL A   1      42.433  27.073  28.312  1.00  0.00    -0.354 N 
ATOM     43  C   UNL A   1      46.492  26.407  26.997  1.00  0.00     0.074 A 
ATOM     44  C   UNL A   1      46.678  25.040  26.557  1.00  0.00     0.031 C 
ATOM     45  C   UNL A   1      40.310  26.521  28.744  1.00  0.00     0.029 A 
ATOM     46  C   UNL A   1      41.281  27.608  28.835  1.00  0.00     0.049 A 
ATOM     47  H   UNL A   1      43.273  27.579  28.227  1.00  0.00     0.167 HD
ATOM     48  C   UNL A   1      47.463  27.354  26.996  1.00  0.00     0.037 A 
ATOM     49  C   UNL A   1      41.033  28.835  29.337  1.00  0.00     0.037 A 
ATOM     50  C   UNL A   1      47.269  28.716  27.425  1.00  0.00     0.049 A 
ATOM     51  C   UNL A   1      42.136  29.860  29.346  1.00  0.00     0.074 A 
ATOM     52  C   UNL A   1      48.177  29.762  27.418  1.00  0.00     0.029 A 
ATOM     53  N   UNL A   1      46.086  29.221  27.948  1.00  0.00    -0.354 N 
ATOM     54  N   UNL A   1      43.370  29.752  28.917  1.00  0.00    -0.248 NA
ATOM     55  C   UNL A   1      41.809  31.182  29.898  1.00  0.00     0.031 C 
ATOM     56  C   UNL A   1      47.562  30.881  27.988  1.00  0.00     0.029 A 
ATOM     57  C   UNL A   1      46.251  30.554  28.292  1.00  0.00     0.049 A 
ATOM     58  H   UNL A   1      45.254  28.707  28.057  1.00  0.00     0.167 HD
ATOM     59  C   UNL A   1      43.956  30.996  29.118  1.00  0.00     0.074 A 
ATOM     60  C   UNL A   1      42.935  31.848  29.691  1.00  0.00     0.031 C 
ATOM     61  C   UNL A   1      45.223  31.395  28.852  1.00  0.00     0.037 A 
BRANCH  48  62
ATOM     62  C   UNL A   1      48.832  26.952  26.519  1.00  0.00     0.064 A 
ATOM     63  C   UNL A   1      49.785  26.401  27.390  1.00  0.00     0.173 A 
ATOM     64  C   UNL A   1      49.179  27.072  25.164  1.00  0.00     0.173 A 
ATOM     65  F   UNL A   1      49.509  26.267  28.696  1.00  0.00    -0.203 F 
ATOM     66  C   UNL A   1      51.044  26.018  26.930  1.00  0.00     0.198 A 
ATOM     67  C   UNL A   1      50.425  26.657  24.702  1.00  0.00     0.198 A 
ATOM     68  F   UNL A   1      48.304  27.579  24.283  1.00  0.00    -0.203 F 
ATOM     69  F   UNL A   1      51.953  25.543  27.790  1.00  0.00    -0.200 F 
ATOM     70  C   UNL A   1      51.359  26.139  25.585  1.00  0.00     0.200 A 
ATOM     71  F   UNL A   1      50.722  26.757  23.398  1.00  0.00    -0.200 F 
ATOM     72  F   UNL A   1      52.567  25.762  25.142  1.00  0.00    -0.200 F 
ENDBRANCH  48  62
BRANCH  49  73
ATOM     73  C   UNL A   1      39.681  29.168  29.862  1.00  0.00     0.064 A 
ATOM     74  C   UNL A   1      39.372  29.009  31.222  1.00  0.00     0.173 A 
ATOM     75  C   UNL A   1      38.664  29.632  29.015  1.00  0.00     0.173 A 
ATOM     76  F   UNL A   1      40.302  28.548  32.070  1.00  0.00    -0.203 F 
ATOM     77  C   UNL A   1      38.094  29.277  31.707  1.00  0.00     0.198 A 
ATOM     78  C   UNL A   1      37.395  29.931  29.508  1.00  0.00     0.198 A 
ATOM     79  F   UNL A   1      38.905  29.806  27.707  1.00  0.00    -0.203 F 
ATOM     80  F   UNL A   1      37.812  29.062  32.999  1.00  0.00    -0.200 F 
ATOM     81  C   UNL A   1      37.108  29.743  30.851  1.00  0.00     0.200 A 
ATOM     82  F   UNL A   1      36.451  30.398  28.679  1.00  0.00    -0.200 F 
ATOM     83  F   UNL A   1      35.878  30.002  31.317  1.00  0.00    -0.200 F 
ENDBRANCH  49  73
BRANCH  61  84
ATOM     84  C   UNL A   1      45.570  32.830  29.135  1.00  0.00     0.064 A 
ATOM     85  C   UNL A   1      46.129  33.230  30.358  1.00  0.00     0.173 A 
ATOM     86  C   UNL A   1      45.375  33.812  28.151  1.00  0.00     0.173 A 
ATOM     87  F   UNL A   1      46.322  32.333  31.337  1.00  0.00    -0.203 F 
ATOM     88  C   UNL A   1      46.454  34.563  30.594  1.00  0.00     0.198 A 
ATOM     89  C   UNL A   1      45.734  35.138  28.378  1.00  0.00     0.198 A 
ATOM     90  F   UNL A   1      44.851  33.483  26.960  1.00  0.00    -0.203 F 
ATOM     91  F   UNL A   1      46.938  34.930  31.789  1.00  0.00    -0.200 F 
ATOM     92  C   UNL A   1      46.265  35.514  29.602  1.00  0.00     0.200 A 
ATOM     93  F   UNL A   1      45.567  36.052  27.412  1.00  0.00    -0.200 F 
ATOM     94  F   UNL A   1      46.588  36.794  29.830  1.00  0.00    -0.200 F 
ENDBRANCH  61  84
ENDBRANCH  35  36
ENDBRANCH  27  30
ENDBRANCH  25  26
ENDBRANCH   1  25
TORSDOF 13
ENDMDL
