MODEL 1
REMARK VINA RESULT:     -12.4      0.000      0.000
REMARK SMILES CC(C)n1cncc1[C@@H](NC(=O)OC(C)(C)C)C(=O)NCCCNC(=O)c1ccc(-c2c3nc(c(-c4c(F)c(F)c(F)c(F)c4F)c4ccc([nH]4)c(-c4c(F)c(F)c(F)c(F)c4F)c4nc(c(-c5c(F)c(F)c(F)c(F)c5F)c5ccc2[nH]5)C=C4)C=C3)cc1
REMARK SMILES IDX 21 1 20 2 18 3 19 4 9 6 8 7 4 8 5 9 6 10 7 11 2 12 1 13 3 14
REMARK SMILES IDX 10 15 11 16 12 18 13 19 14 20 15 21 16 22 17 23 22 24 23 25
REMARK SMILES IDX 24 26 25 27 26 29 27 30 28 31 89 32 29 33 88 34 30 35 31 36
REMARK SMILES IDX 32 37 82 38 33 39 87 40 81 41 83 42 34 43 86 44 80 45 79 46
REMARK SMILES IDX 35 48 67 49 47 50 66 51 48 52 51 53 65 54 84 55 49 56 50 57
REMARK SMILES IDX 64 59 85 60 52 61 36 62 37 63 45 64 38 65 39 66 43 67 46 68
REMARK SMILES IDX 40 69 41 70 44 71 42 72 68 73 69 74 77 75 70 76 71 77 75 78
REMARK SMILES IDX 78 79 72 80 73 81 76 82 74 83 53 84 54 85 62 86 55 87 56 88
REMARK SMILES IDX 60 89 63 90 57 91 58 92 61 93 59 94
REMARK H PARENT 20 5 10 17 24 28 83 47 51 58
REMARK Flexibility Score: inf
ROOT
ATOM      1  C   UNL A   1      32.213  29.114  25.793  1.00  0.00     0.117 C 
ENDROOT
BRANCH   1   2
ATOM      2  N   UNL A   1      33.174  29.401  24.745  1.00  0.00    -0.354 N 
ATOM      3  C   UNL A   1      33.212  28.927  23.461  1.00  0.00     0.248 C 
ATOM      4  O   UNL A   1      34.126  29.337  22.733  1.00  0.00    -0.272 OA
ATOM      5  H   UNL A   1      33.898  30.021  24.990  1.00  0.00     0.163 HD
BRANCH   3   6
ATOM      6  C   UNL A   1      32.263  27.794  22.958  1.00  0.00     0.223 C 
BRANCH   6   7
ATOM      7  C   UNL A   1      30.898  28.437  22.773  1.00  0.00     0.070 A 
ATOM      8  N   UNL A   1      29.704  28.023  23.345  1.00  0.00    -0.330 N 
ATOM      9  C   UNL A   1      28.809  29.050  23.195  1.00  0.00     0.199 A 
ATOM     10  N   UNL A   1      29.273  29.988  22.408  1.00  0.00    -0.245 NA
ATOM     11  C   UNL A   1      30.535  29.586  22.090  1.00  0.00     0.137 A 
BRANCH   8  12
ATOM     12  C   UNL A   1      29.362  26.674  23.797  1.00  0.00     0.082 C 
ATOM     13  C   UNL A   1      30.028  26.262  25.118  1.00  0.00     0.031 C 
ATOM     14  C   UNL A   1      27.840  26.578  23.946  1.00  0.00     0.031 C 
ENDBRANCH   8  12
ENDBRANCH   6   7
BRANCH   6  15
ATOM     15  N   UNL A   1      32.581  27.078  21.729  1.00  0.00    -0.304 N 
ATOM     16  C   UNL A   1      33.160  25.846  21.562  1.00  0.00     0.408 C 
ATOM     17  H   UNL A   1      32.345  27.548  20.897  1.00  0.00     0.168 HD
ATOM     18  O   UNL A   1      33.111  25.288  20.486  1.00  0.00    -0.225 OA
BRANCH  16  19
ATOM     19  O   UNL A   1      33.871  25.426  22.639  1.00  0.00    -0.444 OA
BRANCH  19  20
ATOM     20  C   UNL A   1      33.527  24.191  23.338  1.00  0.00     0.106 C 
ATOM     21  C   UNL A   1      32.046  23.847  23.172  1.00  0.00     0.056 C 
ATOM     22  C   UNL A   1      34.413  23.006  22.915  1.00  0.00     0.056 C 
ATOM     23  C   UNL A   1      33.796  24.480  24.827  1.00  0.00     0.056 C 
ENDBRANCH  19  20
ENDBRANCH  16  19
ENDBRANCH   6  15
ENDBRANCH   3   6
ENDBRANCH   1   2
BRANCH   1  24
ATOM     24  C   UNL A   1      32.286  30.072  26.976  1.00  0.00     0.042 C 
BRANCH  24  25
ATOM     25  C   UNL A   1      33.704  30.213  27.493  1.00  0.00     0.118 C 
BRANCH  25  26
ATOM     26  N   UNL A   1      34.262  31.550  27.230  1.00  0.00    -0.352 N 
ATOM     27  C   UNL A   1      35.436  32.101  27.708  1.00  0.00     0.251 C 
ATOM     28  H   UNL A   1      33.729  32.126  26.636  1.00  0.00     0.163 HD
ATOM     29  O   UNL A   1      35.634  33.308  27.695  1.00  0.00    -0.269 OA
BRANCH  27  30
ATOM     30  C   UNL A   1      36.455  31.182  28.226  1.00  0.00     0.039 A 
ATOM     31  C   UNL A   1      36.601  29.888  27.722  1.00  0.00     0.014 A 
ATOM     32  C   UNL A   1      37.355  31.716  29.141  1.00  0.00     0.014 A 
ATOM     33  C   UNL A   1      37.738  29.168  28.075  1.00  0.00     0.010 A 
ATOM     34  C   UNL A   1      38.559  31.092  29.314  1.00  0.00     0.010 A 
ATOM     35  C   UNL A   1      38.730  29.794  28.847  1.00  0.00    -0.014 A 
BRANCH  35  36
ATOM     36  C   UNL A   1      40.023  29.167  29.081  1.00  0.00     0.031 A 
ATOM     37  C   UNL A   1      40.342  28.942  30.514  1.00  0.00     0.074 A 
ATOM     38  C   UNL A   1      40.749  28.611  28.087  1.00  0.00     0.049 A 
ATOM     39  N   UNL A   1      41.208  29.575  31.232  1.00  0.00    -0.248 NA
ATOM     40  C   UNL A   1      39.491  28.023  31.286  1.00  0.00     0.031 C 
ATOM     41  C   UNL A   1      40.379  28.457  26.673  1.00  0.00     0.029 A 
ATOM     42  N   UNL A   1      41.940  27.957  28.151  1.00  0.00    -0.354 N 
ATOM     43  C   UNL A   1      41.180  28.966  32.485  1.00  0.00     0.074 A 
ATOM     44  C   UNL A   1      39.961  28.206  32.523  1.00  0.00     0.031 C 
ATOM     45  C   UNL A   1      41.198  27.562  26.082  1.00  0.00     0.029 A 
ATOM     46  C   UNL A   1      42.256  27.224  27.012  1.00  0.00     0.049 A 
ATOM     47  H   UNL A   1      42.528  28.001  28.938  1.00  0.00     0.167 HD
ATOM     48  C   UNL A   1      42.319  28.894  33.234  1.00  0.00     0.037 A 
ATOM     49  C   UNL A   1      43.308  26.387  26.853  1.00  0.00     0.037 A 
ATOM     50  C   UNL A   1      43.314  29.811  32.718  1.00  0.00     0.049 A 
ATOM     51  C   UNL A   1      44.304  26.742  27.892  1.00  0.00     0.074 A 
ATOM     52  C   UNL A   1      43.386  31.174  32.502  1.00  0.00     0.029 A 
ATOM     53  N   UNL A   1      44.325  29.264  31.968  1.00  0.00    -0.354 N 
ATOM     54  N   UNL A   1      44.966  27.866  27.910  1.00  0.00    -0.248 NA
ATOM     55  C   UNL A   1      44.246  26.034  29.161  1.00  0.00     0.031 C 
ATOM     56  C   UNL A   1      44.138  31.324  31.296  1.00  0.00     0.029 A 
ATOM     57  C   UNL A   1      44.548  30.057  30.877  1.00  0.00     0.049 A 
ATOM     58  H   UNL A   1      44.812  28.435  32.181  1.00  0.00     0.167 HD
ATOM     59  C   UNL A   1      45.005  28.226  29.248  1.00  0.00     0.074 A 
ATOM     60  C   UNL A   1      44.663  27.006  29.975  1.00  0.00     0.031 C 
ATOM     61  C   UNL A   1      45.014  29.544  29.610  1.00  0.00     0.037 A 
BRANCH  48  62
ATOM     62  C   UNL A   1      42.725  27.696  34.085  1.00  0.00     0.064 A 
ATOM     63  C   UNL A   1      42.803  27.878  35.485  1.00  0.00     0.173 A 
ATOM     64  C   UNL A   1      43.361  26.533  33.601  1.00  0.00     0.173 A 
ATOM     65  F   UNL A   1      42.210  28.928  36.074  1.00  0.00    -0.203 F 
ATOM     66  C   UNL A   1      43.595  27.062  36.297  1.00  0.00     0.198 A 
ATOM     67  C   UNL A   1      44.111  25.693  34.424  1.00  0.00     0.198 A 
ATOM     68  F   UNL A   1      43.378  26.198  32.309  1.00  0.00    -0.203 F 
ATOM     69  F   UNL A   1      43.772  27.381  37.586  1.00  0.00    -0.200 F 
ATOM     70  C   UNL A   1      44.267  25.983  35.760  1.00  0.00     0.200 A 
ATOM     71  F   UNL A   1      44.756  24.650  33.882  1.00  0.00    -0.200 F 
ATOM     72  F   UNL A   1      45.096  25.251  36.515  1.00  0.00    -0.200 F 
ENDBRANCH  48  62
BRANCH  49  73
ATOM     73  C   UNL A   1      43.404  25.144  26.052  1.00  0.00     0.064 A 
ATOM     74  C   UNL A   1      44.496  24.922  25.196  1.00  0.00     0.173 A 
ATOM     75  C   UNL A   1      42.585  24.031  26.324  1.00  0.00     0.173 A 
ATOM     76  F   UNL A   1      45.347  25.919  24.916  1.00  0.00    -0.203 F 
ATOM     77  C   UNL A   1      44.775  23.653  24.678  1.00  0.00     0.198 A 
ATOM     78  C   UNL A   1      42.861  22.767  25.800  1.00  0.00     0.198 A 
ATOM     79  F   UNL A   1      41.561  24.125  27.184  1.00  0.00    -0.203 F 
ATOM     80  F   UNL A   1      45.868  23.465  23.925  1.00  0.00    -0.200 F 
ATOM     81  C   UNL A   1      43.965  22.574  24.991  1.00  0.00     0.200 A 
ATOM     82  F   UNL A   1      42.090  21.724  26.139  1.00  0.00    -0.200 F 
ATOM     83  F   UNL A   1      44.272  21.346  24.551  1.00  0.00    -0.200 F 
ENDBRANCH  49  73
BRANCH  61  84
ATOM     84  C   UNL A   1      45.342  30.554  28.545  1.00  0.00     0.064 A 
ATOM     85  C   UNL A   1      44.396  31.157  27.697  1.00  0.00     0.173 A 
ATOM     86  C   UNL A   1      46.665  31.007  28.456  1.00  0.00     0.173 A 
ATOM     87  F   UNL A   1      43.096  30.853  27.783  1.00  0.00    -0.203 F 
ATOM     88  C   UNL A   1      44.772  32.128  26.769  1.00  0.00     0.198 A 
ATOM     89  C   UNL A   1      47.030  32.004  27.558  1.00  0.00     0.198 A 
ATOM     90  F   UNL A   1      47.601  30.504  29.277  1.00  0.00    -0.203 F 
ATOM     91  F   UNL A   1      43.855  32.670  25.955  1.00  0.00    -0.200 F 
ATOM     92  C   UNL A   1      46.087  32.554  26.705  1.00  0.00     0.200 A 
ATOM     93  F   UNL A   1      48.295  32.446  27.534  1.00  0.00    -0.200 F 
ATOM     94  F   UNL A   1      46.444  33.512  25.838  1.00  0.00    -0.200 F 
ENDBRANCH  61  84
ENDBRANCH  35  36
ENDBRANCH  27  30
ENDBRANCH  25  26
ENDBRANCH  24  25
ENDBRANCH   1  24
TORSDOF 15
ENDMDL
MODEL 2
REMARK VINA RESULT:     -12.2      2.537      7.085
REMARK SMILES CC(C)n1cncc1[C@@H](NC(=O)OC(C)(C)C)C(=O)NCCCNC(=O)c1ccc(-c2c3nc(c(-c4c(F)c(F)c(F)c(F)c4F)c4ccc([nH]4)c(-c4c(F)c(F)c(F)c(F)c4F)c4nc(c(-c5c(F)c(F)c(F)c(F)c5F)c5ccc2[nH]5)C=C4)C=C3)cc1
REMARK SMILES IDX 21 1 20 2 18 3 19 4 9 6 8 7 4 8 5 9 6 10 7 11 2 12 1 13 3 14
REMARK SMILES IDX 10 15 11 16 12 18 13 19 14 20 15 21 16 22 17 23 22 24 23 25
REMARK SMILES IDX 24 26 25 27 26 29 27 30 28 31 89 32 29 33 88 34 30 35 31 36
REMARK SMILES IDX 32 37 82 38 33 39 87 40 81 41 83 42 34 43 86 44 80 45 79 46
REMARK SMILES IDX 35 48 67 49 47 50 66 51 48 52 51 53 65 54 84 55 49 56 50 57
REMARK SMILES IDX 64 59 85 60 52 61 36 62 37 63 45 64 38 65 39 66 43 67 46 68
REMARK SMILES IDX 40 69 41 70 44 71 42 72 68 73 69 74 77 75 70 76 71 77 75 78
REMARK SMILES IDX 78 79 72 80 73 81 76 82 74 83 53 84 54 85 62 86 55 87 56 88
REMARK SMILES IDX 60 89 63 90 57 91 58 92 61 93 59 94
REMARK H PARENT 20 5 10 17 24 28 83 47 51 58
REMARK Flexibility Score: inf
ROOT
ATOM      1  C   UNL A   1      32.358  29.316  25.748  1.00  0.00     0.117 C 
ENDROOT
BRANCH   1   2
ATOM      2  N   UNL A   1      33.344  29.477  24.697  1.00  0.00    -0.354 N 
ATOM      3  C   UNL A   1      33.376  28.908  23.452  1.00  0.00     0.248 C 
ATOM      4  O   UNL A   1      34.319  29.218  22.711  1.00  0.00    -0.272 OA
ATOM      5  H   UNL A   1      34.095  30.079  24.907  1.00  0.00     0.163 HD
BRANCH   3   6
ATOM      6  C   UNL A   1      32.380  27.786  23.020  1.00  0.00     0.223 C 
BRANCH   6   7
ATOM      7  C   UNL A   1      31.029  28.462  22.856  1.00  0.00     0.070 A 
ATOM      8  N   UNL A   1      29.829  28.060  23.425  1.00  0.00    -0.330 N 
ATOM      9  C   UNL A   1      28.955  29.109  23.301  1.00  0.00     0.199 A 
ATOM     10  N   UNL A   1      29.435  30.054  22.532  1.00  0.00    -0.245 NA
ATOM     11  C   UNL A   1      30.687  29.632  22.199  1.00  0.00     0.137 A 
BRANCH   8  12
ATOM     12  C   UNL A   1      29.460  26.710  23.850  1.00  0.00     0.082 C 
ATOM     13  C   UNL A   1      30.079  26.277  25.186  1.00  0.00     0.031 C 
ATOM     14  C   UNL A   1      27.933  26.627  23.949  1.00  0.00     0.031 C 
ENDBRANCH   8  12
ENDBRANCH   6   7
BRANCH   6  15
ATOM     15  N   UNL A   1      32.638  27.020  21.807  1.00  0.00    -0.304 N 
ATOM     16  C   UNL A   1      33.254  25.804  21.658  1.00  0.00     0.408 C 
ATOM     17  H   UNL A   1      32.323  27.437  20.973  1.00  0.00     0.168 HD
ATOM     18  O   UNL A   1      33.150  25.189  20.617  1.00  0.00    -0.225 OA
BRANCH  16  19
ATOM     19  O   UNL A   1      34.058  25.466  22.698  1.00  0.00    -0.444 OA
BRANCH  19  20
ATOM     20  C   UNL A   1      33.729  24.348  23.577  1.00  0.00     0.106 C 
ATOM     21  C   UNL A   1      34.029  24.677  25.040  1.00  0.00     0.056 C 
ATOM     22  C   UNL A   1      32.274  23.875  23.412  1.00  0.00     0.056 C 
ATOM     23  C   UNL A   1      34.657  23.200  23.136  1.00  0.00     0.056 C 
ENDBRANCH  19  20
ENDBRANCH  16  19
ENDBRANCH   6  15
ENDBRANCH   3   6
ENDBRANCH   1   2
BRANCH   1  24
ATOM     24  C   UNL A   1      31.760  30.628  26.240  1.00  0.00     0.042 C 
BRANCH  24  25
ATOM     25  C   UNL A   1      32.754  31.418  27.069  1.00  0.00     0.118 C 
BRANCH  25  26
ATOM     26  N   UNL A   1      32.377  32.835  27.191  1.00  0.00    -0.352 N 
ATOM     27  C   UNL A   1      32.890  33.791  28.046  1.00  0.00     0.251 C 
ATOM     28  H   UNL A   1      31.666  33.141  26.584  1.00  0.00     0.163 HD
ATOM     29  O   UNL A   1      32.289  34.829  28.289  1.00  0.00    -0.269 OA
BRANCH  27  30
ATOM     30  C   UNL A   1      34.200  33.527  28.651  1.00  0.00     0.039 A 
ATOM     31  C   UNL A   1      34.333  32.754  29.806  1.00  0.00     0.014 A 
ATOM     32  C   UNL A   1      35.307  33.969  27.937  1.00  0.00     0.014 A 
ATOM     33  C   UNL A   1      35.608  32.335  30.176  1.00  0.00     0.010 A 
ATOM     34  C   UNL A   1      36.519  33.387  28.183  1.00  0.00     0.010 A 
ATOM     35  C   UNL A   1      36.693  32.630  29.336  1.00  0.00    -0.014 A 
BRANCH  35  36
ATOM     36  C   UNL A   1      38.011  32.054  29.563  1.00  0.00     0.031 A 
ATOM     37  C   UNL A   1      38.153  30.651  29.095  1.00  0.00     0.074 A 
ATOM     38  C   UNL A   1      39.075  32.802  29.928  1.00  0.00     0.049 A 
ATOM     39  N   UNL A   1      38.239  29.588  29.821  1.00  0.00    -0.248 NA
ATOM     40  C   UNL A   1      38.020  30.377  27.655  1.00  0.00     0.031 C 
ATOM     41  C   UNL A   1      39.145  34.261  30.085  1.00  0.00     0.029 A 
ATOM     42  N   UNL A   1      40.364  32.422  30.134  1.00  0.00    -0.354 N 
ATOM     43  C   UNL A   1      38.416  28.533  28.930  1.00  0.00     0.074 A 
ATOM     44  C   UNL A   1      38.032  29.041  27.641  1.00  0.00     0.031 C 
ATOM     45  C   UNL A   1      40.436  34.654  30.119  1.00  0.00     0.029 A 
ATOM     46  C   UNL A   1      41.274  33.474  30.179  1.00  0.00     0.049 A 
ATOM     47  H   UNL A   1      40.631  31.481  30.243  1.00  0.00     0.167 HD
ATOM     48  C   UNL A   1      39.165  27.451  29.293  1.00  0.00     0.037 A 
ATOM     49  C   UNL A   1      42.623  33.377  30.246  1.00  0.00     0.037 A 
ATOM     50  C   UNL A   1      39.361  27.440  30.728  1.00  0.00     0.049 A 
ATOM     51  C   UNL A   1      42.935  32.013  30.736  1.00  0.00     0.074 A 
ATOM     52  C   UNL A   1      38.540  27.408  31.838  1.00  0.00     0.029 A 
ATOM     53  N   UNL A   1      40.585  27.860  31.185  1.00  0.00    -0.354 N 
ATOM     54  N   UNL A   1      42.661  31.595  31.941  1.00  0.00    -0.248 NA
ATOM     55  C   UNL A   1      43.153  30.969  29.749  1.00  0.00     0.031 C 
ATOM     56  C   UNL A   1      39.187  28.235  32.807  1.00  0.00     0.029 A 
ATOM     57  C   UNL A   1      40.400  28.669  32.270  1.00  0.00     0.049 A 
ATOM     58  H   UNL A   1      41.456  27.617  30.796  1.00  0.00     0.167 HD
ATOM     59  C   UNL A   1      42.226  30.290  31.767  1.00  0.00     0.074 A 
ATOM     60  C   UNL A   1      42.671  29.923  30.424  1.00  0.00     0.031 C 
ATOM     61  C   UNL A   1      41.292  29.754  32.608  1.00  0.00     0.037 A 
BRANCH  48  62
ATOM     62  C   UNL A   1      40.117  26.703  28.367  1.00  0.00     0.064 A 
ATOM     63  C   UNL A   1      39.999  25.296  28.297  1.00  0.00     0.173 A 
ATOM     64  C   UNL A   1      41.319  27.225  27.843  1.00  0.00     0.173 A 
ATOM     65  F   UNL A   1      38.889  24.678  28.732  1.00  0.00    -0.203 F 
ATOM     66  C   UNL A   1      41.061  24.479  27.899  1.00  0.00     0.198 A 
ATOM     67  C   UNL A   1      42.359  26.408  27.400  1.00  0.00     0.198 A 
ATOM     68  F   UNL A   1      41.595  28.530  27.817  1.00  0.00    -0.203 F 
ATOM     69  F   UNL A   1      40.956  23.149  28.016  1.00  0.00    -0.200 F 
ATOM     70  C   UNL A   1      42.250  25.037  27.473  1.00  0.00     0.200 A 
ATOM     71  F   UNL A   1      43.505  26.969  26.990  1.00  0.00    -0.200 F 
ATOM     72  F   UNL A   1      43.300  24.262  27.175  1.00  0.00    -0.200 F 
ENDBRANCH  48  62
BRANCH  49  73
ATOM     73  C   UNL A   1      43.656  34.271  29.672  1.00  0.00     0.064 A 
ATOM     74  C   UNL A   1      43.960  34.233  28.301  1.00  0.00     0.173 A 
ATOM     75  C   UNL A   1      44.155  35.373  30.394  1.00  0.00     0.173 A 
ATOM     76  F   UNL A   1      43.490  33.239  27.534  1.00  0.00    -0.203 F 
ATOM     77  C   UNL A   1      44.684  35.257  27.681  1.00  0.00     0.198 A 
ATOM     78  C   UNL A   1      44.884  36.390  29.775  1.00  0.00     0.198 A 
ATOM     79  F   UNL A   1      43.860  35.536  31.691  1.00  0.00    -0.203 F 
ATOM     80  F   UNL A   1      44.890  35.222  26.357  1.00  0.00    -0.200 F 
ATOM     81  C   UNL A   1      45.134  36.341  28.416  1.00  0.00     0.200 A 
ATOM     82  F   UNL A   1      45.283  37.452  30.491  1.00  0.00    -0.200 F 
ATOM     83  F   UNL A   1      45.767  37.355  27.811  1.00  0.00    -0.200 F 
ENDBRANCH  49  73
BRANCH  61  84
ATOM     84  C   UNL A   1      41.034  30.471  33.905  1.00  0.00     0.064 A 
ATOM     85  C   UNL A   1      41.831  30.350  35.058  1.00  0.00     0.173 A 
ATOM     86  C   UNL A   1      39.990  31.404  33.941  1.00  0.00     0.173 A 
ATOM     87  F   UNL A   1      42.906  29.554  35.076  1.00  0.00    -0.203 F 
ATOM     88  C   UNL A   1      41.557  31.092  36.206  1.00  0.00     0.198 A 
ATOM     89  C   UNL A   1      39.744  32.172  35.074  1.00  0.00     0.198 A 
ATOM     90  F   UNL A   1      39.229  31.600  32.852  1.00  0.00    -0.203 F 
ATOM     91  F   UNL A   1      42.317  30.941  37.301  1.00  0.00    -0.200 F 
ATOM     92  C   UNL A   1      40.518  32.006  36.211  1.00  0.00     0.200 A 
ATOM     93  F   UNL A   1      38.767  33.090  35.057  1.00  0.00    -0.200 F 
ATOM     94  F   UNL A   1      40.275  32.744  37.303  1.00  0.00    -0.200 F 
ENDBRANCH  61  84
ENDBRANCH  35  36
ENDBRANCH  27  30
ENDBRANCH  25  26
ENDBRANCH  24  25
ENDBRANCH   1  24
TORSDOF 15
ENDMDL
MODEL 3
REMARK VINA RESULT:     -12.2      3.620      8.618
REMARK SMILES CC(C)n1cncc1[C@@H](NC(=O)OC(C)(C)C)C(=O)NCCCNC(=O)c1ccc(-c2c3nc(c(-c4c(F)c(F)c(F)c(F)c4F)c4ccc([nH]4)c(-c4c(F)c(F)c(F)c(F)c4F)c4nc(c(-c5c(F)c(F)c(F)c(F)c5F)c5ccc2[nH]5)C=C4)C=C3)cc1
REMARK SMILES IDX 21 1 20 2 18 3 19 4 9 6 8 7 4 8 5 9 6 10 7 11 2 12 1 13 3 14
REMARK SMILES IDX 10 15 11 16 12 18 13 19 14 20 15 21 16 22 17 23 22 24 23 25
REMARK SMILES IDX 24 26 25 27 26 29 27 30 28 31 89 32 29 33 88 34 30 35 31 36
REMARK SMILES IDX 32 37 82 38 33 39 87 40 81 41 83 42 34 43 86 44 80 45 79 46
REMARK SMILES IDX 35 48 67 49 47 50 66 51 48 52 51 53 65 54 84 55 49 56 50 57
REMARK SMILES IDX 64 59 85 60 52 61 36 62 37 63 45 64 38 65 39 66 43 67 46 68
REMARK SMILES IDX 40 69 41 70 44 71 42 72 68 73 69 74 77 75 70 76 71 77 75 78
REMARK SMILES IDX 78 79 72 80 73 81 76 82 74 83 53 84 54 85 62 86 55 87 56 88
REMARK SMILES IDX 60 89 63 90 57 91 58 92 61 93 59 94
REMARK H PARENT 20 5 10 17 24 28 83 47 51 58
REMARK Flexibility Score: inf
ROOT
ATOM      1  C   UNL A   1      35.835  21.632  25.392  1.00  0.00     0.117 C 
ENDROOT
BRANCH   1   2
ATOM      2  N   UNL A   1      35.307  21.752  26.737  1.00  0.00    -0.354 N 
ATOM      3  C   UNL A   1      34.003  21.848  27.144  1.00  0.00     0.248 C 
ATOM      4  O   UNL A   1      33.794  21.919  28.362  1.00  0.00    -0.272 OA
ATOM      5  H   UNL A   1      35.978  21.768  27.457  1.00  0.00     0.163 HD
BRANCH   3   6
ATOM      6  C   UNL A   1      32.824  22.034  26.137  1.00  0.00     0.223 C 
BRANCH   6   7
ATOM      7  C   UNL A   1      32.730  20.735  25.353  1.00  0.00     0.070 A 
ATOM      8  N   UNL A   1      32.674  20.605  23.973  1.00  0.00    -0.330 N 
ATOM      9  C   UNL A   1      32.934  19.290  23.683  1.00  0.00     0.199 A 
ATOM     10  N   UNL A   1      32.950  18.548  24.762  1.00  0.00    -0.245 NA
ATOM     11  C   UNL A   1      32.759  19.421  25.790  1.00  0.00     0.137 A 
BRANCH   8  12
ATOM     12  C   UNL A   1      32.188  21.593  23.011  1.00  0.00     0.082 C 
ATOM     13  C   UNL A   1      33.188  22.715  22.698  1.00  0.00     0.031 C 
ATOM     14  C   UNL A   1      31.815  20.871  21.711  1.00  0.00     0.031 C 
ENDBRANCH   8  12
ENDBRANCH   6   7
BRANCH   6  15
ATOM     15  N   UNL A   1      31.490  22.342  26.637  1.00  0.00    -0.304 N 
ATOM     16  C   UNL A   1      30.911  23.560  26.883  1.00  0.00     0.408 C 
ATOM     17  H   UNL A   1      30.922  21.560  26.825  1.00  0.00     0.168 HD
ATOM     18  O   UNL A   1      29.711  23.646  27.043  1.00  0.00    -0.225 OA
BRANCH  16  19
ATOM     19  O   UNL A   1      31.805  24.566  27.057  1.00  0.00    -0.444 OA
BRANCH  19  20
ATOM     20  C   UNL A   1      31.969  25.615  26.056  1.00  0.00     0.106 C 
ATOM     21  C   UNL A   1      31.295  25.241  24.735  1.00  0.00     0.056 C 
ATOM     22  C   UNL A   1      31.474  26.987  26.550  1.00  0.00     0.056 C 
ATOM     23  C   UNL A   1      33.487  25.714  25.817  1.00  0.00     0.056 C 
ENDBRANCH  19  20
ENDBRANCH  16  19
ENDBRANCH   6  15
ENDBRANCH   3   6
ENDBRANCH   1   2
BRANCH   1  24
ATOM     24  C   UNL A   1      36.292  22.953  24.786  1.00  0.00     0.042 C 
BRANCH  24  25
ATOM     25  C   UNL A   1      37.714  23.289  25.189  1.00  0.00     0.118 C 
BRANCH  25  26
ATOM     26  N   UNL A   1      38.498  22.088  25.519  1.00  0.00    -0.352 N 
ATOM     27  C   UNL A   1      39.653  21.994  26.272  1.00  0.00     0.251 C 
ATOM     28  H   UNL A   1      38.154  21.241  25.155  1.00  0.00     0.163 HD
ATOM     29  O   UNL A   1      40.388  21.019  26.207  1.00  0.00    -0.269 OA
BRANCH  27  30
ATOM     30  C   UNL A   1      39.968  23.109  27.172  1.00  0.00     0.039 A 
ATOM     31  C   UNL A   1      41.201  23.204  27.820  1.00  0.00     0.014 A 
ATOM     32  C   UNL A   1      39.030  24.133  27.234  1.00  0.00     0.014 A 
ATOM     33  C   UNL A   1      41.525  24.402  28.449  1.00  0.00     0.010 A 
ATOM     34  C   UNL A   1      39.434  25.365  27.667  1.00  0.00     0.010 A 
ATOM     35  C   UNL A   1      40.645  25.490  28.337  1.00  0.00    -0.014 A 
BRANCH  35  36
ATOM     36  C   UNL A   1      41.015  26.820  28.801  1.00  0.00     0.031 A 
ATOM     37  C   UNL A   1      42.176  27.413  28.089  1.00  0.00     0.074 A 
ATOM     38  C   UNL A   1      40.225  27.548  29.619  1.00  0.00     0.049 A 
ATOM     39  N   UNL A   1      43.369  27.590  28.548  1.00  0.00    -0.248 NA
ATOM     40  C   UNL A   1      42.048  27.692  26.650  1.00  0.00     0.031 C 
ATOM     41  C   UNL A   1      38.883  27.213  30.116  1.00  0.00     0.029 A 
ATOM     42  N   UNL A   1      40.409  28.807  30.099  1.00  0.00    -0.354 N 
ATOM     43  C   UNL A   1      44.076  28.228  27.532  1.00  0.00     0.074 A 
ATOM     44  C   UNL A   1      43.299  28.041  26.337  1.00  0.00     0.031 C 
ATOM     45  C   UNL A   1      38.291  28.320  30.612  1.00  0.00     0.029 A 
ATOM     46  C   UNL A   1      39.269  29.388  30.643  1.00  0.00     0.049 A 
ATOM     47  H   UNL A   1      41.278  29.267  30.065  1.00  0.00     0.167 HD
ATOM     48  C   UNL A   1      45.063  29.118  27.842  1.00  0.00     0.037 A 
ATOM     49  C   UNL A   1      39.136  30.665  31.075  1.00  0.00     0.037 A 
ATOM     50  C   UNL A   1      45.449  28.971  29.230  1.00  0.00     0.049 A 
ATOM     51  C   UNL A   1      40.505  31.185  31.313  1.00  0.00     0.074 A 
ATOM     52  C   UNL A   1      45.944  27.949  30.016  1.00  0.00     0.029 A 
ATOM     53  N   UNL A   1      44.965  29.911  30.106  1.00  0.00    -0.354 N 
ATOM     54  N   UNL A   1      41.291  30.752  32.259  1.00  0.00    -0.248 NA
ATOM     55  C   UNL A   1      41.166  31.881  30.222  1.00  0.00     0.031 C 
ATOM     56  C   UNL A   1      45.326  28.125  31.293  1.00  0.00     0.029 A 
ATOM     57  C   UNL A   1      44.546  29.281  31.244  1.00  0.00     0.049 A 
ATOM     58  H   UNL A   1      44.926  30.881  29.942  1.00  0.00     0.167 HD
ATOM     59  C   UNL A   1      42.548  30.710  31.674  1.00  0.00     0.074 A 
ATOM     60  C   UNL A   1      42.430  31.532  30.472  1.00  0.00     0.031 C 
ATOM     61  C   UNL A   1      43.461  29.770  32.064  1.00  0.00     0.037 A 
BRANCH  48  62
ATOM     62  C   UNL A   1      45.333  30.415  27.088  1.00  0.00     0.064 A 
ATOM     63  C   UNL A   1      46.679  30.764  26.835  1.00  0.00     0.173 A 
ATOM     64  C   UNL A   1      44.406  31.467  26.923  1.00  0.00     0.173 A 
ATOM     65  F   UNL A   1      47.654  29.846  26.924  1.00  0.00    -0.203 F 
ATOM     66  C   UNL A   1      47.075  32.086  26.609  1.00  0.00     0.198 A 
ATOM     67  C   UNL A   1      44.801  32.777  26.649  1.00  0.00     0.198 A 
ATOM     68  F   UNL A   1      43.093  31.316  27.110  1.00  0.00    -0.203 F 
ATOM     69  F   UNL A   1      48.379  32.386  26.548  1.00  0.00    -0.200 F 
ATOM     70  C   UNL A   1      46.136  33.095  26.540  1.00  0.00     0.200 A 
ATOM     71  F   UNL A   1      43.872  33.742  26.586  1.00  0.00    -0.200 F 
ATOM     72  F   UNL A   1      46.514  34.373  26.413  1.00  0.00    -0.200 F 
ENDBRANCH  48  62
BRANCH  49  73
ATOM     73  C   UNL A   1      37.945  31.546  31.045  1.00  0.00     0.064 A 
ATOM     74  C   UNL A   1      37.399  31.975  29.824  1.00  0.00     0.173 A 
ATOM     75  C   UNL A   1      37.152  31.745  32.191  1.00  0.00     0.173 A 
ATOM     76  F   UNL A   1      38.073  31.787  28.680  1.00  0.00    -0.203 F 
ATOM     77  C   UNL A   1      36.118  32.533  29.750  1.00  0.00     0.198 A 
ATOM     78  C   UNL A   1      35.877  32.309  32.116  1.00  0.00     0.198 A 
ATOM     79  F   UNL A   1      37.554  31.306  33.392  1.00  0.00    -0.203 F 
ATOM     80  F   UNL A   1      35.602  32.862  28.557  1.00  0.00    -0.200 F 
ATOM     81  C   UNL A   1      35.353  32.687  30.893  1.00  0.00     0.200 A 
ATOM     82  F   UNL A   1      35.132  32.420  33.225  1.00  0.00    -0.200 F 
ATOM     83  F   UNL A   1      34.101  33.157  30.813  1.00  0.00    -0.200 F 
ENDBRANCH  49  73
BRANCH  61  84
ATOM     84  C   UNL A   1      43.203  29.046  33.357  1.00  0.00     0.064 A 
ATOM     85  C   UNL A   1      42.367  27.924  33.491  1.00  0.00     0.173 A 
ATOM     86  C   UNL A   1      43.924  29.449  34.488  1.00  0.00     0.173 A 
ATOM     87  F   UNL A   1      41.717  27.414  32.439  1.00  0.00    -0.203 F 
ATOM     88  C   UNL A   1      42.222  27.273  34.716  1.00  0.00     0.198 A 
ATOM     89  C   UNL A   1      43.810  28.773  35.698  1.00  0.00     0.198 A 
ATOM     90  F   UNL A   1      44.778  30.482  34.406  1.00  0.00    -0.203 F 
ATOM     91  F   UNL A   1      41.399  26.219  34.825  1.00  0.00    -0.200 F 
ATOM     92  C   UNL A   1      42.948  27.695  35.816  1.00  0.00     0.200 A 
ATOM     93  F   UNL A   1      44.551  29.157  36.747  1.00  0.00    -0.200 F 
ATOM     94  F   UNL A   1      42.836  27.049  36.985  1.00  0.00    -0.200 F 
ENDBRANCH  61  84
ENDBRANCH  35  36
ENDBRANCH  27  30
ENDBRANCH  25  26
ENDBRANCH  24  25
ENDBRANCH   1  24
TORSDOF 15
ENDMDL
