MODEL 1
REMARK VINA RESULT:     -13.1      0.000      0.000
REMARK SMILES CC(C)Cc1ccc(-c2cc(Cl)cc3c2O[C@H](C(F)(F)F)C(C(=O)NCCCNC(=O)c2ccc(-c4c5nc(c(-c6c(F)c(F)c(F)c(F)c6F)c6ccc([nH]6)c(-c6c(F)c(F)c(F)c(F)c6F)c6nc(c(-c7c(F)c(F)c(F)c(F)c7F)c7ccc4[nH]7)C=C6)C=C5)cc2)=C3)cc1
REMARK SMILES IDX 26 1 25 2 23 3 24 4 22 6 9 7 10 8 15 9 11 10 14 11 16 12
REMARK SMILES IDX 12 13 13 14 95 15 17 16 8 17 5 18 6 19 97 20 7 21 96 22 4 23
REMARK SMILES IDX 2 24 1 25 3 26 18 27 19 28 20 29 21 30 27 31 28 32 29 33
REMARK SMILES IDX 30 34 31 36 32 37 33 38 94 39 34 40 93 41 35 42 36 43 37 44
REMARK SMILES IDX 87 45 38 46 92 47 86 48 88 49 39 50 91 51 85 52 84 53 40 55
REMARK SMILES IDX 72 56 52 57 71 58 53 59 56 60 70 61 89 62 54 63 55 64 69 66
REMARK SMILES IDX 90 67 57 68 41 69 42 70 50 71 43 72 44 73 48 74 51 75 45 76
REMARK SMILES IDX 46 77 49 78 47 79 73 80 74 81 82 82 75 83 76 84 80 85 83 86
REMARK SMILES IDX 77 87 78 88 81 89 79 90 58 91 59 92 67 93 60 94 61 95 65 96
REMARK SMILES IDX 68 97 62 98 63 99 66 100 64 101
REMARK H PARENT 25 5 29 35 88 54 56 65
REMARK Flexibility Score: inf
ROOT
ATOM      1  C   UNL A   1      30.891  31.712  26.395  1.00  0.00     0.118 C 
ENDROOT
BRANCH   1   2
ATOM      2  N   UNL A   1      31.134  30.645  25.443  1.00  0.00    -0.352 N 
ATOM      3  C   UNL A   1      32.293  29.954  25.294  1.00  0.00     0.251 C 
ATOM      4  O   UNL A   1      32.729  29.729  24.171  1.00  0.00    -0.270 OA
ATOM      5  H   UNL A   1      30.388  30.398  24.850  1.00  0.00     0.163 HD
BRANCH   3   6
ATOM      6  C   UNL A   1      32.892  29.365  26.527  1.00  0.00     0.067 C 
ATOM      7  C   UNL A   1      33.313  25.480  25.353  1.00  0.00     0.026 A 
ATOM      8  C   UNL A   1      32.119  25.145  24.662  1.00  0.00     0.033 A 
ATOM      9  C   UNL A   1      33.287  26.679  26.092  1.00  0.00     0.135 A 
ATOM     10  C   UNL A   1      30.922  25.829  24.857  1.00  0.00     0.042 A 
ATOM     11  C   UNL A   1      32.036  27.288  26.370  1.00  0.00     0.019 A 
ATOM     12  O   UNL A   1      34.425  27.351  26.522  1.00  0.00    -0.475 OA
ATOM     13  Cl  UNL A   1      29.518  25.357  23.986  1.00  0.00    -0.084 Cl
ATOM     14  C   UNL A   1      30.855  26.857  25.776  1.00  0.00     0.032 A 
ATOM     15  C   UNL A   1      32.035  28.540  27.160  1.00  0.00     0.025 C 
ATOM     16  C   UNL A   1      34.315  28.839  26.377  1.00  0.00     0.314 C 
BRANCH   7  17
ATOM     17  C   UNL A   1      34.298  24.361  25.413  1.00  0.00    -0.015 A 
ATOM     18  C   UNL A   1      35.070  21.614  25.108  1.00  0.00    -0.048 A 
ATOM     19  C   UNL A   1      35.305  22.546  24.090  1.00  0.00     0.004 A 
ATOM     20  C   UNL A   1      34.572  22.099  26.325  1.00  0.00     0.004 A 
ATOM     21  C   UNL A   1      34.937  23.899  24.244  1.00  0.00     0.009 A 
ATOM     22  C   UNL A   1      34.209  23.452  26.482  1.00  0.00     0.009 A 
BRANCH  18  23
ATOM     23  C   UNL A   1      35.373  20.137  24.915  1.00  0.00     0.038 C 
BRANCH  23  24
ATOM     24  C   UNL A   1      34.176  19.147  24.855  1.00  0.00    -0.013 C 
ATOM     25  C   UNL A   1      32.987  19.662  24.038  1.00  0.00     0.008 C 
ATOM     26  C   UNL A   1      34.640  17.816  24.239  1.00  0.00     0.008 C 
ENDBRANCH  23  24
ENDBRANCH  18  23
ENDBRANCH   7  17
BRANCH  16  27
ATOM     27  C   UNL A   1      35.205  29.600  27.389  1.00  0.00     0.429 C 
ATOM     28  F   UNL A   1      35.255  29.007  28.601  1.00  0.00    -0.167 F 
ATOM     29  F   UNL A   1      36.477  29.710  26.932  1.00  0.00    -0.167 F 
ATOM     30  F   UNL A   1      34.777  30.875  27.603  1.00  0.00    -0.167 F 
ENDBRANCH  16  27
ENDBRANCH   3   6
ENDBRANCH   1   2
BRANCH   1  31
ATOM     31  C   UNL A   1      31.995  32.771  26.297  1.00  0.00     0.042 C 
BRANCH  31  32
ATOM     32  C   UNL A   1      32.620  33.174  27.633  1.00  0.00     0.118 C 
BRANCH  32  33
ATOM     33  N   UNL A   1      32.393  34.569  27.979  1.00  0.00    -0.352 N 
ATOM     34  C   UNL A   1      33.029  35.349  28.913  1.00  0.00     0.251 C 
ATOM     35  H   UNL A   1      31.680  35.018  27.470  1.00  0.00     0.163 HD
ATOM     36  O   UNL A   1      32.606  36.475  29.164  1.00  0.00    -0.269 OA
BRANCH  34  37
ATOM     37  C   UNL A   1      34.202  34.823  29.643  1.00  0.00     0.039 A 
ATOM     38  C   UNL A   1      34.034  34.386  30.958  1.00  0.00     0.014 A 
ATOM     39  C   UNL A   1      35.455  34.742  29.031  1.00  0.00     0.014 A 
ATOM     40  C   UNL A   1      35.107  33.799  31.634  1.00  0.00     0.010 A 
ATOM     41  C   UNL A   1      36.498  34.082  29.674  1.00  0.00     0.010 A 
ATOM     42  C   UNL A   1      36.335  33.598  30.982  1.00  0.00    -0.014 A 
BRANCH  42  43
ATOM     43  C   UNL A   1      37.447  32.872  31.648  1.00  0.00     0.031 A 
ATOM     44  C   UNL A   1      38.095  31.690  30.982  1.00  0.00     0.074 A 
ATOM     45  C   UNL A   1      37.833  33.242  32.887  1.00  0.00     0.049 A 
ATOM     46  N   UNL A   1      39.045  30.906  31.427  1.00  0.00    -0.248 NA
ATOM     47  C   UNL A   1      37.590  31.321  29.650  1.00  0.00     0.031 C 
ATOM     48  C   UNL A   1      37.244  34.334  33.664  1.00  0.00     0.029 A 
ATOM     49  N   UNL A   1      38.808  32.739  33.711  1.00  0.00    -0.354 N 
ATOM     50  C   UNL A   1      39.240  29.949  30.440  1.00  0.00     0.074 A 
ATOM     51  C   UNL A   1      38.270  30.212  29.399  1.00  0.00     0.031 C 
ATOM     52  C   UNL A   1      37.887  34.436  34.838  1.00  0.00     0.029 A 
ATOM     53  C   UNL A   1      38.906  33.395  34.915  1.00  0.00     0.049 A 
ATOM     54  H   UNL A   1      39.382  31.978  33.465  1.00  0.00     0.167 HD
ATOM     55  C   UNL A   1      40.162  28.958  30.393  1.00  0.00     0.037 A 
ATOM     56  C   UNL A   1      39.722  33.178  35.965  1.00  0.00     0.037 A 
ATOM     57  C   UNL A   1      41.142  28.715  31.421  1.00  0.00     0.049 A 
ATOM     58  C   UNL A   1      40.736  32.067  35.887  1.00  0.00     0.074 A 
ATOM     59  C   UNL A   1      42.160  27.778  31.437  1.00  0.00     0.029 A 
ATOM     60  N   UNL A   1      41.221  29.412  32.617  1.00  0.00    -0.354 N 
ATOM     61  N   UNL A   1      40.964  31.221  34.913  1.00  0.00    -0.248 NA
ATOM     62  C   UNL A   1      41.610  31.887  37.055  1.00  0.00     0.031 C 
ATOM     63  C   UNL A   1      42.820  27.871  32.666  1.00  0.00     0.029 A 
ATOM     64  C   UNL A   1      42.254  28.907  33.391  1.00  0.00     0.049 A 
ATOM     65  H   UNL A   1      40.630  30.155  32.879  1.00  0.00     0.167 HD
ATOM     66  C   UNL A   1      42.025  30.430  35.335  1.00  0.00     0.074 A 
ATOM     67  C   UNL A   1      42.405  30.909  36.646  1.00  0.00     0.031 C 
ATOM     68  C   UNL A   1      42.627  29.399  34.692  1.00  0.00     0.037 A 
BRANCH  55  69
ATOM     69  C   UNL A   1      40.161  28.062  29.187  1.00  0.00     0.064 A 
ATOM     70  C   UNL A   1      40.868  28.395  28.021  1.00  0.00     0.173 A 
ATOM     71  C   UNL A   1      39.479  26.835  29.211  1.00  0.00     0.173 A 
ATOM     72  F   UNL A   1      41.528  29.560  27.941  1.00  0.00    -0.203 F 
ATOM     73  C   UNL A   1      40.866  27.549  26.914  1.00  0.00     0.198 A 
ATOM     74  C   UNL A   1      39.508  25.977  28.115  1.00  0.00     0.198 A 
ATOM     75  F   UNL A   1      38.794  26.463  30.302  1.00  0.00    -0.203 F 
ATOM     76  F   UNL A   1      41.505  27.913  25.794  1.00  0.00    -0.200 F 
ATOM     77  C   UNL A   1      40.194  26.338  26.965  1.00  0.00     0.200 A 
ATOM     78  F   UNL A   1      38.871  24.800  28.171  1.00  0.00    -0.200 F 
ATOM     79  F   UNL A   1      40.201  25.521  25.903  1.00  0.00    -0.200 F 
ENDBRANCH  55  69
BRANCH  56  80
ATOM     80  C   UNL A   1      39.633  34.045  37.169  1.00  0.00     0.064 A 
ATOM     81  C   UNL A   1      38.835  33.681  38.263  1.00  0.00     0.173 A 
ATOM     82  C   UNL A   1      40.334  35.258  37.251  1.00  0.00     0.173 A 
ATOM     83  F   UNL A   1      38.129  32.541  38.226  1.00  0.00    -0.203 F 
ATOM     84  C   UNL A   1      38.720  34.506  39.380  1.00  0.00     0.198 A 
ATOM     85  C   UNL A   1      40.244  36.067  38.382  1.00  0.00     0.198 A 
ATOM     86  F   UNL A   1      41.117  35.651  36.237  1.00  0.00    -0.203 F 
ATOM     87  F   UNL A   1      37.909  34.157  40.387  1.00  0.00    -0.200 F 
ATOM     88  C   UNL A   1      39.429  35.696  39.441  1.00  0.00     0.200 A 
ATOM     89  F   UNL A   1      40.943  37.208  38.443  1.00  0.00    -0.200 F 
ATOM     90  F   UNL A   1      39.322  36.488  40.517  1.00  0.00    -0.200 F 
ENDBRANCH  56  80
BRANCH  68  91
ATOM     91  C   UNL A   1      43.790  28.743  35.381  1.00  0.00     0.064 A 
ATOM     92  C   UNL A   1      45.101  29.223  35.238  1.00  0.00     0.173 A 
ATOM     93  C   UNL A   1      43.583  27.645  36.230  1.00  0.00     0.173 A 
ATOM     94  F   UNL A   1      45.354  30.261  34.427  1.00  0.00    -0.203 F 
ATOM     95  C   UNL A   1      46.163  28.610  35.897  1.00  0.00     0.198 A 
ATOM     96  C   UNL A   1      44.642  27.056  36.914  1.00  0.00     0.198 A 
ATOM     97  F   UNL A   1      42.347  27.151  36.409  1.00  0.00    -0.203 F 
ATOM     98  F   UNL A   1      47.413  29.053  35.705  1.00  0.00    -0.200 F 
ATOM     99  C   UNL A   1      45.932  27.532  36.741  1.00  0.00     0.200 A 
ATOM    100  F   UNL A   1      44.414  26.026  37.740  1.00  0.00    -0.200 F 
ATOM    101  F   UNL A   1      46.955  26.950  37.381  1.00  0.00    -0.200 F 
ENDBRANCH  68  91
ENDBRANCH  42  43
ENDBRANCH  34  37
ENDBRANCH  32  33
ENDBRANCH  31  32
ENDBRANCH   1  31
TORSDOF 14
ENDMDL
MODEL 2
REMARK VINA RESULT:     -13.1      0.471      7.018
REMARK SMILES CC(C)Cc1ccc(-c2cc(Cl)cc3c2O[C@H](C(F)(F)F)C(C(=O)NCCCNC(=O)c2ccc(-c4c5nc(c(-c6c(F)c(F)c(F)c(F)c6F)c6ccc([nH]6)c(-c6c(F)c(F)c(F)c(F)c6F)c6nc(c(-c7c(F)c(F)c(F)c(F)c7F)c7ccc4[nH]7)C=C6)C=C5)cc2)=C3)cc1
REMARK SMILES IDX 26 1 25 2 23 3 24 4 22 6 9 7 10 8 15 9 11 10 14 11 16 12
REMARK SMILES IDX 12 13 13 14 95 15 17 16 8 17 5 18 6 19 97 20 7 21 96 22 4 23
REMARK SMILES IDX 2 24 1 25 3 26 18 27 19 28 20 29 21 30 27 31 28 32 29 33
REMARK SMILES IDX 30 34 31 36 32 37 33 38 94 39 34 40 93 41 35 42 36 43 37 44
REMARK SMILES IDX 87 45 38 46 92 47 86 48 88 49 39 50 91 51 85 52 84 53 40 55
REMARK SMILES IDX 72 56 52 57 71 58 53 59 56 60 70 61 89 62 54 63 55 64 69 66
REMARK SMILES IDX 90 67 57 68 41 69 42 70 50 71 43 72 44 73 48 74 51 75 45 76
REMARK SMILES IDX 46 77 49 78 47 79 73 80 74 81 82 82 75 83 76 84 80 85 83 86
REMARK SMILES IDX 77 87 78 88 81 89 79 90 58 91 59 92 67 93 60 94 61 95 65 96
REMARK SMILES IDX 68 97 62 98 63 99 66 100 64 101
REMARK H PARENT 25 5 29 35 88 54 56 65
REMARK Flexibility Score: inf
ROOT
ATOM      1  C   UNL A   1      30.858  31.777  26.524  1.00  0.00     0.118 C 
ENDROOT
BRANCH   1   2
ATOM      2  N   UNL A   1      31.080  30.721  25.555  1.00  0.00    -0.352 N 
ATOM      3  C   UNL A   1      32.227  30.011  25.393  1.00  0.00     0.251 C 
ATOM      4  O   UNL A   1      32.656  29.796  24.266  1.00  0.00    -0.270 OA
ATOM      5  H   UNL A   1      30.329  30.496  24.960  1.00  0.00     0.163 HD
BRANCH   3   6
ATOM      6  C   UNL A   1      32.817  29.392  26.615  1.00  0.00     0.067 C 
ATOM      7  C   UNL A   1      33.228  25.533  25.357  1.00  0.00     0.026 A 
ATOM      8  C   UNL A   1      32.036  25.218  24.653  1.00  0.00     0.033 A 
ATOM      9  C   UNL A   1      33.203  26.715  26.122  1.00  0.00     0.135 A 
ATOM     10  C   UNL A   1      30.841  25.903  24.858  1.00  0.00     0.042 A 
ATOM     11  C   UNL A   1      31.953  27.323  26.408  1.00  0.00     0.019 A 
ATOM     12  O   UNL A   1      34.342  27.373  26.573  1.00  0.00    -0.475 OA
ATOM     13  Cl  UNL A   1      29.439  25.456  23.970  1.00  0.00    -0.084 Cl
ATOM     14  C   UNL A   1      30.773  26.910  25.799  1.00  0.00     0.032 A 
ATOM     15  C   UNL A   1      31.954  28.557  27.226  1.00  0.00     0.025 C 
ATOM     16  C   UNL A   1      34.239  28.864  26.461  1.00  0.00     0.314 C 
BRANCH   7  17
ATOM     17  C   UNL A   1      34.208  24.409  25.397  1.00  0.00    -0.015 A 
ATOM     18  C   UNL A   1      34.955  21.654  25.095  1.00  0.00    -0.048 A 
ATOM     19  C   UNL A   1      35.161  22.574  24.061  1.00  0.00     0.004 A 
ATOM     20  C   UNL A   1      34.499  22.154  26.323  1.00  0.00     0.004 A 
ATOM     21  C   UNL A   1      34.807  23.931  24.212  1.00  0.00     0.009 A 
ATOM     22  C   UNL A   1      34.149  23.511  26.477  1.00  0.00     0.009 A 
BRANCH  18  23
ATOM     23  C   UNL A   1      35.242  20.174  24.908  1.00  0.00     0.038 C 
BRANCH  23  24
ATOM     24  C   UNL A   1      34.035  19.199  24.825  1.00  0.00    -0.013 C 
ATOM     25  C   UNL A   1      32.853  19.745  24.019  1.00  0.00     0.008 C 
ATOM     26  C   UNL A   1      34.485  17.876  24.180  1.00  0.00     0.008 C 
ENDBRANCH  23  24
ENDBRANCH  18  23
ENDBRANCH   7  17
BRANCH  16  27
ATOM     27  C   UNL A   1      35.127  29.599  27.494  1.00  0.00     0.429 C 
ATOM     28  F   UNL A   1      35.401  28.850  28.583  1.00  0.00    -0.167 F 
ATOM     29  F   UNL A   1      36.309  29.970  26.942  1.00  0.00    -0.167 F 
ATOM     30  F   UNL A   1      34.554  30.746  27.950  1.00  0.00    -0.167 F 
ENDBRANCH  16  27
ENDBRANCH   3   6
ENDBRANCH   1   2
BRANCH   1  31
ATOM     31  C   UNL A   1      31.870  32.908  26.316  1.00  0.00     0.042 C 
BRANCH  31  32
ATOM     32  C   UNL A   1      32.678  33.285  27.559  1.00  0.00     0.118 C 
BRANCH  32  33
ATOM     33  N   UNL A   1      32.479  34.663  27.980  1.00  0.00    -0.352 N 
ATOM     34  C   UNL A   1      33.137  35.381  28.948  1.00  0.00     0.251 C 
ATOM     35  H   UNL A   1      31.770  35.151  27.503  1.00  0.00     0.163 HD
ATOM     36  O   UNL A   1      32.736  36.500  29.263  1.00  0.00    -0.269 OA
BRANCH  34  37
ATOM     37  C   UNL A   1      34.306  34.797  29.637  1.00  0.00     0.039 A 
ATOM     38  C   UNL A   1      34.127  34.224  30.898  1.00  0.00     0.014 A 
ATOM     39  C   UNL A   1      35.569  34.797  29.040  1.00  0.00     0.014 A 
ATOM     40  C   UNL A   1      35.198  33.583  31.525  1.00  0.00     0.010 A 
ATOM     41  C   UNL A   1      36.613  34.086  29.628  1.00  0.00     0.010 A 
ATOM     42  C   UNL A   1      36.438  33.467  30.875  1.00  0.00    -0.014 A 
BRANCH  42  43
ATOM     43  C   UNL A   1      37.550  32.690  31.480  1.00  0.00     0.031 A 
ATOM     44  C   UNL A   1      38.070  33.037  32.847  1.00  0.00     0.074 A 
ATOM     45  C   UNL A   1      38.136  31.705  30.768  1.00  0.00     0.049 A 
ATOM     46  N   UNL A   1      39.060  32.504  33.518  1.00  0.00    -0.248 NA
ATOM     47  C   UNL A   1      37.407  34.151  33.544  1.00  0.00     0.031 C 
ATOM     48  C   UNL A   1      37.765  31.310  29.407  1.00  0.00     0.029 A 
ATOM     49  N   UNL A   1      39.172  30.861  31.085  1.00  0.00    -0.354 N 
ATOM     50  C   UNL A   1      39.146  33.223  34.703  1.00  0.00     0.074 A 
ATOM     51  C   UNL A   1      38.149  34.269  34.636  1.00  0.00     0.031 C 
ATOM     52  C   UNL A   1      38.539  30.285  29.019  1.00  0.00     0.029 A 
ATOM     53  C   UNL A   1      39.487  29.974  30.084  1.00  0.00     0.049 A 
ATOM     54  H   UNL A   1      39.645  30.889  31.947  1.00  0.00     0.167 HD
ATOM     55  C   UNL A   1      39.965  33.014  35.762  1.00  0.00     0.037 A 
ATOM     56  C   UNL A   1      40.438  29.021  30.028  1.00  0.00     0.037 A 
ATOM     57  C   UNL A   1      40.940  31.957  35.834  1.00  0.00     0.049 A 
ATOM     58  C   UNL A   1      41.336  28.812  31.218  1.00  0.00     0.074 A 
ATOM     59  C   UNL A   1      41.771  31.620  36.889  1.00  0.00     0.029 A 
ATOM     60  N   UNL A   1      41.218  31.067  34.807  1.00  0.00    -0.354 N 
ATOM     61  N   UNL A   1      41.351  29.446  32.365  1.00  0.00    -0.248 NA
ATOM     62  C   UNL A   1      42.344  27.748  31.108  1.00  0.00     0.031 C 
ATOM     63  C   UNL A   1      42.590  30.563  36.480  1.00  0.00     0.029 A 
ATOM     64  C   UNL A   1      42.227  30.199  35.193  1.00  0.00     0.049 A 
ATOM     65  H   UNL A   1      40.766  31.054  33.932  1.00  0.00     0.167 HD
ATOM     66  C   UNL A   1      42.346  28.840  33.122  1.00  0.00     0.074 A 
ATOM     67  C   UNL A   1      42.899  27.778  32.310  1.00  0.00     0.031 C 
ATOM     68  C   UNL A   1      42.763  29.140  34.377  1.00  0.00     0.037 A 
BRANCH  55  69
ATOM     69  C   UNL A   1      39.837  33.944  36.935  1.00  0.00     0.064 A 
ATOM     70  C   UNL A   1      40.501  35.180  36.972  1.00  0.00     0.173 A 
ATOM     71  C   UNL A   1      39.006  33.615  38.018  1.00  0.00     0.173 A 
ATOM     72  F   UNL A   1      41.314  35.539  35.967  1.00  0.00    -0.203 F 
ATOM     73  C   UNL A   1      40.364  36.036  38.062  1.00  0.00     0.198 A 
ATOM     74  C   UNL A   1      38.846  34.489  39.090  1.00  0.00     0.198 A 
ATOM     75  F   UNL A   1      38.342  32.451  38.032  1.00  0.00    -0.203 F 
ATOM     76  F   UNL A   1      41.050  37.188  38.097  1.00  0.00    -0.200 F 
ATOM     77  C   UNL A   1      39.531  35.695  39.115  1.00  0.00     0.200 A 
ATOM     78  F   UNL A   1      38.029  34.164  40.101  1.00  0.00    -0.200 F 
ATOM     79  F   UNL A   1      39.393  36.524  40.159  1.00  0.00    -0.200 F 
ENDBRANCH  55  69
BRANCH  56  80
ATOM     80  C   UNL A   1      40.574  28.175  28.812  1.00  0.00     0.064 A 
ATOM     81  C   UNL A   1      39.892  26.955  28.702  1.00  0.00     0.173 A 
ATOM     82  C   UNL A   1      41.394  28.561  27.742  1.00  0.00     0.173 A 
ATOM     83  F   UNL A   1      39.111  26.532  29.708  1.00  0.00    -0.203 F 
ATOM     84  C   UNL A   1      40.043  26.142  27.581  1.00  0.00     0.198 A 
ATOM     85  C   UNL A   1      41.520  27.762  26.606  1.00  0.00     0.198 A 
ATOM     86  F   UNL A   1      42.064  29.721  27.792  1.00  0.00    -0.203 F 
ATOM     87  F   UNL A   1      39.420  24.958  27.526  1.00  0.00    -0.200 F 
ATOM     88  C   UNL A   1      40.853  26.549  26.531  1.00  0.00     0.200 A 
ATOM     89  F   UNL A   1      42.290  28.167  25.588  1.00  0.00    -0.200 F 
ATOM     90  F   UNL A   1      40.996  25.768  25.451  1.00  0.00    -0.200 F 
ENDBRANCH  56  80
BRANCH  68  91
ATOM     91  C   UNL A   1      43.844  28.281  34.967  1.00  0.00     0.064 A 
ATOM     92  C   UNL A   1      43.552  27.098  35.662  1.00  0.00     0.173 A 
ATOM     93  C   UNL A   1      45.194  28.625  34.797  1.00  0.00     0.173 A 
ATOM     94  F   UNL A   1      42.278  26.731  35.865  1.00  0.00    -0.203 F 
ATOM     95  C   UNL A   1      44.570  26.307  36.190  1.00  0.00     0.198 A 
ATOM     96  C   UNL A   1      46.210  27.815  35.296  1.00  0.00     0.198 A 
ATOM     97  F   UNL A   1      45.530  29.743  34.134  1.00  0.00    -0.203 F 
ATOM     98  F   UNL A   1      44.266  25.209  36.894  1.00  0.00    -0.200 F 
ATOM     99  C   UNL A   1      45.898  26.662  35.998  1.00  0.00     0.200 A 
ATOM    100  F   UNL A   1      47.492  28.152  35.096  1.00  0.00    -0.200 F 
ATOM    101  F   UNL A   1      46.876  25.894  36.499  1.00  0.00    -0.200 F 
ENDBRANCH  68  91
ENDBRANCH  42  43
ENDBRANCH  34  37
ENDBRANCH  32  33
ENDBRANCH  31  32
ENDBRANCH   1  31
TORSDOF 14
ENDMDL
MODEL 3
REMARK VINA RESULT:     -12.4      4.603     10.771
REMARK SMILES CC(C)Cc1ccc(-c2cc(Cl)cc3c2O[C@H](C(F)(F)F)C(C(=O)NCCCNC(=O)c2ccc(-c4c5nc(c(-c6c(F)c(F)c(F)c(F)c6F)c6ccc([nH]6)c(-c6c(F)c(F)c(F)c(F)c6F)c6nc(c(-c7c(F)c(F)c(F)c(F)c7F)c7ccc4[nH]7)C=C6)C=C5)cc2)=C3)cc1
REMARK SMILES IDX 26 1 25 2 23 3 24 4 22 6 9 7 10 8 15 9 11 10 14 11 16 12
REMARK SMILES IDX 12 13 13 14 95 15 17 16 8 17 5 18 6 19 97 20 7 21 96 22 4 23
REMARK SMILES IDX 2 24 1 25 3 26 18 27 19 28 20 29 21 30 27 31 28 32 29 33
REMARK SMILES IDX 30 34 31 36 32 37 33 38 94 39 34 40 93 41 35 42 36 43 37 44
REMARK SMILES IDX 87 45 38 46 92 47 86 48 88 49 39 50 91 51 85 52 84 53 40 55
REMARK SMILES IDX 72 56 52 57 71 58 53 59 56 60 70 61 89 62 54 63 55 64 69 66
REMARK SMILES IDX 90 67 57 68 41 69 42 70 50 71 43 72 44 73 48 74 51 75 45 76
REMARK SMILES IDX 46 77 49 78 47 79 73 80 74 81 82 82 75 83 76 84 80 85 83 86
REMARK SMILES IDX 77 87 78 88 81 89 79 90 58 91 59 92 67 93 60 94 61 95 65 96
REMARK SMILES IDX 68 97 62 98 63 99 66 100 64 101
REMARK H PARENT 25 5 29 35 88 54 56 65
REMARK Flexibility Score: inf
ROOT
ATOM      1  C   UNL A   1      35.052  32.861  31.183  1.00  0.00     0.118 C 
ENDROOT
BRANCH   1   2
ATOM      2  N   UNL A   1      35.107  34.179  31.785  1.00  0.00    -0.352 N 
ATOM      3  C   UNL A   1      36.082  34.642  32.609  1.00  0.00     0.251 C 
ATOM      4  O   UNL A   1      35.781  35.266  33.619  1.00  0.00    -0.270 OA
ATOM      5  H   UNL A   1      34.370  34.796  31.576  1.00  0.00     0.163 HD
BRANCH   3   6
ATOM      6  C   UNL A   1      37.490  34.494  32.139  1.00  0.00     0.067 C 
ATOM      7  C   UNL A   1      38.733  31.414  34.508  1.00  0.00     0.026 A 
ATOM      8  C   UNL A   1      38.223  31.683  35.806  1.00  0.00     0.033 A 
ATOM      9  C   UNL A   1      38.671  32.475  33.585  1.00  0.00     0.135 A 
ATOM     10  C   UNL A   1      37.873  32.965  36.224  1.00  0.00     0.042 A 
ATOM     11  C   UNL A   1      38.426  33.789  34.062  1.00  0.00     0.019 A 
ATOM     12  O   UNL A   1      38.773  32.314  32.208  1.00  0.00    -0.475 OA
ATOM     13  Cl  UNL A   1      37.268  33.208  37.813  1.00  0.00    -0.084 Cl
ATOM     14  C   UNL A   1      38.050  34.040  35.377  1.00  0.00     0.032 A 
ATOM     15  C   UNL A   1      38.379  34.888  33.072  1.00  0.00     0.025 C 
ATOM     16  C   UNL A   1      37.813  33.176  31.445  1.00  0.00     0.314 C 
BRANCH   7  17
ATOM     17  C   UNL A   1      39.512  30.144  34.429  1.00  0.00    -0.015 A 
ATOM     18  C   UNL A   1      41.608  28.490  33.378  1.00  0.00    -0.048 A 
ATOM     19  C   UNL A   1      41.786  29.212  34.563  1.00  0.00     0.004 A 
ATOM     20  C   UNL A   1      40.330  28.498  32.803  1.00  0.00     0.004 A 
ATOM     21  C   UNL A   1      40.753  30.016  35.088  1.00  0.00     0.009 A 
ATOM     22  C   UNL A   1      39.294  29.297  33.329  1.00  0.00     0.009 A 
BRANCH  18  23
ATOM     23  C   UNL A   1      42.746  27.700  32.753  1.00  0.00     0.038 C 
BRANCH  23  24
ATOM     24  C   UNL A   1      43.624  26.819  33.685  1.00  0.00    -0.013 C 
ATOM     25  C   UNL A   1      42.818  25.958  34.662  1.00  0.00     0.008 C 
ATOM     26  C   UNL A   1      44.501  25.885  32.834  1.00  0.00     0.008 C 
ENDBRANCH  23  24
ENDBRANCH  18  23
ENDBRANCH   7  17
BRANCH  16  27
ATOM     27  C   UNL A   1      38.318  33.507  30.020  1.00  0.00     0.429 C 
ATOM     28  F   UNL A   1      39.601  33.926  29.998  1.00  0.00    -0.167 F 
ATOM     29  F   UNL A   1      38.225  32.426  29.207  1.00  0.00    -0.167 F 
ATOM     30  F   UNL A   1      37.584  34.485  29.422  1.00  0.00    -0.167 F 
ENDBRANCH  16  27
ENDBRANCH   3   6
ENDBRANCH   1   2
BRANCH   1  31
ATOM     31  C   UNL A   1      34.248  32.909  29.879  1.00  0.00     0.042 C 
BRANCH  31  32
ATOM     32  C   UNL A   1      34.952  32.295  28.667  1.00  0.00     0.118 C 
BRANCH  32  33
ATOM     33  N   UNL A   1      34.375  31.030  28.243  1.00  0.00    -0.352 N 
ATOM     34  C   UNL A   1      34.993  29.828  28.000  1.00  0.00     0.251 C 
ATOM     35  H   UNL A   1      33.400  31.036  28.111  1.00  0.00     0.163 HD
ATOM     36  O   UNL A   1      34.357  28.896  27.512  1.00  0.00    -0.269 OA
BRANCH  34  37
ATOM     37  C   UNL A   1      36.432  29.663  28.293  1.00  0.00     0.039 A 
ATOM     38  C   UNL A   1      36.817  29.275  29.577  1.00  0.00     0.014 A 
ATOM     39  C   UNL A   1      37.398  29.872  27.304  1.00  0.00     0.014 A 
ATOM     40  C   UNL A   1      38.163  29.022  29.850  1.00  0.00     0.010 A 
ATOM     41  C   UNL A   1      38.727  29.540  27.554  1.00  0.00     0.010 A 
ATOM     42  C   UNL A   1      39.124  29.106  28.829  1.00  0.00    -0.014 A 
BRANCH  42  43
ATOM     43  C   UNL A   1      40.540  28.729  29.075  1.00  0.00     0.031 A 
ATOM     44  C   UNL A   1      41.473  29.681  29.771  1.00  0.00     0.074 A 
ATOM     45  C   UNL A   1      41.003  27.548  28.616  1.00  0.00     0.049 A 
ATOM     46  N   UNL A   1      42.750  29.547  30.033  1.00  0.00    -0.248 NA
ATOM     47  C   UNL A   1      40.906  30.967  30.205  1.00  0.00     0.031 C 
ATOM     48  C   UNL A   1      40.214  26.563  27.874  1.00  0.00     0.029 A 
ATOM     49  N   UNL A   1      42.249  26.978  28.699  1.00  0.00    -0.354 N 
ATOM     50  C   UNL A   1      43.136  30.731  30.647  1.00  0.00     0.074 A 
ATOM     51  C   UNL A   1      41.977  31.596  30.665  1.00  0.00     0.031 C 
ATOM     52  C   UNL A   1      40.985  25.500  27.596  1.00  0.00     0.029 A 
ATOM     53  C   UNL A   1      42.331  25.743  28.103  1.00  0.00     0.049 A 
ATOM     54  H   UNL A   1      43.012  27.414  29.142  1.00  0.00     0.167 HD
ATOM     55  C   UNL A   1      44.342  31.057  31.173  1.00  0.00     0.037 A 
ATOM     56  C   UNL A   1      43.376  24.902  27.975  1.00  0.00     0.037 A 
ATOM     57  C   UNL A   1      45.487  30.183  31.174  1.00  0.00     0.049 A 
ATOM     58  C   UNL A   1      44.705  25.291  28.566  1.00  0.00     0.074 A 
ATOM     59  C   UNL A   1      46.732  30.395  31.739  1.00  0.00     0.029 A 
ATOM     60  N   UNL A   1      45.526  28.932  30.576  1.00  0.00    -0.354 N 
ATOM     61  N   UNL A   1      45.036  26.379  29.217  1.00  0.00    -0.248 NA
ATOM     62  C   UNL A   1      45.805  24.328  28.410  1.00  0.00     0.031 C 
ATOM     63  C   UNL A   1      47.542  29.296  31.436  1.00  0.00     0.029 A 
ATOM     64  C   UNL A   1      46.784  28.372  30.736  1.00  0.00     0.049 A 
ATOM     65  H   UNL A   1      44.773  28.506  30.107  1.00  0.00     0.167 HD
ATOM     66  C   UNL A   1      46.369  26.221  29.574  1.00  0.00     0.074 A 
ATOM     67  C   UNL A   1      46.780  24.923  29.082  1.00  0.00     0.031 C 
ATOM     68  C   UNL A   1      47.177  27.075  30.248  1.00  0.00     0.037 A 
BRANCH  55  69
ATOM     69  C   UNL A   1      44.485  32.416  31.797  1.00  0.00     0.064 A 
ATOM     70  C   UNL A   1      44.250  32.627  33.165  1.00  0.00     0.173 A 
ATOM     71  C   UNL A   1      44.903  33.514  31.029  1.00  0.00     0.173 A 
ATOM     72  F   UNL A   1      43.839  31.615  33.943  1.00  0.00    -0.203 F 
ATOM     73  C   UNL A   1      44.396  33.891  33.732  1.00  0.00     0.198 A 
ATOM     74  C   UNL A   1      45.081  34.768  31.607  1.00  0.00     0.198 A 
ATOM     75  F   UNL A   1      45.149  33.368  29.719  1.00  0.00    -0.203 F 
ATOM     76  F   UNL A   1      44.116  34.078  35.030  1.00  0.00    -0.200 F 
ATOM     77  C   UNL A   1      44.820  34.957  32.955  1.00  0.00     0.200 A 
ATOM     78  F   UNL A   1      45.505  35.795  30.858  1.00  0.00    -0.200 F 
ATOM     79  F   UNL A   1      44.970  36.170  33.504  1.00  0.00    -0.200 F 
ENDBRANCH  55  69
BRANCH  56  80
ATOM     80  C   UNL A   1      43.203  23.599  27.280  1.00  0.00     0.064 A 
ATOM     81  C   UNL A   1      43.650  23.419  25.962  1.00  0.00     0.173 A 
ATOM     82  C   UNL A   1      42.582  22.511  27.910  1.00  0.00     0.173 A 
ATOM     83  F   UNL A   1      44.232  24.436  25.309  1.00  0.00    -0.203 F 
ATOM     84  C   UNL A   1      43.459  22.212  25.294  1.00  0.00     0.198 A 
ATOM     85  C   UNL A   1      42.421  21.292  27.251  1.00  0.00     0.198 A 
ATOM     86  F   UNL A   1      42.143  22.625  29.171  1.00  0.00    -0.203 F 
ATOM     87  F   UNL A   1      43.849  22.086  24.019  1.00  0.00    -0.200 F 
ATOM     88  C   UNL A   1      42.850  21.147  25.941  1.00  0.00     0.200 A 
ATOM     89  F   UNL A   1      41.847  20.262  27.886  1.00  0.00    -0.200 F 
ATOM     90  F   UNL A   1      42.670  19.985  25.299  1.00  0.00    -0.200 F 
ENDBRANCH  56  80
BRANCH  68  91
ATOM     91  C   UNL A   1      48.580  26.618  30.530  1.00  0.00     0.064 A 
ATOM     92  C   UNL A   1      49.647  26.934  29.675  1.00  0.00     0.173 A 
ATOM     93  C   UNL A   1      48.867  25.889  31.695  1.00  0.00     0.173 A 
ATOM     94  F   UNL A   1      49.423  27.616  28.541  1.00  0.00    -0.203 F 
ATOM     95  C   UNL A   1      50.943  26.513  29.961  1.00  0.00     0.198 A 
ATOM     96  C   UNL A   1      50.169  25.499  31.995  1.00  0.00     0.198 A 
ATOM     97  F   UNL A   1      47.885  25.567  32.551  1.00  0.00    -0.203 F 
ATOM     98  F   UNL A   1      51.937  26.782  29.104  1.00  0.00    -0.200 F 
ATOM     99  C   UNL A   1      51.204  25.804  31.125  1.00  0.00     0.200 A 
ATOM    100  F   UNL A   1      50.421  24.829  33.128  1.00  0.00    -0.200 F 
ATOM    101  F   UNL A   1      52.454  25.408  31.403  1.00  0.00    -0.200 F 
ENDBRANCH  68  91
ENDBRANCH  42  43
ENDBRANCH  34  37
ENDBRANCH  32  33
ENDBRANCH  31  32
ENDBRANCH   1  31
TORSDOF 14
ENDMDL
