MODEL 1
REMARK VINA RESULT:     -13.5      0.000      0.000
REMARK SMILES O=C(NCCCNC(=O)[C@@H](Cc1ccccc1)/N=C1\C(=O)c2ccccc2C(=O)[C@H]1Cl)c1ccc(-c2c3nc(c(-c4c(F)c(F)c(F)c(F)c4F)c4ccc([nH]4)c(-c4c(F)c(F)c(F)c(F)c4F)c4nc(c(-c5c(F)c(F)c(F)c(F)c5F)c5ccc2[nH]5)C=C4)C=C3)cc1
REMARK SMILES IDX 5 1 4 2 3 3 1 4 2 5 32 7 33 8 94 9 34 10 93 11 35 12 36 13
REMARK SMILES IDX 37 14 87 15 38 16 92 17 86 18 88 19 39 20 91 21 85 22 84 23
REMARK SMILES IDX 40 25 72 26 52 27 71 28 53 29 56 30 70 31 89 32 54 33 55 34
REMARK SMILES IDX 69 36 90 37 57 38 41 39 42 40 50 41 43 42 44 43 48 44 51 45
REMARK SMILES IDX 45 46 46 47 49 48 47 49 73 50 74 51 82 52 75 53 76 54 80 55
REMARK SMILES IDX 83 56 77 57 78 58 81 59 79 60 58 61 59 62 67 63 60 64 61 65
REMARK SMILES IDX 65 66 68 67 62 68 63 69 66 70 64 71 6 72 7 73 8 74 9 76
REMARK SMILES IDX 10 77 11 78 12 79 13 80 17 81 14 82 16 83 15 84 18 85 19 86
REMARK SMILES IDX 20 87 30 88 21 89 22 90 28 91 31 92 23 93 27 94 29 95 24 96
REMARK SMILES IDX 26 97 25 98
REMARK H PARENT 3 6 88 24 56 35 7 75
REMARK Flexibility Score: inf
ROOT
ATOM      1  C   UNL A   1      31.402  29.228  24.471  1.00  0.00     0.042 C 
ENDROOT
BRANCH   1   2
ATOM      2  C   UNL A   1      32.655  29.704  25.206  1.00  0.00     0.118 C 
BRANCH   2   3
ATOM      3  N   UNL A   1      32.406  30.885  26.017  1.00  0.00    -0.352 N 
ATOM      4  O   UNL A   1      32.404  32.393  27.626  1.00  0.00    -0.269 OA
ATOM      5  C   UNL A   1      33.044  31.502  27.059  1.00  0.00     0.251 C 
ATOM      6  H   UNL A   1      31.580  31.352  25.754  1.00  0.00     0.163 HD
BRANCH   5   7
ATOM      7  C   UNL A   1      34.426  31.197  27.548  1.00  0.00     0.039 A 
ATOM      8  C   UNL A   1      35.426  32.133  27.811  1.00  0.00     0.014 A 
ATOM      9  C   UNL A   1      34.700  29.845  27.842  1.00  0.00     0.014 A 
ATOM     10  C   UNL A   1      36.647  31.742  28.378  1.00  0.00     0.010 A 
ATOM     11  C   UNL A   1      35.907  29.450  28.429  1.00  0.00     0.010 A 
ATOM     12  C   UNL A   1      36.882  30.404  28.722  1.00  0.00    -0.014 A 
BRANCH  12  13
ATOM     13  C   UNL A   1      38.078  30.056  29.522  1.00  0.00     0.031 A 
ATOM     14  C   UNL A   1      38.261  30.549  30.922  1.00  0.00     0.074 A 
ATOM     15  C   UNL A   1      39.015  29.269  28.959  1.00  0.00     0.049 A 
ATOM     16  N   UNL A   1      39.173  30.208  31.797  1.00  0.00    -0.248 NA
ATOM     17  C   UNL A   1      37.308  31.558  31.402  1.00  0.00     0.031 C 
ATOM     18  C   UNL A   1      38.981  28.773  27.582  1.00  0.00     0.029 A 
ATOM     19  N   UNL A   1      40.169  28.740  29.478  1.00  0.00    -0.354 N 
ATOM     20  C   UNL A   1      38.906  30.956  32.933  1.00  0.00     0.074 A 
ATOM     21  C   UNL A   1      37.756  31.786  32.631  1.00  0.00     0.031 C 
ATOM     22  C   UNL A   1      40.052  27.993  27.372  1.00  0.00     0.029 A 
ATOM     23  C   UNL A   1      40.839  27.927  28.600  1.00  0.00     0.049 A 
ATOM     24  H   UNL A   1      40.485  28.928  30.392  1.00  0.00     0.167 HD
ATOM     25  C   UNL A   1      39.556  30.941  34.120  1.00  0.00     0.037 A 
ATOM     26  C   UNL A   1      41.949  27.190  28.772  1.00  0.00     0.037 A 
ATOM     27  C   UNL A   1      40.684  30.103  34.431  1.00  0.00     0.049 A 
ATOM     28  C   UNL A   1      42.634  27.172  30.104  1.00  0.00     0.074 A 
ATOM     29  C   UNL A   1      41.326  29.931  35.646  1.00  0.00     0.029 A 
ATOM     30  N   UNL A   1      41.347  29.304  33.513  1.00  0.00    -0.354 N 
ATOM     31  N   UNL A   1      42.299  27.789  31.210  1.00  0.00    -0.248 NA
ATOM     32  C   UNL A   1      43.844  26.344  30.216  1.00  0.00     0.031 C 
ATOM     33  C   UNL A   1      42.394  29.043  35.456  1.00  0.00     0.029 A 
ATOM     34  C   UNL A   1      42.409  28.659  34.126  1.00  0.00     0.049 A 
ATOM     35  H   UNL A   1      41.100  29.211  32.564  1.00  0.00     0.167 HD
ATOM     36  C   UNL A   1      43.243  27.416  32.152  1.00  0.00     0.074 A 
ATOM     37  C   UNL A   1      44.171  26.521  31.490  1.00  0.00     0.031 C 
ATOM     38  C   UNL A   1      43.325  27.777  33.455  1.00  0.00     0.037 A 
BRANCH  25  39
ATOM     39  C   UNL A   1      39.051  31.854  35.189  1.00  0.00     0.064 A 
ATOM     40  C   UNL A   1      38.255  31.369  36.235  1.00  0.00     0.173 A 
ATOM     41  C   UNL A   1      39.406  33.210  35.197  1.00  0.00     0.173 A 
ATOM     42  F   UNL A   1      37.887  30.079  36.260  1.00  0.00    -0.203 F 
ATOM     43  C   UNL A   1      37.827  32.215  37.255  1.00  0.00     0.198 A 
ATOM     44  C   UNL A   1      38.980  34.051  36.220  1.00  0.00     0.198 A 
ATOM     45  F   UNL A   1      40.163  33.716  34.211  1.00  0.00    -0.203 F 
ATOM     46  F   UNL A   1      37.057  31.735  38.241  1.00  0.00    -0.200 F 
ATOM     47  C   UNL A   1      38.192  33.553  37.248  1.00  0.00     0.200 A 
ATOM     48  F   UNL A   1      39.328  35.345  36.212  1.00  0.00    -0.200 F 
ATOM     49  F   UNL A   1      37.778  34.365  38.230  1.00  0.00    -0.200 F 
ENDBRANCH  25  39
BRANCH  26  50
ATOM     50  C   UNL A   1      42.446  26.363  27.652  1.00  0.00     0.064 A 
ATOM     51  C   UNL A   1      43.446  26.847  26.799  1.00  0.00     0.173 A 
ATOM     52  C   UNL A   1      41.962  25.067  27.441  1.00  0.00     0.173 A 
ATOM     53  F   UNL A   1      43.928  28.087  26.967  1.00  0.00    -0.203 F 
ATOM     54  C   UNL A   1      43.948  26.057  25.769  1.00  0.00     0.198 A 
ATOM     55  C   UNL A   1      42.468  24.276  26.413  1.00  0.00     0.198 A 
ATOM     56  F   UNL A   1      41.003  24.572  28.236  1.00  0.00    -0.203 F 
ATOM     57  F   UNL A   1      44.903  26.539  24.962  1.00  0.00    -0.200 F 
ATOM     58  C   UNL A   1      43.461  24.771  25.579  1.00  0.00     0.200 A 
ATOM     59  F   UNL A   1      41.997  23.035  26.231  1.00  0.00    -0.200 F 
ATOM     60  F   UNL A   1      43.948  24.009  24.590  1.00  0.00    -0.200 F 
ENDBRANCH  26  50
BRANCH  38  61
ATOM     61  C   UNL A   1      44.453  27.199  34.247  1.00  0.00     0.064 A 
ATOM     62  C   UNL A   1      44.334  25.945  34.859  1.00  0.00     0.173 A 
ATOM     63  C   UNL A   1      45.663  27.892  34.377  1.00  0.00     0.173 A 
ATOM     64  F   UNL A   1      43.186  25.257  34.771  1.00  0.00    -0.203 F 
ATOM     65  C   UNL A   1      45.392  25.405  35.585  1.00  0.00     0.198 A 
ATOM     66  C   UNL A   1      46.721  27.346  35.098  1.00  0.00     0.198 A 
ATOM     67  F   UNL A   1      45.815  29.099  33.812  1.00  0.00    -0.203 F 
ATOM     68  F   UNL A   1      45.255  24.213  36.181  1.00  0.00    -0.200 F 
ATOM     69  C   UNL A   1      46.584  26.104  35.702  1.00  0.00     0.200 A 
ATOM     70  F   UNL A   1      47.870  28.025  35.215  1.00  0.00    -0.200 F 
ATOM     71  F   UNL A   1      47.600  25.586  36.406  1.00  0.00    -0.200 F 
ENDBRANCH  38  61
ENDBRANCH  12  13
ENDBRANCH   5   7
ENDBRANCH   2   3
ENDBRANCH   1   2
BRANCH   1  72
ATOM     72  C   UNL A   1      31.639  29.066  22.973  1.00  0.00     0.117 C 
BRANCH  72  73
ATOM     73  N   UNL A   1      32.838  28.328  22.659  1.00  0.00    -0.354 N 
ATOM     74  C   UNL A   1      32.969  27.053  22.197  1.00  0.00     0.245 C 
ATOM     75  H   UNL A   1      33.682  28.815  22.799  1.00  0.00     0.163 HD
ATOM     76  O   UNL A   1      34.037  26.786  21.630  1.00  0.00    -0.273 OA
BRANCH  74  77
ATOM     77  C   UNL A   1      31.911  25.957  22.404  1.00  0.00     0.199 C 
BRANCH  77  78
ATOM     78  C   UNL A   1      32.115  24.568  21.748  1.00  0.00     0.073 C 
BRANCH  78  79
ATOM     79  C   UNL A   1      32.653  23.415  22.575  1.00  0.00    -0.045 A 
ATOM     80  C   UNL A   1      31.801  22.445  23.119  1.00  0.00     0.004 A 
ATOM     81  C   UNL A   1      34.037  23.241  22.735  1.00  0.00     0.004 A 
ATOM     82  C   UNL A   1      32.306  21.393  23.886  1.00  0.00     0.000 A 
ATOM     83  C   UNL A   1      34.545  22.192  23.501  1.00  0.00     0.000 A 
ATOM     84  C   UNL A   1      33.678  21.276  24.090  1.00  0.00     0.000 A 
ENDBRANCH  78  79
ENDBRANCH  77  78
BRANCH  77  85
ATOM     85  N   UNL A   1      31.213  25.923  23.696  1.00  0.00    -0.270 NA
ATOM     86  C   UNL A   1      31.651  25.802  24.893  1.00  0.00     0.109 C 
ATOM     87  C   UNL A   1      33.072  25.657  25.350  1.00  0.00     0.209 C 
ATOM     88  C   UNL A   1      30.667  25.588  26.010  1.00  0.00     0.205 C 
ATOM     89  O   UNL A   1      33.901  26.517  25.121  1.00  0.00    -0.287 OA
ATOM     90  C   UNL A   1      33.362  24.460  26.160  1.00  0.00     0.035 A 
ATOM     91  C   UNL A   1      30.915  24.270  26.712  1.00  0.00     0.187 C 
ATOM     92  Cl  UNL A   1      30.806  26.901  27.198  1.00  0.00    -0.107 Cl
ATOM     93  C   UNL A   1      34.684  24.026  26.308  1.00  0.00     0.013 A 
ATOM     94  C   UNL A   1      32.316  23.766  26.776  1.00  0.00     0.031 A 
ATOM     95  O   UNL A   1      30.015  23.630  27.251  1.00  0.00    -0.292 OA
ATOM     96  C   UNL A   1      34.956  22.866  27.033  1.00  0.00     0.001 A 
ATOM     97  C   UNL A   1      32.596  22.603  27.504  1.00  0.00     0.012 A 
ATOM     98  C   UNL A   1      33.913  22.151  27.623  1.00  0.00     0.001 A 
ENDBRANCH  77  85
ENDBRANCH  74  77
ENDBRANCH  72  73
ENDBRANCH   1  72
TORSDOF 13
ENDMDL
MODEL 2
REMARK VINA RESULT:     -13.3      1.506      3.053
REMARK SMILES O=C(NCCCNC(=O)[C@@H](Cc1ccccc1)/N=C1\C(=O)c2ccccc2C(=O)[C@H]1Cl)c1ccc(-c2c3nc(c(-c4c(F)c(F)c(F)c(F)c4F)c4ccc([nH]4)c(-c4c(F)c(F)c(F)c(F)c4F)c4nc(c(-c5c(F)c(F)c(F)c(F)c5F)c5ccc2[nH]5)C=C4)C=C3)cc1
REMARK SMILES IDX 5 1 4 2 3 3 1 4 2 5 32 7 33 8 94 9 34 10 93 11 35 12 36 13
REMARK SMILES IDX 37 14 87 15 38 16 92 17 86 18 88 19 39 20 91 21 85 22 84 23
REMARK SMILES IDX 40 25 72 26 52 27 71 28 53 29 56 30 70 31 89 32 54 33 55 34
REMARK SMILES IDX 69 36 90 37 57 38 41 39 42 40 50 41 43 42 44 43 48 44 51 45
REMARK SMILES IDX 45 46 46 47 49 48 47 49 73 50 74 51 82 52 75 53 76 54 80 55
REMARK SMILES IDX 83 56 77 57 78 58 81 59 79 60 58 61 59 62 67 63 60 64 61 65
REMARK SMILES IDX 65 66 68 67 62 68 63 69 66 70 64 71 6 72 7 73 8 74 9 76
REMARK SMILES IDX 10 77 11 78 12 79 13 80 17 81 14 82 16 83 15 84 18 85 19 86
REMARK SMILES IDX 20 87 30 88 21 89 22 90 28 91 31 92 23 93 27 94 29 95 24 96
REMARK SMILES IDX 26 97 25 98
REMARK H PARENT 3 6 88 24 56 35 7 75
REMARK Flexibility Score: inf
ROOT
ATOM      1  C   UNL A   1      31.792  28.389  26.853  1.00  0.00     0.042 C 
ENDROOT
BRANCH   1   2
ATOM      2  C   UNL A   1      32.551  29.369  25.958  1.00  0.00     0.118 C 
BRANCH   2   3
ATOM      3  N   UNL A   1      32.475  30.737  26.448  1.00  0.00    -0.352 N 
ATOM      4  O   UNL A   1      32.741  32.593  27.608  1.00  0.00    -0.269 OA
ATOM      5  C   UNL A   1      33.250  31.524  27.256  1.00  0.00     0.251 C 
ATOM      6  H   UNL A   1      31.676  31.208  26.120  1.00  0.00     0.163 HD
BRANCH   5   7
ATOM      7  C   UNL A   1      34.634  31.206  27.728  1.00  0.00     0.039 A 
ATOM      8  C   UNL A   1      35.642  32.133  27.995  1.00  0.00     0.014 A 
ATOM      9  C   UNL A   1      34.904  29.849  28.001  1.00  0.00     0.014 A 
ATOM     10  C   UNL A   1      36.866  31.729  28.545  1.00  0.00     0.010 A 
ATOM     11  C   UNL A   1      36.115  29.440  28.571  1.00  0.00     0.010 A 
ATOM     12  C   UNL A   1      37.098  30.385  28.868  1.00  0.00    -0.014 A 
BRANCH  12  13
ATOM     13  C   UNL A   1      38.299  30.019  29.652  1.00  0.00     0.031 A 
ATOM     14  C   UNL A   1      38.506  30.506  31.051  1.00  0.00     0.074 A 
ATOM     15  C   UNL A   1      39.219  29.224  29.075  1.00  0.00     0.049 A 
ATOM     16  N   UNL A   1      39.425  30.152  31.913  1.00  0.00    -0.248 NA
ATOM     17  C   UNL A   1      37.571  31.525  31.546  1.00  0.00     0.031 C 
ATOM     18  C   UNL A   1      39.162  28.733  27.697  1.00  0.00     0.029 A 
ATOM     19  N   UNL A   1      40.373  28.680  29.578  1.00  0.00    -0.354 N 
ATOM     20  C   UNL A   1      39.181  30.899  33.055  1.00  0.00     0.074 A 
ATOM     21  C   UNL A   1      38.037  31.743  32.770  1.00  0.00     0.031 C 
ATOM     22  C   UNL A   1      40.222  27.940  27.471  1.00  0.00     0.029 A 
ATOM     23  C   UNL A   1      41.023  27.861  28.689  1.00  0.00     0.049 A 
ATOM     24  H   UNL A   1      40.704  28.860  30.488  1.00  0.00     0.167 HD
ATOM     25  C   UNL A   1      39.845  30.872  34.234  1.00  0.00     0.037 A 
ATOM     26  C   UNL A   1      42.127  27.111  28.845  1.00  0.00     0.037 A 
ATOM     27  C   UNL A   1      40.966  30.020  34.528  1.00  0.00     0.049 A 
ATOM     28  C   UNL A   1      42.827  27.080  30.168  1.00  0.00     0.074 A 
ATOM     29  C   UNL A   1      41.621  29.836  35.734  1.00  0.00     0.029 A 
ATOM     30  N   UNL A   1      41.609  29.216  33.599  1.00  0.00    -0.354 N 
ATOM     31  N   UNL A   1      42.514  27.698  31.280  1.00  0.00    -0.248 NA
ATOM     32  C   UNL A   1      44.028  26.237  30.262  1.00  0.00     0.031 C 
ATOM     33  C   UNL A   1      42.677  28.936  35.528  1.00  0.00     0.029 A 
ATOM     34  C   UNL A   1      42.670  28.557  34.197  1.00  0.00     0.049 A 
ATOM     35  H   UNL A   1      41.349  29.129  32.654  1.00  0.00     0.167 HD
ATOM     36  C   UNL A   1      43.465  27.310  32.209  1.00  0.00     0.074 A 
ATOM     37  C   UNL A   1      44.373  26.406  31.533  1.00  0.00     0.031 C 
ATOM     38  C   UNL A   1      43.567  27.666  33.512  1.00  0.00     0.037 A 
BRANCH  25  39
ATOM     39  C   UNL A   1      39.365  31.788  35.312  1.00  0.00     0.064 A 
ATOM     40  C   UNL A   1      38.486  31.334  36.304  1.00  0.00     0.173 A 
ATOM     41  C   UNL A   1      39.823  33.110  35.383  1.00  0.00     0.173 A 
ATOM     42  F   UNL A   1      38.017  30.078  36.268  1.00  0.00    -0.203 F 
ATOM     43  C   UNL A   1      38.079  32.178  37.334  1.00  0.00     0.198 A 
ATOM     44  C   UNL A   1      39.418  33.950  36.416  1.00  0.00     0.198 A 
ATOM     45  F   UNL A   1      40.662  33.585  34.450  1.00  0.00    -0.203 F 
ATOM     46  F   UNL A   1      37.229  31.729  38.269  1.00  0.00    -0.200 F 
ATOM     47  C   UNL A   1      38.547  33.482  37.391  1.00  0.00     0.200 A 
ATOM     48  F   UNL A   1      39.866  35.211  36.469  1.00  0.00    -0.200 F 
ATOM     49  F   UNL A   1      38.153  34.293  38.382  1.00  0.00    -0.200 F 
ENDBRANCH  25  39
BRANCH  26  50
ATOM     50  C   UNL A   1      42.599  26.281  27.716  1.00  0.00     0.064 A 
ATOM     51  C   UNL A   1      43.586  26.761  26.845  1.00  0.00     0.173 A 
ATOM     52  C   UNL A   1      42.106  24.987  27.514  1.00  0.00     0.173 A 
ATOM     53  F   UNL A   1      44.076  27.998  27.004  1.00  0.00    -0.203 F 
ATOM     54  C   UNL A   1      44.066  25.968  25.806  1.00  0.00     0.198 A 
ATOM     55  C   UNL A   1      42.589  24.195  26.477  1.00  0.00     0.198 A 
ATOM     56  F   UNL A   1      41.159  24.496  28.326  1.00  0.00    -0.203 F 
ATOM     57  F   UNL A   1      45.008  26.446  24.982  1.00  0.00    -0.200 F 
ATOM     58  C   UNL A   1      43.570  24.685  25.625  1.00  0.00     0.200 A 
ATOM     59  F   UNL A   1      42.110  22.956  26.303  1.00  0.00    -0.200 F 
ATOM     60  F   UNL A   1      44.035  23.921  24.628  1.00  0.00    -0.200 F 
ENDBRANCH  26  50
BRANCH  38  61
ATOM     61  C   UNL A   1      44.698  27.071  34.287  1.00  0.00     0.064 A 
ATOM     62  C   UNL A   1      45.927  27.735  34.392  1.00  0.00     0.173 A 
ATOM     63  C   UNL A   1      44.545  25.843  34.943  1.00  0.00     0.173 A 
ATOM     64  F   UNL A   1      46.118  28.905  33.765  1.00  0.00    -0.203 F 
ATOM     65  C   UNL A   1      46.973  27.183  35.126  1.00  0.00     0.198 A 
ATOM     66  C   UNL A   1      45.591  25.297  35.682  1.00  0.00     0.198 A 
ATOM     67  F   UNL A   1      43.387  25.172  34.861  1.00  0.00    -0.203 F 
ATOM     68  F   UNL A   1      48.148  27.821  35.201  1.00  0.00    -0.200 F 
ATOM     69  C   UNL A   1      46.804  25.966  35.772  1.00  0.00     0.200 A 
ATOM     70  F   UNL A   1      45.429  24.119  36.300  1.00  0.00    -0.200 F 
ATOM     71  F   UNL A   1      47.813  25.433  36.473  1.00  0.00    -0.200 F 
ENDBRANCH  38  61
ENDBRANCH  12  13
ENDBRANCH   5   7
ENDBRANCH   2   3
ENDBRANCH   1   2
BRANCH   1  72
ATOM     72  C   UNL A   1      32.037  26.937  26.454  1.00  0.00     0.117 C 
BRANCH  72  73
ATOM     73  N   UNL A   1      30.909  26.074  26.711  1.00  0.00    -0.354 N 
ATOM     74  C   UNL A   1      30.647  24.830  26.220  1.00  0.00     0.245 C 
ATOM     75  H   UNL A   1      30.233  26.435  27.328  1.00  0.00     0.163 HD
ATOM     76  O   UNL A   1      29.855  24.142  26.876  1.00  0.00    -0.273 OA
BRANCH  74  77
ATOM     77  C   UNL A   1      31.221  24.296  24.898  1.00  0.00     0.199 C 
BRANCH  77  78
ATOM     78  C   UNL A   1      30.654  24.820  23.555  1.00  0.00     0.073 C 
BRANCH  78  79
ATOM     79  C   UNL A   1      30.651  26.311  23.268  1.00  0.00    -0.045 A 
ATOM     80  C   UNL A   1      29.517  27.098  23.503  1.00  0.00     0.004 A 
ATOM     81  C   UNL A   1      31.825  26.954  22.845  1.00  0.00     0.004 A 
ATOM     82  C   UNL A   1      29.523  28.467  23.225  1.00  0.00     0.000 A 
ATOM     83  C   UNL A   1      31.834  28.320  22.566  1.00  0.00     0.000 A 
ATOM     84  C   UNL A   1      30.678  29.075  22.742  1.00  0.00     0.000 A 
ENDBRANCH  78  79
ENDBRANCH  77  78
BRANCH  77  85
ATOM     85  N   UNL A   1      32.650  23.958  24.865  1.00  0.00    -0.270 NA
ATOM     86  C   UNL A   1      33.288  23.032  24.253  1.00  0.00     0.109 C 
ATOM     87  C   UNL A   1      32.740  21.973  23.344  1.00  0.00     0.209 C 
ATOM     88  C   UNL A   1      34.738  22.807  24.583  1.00  0.00     0.205 C 
ATOM     89  O   UNL A   1      32.151  22.261  22.319  1.00  0.00    -0.287 OA
ATOM     90  C   UNL A   1      33.039  20.583  23.732  1.00  0.00     0.035 A 
ATOM     91  C   UNL A   1      34.966  21.411  25.122  1.00  0.00     0.187 C 
ATOM     92  Cl  UNL A   1      35.730  23.024  23.126  1.00  0.00    -0.107 Cl
ATOM     93  C   UNL A   1      32.278  19.535  23.202  1.00  0.00     0.013 A 
ATOM     94  C   UNL A   1      34.082  20.319  24.626  1.00  0.00     0.031 A 
ATOM     95  O   UNL A   1      35.864  21.150  25.918  1.00  0.00    -0.292 OA
ATOM     96  C   UNL A   1      32.528  18.224  23.606  1.00  0.00     0.001 A 
ATOM     97  C   UNL A   1      34.328  18.999  25.026  1.00  0.00     0.012 A 
ATOM     98  C   UNL A   1      33.545  17.957  24.522  1.00  0.00     0.001 A 
ENDBRANCH  77  85
ENDBRANCH  74  77
ENDBRANCH  72  73
ENDBRANCH   1  72
TORSDOF 13
ENDMDL
MODEL 3
REMARK VINA RESULT:     -13.2      1.404      2.667
REMARK SMILES O=C(NCCCNC(=O)[C@@H](Cc1ccccc1)/N=C1\C(=O)c2ccccc2C(=O)[C@H]1Cl)c1ccc(-c2c3nc(c(-c4c(F)c(F)c(F)c(F)c4F)c4ccc([nH]4)c(-c4c(F)c(F)c(F)c(F)c4F)c4nc(c(-c5c(F)c(F)c(F)c(F)c5F)c5ccc2[nH]5)C=C4)C=C3)cc1
REMARK SMILES IDX 5 1 4 2 3 3 1 4 2 5 32 7 33 8 94 9 34 10 93 11 35 12 36 13
REMARK SMILES IDX 37 14 87 15 38 16 92 17 86 18 88 19 39 20 91 21 85 22 84 23
REMARK SMILES IDX 40 25 72 26 52 27 71 28 53 29 56 30 70 31 89 32 54 33 55 34
REMARK SMILES IDX 69 36 90 37 57 38 41 39 42 40 50 41 43 42 44 43 48 44 51 45
REMARK SMILES IDX 45 46 46 47 49 48 47 49 73 50 74 51 82 52 75 53 76 54 80 55
REMARK SMILES IDX 83 56 77 57 78 58 81 59 79 60 58 61 59 62 67 63 60 64 61 65
REMARK SMILES IDX 65 66 68 67 62 68 63 69 66 70 64 71 6 72 7 73 8 74 9 76
REMARK SMILES IDX 10 77 11 78 12 79 13 80 17 81 14 82 16 83 15 84 18 85 19 86
REMARK SMILES IDX 20 87 30 88 21 89 22 90 28 91 31 92 23 93 27 94 29 95 24 96
REMARK SMILES IDX 26 97 25 98
REMARK H PARENT 3 6 88 24 56 35 7 75
REMARK Flexibility Score: inf
ROOT
ATOM      1  C   UNL A   1      33.238  29.358  25.000  1.00  0.00     0.042 C 
ENDROOT
BRANCH   1   2
ATOM      2  C   UNL A   1      32.313  29.638  26.184  1.00  0.00     0.118 C 
BRANCH   2   3
ATOM      3  N   UNL A   1      32.323  31.040  26.574  1.00  0.00    -0.352 N 
ATOM      4  O   UNL A   1      32.719  32.958  27.588  1.00  0.00    -0.269 OA
ATOM      5  C   UNL A   1      33.161  31.840  27.303  1.00  0.00     0.251 C 
ATOM      6  H   UNL A   1      31.541  31.529  26.232  1.00  0.00     0.163 HD
BRANCH   5   7
ATOM      7  C   UNL A   1      34.540  31.482  27.762  1.00  0.00     0.039 A 
ATOM      8  C   UNL A   1      35.605  32.368  27.926  1.00  0.00     0.014 A 
ATOM      9  C   UNL A   1      34.744  30.138  28.137  1.00  0.00     0.014 A 
ATOM     10  C   UNL A   1      36.821  31.940  28.475  1.00  0.00     0.010 A 
ATOM     11  C   UNL A   1      35.947  29.707  28.706  1.00  0.00     0.010 A 
ATOM     12  C   UNL A   1      36.989  30.615  28.899  1.00  0.00    -0.014 A 
BRANCH  12  13
ATOM     13  C   UNL A   1      38.192  30.245  29.678  1.00  0.00     0.031 A 
ATOM     14  C   UNL A   1      38.400  30.720  31.081  1.00  0.00     0.074 A 
ATOM     15  C   UNL A   1      39.113  29.455  29.093  1.00  0.00     0.049 A 
ATOM     16  N   UNL A   1      39.321  30.360  31.939  1.00  0.00    -0.248 NA
ATOM     17  C   UNL A   1      37.464  31.733  31.586  1.00  0.00     0.031 C 
ATOM     18  C   UNL A   1      39.054  28.976  27.711  1.00  0.00     0.029 A 
ATOM     19  N   UNL A   1      40.269  28.909  29.590  1.00  0.00    -0.354 N 
ATOM     20  C   UNL A   1      39.078  31.098  33.087  1.00  0.00     0.074 A 
ATOM     21  C   UNL A   1      37.932  31.942  32.810  1.00  0.00     0.031 C 
ATOM     22  C   UNL A   1      40.115  28.187  27.477  1.00  0.00     0.029 A 
ATOM     23  C   UNL A   1      40.918  28.099  28.693  1.00  0.00     0.049 A 
ATOM     24  H   UNL A   1      40.600  29.083  30.501  1.00  0.00     0.167 HD
ATOM     25  C   UNL A   1      39.745  31.062  34.265  1.00  0.00     0.037 A 
ATOM     26  C   UNL A   1      42.023  27.349  28.841  1.00  0.00     0.037 A 
ATOM     27  C   UNL A   1      40.867  30.209  34.550  1.00  0.00     0.049 A 
ATOM     28  C   UNL A   1      42.726  27.308  30.163  1.00  0.00     0.074 A 
ATOM     29  C   UNL A   1      41.525  30.016  35.753  1.00  0.00     0.029 A 
ATOM     30  N   UNL A   1      41.510  29.414  33.613  1.00  0.00    -0.354 N 
ATOM     31  N   UNL A   1      42.413  27.916  31.280  1.00  0.00    -0.248 NA
ATOM     32  C   UNL A   1      43.929  26.467  30.248  1.00  0.00     0.031 C 
ATOM     33  C   UNL A   1      42.581  29.120  35.538  1.00  0.00     0.029 A 
ATOM     34  C   UNL A   1      42.573  28.752  34.204  1.00  0.00     0.049 A 
ATOM     35  H   UNL A   1      41.249  29.334  32.667  1.00  0.00     0.167 HD
ATOM     36  C   UNL A   1      43.367  27.522  32.204  1.00  0.00     0.074 A 
ATOM     37  C   UNL A   1      44.275  26.626  31.519  1.00  0.00     0.031 C 
ATOM     38  C   UNL A   1      43.471  27.868  33.510  1.00  0.00     0.037 A 
BRANCH  25  39
ATOM     39  C   UNL A   1      39.264  31.968  35.351  1.00  0.00     0.064 A 
ATOM     40  C   UNL A   1      38.417  31.495  36.362  1.00  0.00     0.173 A 
ATOM     41  C   UNL A   1      39.693  33.300  35.411  1.00  0.00     0.173 A 
ATOM     42  F   UNL A   1      37.977  30.228  36.336  1.00  0.00    -0.203 F 
ATOM     43  C   UNL A   1      38.011  32.331  37.398  1.00  0.00     0.198 A 
ATOM     44  C   UNL A   1      39.289  34.132  36.451  1.00  0.00     0.198 A 
ATOM     45  F   UNL A   1      40.501  33.794  34.460  1.00  0.00    -0.203 F 
ATOM     46  F   UNL A   1      37.191  31.864  38.350  1.00  0.00    -0.200 F 
ATOM     47  C   UNL A   1      38.449  33.646  37.444  1.00  0.00     0.200 A 
ATOM     48  F   UNL A   1      39.707  35.404  36.493  1.00  0.00    -0.200 F 
ATOM     49  F   UNL A   1      38.056  34.449  38.442  1.00  0.00    -0.200 F 
ENDBRANCH  25  39
BRANCH  26  50
ATOM     50  C   UNL A   1      42.495  26.530  27.704  1.00  0.00     0.064 A 
ATOM     51  C   UNL A   1      41.962  25.255  27.476  1.00  0.00     0.173 A 
ATOM     52  C   UNL A   1      43.452  27.021  26.808  1.00  0.00     0.173 A 
ATOM     53  F   UNL A   1      41.050  24.750  28.318  1.00  0.00    -0.203 F 
ATOM     54  C   UNL A   1      42.372  24.497  26.383  1.00  0.00     0.198 A 
ATOM     55  C   UNL A   1      43.858  26.263  25.713  1.00  0.00     0.198 A 
ATOM     56  F   UNL A   1      43.986  28.235  26.997  1.00  0.00    -0.203 F 
ATOM     57  F   UNL A   1      41.852  23.278  26.183  1.00  0.00    -0.200 F 
ATOM     58  C   UNL A   1      43.316  25.003  25.500  1.00  0.00     0.200 A 
ATOM     59  F   UNL A   1      44.770  26.752  24.863  1.00  0.00    -0.200 F 
ATOM     60  F   UNL A   1      43.706  24.274  24.446  1.00  0.00    -0.200 F 
ENDBRANCH  26  50
BRANCH  38  61
ATOM     61  C   UNL A   1      44.604  27.269  34.278  1.00  0.00     0.064 A 
ATOM     62  C   UNL A   1      45.831  27.934  34.388  1.00  0.00     0.173 A 
ATOM     63  C   UNL A   1      44.454  26.034  34.924  1.00  0.00     0.173 A 
ATOM     64  F   UNL A   1      46.019  29.110  33.770  1.00  0.00    -0.203 F 
ATOM     65  C   UNL A   1      46.879  27.377  35.115  1.00  0.00     0.198 A 
ATOM     66  C   UNL A   1      45.502  25.484  35.657  1.00  0.00     0.198 A 
ATOM     67  F   UNL A   1      43.297  25.362  34.837  1.00  0.00    -0.203 F 
ATOM     68  F   UNL A   1      48.054  28.017  35.193  1.00  0.00    -0.200 F 
ATOM     69  C   UNL A   1      46.713  26.155  35.750  1.00  0.00     0.200 A 
ATOM     70  F   UNL A   1      45.343  24.301  36.264  1.00  0.00    -0.200 F 
ATOM     71  F   UNL A   1      47.725  25.617  36.445  1.00  0.00    -0.200 F 
ENDBRANCH  38  61
ENDBRANCH  12  13
ENDBRANCH   5   7
ENDBRANCH   2   3
ENDBRANCH   1   2
BRANCH   1  72
ATOM     72  C   UNL A   1      32.469  29.216  23.690  1.00  0.00     0.117 C 
BRANCH  72  73
ATOM     73  N   UNL A   1      33.187  28.475  22.681  1.00  0.00    -0.354 N 
ATOM     74  C   UNL A   1      33.323  27.127  22.535  1.00  0.00     0.245 C 
ATOM     75  H   UNL A   1      33.644  29.021  22.002  1.00  0.00     0.163 HD
ATOM     76  O   UNL A   1      33.629  26.730  21.404  1.00  0.00    -0.273 OA
BRANCH  74  77
ATOM     77  C   UNL A   1      33.184  26.124  23.693  1.00  0.00     0.199 C 
BRANCH  77  78
ATOM     78  C   UNL A   1      31.809  25.466  23.968  1.00  0.00     0.073 C 
BRANCH  78  79
ATOM     79  C   UNL A   1      31.667  24.457  25.093  1.00  0.00    -0.045 A 
ATOM     80  C   UNL A   1      30.711  23.434  25.041  1.00  0.00     0.004 A 
ATOM     81  C   UNL A   1      32.559  24.472  26.176  1.00  0.00     0.004 A 
ATOM     82  C   UNL A   1      30.583  22.517  26.087  1.00  0.00     0.000 A 
ATOM     83  C   UNL A   1      32.434  23.559  27.223  1.00  0.00     0.000 A 
ATOM     84  C   UNL A   1      31.435  22.590  27.185  1.00  0.00     0.000 A 
ENDBRANCH  78  79
ENDBRANCH  77  78
BRANCH  77  85
ATOM     85  N   UNL A   1      34.339  25.269  23.992  1.00  0.00    -0.270 NA
ATOM     86  C   UNL A   1      34.617  24.068  23.646  1.00  0.00     0.109 C 
ATOM     87  C   UNL A   1      33.808  23.140  22.789  1.00  0.00     0.209 C 
ATOM     88  C   UNL A   1      35.788  23.377  24.287  1.00  0.00     0.205 C 
ATOM     89  O   UNL A   1      33.531  23.420  21.638  1.00  0.00    -0.287 OA
ATOM     90  C   UNL A   1      33.456  21.848  23.405  1.00  0.00     0.035 A 
ATOM     91  C   UNL A   1      35.351  22.137  25.036  1.00  0.00     0.187 C 
ATOM     92  Cl  UNL A   1      36.966  22.905  23.044  1.00  0.00    -0.107 Cl
ATOM     93  C   UNL A   1      32.411  21.086  22.872  1.00  0.00     0.013 A 
ATOM     94  C   UNL A   1      34.171  21.389  24.517  1.00  0.00     0.031 A 
ATOM     95  O   UNL A   1      35.948  21.717  26.024  1.00  0.00    -0.292 OA
ATOM     96  C   UNL A   1      32.045  19.887  23.484  1.00  0.00     0.001 A 
ATOM     97  C   UNL A   1      33.799  20.184  25.125  1.00  0.00     0.012 A 
ATOM     98  C   UNL A   1      32.732  19.441  24.612  1.00  0.00     0.001 A 
ENDBRANCH  77  85
ENDBRANCH  74  77
ENDBRANCH  72  73
ENDBRANCH   1  72
TORSDOF 13
ENDMDL
