MODEL 1
REMARK VINA RESULT:     -11.6      0.000      0.000
REMARK SMILES O=C(CNC(=O)CNC(=O)OCc1ccccc1)NCCCNC(=O)c1ccc(-c2c3nc(c(-c4c(F)c(F)c(F)c(F)c4F)c4ccc([nH]4)c(-c4c(F)c(F)c(F)c(F)c4F)c4nc(c(-c5c(F)c(F)c(F)c(F)c5F)c5ccc2[nH]5)C=C4)C=C3)cc1
REMARK SMILES IDX 1 1 2 2 19 3 3 5 4 6 5 7 6 9 7 10 8 11 9 12 10 14 11 15
REMARK SMILES IDX 12 16 13 17 14 18 18 19 15 20 17 21 16 22 20 23 21 24 22 25
REMARK SMILES IDX 23 26 24 27 25 29 26 30 27 31 88 32 28 33 87 34 29 35 30 36
REMARK SMILES IDX 31 37 81 38 32 39 86 40 80 41 82 42 33 43 85 44 79 45 78 46
REMARK SMILES IDX 34 48 66 49 46 50 65 51 47 52 50 53 64 54 83 55 48 56 49 57
REMARK SMILES IDX 63 59 84 60 51 61 35 62 36 63 44 64 37 65 38 66 42 67 45 68
REMARK SMILES IDX 39 69 40 70 43 71 41 72 67 73 68 74 76 75 69 76 70 77 74 78
REMARK SMILES IDX 77 79 71 80 72 81 75 82 73 83 52 84 53 85 61 86 54 87 55 88
REMARK SMILES IDX 59 89 62 90 56 91 57 92 60 93 58 94
REMARK H PARENT 19 4 4 8 8 13 23 28 82 47 50 58
REMARK Flexibility Score: inf
ROOT
ATOM      1  O   UNL A   1      35.672  22.961  26.047  1.00  0.00    -0.273 OA
ATOM      2  C   UNL A   1      35.080  21.903  26.245  1.00  0.00     0.239 C 
ATOM      3  N   UNL A   1      35.476  20.703  25.695  1.00  0.00    -0.355 N 
ATOM      4  H   UNL A   1      35.034  19.876  25.998  1.00  0.00     0.163 HD
ENDROOT
BRANCH   2   5
ATOM      5  C   UNL A   1      33.906  21.819  27.233  1.00  0.00     0.216 C 
BRANCH   5   6
ATOM      6  N   UNL A   1      33.142  23.057  27.358  1.00  0.00    -0.346 N 
ATOM      7  C   UNL A   1      31.903  23.374  26.886  1.00  0.00     0.239 C 
ATOM      8  H   UNL A   1      33.592  23.773  27.862  1.00  0.00     0.164 HD
ATOM      9  O   UNL A   1      31.411  24.453  27.218  1.00  0.00    -0.273 OA
BRANCH   7  10
ATOM     10  C   UNL A   1      31.150  22.408  25.976  1.00  0.00     0.219 C 
BRANCH  10  11
ATOM     11  N   UNL A   1      31.476  22.714  24.595  1.00  0.00    -0.312 N 
ATOM     12  C   UNL A   1      32.310  22.004  23.793  1.00  0.00     0.407 C 
ATOM     13  H   UNL A   1      31.052  23.512  24.203  1.00  0.00     0.167 HD
ATOM     14  O   UNL A   1      32.689  22.451  22.719  1.00  0.00    -0.225 OA
BRANCH  12  15
ATOM     15  O   UNL A   1      32.627  20.794  24.309  1.00  0.00    -0.445 OA
BRANCH  15  16
ATOM     16  C   UNL A   1      32.517  19.682  23.410  1.00  0.00     0.270 C 
BRANCH  16  17
ATOM     17  C   UNL A   1      32.938  18.349  23.989  1.00  0.00    -0.011 A 
ATOM     18  C   UNL A   1      33.695  17.480  23.192  1.00  0.00     0.007 A 
ATOM     19  C   UNL A   1      32.572  17.929  25.277  1.00  0.00     0.007 A 
ATOM     20  C   UNL A   1      34.031  16.204  23.649  1.00  0.00     0.000 A 
ATOM     21  C   UNL A   1      32.889  16.647  25.726  1.00  0.00     0.000 A 
ATOM     22  C   UNL A   1      33.612  15.783  24.909  1.00  0.00     0.000 A 
ENDBRANCH  16  17
ENDBRANCH  15  16
ENDBRANCH  12  15
ENDBRANCH  10  11
ENDBRANCH   7  10
ENDBRANCH   5   6
ENDBRANCH   2   5
BRANCH   3  23
ATOM     23  C   UNL A   1      36.517  20.608  24.689  1.00  0.00     0.117 C 
BRANCH  23  24
ATOM     24  C   UNL A   1      37.608  19.592  25.011  1.00  0.00     0.042 C 
BRANCH  24  25
ATOM     25  C   UNL A   1      38.874  20.175  25.636  1.00  0.00     0.118 C 
BRANCH  25  26
ATOM     26  N   UNL A   1      39.951  19.206  25.790  1.00  0.00    -0.352 N 
ATOM     27  C   UNL A   1      41.276  19.372  26.112  1.00  0.00     0.251 C 
ATOM     28  H   UNL A   1      39.684  18.272  25.638  1.00  0.00     0.163 HD
ATOM     29  O   UNL A   1      42.018  18.393  26.097  1.00  0.00    -0.269 OA
BRANCH  27  30
ATOM     30  C   UNL A   1      41.838  20.704  26.439  1.00  0.00     0.039 A 
ATOM     31  C   UNL A   1      42.162  21.560  25.381  1.00  0.00     0.014 A 
ATOM     32  C   UNL A   1      42.082  21.111  27.752  1.00  0.00     0.014 A 
ATOM     33  C   UNL A   1      42.653  22.843  25.640  1.00  0.00     0.010 A 
ATOM     34  C   UNL A   1      42.500  22.418  28.013  1.00  0.00     0.010 A 
ATOM     35  C   UNL A   1      42.783  23.302  26.961  1.00  0.00    -0.014 A 
BRANCH  35  36
ATOM     36  C   UNL A   1      43.175  24.708  27.246  1.00  0.00     0.031 A 
ATOM     37  C   UNL A   1      44.575  25.189  26.980  1.00  0.00     0.074 A 
ATOM     38  C   UNL A   1      42.274  25.548  27.794  1.00  0.00     0.049 A 
ATOM     39  N   UNL A   1      45.103  26.368  27.201  1.00  0.00    -0.248 NA
ATOM     40  C   UNL A   1      45.515  24.210  26.413  1.00  0.00     0.031 C 
ATOM     41  C   UNL A   1      40.897  25.195  28.143  1.00  0.00     0.029 A 
ATOM     42  N   UNL A   1      42.380  26.867  28.162  1.00  0.00    -0.354 N 
ATOM     43  C   UNL A   1      46.431  26.271  26.807  1.00  0.00     0.074 A 
ATOM     44  C   UNL A   1      46.644  24.903  26.385  1.00  0.00     0.031 C 
ATOM     45  C   UNL A   1      40.280  26.274  28.647  1.00  0.00     0.029 A 
ATOM     46  C   UNL A   1      41.227  27.382  28.703  1.00  0.00     0.049 A 
ATOM     47  H   UNL A   1      43.205  27.393  28.049  1.00  0.00     0.167 HD
ATOM     48  C   UNL A   1      47.379  27.239  26.780  1.00  0.00     0.037 A 
ATOM     49  C   UNL A   1      40.963  28.607  29.199  1.00  0.00     0.037 A 
ATOM     50  C   UNL A   1      47.162  28.603  27.195  1.00  0.00     0.049 A 
ATOM     51  C   UNL A   1      42.045  29.654  29.183  1.00  0.00     0.074 A 
ATOM     52  C   UNL A   1      48.046  29.667  27.155  1.00  0.00     0.029 A 
ATOM     53  N   UNL A   1      45.981  29.086  27.737  1.00  0.00    -0.354 N 
ATOM     54  N   UNL A   1      43.274  29.571  28.739  1.00  0.00    -0.248 NA
ATOM     55  C   UNL A   1      41.695  30.972  29.732  1.00  0.00     0.031 C 
ATOM     56  C   UNL A   1      47.422  30.778  27.732  1.00  0.00     0.029 A 
ATOM     57  C   UNL A   1      46.124  30.427  28.065  1.00  0.00     0.049 A 
ATOM     58  H   UNL A   1      45.161  28.558  27.870  1.00  0.00     0.167 HD
ATOM     59  C   UNL A   1      43.834  30.828  28.924  1.00  0.00     0.074 A 
ATOM     60  C   UNL A   1      42.803  31.662  29.504  1.00  0.00     0.031 C 
ATOM     61  C   UNL A   1      45.091  31.252  28.639  1.00  0.00     0.037 A 
BRANCH  48  62
ATOM     62  C   UNL A   1      48.749  26.859  26.288  1.00  0.00     0.064 A 
ATOM     63  C   UNL A   1      49.121  27.016  24.944  1.00  0.00     0.173 A 
ATOM     64  C   UNL A   1      49.718  26.377  27.182  1.00  0.00     0.173 A 
ATOM     65  F   UNL A   1      48.233  27.467  24.045  1.00  0.00    -0.203 F 
ATOM     66  C   UNL A   1      50.399  26.673  24.507  1.00  0.00     0.198 A 
ATOM     67  C   UNL A   1      51.005  26.068  26.748  1.00  0.00     0.198 A 
ATOM     68  F   UNL A   1      49.422  26.215  28.480  1.00  0.00    -0.203 F 
ATOM     69  F   UNL A   1      50.713  26.782  23.210  1.00  0.00    -0.200 F 
ATOM     70  C   UNL A   1      51.342  26.208  25.411  1.00  0.00     0.200 A 
ATOM     71  F   UNL A   1      51.921  25.636  27.627  1.00  0.00    -0.200 F 
ATOM     72  F   UNL A   1      52.574  25.888  24.991  1.00  0.00    -0.200 F 
ENDBRANCH  48  62
BRANCH  49  73
ATOM     73  C   UNL A   1      39.613  28.916  29.743  1.00  0.00     0.064 A 
ATOM     74  C   UNL A   1      38.612  29.457  28.923  1.00  0.00     0.173 A 
ATOM     75  C   UNL A   1      39.299  28.689  31.091  1.00  0.00     0.173 A 
ATOM     76  F   UNL A   1      38.868  29.712  27.632  1.00  0.00    -0.203 F 
ATOM     77  C   UNL A   1      37.360  29.785  29.438  1.00  0.00     0.198 A 
ATOM     78  C   UNL A   1      38.035  28.985  31.597  1.00  0.00     0.198 A 
ATOM     79  F   UNL A   1      40.219  28.170  31.917  1.00  0.00    -0.203 F 
ATOM     80  F   UNL A   1      36.441  30.354  28.646  1.00  0.00    -0.200 F 
ATOM     81  C   UNL A   1      37.070  29.543  30.772  1.00  0.00     0.200 A 
ATOM     82  F   UNL A   1      37.755  28.734  32.882  1.00  0.00    -0.200 F 
ATOM     83  F   UNL A   1      35.864  29.856  31.266  1.00  0.00    -0.200 F 
ENDBRANCH  49  73
BRANCH  61  84
ATOM     84  C   UNL A   1      45.409  32.696  28.910  1.00  0.00     0.064 A 
ATOM     85  C   UNL A   1      45.096  33.711  27.991  1.00  0.00     0.173 A 
ATOM     86  C   UNL A   1      46.012  33.074  30.120  1.00  0.00     0.173 A 
ATOM     87  F   UNL A   1      44.530  33.405  26.814  1.00  0.00    -0.203 F 
ATOM     88  C   UNL A   1      45.408  35.042  28.259  1.00  0.00     0.198 A 
ATOM     89  C   UNL A   1      46.288  34.410  30.399  1.00  0.00     0.198 A 
ATOM     90  F   UNL A   1      46.326  32.148  31.037  1.00  0.00    -0.203 F 
ATOM     91  F   UNL A   1      45.155  35.984  27.340  1.00  0.00    -0.200 F 
ATOM     92  C   UNL A   1      45.996  35.391  29.465  1.00  0.00     0.200 A 
ATOM     93  F   UNL A   1      46.840  34.746  31.574  1.00  0.00    -0.200 F 
ATOM     94  F   UNL A   1      46.290  36.673  29.723  1.00  0.00    -0.200 F 
ENDBRANCH  61  84
ENDBRANCH  35  36
ENDBRANCH  27  30
ENDBRANCH  25  26
ENDBRANCH  24  25
ENDBRANCH  23  24
ENDBRANCH   3  23
TORSDOF 16
ENDMDL
MODEL 2
REMARK VINA RESULT:     -11.6      5.685     10.960
REMARK SMILES O=C(CNC(=O)CNC(=O)OCc1ccccc1)NCCCNC(=O)c1ccc(-c2c3nc(c(-c4c(F)c(F)c(F)c(F)c4F)c4ccc([nH]4)c(-c4c(F)c(F)c(F)c(F)c4F)c4nc(c(-c5c(F)c(F)c(F)c(F)c5F)c5ccc2[nH]5)C=C4)C=C3)cc1
REMARK SMILES IDX 1 1 2 2 19 3 3 5 4 6 5 7 6 9 7 10 8 11 9 12 10 14 11 15
REMARK SMILES IDX 12 16 13 17 14 18 18 19 15 20 17 21 16 22 20 23 21 24 22 25
REMARK SMILES IDX 23 26 24 27 25 29 26 30 27 31 88 32 28 33 87 34 29 35 30 36
REMARK SMILES IDX 31 37 81 38 32 39 86 40 80 41 82 42 33 43 85 44 79 45 78 46
REMARK SMILES IDX 34 48 66 49 46 50 65 51 47 52 50 53 64 54 83 55 48 56 49 57
REMARK SMILES IDX 63 59 84 60 51 61 35 62 36 63 44 64 37 65 38 66 42 67 45 68
REMARK SMILES IDX 39 69 40 70 43 71 41 72 67 73 68 74 76 75 69 76 70 77 74 78
REMARK SMILES IDX 77 79 71 80 72 81 75 82 73 83 52 84 53 85 61 86 54 87 55 88
REMARK SMILES IDX 59 89 62 90 56 91 57 92 60 93 58 94
REMARK H PARENT 19 4 4 8 8 13 23 28 82 47 50 58
REMARK Flexibility Score: inf
ROOT
ATOM      1  O   UNL A   1      33.900  28.958  25.730  1.00  0.00    -0.273 OA
ATOM      2  C   UNL A   1      33.022  29.325  24.953  1.00  0.00     0.239 C 
ATOM      3  N   UNL A   1      31.995  30.170  25.318  1.00  0.00    -0.355 N 
ATOM      4  H   UNL A   1      31.402  30.524  24.616  1.00  0.00     0.163 HD
ENDROOT
BRANCH   2   5
ATOM      5  C   UNL A   1      33.072  28.958  23.462  1.00  0.00     0.216 C 
BRANCH   5   6
ATOM      6  N   UNL A   1      31.872  29.326  22.716  1.00  0.00    -0.346 N 
ATOM      7  C   UNL A   1      30.833  28.554  22.289  1.00  0.00     0.239 C 
ATOM      8  H   UNL A   1      31.804  30.281  22.485  1.00  0.00     0.164 HD
ATOM      9  O   UNL A   1      29.865  29.112  21.771  1.00  0.00    -0.273 OA
BRANCH   7  10
ATOM     10  C   UNL A   1      30.875  27.038  22.458  1.00  0.00     0.219 C 
BRANCH  10  11
ATOM     11  N   UNL A   1      31.558  26.457  21.317  1.00  0.00    -0.312 N 
ATOM     12  C   UNL A   1      32.548  25.527  21.365  1.00  0.00     0.407 C 
ATOM     13  H   UNL A   1      31.278  26.765  20.425  1.00  0.00     0.167 HD
ATOM     14  O   UNL A   1      33.208  25.254  20.372  1.00  0.00    -0.225 OA
BRANCH  12  15
ATOM     15  O   UNL A   1      32.678  24.966  22.589  1.00  0.00    -0.445 OA
BRANCH  15  16
ATOM     16  C   UNL A   1      34.005  24.956  23.134  1.00  0.00     0.270 C 
BRANCH  16  17
ATOM     17  C   UNL A   1      34.438  23.635  23.733  1.00  0.00    -0.011 A 
ATOM     18  C   UNL A   1      35.809  23.354  23.816  1.00  0.00     0.007 A 
ATOM     19  C   UNL A   1      33.526  22.664  24.172  1.00  0.00     0.007 A 
ATOM     20  C   UNL A   1      36.254  22.113  24.277  1.00  0.00     0.000 A 
ATOM     21  C   UNL A   1      33.970  21.417  24.613  1.00  0.00     0.000 A 
ATOM     22  C   UNL A   1      35.333  21.140  24.659  1.00  0.00     0.000 A 
ENDBRANCH  16  17
ENDBRANCH  15  16
ENDBRANCH  12  15
ENDBRANCH  10  11
ENDBRANCH   7  10
ENDBRANCH   5   6
ENDBRANCH   2   5
BRANCH   3  23
ATOM     23  C   UNL A   1      31.754  30.558  26.695  1.00  0.00     0.117 C 
BRANCH  23  24
ATOM     24  C   UNL A   1      31.454  32.042  26.883  1.00  0.00     0.042 C 
BRANCH  24  25
ATOM     25  C   UNL A   1      32.681  32.945  26.988  1.00  0.00     0.118 C 
BRANCH  25  26
ATOM     26  N   UNL A   1      32.408  34.238  27.601  1.00  0.00    -0.352 N 
ATOM     27  C   UNL A   1      33.020  34.891  28.643  1.00  0.00     0.251 C 
ATOM     28  H   UNL A   1      31.656  34.728  27.199  1.00  0.00     0.163 HD
ATOM     29  O   UNL A   1      32.545  35.953  29.039  1.00  0.00    -0.269 OA
BRANCH  27  30
ATOM     30  C   UNL A   1      34.211  34.331  29.323  1.00  0.00     0.039 A 
ATOM     31  C   UNL A   1      34.012  33.560  30.473  1.00  0.00     0.014 A 
ATOM     32  C   UNL A   1      35.511  34.573  28.874  1.00  0.00     0.014 A 
ATOM     33  C   UNL A   1      35.101  32.974  31.124  1.00  0.00     0.010 A 
ATOM     34  C   UNL A   1      36.592  33.925  29.478  1.00  0.00     0.010 A 
ATOM     35  C   UNL A   1      36.399  33.112  30.605  1.00  0.00    -0.014 A 
BRANCH  35  36
ATOM     36  C   UNL A   1      37.545  32.382  31.211  1.00  0.00     0.031 A 
ATOM     37  C   UNL A   1      38.060  32.748  32.576  1.00  0.00     0.074 A 
ATOM     38  C   UNL A   1      38.159  31.412  30.503  1.00  0.00     0.049 A 
ATOM     39  N   UNL A   1      39.069  32.245  33.243  1.00  0.00    -0.248 NA
ATOM     40  C   UNL A   1      37.363  33.838  33.276  1.00  0.00     0.031 C 
ATOM     41  C   UNL A   1      37.788  30.992  29.151  1.00  0.00     0.029 A 
ATOM     42  N   UNL A   1      39.228  30.610  30.817  1.00  0.00    -0.354 N 
ATOM     43  C   UNL A   1      39.132  32.959  34.433  1.00  0.00     0.074 A 
ATOM     44  C   UNL A   1      38.094  33.965  34.373  1.00  0.00     0.031 C 
ATOM     45  C   UNL A   1      38.595  29.994  28.763  1.00  0.00     0.029 A 
ATOM     46  C   UNL A   1      39.571  29.733  29.816  1.00  0.00     0.049 A 
ATOM     47  H   UNL A   1      39.704  30.658  31.679  1.00  0.00     0.167 HD
ATOM     48  C   UNL A   1      39.965  32.777  35.487  1.00  0.00     0.037 A 
ATOM     49  C   UNL A   1      40.568  28.828  29.748  1.00  0.00     0.037 A 
ATOM     50  C   UNL A   1      40.994  31.768  35.545  1.00  0.00     0.049 A 
ATOM     51  C   UNL A   1      41.496  28.668  30.921  1.00  0.00     0.074 A 
ATOM     52  C   UNL A   1      41.853  31.473  36.590  1.00  0.00     0.029 A 
ATOM     53  N   UNL A   1      41.311  30.900  34.512  1.00  0.00    -0.354 N 
ATOM     54  N   UNL A   1      41.498  29.297  32.070  1.00  0.00    -0.248 NA
ATOM     55  C   UNL A   1      42.559  27.661  30.789  1.00  0.00     0.031 C 
ATOM     56  C   UNL A   1      42.732  30.470  36.166  1.00  0.00     0.029 A 
ATOM     57  C   UNL A   1      42.375  30.089  34.883  1.00  0.00     0.049 A 
ATOM     58  H   UNL A   1      40.851  30.863  33.642  1.00  0.00     0.167 HD
ATOM     59  C   UNL A   1      42.536  28.744  32.808  1.00  0.00     0.074 A 
ATOM     60  C   UNL A   1      43.130  27.713  31.983  1.00  0.00     0.031 C 
ATOM     61  C   UNL A   1      42.958  29.062  34.057  1.00  0.00     0.037 A 
BRANCH  48  62
ATOM     62  C   UNL A   1      39.805  33.693  36.668  1.00  0.00     0.064 A 
ATOM     63  C   UNL A   1      38.936  33.389  37.727  1.00  0.00     0.173 A 
ATOM     64  C   UNL A   1      40.567  34.868  36.766  1.00  0.00     0.173 A 
ATOM     65  F   UNL A   1      38.179  32.281  37.683  1.00  0.00    -0.203 F 
ATOM     66  C   UNL A   1      38.810  34.241  38.821  1.00  0.00     0.198 A 
ATOM     67  C   UNL A   1      40.464  35.700  37.878  1.00  0.00     0.198 A 
ATOM     68  F   UNL A   1      41.420  35.206  35.789  1.00  0.00    -0.203 F 
ATOM     69  F   UNL A   1      37.934  33.955  39.794  1.00  0.00    -0.200 F 
ATOM     70  C   UNL A   1      39.580  35.391  38.901  1.00  0.00     0.200 A 
ATOM     71  F   UNL A   1      41.223  36.803  37.961  1.00  0.00    -0.200 F 
ATOM     72  F   UNL A   1      39.465  36.206  39.959  1.00  0.00    -0.200 F 
ENDBRANCH  48  62
BRANCH  49  73
ATOM     73  C   UNL A   1      40.732  27.993  28.527  1.00  0.00     0.064 A 
ATOM     74  C   UNL A   1      40.124  26.734  28.428  1.00  0.00     0.173 A 
ATOM     75  C   UNL A   1      41.509  28.429  27.443  1.00  0.00     0.173 A 
ATOM     76  F   UNL A   1      39.389  26.262  29.445  1.00  0.00    -0.203 F 
ATOM     77  C   UNL A   1      40.310  25.932  27.304  1.00  0.00     0.198 A 
ATOM     78  C   UNL A   1      41.664  27.641  26.305  1.00  0.00     0.198 A 
ATOM     79  F   UNL A   1      42.109  29.628  27.485  1.00  0.00    -0.203 F 
ATOM     80  F   UNL A   1      39.764  24.709  27.259  1.00  0.00    -0.200 F 
ATOM     81  C   UNL A   1      41.074  26.389  26.241  1.00  0.00     0.200 A 
ATOM     82  F   UNL A   1      42.390  28.094  25.274  1.00  0.00    -0.200 F 
ATOM     83  F   UNL A   1      41.249  25.618  25.158  1.00  0.00    -0.200 F 
ENDBRANCH  49  73
BRANCH  61  84
ATOM     84  C   UNL A   1      44.092  28.257  34.628  1.00  0.00     0.064 A 
ATOM     85  C   UNL A   1      43.876  27.051  35.313  1.00  0.00     0.173 A 
ATOM     86  C   UNL A   1      45.419  28.685  34.461  1.00  0.00     0.173 A 
ATOM     87  F   UNL A   1      42.628  26.602  35.512  1.00  0.00    -0.203 F 
ATOM     88  C   UNL A   1      44.941  26.325  35.841  1.00  0.00     0.198 A 
ATOM     89  C   UNL A   1      46.484  27.937  34.958  1.00  0.00     0.198 A 
ATOM     90  F   UNL A   1      45.685  29.825  33.807  1.00  0.00    -0.203 F 
ATOM     91  F   UNL A   1      44.705  25.210  36.545  1.00  0.00    -0.200 F 
ATOM     92  C   UNL A   1      46.244  26.765  35.657  1.00  0.00     0.200 A 
ATOM     93  F   UNL A   1      47.742  28.355  34.762  1.00  0.00    -0.200 F 
ATOM     94  F   UNL A   1      47.268  26.062  36.160  1.00  0.00    -0.200 F 
ENDBRANCH  61  84
ENDBRANCH  35  36
ENDBRANCH  27  30
ENDBRANCH  25  26
ENDBRANCH  24  25
ENDBRANCH  23  24
ENDBRANCH   3  23
TORSDOF 16
ENDMDL
MODEL 3
REMARK VINA RESULT:     -11.6      4.740     10.182
REMARK SMILES O=C(CNC(=O)CNC(=O)OCc1ccccc1)NCCCNC(=O)c1ccc(-c2c3nc(c(-c4c(F)c(F)c(F)c(F)c4F)c4ccc([nH]4)c(-c4c(F)c(F)c(F)c(F)c4F)c4nc(c(-c5c(F)c(F)c(F)c(F)c5F)c5ccc2[nH]5)C=C4)C=C3)cc1
REMARK SMILES IDX 1 1 2 2 19 3 3 5 4 6 5 7 6 9 7 10 8 11 9 12 10 14 11 15
REMARK SMILES IDX 12 16 13 17 14 18 18 19 15 20 17 21 16 22 20 23 21 24 22 25
REMARK SMILES IDX 23 26 24 27 25 29 26 30 27 31 88 32 28 33 87 34 29 35 30 36
REMARK SMILES IDX 31 37 81 38 32 39 86 40 80 41 82 42 33 43 85 44 79 45 78 46
REMARK SMILES IDX 34 48 66 49 46 50 65 51 47 52 50 53 64 54 83 55 48 56 49 57
REMARK SMILES IDX 63 59 84 60 51 61 35 62 36 63 44 64 37 65 38 66 42 67 45 68
REMARK SMILES IDX 39 69 40 70 43 71 41 72 67 73 68 74 76 75 69 76 70 77 74 78
REMARK SMILES IDX 77 79 71 80 72 81 75 82 73 83 52 84 53 85 61 86 54 87 55 88
REMARK SMILES IDX 59 89 62 90 56 91 57 92 60 93 58 94
REMARK H PARENT 19 4 4 8 8 13 23 28 82 47 50 58
REMARK Flexibility Score: inf
ROOT
ATOM      1  O   UNL A   1      31.370  26.944  26.992  1.00  0.00    -0.273 OA
ATOM      2  C   UNL A   1      30.993  26.853  25.826  1.00  0.00     0.239 C 
ATOM      3  N   UNL A   1      31.554  27.574  24.793  1.00  0.00    -0.355 N 
ATOM      4  H   UNL A   1      31.290  27.358  23.869  1.00  0.00     0.163 HD
ENDROOT
BRANCH   2   5
ATOM      5  C   UNL A   1      29.929  25.826  25.410  1.00  0.00     0.216 C 
BRANCH   5   6
ATOM      6  N   UNL A   1      29.662  24.802  26.416  1.00  0.00    -0.346 N 
ATOM      7  C   UNL A   1      30.278  23.605  26.634  1.00  0.00     0.239 C 
ATOM      8  H   UNL A   1      28.922  25.008  27.032  1.00  0.00     0.164 HD
ATOM      9  O   UNL A   1      29.950  22.953  27.626  1.00  0.00    -0.273 OA
BRANCH   7  10
ATOM     10  C   UNL A   1      31.349  23.099  25.672  1.00  0.00     0.219 C 
BRANCH  10  11
ATOM     11  N   UNL A   1      31.403  21.650  25.751  1.00  0.00    -0.312 N 
ATOM     12  C   UNL A   1      32.310  20.849  25.135  1.00  0.00     0.407 C 
ATOM     13  H   UNL A   1      30.718  21.208  26.302  1.00  0.00     0.167 HD
ATOM     14  O   UNL A   1      32.153  19.636  25.086  1.00  0.00    -0.225 OA
BRANCH  12  15
ATOM     15  O   UNL A   1      33.360  21.538  24.633  1.00  0.00    -0.445 OA
BRANCH  15  16
ATOM     16  C   UNL A   1      34.617  20.845  24.626  1.00  0.00     0.270 C 
BRANCH  16  17
ATOM     17  C   UNL A   1      35.808  21.682  25.040  1.00  0.00    -0.011 A 
ATOM     18  C   UNL A   1      37.071  21.075  25.085  1.00  0.00     0.007 A 
ATOM     19  C   UNL A   1      35.698  23.028  25.418  1.00  0.00     0.007 A 
ATOM     20  C   UNL A   1      38.184  21.780  25.546  1.00  0.00     0.000 A 
ATOM     21  C   UNL A   1      36.806  23.727  25.899  1.00  0.00     0.000 A 
ATOM     22  C   UNL A   1      38.046  23.100  25.969  1.00  0.00     0.000 A 
ENDBRANCH  16  17
ENDBRANCH  15  16
ENDBRANCH  12  15
ENDBRANCH  10  11
ENDBRANCH   7  10
ENDBRANCH   5   6
ENDBRANCH   2   5
BRANCH   3  23
ATOM     23  C   UNL A   1      32.518  28.635  25.013  1.00  0.00     0.117 C 
BRANCH  23  24
ATOM     24  C   UNL A   1      31.898  29.970  25.416  1.00  0.00     0.042 C 
BRANCH  24  25
ATOM     25  C   UNL A   1      32.201  30.424  26.842  1.00  0.00     0.118 C 
BRANCH  25  26
ATOM     26  N   UNL A   1      32.374  31.864  26.975  1.00  0.00    -0.352 N 
ATOM     27  C   UNL A   1      33.379  32.604  27.548  1.00  0.00     0.251 C 
ATOM     28  H   UNL A   1      31.646  32.399  26.586  1.00  0.00     0.163 HD
ATOM     29  O   UNL A   1      33.255  33.825  27.612  1.00  0.00    -0.269 OA
BRANCH  27  30
ATOM     30  C   UNL A   1      34.587  31.967  28.123  1.00  0.00     0.039 A 
ATOM     31  C   UNL A   1      35.710  32.769  28.351  1.00  0.00     0.014 A 
ATOM     32  C   UNL A   1      34.647  30.601  28.408  1.00  0.00     0.014 A 
ATOM     33  C   UNL A   1      36.857  32.223  28.932  1.00  0.00     0.010 A 
ATOM     34  C   UNL A   1      35.764  30.072  29.059  1.00  0.00     0.010 A 
ATOM     35  C   UNL A   1      36.879  30.877  29.335  1.00  0.00    -0.014 A 
BRANCH  35  36
ATOM     36  C   UNL A   1      38.044  30.322  30.076  1.00  0.00     0.031 A 
ATOM     37  C   UNL A   1      38.337  30.749  31.488  1.00  0.00     0.074 A 
ATOM     38  C   UNL A   1      38.873  29.460  29.453  1.00  0.00     0.049 A 
ATOM     39  N   UNL A   1      39.327  30.397  32.272  1.00  0.00    -0.248 NA
ATOM     40  C   UNL A   1      37.410  31.718  32.092  1.00  0.00     0.031 C 
ATOM     41  C   UNL A   1      38.727  28.999  28.072  1.00  0.00     0.029 A 
ATOM     42  N   UNL A   1      40.006  28.823  29.896  1.00  0.00    -0.354 N 
ATOM     43  C   UNL A   1      39.145  31.103  33.454  1.00  0.00     0.074 A 
ATOM     44  C   UNL A   1      37.983  31.944  33.266  1.00  0.00     0.031 C 
ATOM     45  C   UNL A   1      39.713  28.135  27.789  1.00  0.00     0.029 A 
ATOM     46  C   UNL A   1      40.589  28.015  28.950  1.00  0.00     0.049 A 
ATOM     47  H   UNL A   1      40.367  28.934  30.806  1.00  0.00     0.167 HD
ATOM     48  C   UNL A   1      39.869  31.039  34.598  1.00  0.00     0.037 A 
ATOM     49  C   UNL A   1      41.710  27.269  29.005  1.00  0.00     0.037 A 
ATOM     50  C   UNL A   1      41.023  30.194  34.785  1.00  0.00     0.049 A 
ATOM     51  C   UNL A   1      42.511  27.239  30.279  1.00  0.00     0.074 A 
ATOM     52  C   UNL A   1      41.789  30.022  35.925  1.00  0.00     0.029 A 
ATOM     53  N   UNL A   1      41.583  29.391  33.803  1.00  0.00    -0.354 N 
ATOM     54  N   UNL A   1      42.286  27.853  31.415  1.00  0.00    -0.248 NA
ATOM     55  C   UNL A   1      43.719  26.402  30.280  1.00  0.00     0.031 C 
ATOM     56  C   UNL A   1      42.850  29.165  35.614  1.00  0.00     0.029 A 
ATOM     57  C   UNL A   1      42.705  28.745  34.303  1.00  0.00     0.049 A 
ATOM     58  H   UNL A   1      41.236  29.293  32.887  1.00  0.00     0.167 HD
ATOM     59  C   UNL A   1      43.303  27.454  32.273  1.00  0.00     0.074 A 
ATOM     60  C   UNL A   1      44.134  26.530  31.532  1.00  0.00     0.031 C 
ATOM     61  C   UNL A   1      43.525  27.822  33.559  1.00  0.00     0.037 A 
BRANCH  48  62
ATOM     62  C   UNL A   1      39.439  31.911  35.745  1.00  0.00     0.064 A 
ATOM     63  C   UNL A   1      39.972  33.195  35.937  1.00  0.00     0.173 A 
ATOM     64  C   UNL A   1      38.446  31.477  36.637  1.00  0.00     0.173 A 
ATOM     65  F   UNL A   1      40.929  33.659  35.118  1.00  0.00    -0.203 F 
ATOM     66  C   UNL A   1      39.553  33.997  36.996  1.00  0.00     0.198 A 
ATOM     67  C   UNL A   1      38.003  32.296  37.674  1.00  0.00     0.198 A 
ATOM     68  F   UNL A   1      37.893  30.263  36.498  1.00  0.00    -0.203 F 
ATOM     69  F   UNL A   1      40.115  35.198  37.188  1.00  0.00    -0.200 F 
ATOM     70  C   UNL A   1      38.563  33.551  37.857  1.00  0.00     0.200 A 
ATOM     71  F   UNL A   1      37.034  31.869  38.495  1.00  0.00    -0.200 F 
ATOM     72  F   UNL A   1      38.153  34.327  38.870  1.00  0.00    -0.200 F 
ENDBRANCH  48  62
BRANCH  49  73
ATOM     73  C   UNL A   1      42.137  26.477  27.819  1.00  0.00     0.064 A 
ATOM     74  C   UNL A   1      41.572  25.223  27.549  1.00  0.00     0.173 A 
ATOM     75  C   UNL A   1      43.125  26.950  26.942  1.00  0.00     0.173 A 
ATOM     76  F   UNL A   1      40.639  24.717  28.368  1.00  0.00    -0.203 F 
ATOM     77  C   UNL A   1      41.998  24.461  26.463  1.00  0.00     0.198 A 
ATOM     78  C   UNL A   1      43.525  26.202  25.837  1.00  0.00     0.198 A 
ATOM     79  F   UNL A   1      43.695  28.145  27.154  1.00  0.00    -0.203 F 
ATOM     80  F   UNL A   1      41.482  23.241  26.260  1.00  0.00    -0.200 F 
ATOM     81  C   UNL A   1      42.969  24.954  25.605  1.00  0.00     0.200 A 
ATOM     82  F   UNL A   1      44.451  26.690  25.001  1.00  0.00    -0.200 F 
ATOM     83  F   UNL A   1      43.376  24.221  24.558  1.00  0.00    -0.200 F 
ENDBRANCH  49  73
BRANCH  61  84
ATOM     84  C   UNL A   1      44.694  27.190  34.264  1.00  0.00     0.064 A 
ATOM     85  C   UNL A   1      44.575  25.974  34.956  1.00  0.00     0.173 A 
ATOM     86  C   UNL A   1      45.959  27.798  34.224  1.00  0.00     0.173 A 
ATOM     87  F   UNL A   1      43.387  25.357  35.037  1.00  0.00    -0.203 F 
ATOM     88  C   UNL A   1      45.668  25.411  35.609  1.00  0.00     0.198 A 
ATOM     89  C   UNL A   1      47.058  27.213  34.847  1.00  0.00     0.198 A 
ATOM     90  F   UNL A   1      46.133  28.956  33.571  1.00  0.00    -0.203 F 
ATOM     91  F   UNL A   1      45.515  24.282  36.314  1.00  0.00    -0.200 F 
ATOM     92  C   UNL A   1      46.910  26.027  35.548  1.00  0.00     0.200 A 
ATOM     93  F   UNL A   1      48.260  27.800  34.770  1.00  0.00    -0.200 F 
ATOM     94  F   UNL A   1      47.962  25.479  36.172  1.00  0.00    -0.200 F 
ENDBRANCH  61  84
ENDBRANCH  35  36
ENDBRANCH  27  30
ENDBRANCH  25  26
ENDBRANCH  24  25
ENDBRANCH  23  24
ENDBRANCH   3  23
TORSDOF 16
ENDMDL
