MODEL 1
REMARK VINA RESULT:     -12.9      0.000      0.000
REMARK SMILES Cn1cc(C(=O)NCCCNC(=O)c2ccc(-c3c4nc(c(-c5c(F)c(F)c(F)c(F)c5F)c5ccc([nH]5)c(-c5c(F)c(F)c(F)c(F)c5F)c5nc(c(-c6c(F)c(F)c(F)c(F)c6F)c6ccc3[nH]6)C=C5)C=C4)cc2)c(C(=O)Nc2ccc(-n3cncn3)cc2)n1
REMARK SMILES IDX 8 1 7 2 5 3 6 4 4 6 1 7 2 8 3 9 92 10 77 11 78 12 79 13
REMARK SMILES IDX 80 14 81 16 82 17 91 18 83 19 90 20 84 21 85 22 86 23 89 24
REMARK SMILES IDX 87 25 88 26 9 27 10 28 11 29 12 30 13 32 14 33 15 34 76 35
REMARK SMILES IDX 16 36 75 37 17 38 18 39 19 40 69 41 20 42 74 43 68 44 70 45
REMARK SMILES IDX 21 46 73 47 67 48 66 49 22 51 54 52 34 53 53 54 35 55 38 56
REMARK SMILES IDX 52 57 71 58 36 59 37 60 51 62 72 63 39 64 23 65 24 66 32 67
REMARK SMILES IDX 25 68 26 69 30 70 33 71 27 72 28 73 31 74 29 75 55 76 56 77
REMARK SMILES IDX 64 78 57 79 58 80 62 81 65 82 59 83 60 84 63 85 61 86 40 87
REMARK SMILES IDX 41 88 49 89 42 90 43 91 47 92 50 93 44 94 45 95 48 96 46 97
REMARK H PARENT 7 5 80 15 11 31 70 50 38 61
REMARK Flexibility Score: inf
ROOT
ATOM      1  C   UNL A   1      32.543  27.285  26.562  1.00  0.00     0.118 C 
ENDROOT
BRANCH   1   2
ATOM      2  N   UNL A   1      33.642  26.434  26.143  1.00  0.00    -0.352 N 
ATOM      3  C   UNL A   1      33.715  25.139  25.687  1.00  0.00     0.255 C 
ATOM      4  O   UNL A   1      34.793  24.789  25.214  1.00  0.00    -0.269 OA
ATOM      5  H   UNL A   1      34.519  26.878  26.198  1.00  0.00     0.163 HD
BRANCH   3   6
ATOM      6  C   UNL A   1      32.591  24.215  25.781  1.00  0.00     0.090 A 
ATOM      7  C   UNL A   1      29.677  22.595  27.178  1.00  0.00     0.173 C 
ATOM      8  N   UNL A   1      30.813  23.079  26.426  1.00  0.00    -0.274 N 
ATOM      9  C   UNL A   1      31.816  23.882  26.877  1.00  0.00     0.123 A 
ATOM     10  N   UNL A   1      30.908  22.787  25.126  1.00  0.00    -0.167 NA
ATOM     11  C   UNL A   1      31.948  23.525  24.684  1.00  0.00     0.163 A 
BRANCH  11  12
ATOM     12  C   UNL A   1      32.219  23.610  23.234  1.00  0.00     0.276 C 
ATOM     13  O   UNL A   1      32.971  22.808  22.673  1.00  0.00    -0.267 OA
ATOM     14  N   UNL A   1      31.574  24.530  22.434  1.00  0.00    -0.321 N 
ATOM     15  H   UNL A   1      31.602  24.316  21.473  1.00  0.00     0.170 HD
BRANCH  14  16
ATOM     16  C   UNL A   1      30.888  25.709  22.736  1.00  0.00     0.041 A 
ATOM     17  C   UNL A   1      31.376  26.888  22.166  1.00  0.00     0.028 A 
ATOM     18  C   UNL A   1      29.773  25.763  23.571  1.00  0.00     0.028 A 
ATOM     19  C   UNL A   1      30.698  28.094  22.338  1.00  0.00     0.030 A 
ATOM     20  C   UNL A   1      29.112  26.979  23.788  1.00  0.00     0.030 A 
ATOM     21  C   UNL A   1      29.551  28.142  23.138  1.00  0.00     0.067 A 
BRANCH  21  22
ATOM     22  N   UNL A   1      28.826  29.356  23.232  1.00  0.00    -0.221 N 
ATOM     23  C   UNL A   1      27.508  29.593  22.935  1.00  0.00     0.225 A 
ATOM     24  N   UNL A   1      29.420  30.527  23.576  1.00  0.00    -0.155 NA
ATOM     25  N   UNL A   1      27.243  30.878  23.000  1.00  0.00    -0.223 NA
ATOM     26  C   UNL A   1      28.436  31.409  23.394  1.00  0.00     0.246 A 
ENDBRANCH  21  22
ENDBRANCH  14  16
ENDBRANCH  11  12
ENDBRANCH   3   6
ENDBRANCH   1   2
BRANCH   1  27
ATOM     27  C   UNL A   1      32.087  28.333  25.546  1.00  0.00     0.042 C 
BRANCH  27  28
ATOM     28  C   UNL A   1      33.078  29.472  25.299  1.00  0.00     0.118 C 
BRANCH  28  29
ATOM     29  N   UNL A   1      32.650  30.746  25.852  1.00  0.00    -0.352 N 
ATOM     30  C   UNL A   1      33.114  31.524  26.881  1.00  0.00     0.251 C 
ATOM     31  H   UNL A   1      31.867  31.128  25.393  1.00  0.00     0.163 HD
ATOM     32  O   UNL A   1      32.435  32.492  27.224  1.00  0.00    -0.269 OA
BRANCH  30  33
ATOM     33  C   UNL A   1      34.377  31.250  27.610  1.00  0.00     0.039 A 
ATOM     34  C   UNL A   1      34.555  29.966  28.145  1.00  0.00     0.014 A 
ATOM     35  C   UNL A   1      35.320  32.238  27.896  1.00  0.00     0.014 A 
ATOM     36  C   UNL A   1      35.689  29.661  28.908  1.00  0.00     0.010 A 
ATOM     37  C   UNL A   1      36.473  31.927  28.629  1.00  0.00     0.010 A 
ATOM     38  C   UNL A   1      36.670  30.635  29.138  1.00  0.00    -0.014 A 
BRANCH  38  39
ATOM     39  C   UNL A   1      37.907  30.301  29.890  1.00  0.00     0.031 A 
ATOM     40  C   UNL A   1      38.956  29.402  29.299  1.00  0.00     0.074 A 
ATOM     41  C   UNL A   1      38.080  30.792  31.131  1.00  0.00     0.049 A 
ATOM     42  N   UNL A   1      40.048  28.934  29.853  1.00  0.00    -0.248 NA
ATOM     43  C   UNL A   1      38.753  28.970  27.909  1.00  0.00     0.031 C 
ATOM     44  C   UNL A   1      37.146  31.675  31.829  1.00  0.00     0.029 A 
ATOM     45  N   UNL A   1      39.105  30.612  32.029  1.00  0.00    -0.354 N 
ATOM     46  C   UNL A   1      40.647  28.132  28.891  1.00  0.00     0.074 A 
ATOM     47  C   UNL A   1      39.803  28.182  27.714  1.00  0.00     0.031 C 
ATOM     48  C   UNL A   1      37.642  31.968  33.042  1.00  0.00     0.029 A 
ATOM     49  C   UNL A   1      38.916  31.272  33.216  1.00  0.00     0.049 A 
ATOM     50  H   UNL A   1      39.899  30.063  31.837  1.00  0.00     0.167 HD
ATOM     51  C   UNL A   1      41.793  27.417  28.982  1.00  0.00     0.037 A 
ATOM     52  C   UNL A   1      39.672  31.303  34.328  1.00  0.00     0.037 A 
ATOM     53  C   UNL A   1      42.661  27.380  30.129  1.00  0.00     0.049 A 
ATOM     54  C   UNL A   1      40.947  30.516  34.396  1.00  0.00     0.074 A 
ATOM     55  C   UNL A   1      43.850  26.688  30.292  1.00  0.00     0.029 A 
ATOM     56  N   UNL A   1      42.437  28.072  31.308  1.00  0.00    -0.354 N 
ATOM     57  N   UNL A   1      41.486  29.744  33.488  1.00  0.00    -0.248 NA
ATOM     58  C   UNL A   1      41.710  30.599  35.651  1.00  0.00     0.031 C 
ATOM     59  C   UNL A   1      44.345  26.960  31.574  1.00  0.00     0.029 A 
ATOM     60  C   UNL A   1      43.464  27.823  32.203  1.00  0.00     0.049 A 
ATOM     61  H   UNL A   1      41.662  28.653  31.482  1.00  0.00     0.167 HD
ATOM     62  C   UNL A   1      42.646  29.243  34.058  1.00  0.00     0.074 A 
ATOM     63  C   UNL A   1      42.741  29.806  35.389  1.00  0.00     0.031 C 
ATOM     64  C   UNL A   1      43.546  28.385  33.524  1.00  0.00     0.037 A 
BRANCH  51  65
ATOM     65  C   UNL A   1      42.178  26.591  27.798  1.00  0.00     0.064 A 
ATOM     66  C   UNL A   1      43.095  27.064  26.851  1.00  0.00     0.173 A 
ATOM     67  C   UNL A   1      41.667  25.296  27.639  1.00  0.00     0.173 A 
ATOM     68  F   UNL A   1      43.603  28.300  26.963  1.00  0.00    -0.203 F 
ATOM     69  C   UNL A   1      43.486  26.265  25.779  1.00  0.00     0.198 A 
ATOM     70  C   UNL A   1      42.065  24.499  26.570  1.00  0.00     0.198 A 
ATOM     71  F   UNL A   1      40.788  24.804  28.524  1.00  0.00    -0.203 F 
ATOM     72  F   UNL A   1      44.358  26.736  24.878  1.00  0.00    -0.200 F 
ATOM     73  C   UNL A   1      42.974  24.983  25.641  1.00  0.00     0.200 A 
ATOM     74  F   UNL A   1      41.571  23.261  26.438  1.00  0.00    -0.200 F 
ATOM     75  F   UNL A   1      43.355  24.215  24.611  1.00  0.00    -0.200 F 
ENDBRANCH  51  65
BRANCH  52  76
ATOM     76  C   UNL A   1      39.223  32.105  35.487  1.00  0.00     0.064 A 
ATOM     77  C   UNL A   1      38.436  31.532  36.494  1.00  0.00     0.173 A 
ATOM     78  C   UNL A   1      39.589  33.449  35.618  1.00  0.00     0.173 A 
ATOM     79  F   UNL A   1      38.052  30.252  36.394  1.00  0.00    -0.203 F 
ATOM     80  C   UNL A   1      38.032  32.280  37.596  1.00  0.00     0.198 A 
ATOM     81  C   UNL A   1      39.189  34.193  36.726  1.00  0.00     0.198 A 
ATOM     82  F   UNL A   1      40.340  34.034  34.674  1.00  0.00    -0.203 F 
ATOM     83  F   UNL A   1      37.271  31.716  38.543  1.00  0.00    -0.200 F 
ATOM     84  C   UNL A   1      38.411  33.609  37.714  1.00  0.00     0.200 A 
ATOM     85  F   UNL A   1      39.560  35.475  36.837  1.00  0.00    -0.200 F 
ATOM     86  F   UNL A   1      38.025  34.327  38.778  1.00  0.00    -0.200 F 
ENDBRANCH  52  76
BRANCH  64  87
ATOM     87  C   UNL A   1      44.706  27.998  34.382  1.00  0.00     0.064 A 
ATOM     88  C   UNL A   1      45.880  28.762  34.390  1.00  0.00     0.173 A 
ATOM     89  C   UNL A   1      44.638  26.876  35.218  1.00  0.00     0.173 A 
ATOM     90  F   UNL A   1      45.992  29.836  33.593  1.00  0.00    -0.203 F 
ATOM     91  C   UNL A   1      46.952  28.412  35.206  1.00  0.00     0.198 A 
ATOM     92  C   UNL A   1      45.711  26.532  36.036  1.00  0.00     0.198 A 
ATOM     93  F   UNL A   1      43.535  26.113  35.234  1.00  0.00    -0.203 F 
ATOM     94  F   UNL A   1      48.073  29.146  35.189  1.00  0.00    -0.200 F 
ATOM     95  C   UNL A   1      46.867  27.299  36.029  1.00  0.00     0.200 A 
ATOM     96  F   UNL A   1      45.631  25.452  36.825  1.00  0.00    -0.200 F 
ATOM     97  F   UNL A   1      47.902  26.960  36.809  1.00  0.00    -0.200 F 
ENDBRANCH  64  87
ENDBRANCH  38  39
ENDBRANCH  30  33
ENDBRANCH  28  29
ENDBRANCH  27  28
ENDBRANCH   1  27
TORSDOF 13
ENDMDL
MODEL 2
REMARK VINA RESULT:     -12.9      3.407      6.297
REMARK SMILES Cn1cc(C(=O)NCCCNC(=O)c2ccc(-c3c4nc(c(-c5c(F)c(F)c(F)c(F)c5F)c5ccc([nH]5)c(-c5c(F)c(F)c(F)c(F)c5F)c5nc(c(-c6c(F)c(F)c(F)c(F)c6F)c6ccc3[nH]6)C=C5)C=C4)cc2)c(C(=O)Nc2ccc(-n3cncn3)cc2)n1
REMARK SMILES IDX 8 1 7 2 5 3 6 4 4 6 1 7 2 8 3 9 92 10 77 11 78 12 79 13
REMARK SMILES IDX 80 14 81 16 82 17 91 18 83 19 90 20 84 21 85 22 86 23 89 24
REMARK SMILES IDX 87 25 88 26 9 27 10 28 11 29 12 30 13 32 14 33 15 34 76 35
REMARK SMILES IDX 16 36 75 37 17 38 18 39 19 40 69 41 20 42 74 43 68 44 70 45
REMARK SMILES IDX 21 46 73 47 67 48 66 49 22 51 54 52 34 53 53 54 35 55 38 56
REMARK SMILES IDX 52 57 71 58 36 59 37 60 51 62 72 63 39 64 23 65 24 66 32 67
REMARK SMILES IDX 25 68 26 69 30 70 33 71 27 72 28 73 31 74 29 75 55 76 56 77
REMARK SMILES IDX 64 78 57 79 58 80 62 81 65 82 59 83 60 84 63 85 61 86 40 87
REMARK SMILES IDX 41 88 49 89 42 90 43 91 47 92 50 93 44 94 45 95 48 96 46 97
REMARK H PARENT 7 5 80 15 11 31 70 50 38 61
REMARK Flexibility Score: inf
ROOT
ATOM      1  C   UNL A   1      34.210  23.510  24.762  1.00  0.00     0.118 C 
ENDROOT
BRANCH   1   2
ATOM      2  N   UNL A   1      34.059  24.588  23.802  1.00  0.00    -0.352 N 
ATOM      3  C   UNL A   1      33.527  25.854  23.877  1.00  0.00     0.255 C 
ATOM      4  O   UNL A   1      33.750  26.596  22.923  1.00  0.00    -0.269 OA
ATOM      5  H   UNL A   1      34.411  24.366  22.910  1.00  0.00     0.163 HD
BRANCH   3   6
ATOM      6  C   UNL A   1      32.716  26.293  25.007  1.00  0.00     0.090 A 
ATOM      7  C   UNL A   1      31.676  28.316  27.816  1.00  0.00     0.173 C 
ATOM      8  N   UNL A   1      31.888  27.364  26.749  1.00  0.00    -0.274 N 
ATOM      9  C   UNL A   1      33.018  27.198  26.007  1.00  0.00     0.123 A 
ATOM     10  N   UNL A   1      30.880  26.575  26.367  1.00  0.00    -0.167 NA
ATOM     11  C   UNL A   1      31.332  25.956  25.256  1.00  0.00     0.163 A 
BRANCH  11  12
ATOM     12  C   UNL A   1      30.399  25.152  24.438  1.00  0.00     0.276 C 
ATOM     13  O   UNL A   1      30.504  23.925  24.364  1.00  0.00    -0.267 OA
ATOM     14  N   UNL A   1      29.321  25.729  23.801  1.00  0.00    -0.321 N 
ATOM     15  H   UNL A   1      28.621  25.089  23.537  1.00  0.00     0.170 HD
BRANCH  14  16
ATOM     16  C   UNL A   1      29.040  27.055  23.459  1.00  0.00     0.041 A 
ATOM     17  C   UNL A   1      30.112  27.834  23.018  1.00  0.00     0.028 A 
ATOM     18  C   UNL A   1      27.771  27.624  23.549  1.00  0.00     0.028 A 
ATOM     19  C   UNL A   1      29.905  29.137  22.568  1.00  0.00     0.030 A 
ATOM     20  C   UNL A   1      27.561  28.948  23.144  1.00  0.00     0.030 A 
ATOM     21  C   UNL A   1      28.623  29.696  22.614  1.00  0.00     0.067 A 
BRANCH  21  22
ATOM     22  N   UNL A   1      28.415  30.990  22.073  1.00  0.00    -0.221 N 
ATOM     23  C   UNL A   1      28.403  32.199  22.722  1.00  0.00     0.225 A 
ATOM     24  N   UNL A   1      28.100  31.185  20.767  1.00  0.00    -0.155 NA
ATOM     25  N   UNL A   1      28.021  33.156  21.908  1.00  0.00    -0.223 NA
ATOM     26  C   UNL A   1      27.849  32.494  20.728  1.00  0.00     0.246 A 
ENDBRANCH  21  22
ENDBRANCH  14  16
ENDBRANCH  11  12
ENDBRANCH   3   6
ENDBRANCH   1   2
BRANCH   1  27
ATOM     27  C   UNL A   1      35.382  23.645  25.735  1.00  0.00     0.042 C 
BRANCH  27  28
ATOM     28  C   UNL A   1      36.747  23.870  25.081  1.00  0.00     0.118 C 
BRANCH  28  29
ATOM     29  N   UNL A   1      37.751  22.897  25.478  1.00  0.00    -0.352 N 
ATOM     30  C   UNL A   1      38.945  23.002  26.143  1.00  0.00     0.251 C 
ATOM     31  H   UNL A   1      37.527  21.975  25.216  1.00  0.00     0.163 HD
ATOM     32  O   UNL A   1      39.667  22.006  26.193  1.00  0.00    -0.269 OA
BRANCH  30  33
ATOM     33  C   UNL A   1      39.418  24.253  26.786  1.00  0.00     0.039 A 
ATOM     34  C   UNL A   1      39.047  24.482  28.118  1.00  0.00     0.014 A 
ATOM     35  C   UNL A   1      40.092  25.258  26.090  1.00  0.00     0.014 A 
ATOM     36  C   UNL A   1      39.395  25.674  28.762  1.00  0.00     0.010 A 
ATOM     37  C   UNL A   1      40.474  26.438  26.742  1.00  0.00     0.010 A 
ATOM     38  C   UNL A   1      40.132  26.655  28.086  1.00  0.00    -0.014 A 
BRANCH  38  39
ATOM     39  C   UNL A   1      40.562  27.896  28.782  1.00  0.00     0.031 A 
ATOM     40  C   UNL A   1      41.974  28.062  29.270  1.00  0.00     0.074 A 
ATOM     41  C   UNL A   1      39.667  28.876  29.002  1.00  0.00     0.049 A 
ATOM     42  N   UNL A   1      42.493  29.036  29.976  1.00  0.00    -0.248 NA
ATOM     43  C   UNL A   1      42.925  26.997  28.922  1.00  0.00     0.031 C 
ATOM     44  C   UNL A   1      38.265  28.850  28.585  1.00  0.00     0.029 A 
ATOM     45  N   UNL A   1      39.805  30.086  29.637  1.00  0.00    -0.354 N 
ATOM     46  C   UNL A   1      43.821  28.690  30.181  1.00  0.00     0.074 A 
ATOM     47  C   UNL A   1      44.034  27.419  29.517  1.00  0.00     0.031 C 
ATOM     48  C   UNL A   1      37.673  29.993  28.966  1.00  0.00     0.029 A 
ATOM     49  C   UNL A   1      38.647  30.820  29.677  1.00  0.00     0.049 A 
ATOM     50  H   UNL A   1      40.654  30.398  30.024  1.00  0.00     0.167 HD
ATOM     51  C   UNL A   1      44.774  29.368  30.863  1.00  0.00     0.037 A 
ATOM     52  C   UNL A   1      38.389  32.016  30.236  1.00  0.00     0.037 A 
ATOM     53  C   UNL A   1      44.592  30.644  31.501  1.00  0.00     0.049 A 
ATOM     54  C   UNL A   1      39.469  32.754  30.970  1.00  0.00     0.074 A 
ATOM     55  C   UNL A   1      45.517  31.402  32.200  1.00  0.00     0.029 A 
ATOM     56  N   UNL A   1      43.405  31.357  31.508  1.00  0.00    -0.354 N 
ATOM     57  N   UNL A   1      40.712  32.402  31.176  1.00  0.00    -0.248 NA
ATOM     58  C   UNL A   1      39.102  34.052  31.558  1.00  0.00     0.031 C 
ATOM     59  C   UNL A   1      44.886  32.575  32.635  1.00  0.00     0.029 A 
ATOM     60  C   UNL A   1      43.572  32.545  32.201  1.00  0.00     0.049 A 
ATOM     61  H   UNL A   1      42.567  31.062  31.084  1.00  0.00     0.167 HD
ATOM     62  C   UNL A   1      41.276  33.426  31.921  1.00  0.00     0.074 A 
ATOM     63  C   UNL A   1      40.244  34.421  32.124  1.00  0.00     0.031 C 
ATOM     64  C   UNL A   1      42.538  33.524  32.399  1.00  0.00     0.037 A 
BRANCH  51  65
ATOM     65  C   UNL A   1      46.121  28.728  30.970  1.00  0.00     0.064 A 
ATOM     66  C   UNL A   1      47.130  29.002  30.039  1.00  0.00     0.173 A 
ATOM     67  C   UNL A   1      46.419  27.878  32.043  1.00  0.00     0.173 A 
ATOM     68  F   UNL A   1      46.884  29.806  28.994  1.00  0.00    -0.203 F 
ATOM     69  C   UNL A   1      48.398  28.441  30.178  1.00  0.00     0.198 A 
ATOM     70  C   UNL A   1      47.689  27.324  32.181  1.00  0.00     0.198 A 
ATOM     71  F   UNL A   1      45.482  27.591  32.958  1.00  0.00    -0.203 F 
ATOM     72  F   UNL A   1      49.350  28.708  29.274  1.00  0.00    -0.200 F 
ATOM     73  C   UNL A   1      48.677  27.606  31.250  1.00  0.00     0.200 A 
ATOM     74  F   UNL A   1      47.958  26.518  33.218  1.00  0.00    -0.200 F 
ATOM     75  F   UNL A   1      49.898  27.070  31.383  1.00  0.00    -0.200 F 
ENDBRANCH  51  65
BRANCH  52  76
ATOM     76  C   UNL A   1      37.028  32.584  30.135  1.00  0.00     0.064 A 
ATOM     77  C   UNL A   1      36.095  32.398  31.163  1.00  0.00     0.173 A 
ATOM     78  C   UNL A   1      36.642  33.339  29.021  1.00  0.00     0.173 A 
ATOM     79  F   UNL A   1      36.422  31.668  32.237  1.00  0.00    -0.203 F 
ATOM     80  C   UNL A   1      34.820  32.952  31.079  1.00  0.00     0.198 A 
ATOM     81  C   UNL A   1      35.369  33.898  28.943  1.00  0.00     0.198 A 
ATOM     82  F   UNL A   1      37.506  33.537  28.015  1.00  0.00    -0.203 F 
ATOM     83  F   UNL A   1      33.939  32.754  32.068  1.00  0.00    -0.200 F 
ATOM     84  C   UNL A   1      34.459  33.704  29.971  1.00  0.00     0.200 A 
ATOM     85  F   UNL A   1      35.024  34.625  27.873  1.00  0.00    -0.200 F 
ATOM     86  F   UNL A   1      33.233  34.241  29.893  1.00  0.00    -0.200 F 
ENDBRANCH  52  76
BRANCH  64  87
ATOM     87  C   UNL A   1      42.869  34.745  33.194  1.00  0.00     0.064 A 
ATOM     88  C   UNL A   1      43.306  35.916  32.562  1.00  0.00     0.173 A 
ATOM     89  C   UNL A   1      42.726  34.755  34.587  1.00  0.00     0.173 A 
ATOM     90  F   UNL A   1      43.470  35.945  31.231  1.00  0.00    -0.203 F 
ATOM     91  C   UNL A   1      43.594  37.060  33.302  1.00  0.00     0.198 A 
ATOM     92  C   UNL A   1      43.011  35.902  35.324  1.00  0.00     0.198 A 
ATOM     93  F   UNL A   1      42.319  33.652  35.232  1.00  0.00    -0.203 F 
ATOM     94  F   UNL A   1      44.025  38.167  32.683  1.00  0.00    -0.200 F 
ATOM     95  C   UNL A   1      43.444  37.053  34.682  1.00  0.00     0.200 A 
ATOM     96  F   UNL A   1      42.874  35.892  36.657  1.00  0.00    -0.200 F 
ATOM     97  F   UNL A   1      43.728  38.152  35.393  1.00  0.00    -0.200 F 
ENDBRANCH  64  87
ENDBRANCH  38  39
ENDBRANCH  30  33
ENDBRANCH  28  29
ENDBRANCH  27  28
ENDBRANCH   1  27
TORSDOF 13
ENDMDL
MODEL 3
REMARK VINA RESULT:     -12.9      2.041      4.131
REMARK SMILES Cn1cc(C(=O)NCCCNC(=O)c2ccc(-c3c4nc(c(-c5c(F)c(F)c(F)c(F)c5F)c5ccc([nH]5)c(-c5c(F)c(F)c(F)c(F)c5F)c5nc(c(-c6c(F)c(F)c(F)c(F)c6F)c6ccc3[nH]6)C=C5)C=C4)cc2)c(C(=O)Nc2ccc(-n3cncn3)cc2)n1
REMARK SMILES IDX 8 1 7 2 5 3 6 4 4 6 1 7 2 8 3 9 92 10 77 11 78 12 79 13
REMARK SMILES IDX 80 14 81 16 82 17 91 18 83 19 90 20 84 21 85 22 86 23 89 24
REMARK SMILES IDX 87 25 88 26 9 27 10 28 11 29 12 30 13 32 14 33 15 34 76 35
REMARK SMILES IDX 16 36 75 37 17 38 18 39 19 40 69 41 20 42 74 43 68 44 70 45
REMARK SMILES IDX 21 46 73 47 67 48 66 49 22 51 54 52 34 53 53 54 35 55 38 56
REMARK SMILES IDX 52 57 71 58 36 59 37 60 51 62 72 63 39 64 23 65 24 66 32 67
REMARK SMILES IDX 25 68 26 69 30 70 33 71 27 72 28 73 31 74 29 75 55 76 56 77
REMARK SMILES IDX 64 78 57 79 58 80 62 81 65 82 59 83 60 84 63 85 61 86 40 87
REMARK SMILES IDX 41 88 49 89 42 90 43 91 47 92 50 93 44 94 45 95 48 96 46 97
REMARK H PARENT 7 5 80 15 11 31 70 50 38 61
REMARK Flexibility Score: inf
ROOT
ATOM      1  C   UNL A   1      31.360  27.160  25.591  1.00  0.00     0.118 C 
ENDROOT
BRANCH   1   2
ATOM      2  N   UNL A   1      31.135  25.892  26.261  1.00  0.00    -0.352 N 
ATOM      3  C   UNL A   1      31.903  24.765  26.436  1.00  0.00     0.255 C 
ATOM      4  O   UNL A   1      31.483  23.941  27.244  1.00  0.00    -0.269 OA
ATOM      5  H   UNL A   1      30.245  25.825  26.676  1.00  0.00     0.163 HD
BRANCH   3   6
ATOM      6  C   UNL A   1      33.133  24.537  25.688  1.00  0.00     0.090 A 
ATOM      7  C   UNL A   1      36.597  23.696  25.086  1.00  0.00     0.173 C 
ATOM      8  N   UNL A   1      35.202  24.074  25.075  1.00  0.00    -0.274 N 
ATOM      9  C   UNL A   1      34.431  24.404  26.147  1.00  0.00     0.123 A 
ATOM     10  N   UNL A   1      34.529  24.057  23.921  1.00  0.00    -0.167 NA
ATOM     11  C   UNL A   1      33.243  24.267  24.271  1.00  0.00     0.163 A 
BRANCH  11  12
ATOM     12  C   UNL A   1      32.176  24.109  23.260  1.00  0.00     0.276 C 
ATOM     13  O   UNL A   1      31.620  25.089  22.756  1.00  0.00    -0.267 OA
ATOM     14  N   UNL A   1      31.824  22.868  22.774  1.00  0.00    -0.321 N 
ATOM     15  H   UNL A   1      31.330  22.895  21.923  1.00  0.00     0.170 HD
BRANCH  14  16
ATOM     16  C   UNL A   1      32.038  21.578  23.268  1.00  0.00     0.041 A 
ATOM     17  C   UNL A   1      32.045  20.538  22.335  1.00  0.00     0.028 A 
ATOM     18  C   UNL A   1      32.227  21.289  24.618  1.00  0.00     0.028 A 
ATOM     19  C   UNL A   1      32.345  19.235  22.727  1.00  0.00     0.030 A 
ATOM     20  C   UNL A   1      32.483  19.974  25.028  1.00  0.00     0.030 A 
ATOM     21  C   UNL A   1      32.582  18.948  24.076  1.00  0.00     0.067 A 
BRANCH  21  22
ATOM     22  N   UNL A   1      32.970  17.636  24.445  1.00  0.00    -0.221 N 
ATOM     23  C   UNL A   1      33.745  16.743  23.749  1.00  0.00     0.225 A 
ATOM     24  N   UNL A   1      32.518  17.040  25.577  1.00  0.00    -0.155 NA
ATOM     25  N   UNL A   1      33.751  15.573  24.345  1.00  0.00    -0.223 NA
ATOM     26  C   UNL A   1      32.992  15.800  25.455  1.00  0.00     0.246 A 
ENDBRANCH  21  22
ENDBRANCH  14  16
ENDBRANCH  11  12
ENDBRANCH   3   6
ENDBRANCH   1   2
BRANCH   1  27
ATOM     27  C   UNL A   1      32.025  28.250  26.434  1.00  0.00     0.042 C 
BRANCH  27  28
ATOM     28  C   UNL A   1      32.804  29.301  25.641  1.00  0.00     0.118 C 
BRANCH  28  29
ATOM     29  N   UNL A   1      32.500  30.667  26.030  1.00  0.00    -0.352 N 
ATOM     30  C   UNL A   1      33.065  31.532  26.931  1.00  0.00     0.251 C 
ATOM     31  H   UNL A   1      31.732  31.049  25.548  1.00  0.00     0.163 HD
ATOM     32  O   UNL A   1      32.479  32.590  27.161  1.00  0.00    -0.269 OA
BRANCH  30  33
ATOM     33  C   UNL A   1      34.331  31.251  27.653  1.00  0.00     0.039 A 
ATOM     34  C   UNL A   1      34.487  29.981  28.227  1.00  0.00     0.014 A 
ATOM     35  C   UNL A   1      35.301  32.226  27.895  1.00  0.00     0.014 A 
ATOM     36  C   UNL A   1      35.623  29.674  28.984  1.00  0.00     0.010 A 
ATOM     37  C   UNL A   1      36.456  31.911  28.622  1.00  0.00     0.010 A 
ATOM     38  C   UNL A   1      36.630  30.631  29.170  1.00  0.00    -0.014 A 
BRANCH  38  39
ATOM     39  C   UNL A   1      37.869  30.292  29.917  1.00  0.00     0.031 A 
ATOM     40  C   UNL A   1      38.911  29.388  29.322  1.00  0.00     0.074 A 
ATOM     41  C   UNL A   1      38.050  30.784  31.157  1.00  0.00     0.049 A 
ATOM     42  N   UNL A   1      40.003  28.915  29.870  1.00  0.00    -0.248 NA
ATOM     43  C   UNL A   1      38.699  28.956  27.933  1.00  0.00     0.031 C 
ATOM     44  C   UNL A   1      37.123  31.672  31.858  1.00  0.00     0.029 A 
ATOM     45  N   UNL A   1      39.078  30.600  32.049  1.00  0.00    -0.354 N 
ATOM     46  C   UNL A   1      40.594  28.110  28.907  1.00  0.00     0.074 A 
ATOM     47  C   UNL A   1      39.744  28.163  27.734  1.00  0.00     0.031 C 
ATOM     48  C   UNL A   1      37.626  31.963  33.068  1.00  0.00     0.029 A 
ATOM     49  C   UNL A   1      38.897  31.261  33.237  1.00  0.00     0.049 A 
ATOM     50  H   UNL A   1      39.868  30.047  31.855  1.00  0.00     0.167 HD
ATOM     51  C   UNL A   1      41.737  27.390  28.993  1.00  0.00     0.037 A 
ATOM     52  C   UNL A   1      39.659  31.290  34.346  1.00  0.00     0.037 A 
ATOM     53  C   UNL A   1      42.610  27.350  30.136  1.00  0.00     0.049 A 
ATOM     54  C   UNL A   1      40.931  30.498  34.408  1.00  0.00     0.074 A 
ATOM     55  C   UNL A   1      43.797  26.653  30.294  1.00  0.00     0.029 A 
ATOM     56  N   UNL A   1      42.395  28.044  31.315  1.00  0.00    -0.354 N 
ATOM     57  N   UNL A   1      41.462  29.722  33.498  1.00  0.00    -0.248 NA
ATOM     58  C   UNL A   1      41.700  30.578  35.660  1.00  0.00     0.031 C 
ATOM     59  C   UNL A   1      44.299  26.924  31.574  1.00  0.00     0.029 A 
ATOM     60  C   UNL A   1      43.425  27.791  32.206  1.00  0.00     0.049 A 
ATOM     61  H   UNL A   1      41.624  28.629  31.493  1.00  0.00     0.167 HD
ATOM     62  C   UNL A   1      42.622  29.216  34.064  1.00  0.00     0.074 A 
ATOM     63  C   UNL A   1      42.727  29.780  35.394  1.00  0.00     0.031 C 
ATOM     64  C   UNL A   1      43.516  28.354  33.526  1.00  0.00     0.037 A 
BRANCH  51  65
ATOM     65  C   UNL A   1      42.113  26.561  27.808  1.00  0.00     0.064 A 
ATOM     66  C   UNL A   1      43.023  27.031  26.853  1.00  0.00     0.173 A 
ATOM     67  C   UNL A   1      41.600  25.266  27.656  1.00  0.00     0.173 A 
ATOM     68  F   UNL A   1      43.532  28.268  26.958  1.00  0.00    -0.203 F 
ATOM     69  C   UNL A   1      43.405  26.230  25.780  1.00  0.00     0.198 A 
ATOM     70  C   UNL A   1      41.990  24.467  26.585  1.00  0.00     0.198 A 
ATOM     71  F   UNL A   1      40.728  24.776  28.549  1.00  0.00    -0.203 F 
ATOM     72  F   UNL A   1      44.271  26.699  24.871  1.00  0.00    -0.200 F 
ATOM     73  C   UNL A   1      42.892  24.948  25.648  1.00  0.00     0.200 A 
ATOM     74  F   UNL A   1      41.494  23.228  26.459  1.00  0.00    -0.200 F 
ATOM     75  F   UNL A   1      43.265  24.178  24.617  1.00  0.00    -0.200 F 
ENDBRANCH  51  65
BRANCH  52  76
ATOM     76  C   UNL A   1      39.219  32.095  35.506  1.00  0.00     0.064 A 
ATOM     77  C   UNL A   1      38.443  31.523  36.522  1.00  0.00     0.173 A 
ATOM     78  C   UNL A   1      39.583  33.440  35.629  1.00  0.00     0.173 A 
ATOM     79  F   UNL A   1      38.062  30.242  36.431  1.00  0.00    -0.203 F 
ATOM     80  C   UNL A   1      38.048  32.275  37.626  1.00  0.00     0.198 A 
ATOM     81  C   UNL A   1      39.192  34.187  36.738  1.00  0.00     0.198 A 
ATOM     82  F   UNL A   1      40.323  34.024  34.676  1.00  0.00    -0.203 F 
ATOM     83  F   UNL A   1      37.297  31.712  38.582  1.00  0.00    -0.200 F 
ATOM     84  C   UNL A   1      38.425  33.605  37.735  1.00  0.00     0.200 A 
ATOM     85  F   UNL A   1      39.560  35.471  36.841  1.00  0.00    -0.200 F 
ATOM     86  F   UNL A   1      38.047  34.326  38.800  1.00  0.00    -0.200 F 
ENDBRANCH  52  76
BRANCH  64  87
ATOM     87  C   UNL A   1      44.679  27.962  34.379  1.00  0.00     0.064 A 
ATOM     88  C   UNL A   1      45.858  28.717  34.375  1.00  0.00     0.173 A 
ATOM     89  C   UNL A   1      44.606  26.845  35.221  1.00  0.00     0.173 A 
ATOM     90  F   UNL A   1      45.973  29.786  33.573  1.00  0.00    -0.203 F 
ATOM     91  C   UNL A   1      46.933  28.363  35.187  1.00  0.00     0.198 A 
ATOM     92  C   UNL A   1      45.682  26.497  36.034  1.00  0.00     0.198 A 
ATOM     93  F   UNL A   1      43.498  26.090  35.248  1.00  0.00    -0.203 F 
ATOM     94  F   UNL A   1      48.059  29.088  35.159  1.00  0.00    -0.200 F 
ATOM     95  C   UNL A   1      46.844  27.255  36.017  1.00  0.00     0.200 A 
ATOM     96  F   UNL A   1      45.598  25.422  36.830  1.00  0.00    -0.200 F 
ATOM     97  F   UNL A   1      47.881  26.912  36.792  1.00  0.00    -0.200 F 
ENDBRANCH  64  87
ENDBRANCH  38  39
ENDBRANCH  30  33
ENDBRANCH  28  29
ENDBRANCH  27  28
ENDBRANCH   1  27
TORSDOF 13
ENDMDL
