MODEL 1
REMARK VINA RESULT:     -13.0      0.000      0.000
REMARK SMILES CCc1ccc(C(=O)NCCCNC(=O)c2ccc(-c3c4nc(c(-c5c(F)c(F)c(F)c(F)c5F)c5ccc([nH]5)c(-c5c(F)c(F)c(F)c(F)c5F)c5nc(c(-c6c(F)c(F)c(F)c(F)c6F)c6ccc3[nH]6)C=C5)C=C4)cc2)cc1S(=O)(=O)Nc1ccc(F)c(F)c1F
REMARK SMILES IDX 10 1 9 2 7 3 8 4 6 6 3 7 4 8 80 9 5 10 79 11 2 12 1 13 81 14
REMARK SMILES IDX 82 15 83 16 84 17 85 19 86 20 92 21 87 22 90 23 93 24 88 25
REMARK SMILES IDX 91 26 89 27 11 28 12 29 13 30 14 31 15 33 16 34 17 35 78 36
REMARK SMILES IDX 18 37 77 38 19 39 20 40 21 41 71 42 22 43 76 44 70 45 72 46
REMARK SMILES IDX 23 47 75 48 69 49 68 50 24 52 56 53 36 54 55 55 37 56 40 57
REMARK SMILES IDX 54 58 73 59 38 60 39 61 53 63 74 64 41 65 25 66 26 67 34 68
REMARK SMILES IDX 27 69 28 70 32 71 35 72 29 73 30 74 33 75 31 76 57 77 58 78
REMARK SMILES IDX 66 79 59 80 60 81 64 82 67 83 61 84 62 85 65 86 63 87 42 88
REMARK SMILES IDX 43 89 51 90 44 91 45 92 49 93 52 94 46 95 47 96 50 97 48 98
REMARK H PARENT 9 5 84 18 13 32 72 51 40 62
REMARK Flexibility Score: inf
ROOT
ATOM      1  C   UNL A   1      31.623  30.781  26.455  1.00  0.00     0.118 C 
ENDROOT
BRANCH   1   2
ATOM      2  N   UNL A   1      32.924  30.355  26.947  1.00  0.00    -0.352 N 
ATOM      3  C   UNL A   1      33.633  29.197  26.770  1.00  0.00     0.251 C 
ATOM      4  O   UNL A   1      34.690  29.051  27.381  1.00  0.00    -0.269 OA
ATOM      5  H   UNL A   1      33.378  31.023  27.510  1.00  0.00     0.163 HD
BRANCH   3   6
ATOM      6  C   UNL A   1      33.235  28.203  25.748  1.00  0.00     0.041 A 
ATOM      7  C   UNL A   1      32.260  26.811  23.484  1.00  0.00    -0.028 A 
ATOM      8  C   UNL A   1      33.462  27.555  23.445  1.00  0.00     0.006 A 
ATOM      9  C   UNL A   1      31.648  26.634  24.746  1.00  0.00     0.091 A 
ATOM     10  C   UNL A   1      33.942  28.242  24.555  1.00  0.00     0.014 A 
ATOM     11  C   UNL A   1      32.163  27.324  25.872  1.00  0.00     0.036 A 
BRANCH   7  12
ATOM     12  C   UNL A   1      31.661  26.476  22.137  1.00  0.00     0.033 C 
ATOM     13  C   UNL A   1      32.587  25.763  21.148  1.00  0.00     0.009 C 
ENDBRANCH   7  12
BRANCH   9  14
ATOM     14  S   UNL A   1      30.168  25.704  25.161  1.00  0.00     0.262 S 
ATOM     15  O   UNL A   1      30.006  25.740  26.591  1.00  0.00    -0.201 OA
ATOM     16  O   UNL A   1      29.132  26.268  24.305  1.00  0.00    -0.201 OA
BRANCH  14  17
ATOM     17  N   UNL A   1      30.265  24.118  24.682  1.00  0.00    -0.277 N 
ATOM     18  H   UNL A   1      29.424  23.700  24.387  1.00  0.00     0.180 HD
BRANCH  17  19
ATOM     19  C   UNL A   1      31.424  23.290  24.649  1.00  0.00     0.088 A 
ATOM     20  C   UNL A   1      31.885  22.974  23.356  1.00  0.00     0.033 A 
ATOM     21  C   UNL A   1      32.217  22.955  25.751  1.00  0.00     0.185 A 
ATOM     22  C   UNL A   1      33.159  22.440  23.169  1.00  0.00     0.045 A 
ATOM     23  C   UNL A   1      33.478  22.399  25.560  1.00  0.00     0.196 A 
ATOM     24  F   UNL A   1      31.830  23.238  27.000  1.00  0.00    -0.201 F 
ATOM     25  C   UNL A   1      33.955  22.173  24.276  1.00  0.00     0.162 A 
ATOM     26  F   UNL A   1      34.263  22.144  26.617  1.00  0.00    -0.200 F 
ATOM     27  F   UNL A   1      35.204  21.728  24.087  1.00  0.00    -0.204 F 
ENDBRANCH  17  19
ENDBRANCH  14  17
ENDBRANCH   9  14
ENDBRANCH   3   6
ENDBRANCH   1   2
BRANCH   1  28
ATOM     28  C   UNL A   1      31.457  32.283  26.662  1.00  0.00     0.042 C 
BRANCH  28  29
ATOM     29  C   UNL A   1      32.737  32.954  27.157  1.00  0.00     0.118 C 
BRANCH  29  30
ATOM     30  N   UNL A   1      32.495  34.309  27.627  1.00  0.00    -0.352 N 
ATOM     31  C   UNL A   1      33.039  34.960  28.704  1.00  0.00     0.251 C 
ATOM     32  H   UNL A   1      31.852  34.832  27.098  1.00  0.00     0.163 HD
ATOM     33  O   UNL A   1      32.570  36.032  29.072  1.00  0.00    -0.269 OA
BRANCH  31  34
ATOM     34  C   UNL A   1      34.186  34.372  29.427  1.00  0.00     0.039 A 
ATOM     35  C   UNL A   1      35.470  34.544  28.901  1.00  0.00     0.014 A 
ATOM     36  C   UNL A   1      33.997  33.613  30.586  1.00  0.00     0.014 A 
ATOM     37  C   UNL A   1      36.567  33.973  29.550  1.00  0.00     0.010 A 
ATOM     38  C   UNL A   1      35.098  33.101  31.268  1.00  0.00     0.010 A 
ATOM     39  C   UNL A   1      36.390  33.258  30.745  1.00  0.00    -0.014 A 
BRANCH  39  40
ATOM     40  C   UNL A   1      37.539  32.619  31.432  1.00  0.00     0.031 A 
ATOM     41  C   UNL A   1      38.255  31.469  30.774  1.00  0.00     0.074 A 
ATOM     42  C   UNL A   1      37.906  33.034  32.658  1.00  0.00     0.049 A 
ATOM     43  N   UNL A   1      39.229  30.725  31.235  1.00  0.00    -0.248 NA
ATOM     44  C   UNL A   1      37.796  31.088  29.428  1.00  0.00     0.031 C 
ATOM     45  C   UNL A   1      37.262  34.111  33.414  1.00  0.00     0.029 A 
ATOM     46  N   UNL A   1      38.902  32.592  33.493  1.00  0.00    -0.354 N 
ATOM     47  C   UNL A   1      39.478  29.778  30.250  1.00  0.00     0.074 A 
ATOM     48  C   UNL A   1      38.527  30.010  29.185  1.00  0.00     0.031 C 
ATOM     49  C   UNL A   1      37.889  34.255  34.592  1.00  0.00     0.029 A 
ATOM     50  C   UNL A   1      38.954  33.262  34.691  1.00  0.00     0.049 A 
ATOM     51  H   UNL A   1      39.520  31.864  33.254  1.00  0.00     0.167 HD
ATOM     52  C   UNL A   1      40.429  28.814  30.228  1.00  0.00     0.037 A 
ATOM     53  C   UNL A   1      39.769  33.086  35.748  1.00  0.00     0.037 A 
ATOM     54  C   UNL A   1      41.400  28.615  31.270  1.00  0.00     0.049 A 
ATOM     55  C   UNL A   1      40.833  32.024  35.684  1.00  0.00     0.074 A 
ATOM     56  C   UNL A   1      42.443  27.707  31.318  1.00  0.00     0.029 A 
ATOM     57  N   UNL A   1      41.451  29.345  32.448  1.00  0.00    -0.354 N 
ATOM     58  N   UNL A   1      41.100  31.176  34.721  1.00  0.00    -0.248 NA
ATOM     59  C   UNL A   1      41.720  31.903  36.851  1.00  0.00     0.031 C 
ATOM     60  C   UNL A   1      43.103  27.862  32.540  1.00  0.00     0.029 A 
ATOM     61  C   UNL A   1      42.502  28.900  33.233  1.00  0.00     0.049 A 
ATOM     62  H   UNL A   1      40.832  30.072  32.691  1.00  0.00     0.167 HD
ATOM     63  C   UNL A   1      42.204  30.449  35.148  1.00  0.00     0.074 A 
ATOM     64  C   UNL A   1      42.563  30.963  36.452  1.00  0.00     0.031 C 
ATOM     65  C   UNL A   1      42.860  29.445  34.516  1.00  0.00     0.037 A 
BRANCH  52  66
ATOM     66  C   UNL A   1      40.476  27.904  29.035  1.00  0.00     0.064 A 
ATOM     67  C   UNL A   1      39.705  26.733  28.973  1.00  0.00     0.173 A 
ATOM     68  C   UNL A   1      41.261  28.233  27.919  1.00  0.00     0.173 A 
ATOM     69  F   UNL A   1      38.949  26.367  30.018  1.00  0.00    -0.203 F 
ATOM     70  C   UNL A   1      39.733  25.916  27.845  1.00  0.00     0.198 A 
ATOM     71  C   UNL A   1      41.264  27.430  26.782  1.00  0.00     0.198 A 
ATOM     72  F   UNL A   1      42.012  29.345  27.924  1.00  0.00    -0.203 F 
ATOM     73  F   UNL A   1      39.020  24.783  27.824  1.00  0.00    -0.200 F 
ATOM     74  C   UNL A   1      40.505  26.269  26.748  1.00  0.00     0.200 A 
ATOM     75  F   UNL A   1      41.999  27.778  25.717  1.00  0.00    -0.200 F 
ATOM     76  F   UNL A   1      40.520  25.488  25.659  1.00  0.00    -0.200 F 
ENDBRANCH  52  66
BRANCH  53  77
ATOM     77  C   UNL A   1      39.631  33.951  36.950  1.00  0.00     0.064 A 
ATOM     78  C   UNL A   1      38.857  33.542  38.046  1.00  0.00     0.173 A 
ATOM     79  C   UNL A   1      40.244  35.210  37.019  1.00  0.00     0.173 A 
ATOM     80  F   UNL A   1      38.234  32.354  38.019  1.00  0.00    -0.203 F 
ATOM     81  C   UNL A   1      38.678  34.370  39.151  1.00  0.00     0.198 A 
ATOM     82  C   UNL A   1      40.089  36.026  38.137  1.00  0.00     0.198 A 
ATOM     83  F   UNL A   1      40.999  35.646  35.999  1.00  0.00    -0.203 F 
ATOM     84  F   UNL A   1      37.888  33.978  40.159  1.00  0.00    -0.200 F 
ATOM     85  C   UNL A   1      39.297  35.610  39.197  1.00  0.00     0.200 A 
ATOM     86  F   UNL A   1      40.698  37.218  38.184  1.00  0.00    -0.200 F 
ATOM     87  F   UNL A   1      39.122  36.410  40.258  1.00  0.00    -0.200 F 
ENDBRANCH  53  77
BRANCH  65  88
ATOM     88  C   UNL A   1      44.070  28.878  35.199  1.00  0.00     0.064 A 
ATOM     89  C   UNL A   1      43.976  27.811  36.104  1.00  0.00     0.173 A 
ATOM     90  C   UNL A   1      45.345  29.386  34.909  1.00  0.00     0.173 A 
ATOM     91  F   UNL A   1      42.778  27.301  36.424  1.00  0.00    -0.203 F 
ATOM     92  C   UNL A   1      45.114  27.291  36.714  1.00  0.00     0.198 A 
ATOM     93  C   UNL A   1      46.483  28.843  35.498  1.00  0.00     0.198 A 
ATOM     94  F   UNL A   1      45.489  30.401  34.043  1.00  0.00    -0.203 F 
ATOM     95  F   UNL A   1      44.997  26.303  37.613  1.00  0.00    -0.200 F 
ATOM     96  C   UNL A   1      46.366  27.802  36.406  1.00  0.00     0.200 A 
ATOM     97  F   UNL A   1      47.694  29.330  35.188  1.00  0.00    -0.200 F 
ATOM     98  F   UNL A   1      47.461  27.295  36.990  1.00  0.00    -0.200 F 
ENDBRANCH  65  88
ENDBRANCH  39  40
ENDBRANCH  31  34
ENDBRANCH  29  30
ENDBRANCH  28  29
ENDBRANCH   1  28
TORSDOF 14
ENDMDL
MODEL 2
REMARK VINA RESULT:     -12.9      4.632      8.323
REMARK SMILES CCc1ccc(C(=O)NCCCNC(=O)c2ccc(-c3c4nc(c(-c5c(F)c(F)c(F)c(F)c5F)c5ccc([nH]5)c(-c5c(F)c(F)c(F)c(F)c5F)c5nc(c(-c6c(F)c(F)c(F)c(F)c6F)c6ccc3[nH]6)C=C5)C=C4)cc2)cc1S(=O)(=O)Nc1ccc(F)c(F)c1F
REMARK SMILES IDX 10 1 9 2 7 3 8 4 6 6 3 7 4 8 80 9 5 10 79 11 2 12 1 13 81 14
REMARK SMILES IDX 82 15 83 16 84 17 85 19 86 20 92 21 87 22 90 23 93 24 88 25
REMARK SMILES IDX 91 26 89 27 11 28 12 29 13 30 14 31 15 33 16 34 17 35 78 36
REMARK SMILES IDX 18 37 77 38 19 39 20 40 21 41 71 42 22 43 76 44 70 45 72 46
REMARK SMILES IDX 23 47 75 48 69 49 68 50 24 52 56 53 36 54 55 55 37 56 40 57
REMARK SMILES IDX 54 58 73 59 38 60 39 61 53 63 74 64 41 65 25 66 26 67 34 68
REMARK SMILES IDX 27 69 28 70 32 71 35 72 29 73 30 74 33 75 31 76 57 77 58 78
REMARK SMILES IDX 66 79 59 80 60 81 64 82 67 83 61 84 62 85 65 86 63 87 42 88
REMARK SMILES IDX 43 89 51 90 44 91 45 92 49 93 52 94 46 95 47 96 50 97 48 98
REMARK H PARENT 9 5 84 18 13 32 72 51 40 62
REMARK Flexibility Score: inf
ROOT
ATOM      1  C   UNL A   1      34.099  23.017  25.492  1.00  0.00     0.118 C 
ENDROOT
BRANCH   1   2
ATOM      2  N   UNL A   1      32.865  23.122  26.254  1.00  0.00    -0.352 N 
ATOM      3  C   UNL A   1      32.044  24.185  26.522  1.00  0.00     0.251 C 
ATOM      4  O   UNL A   1      31.092  24.021  27.281  1.00  0.00    -0.269 OA
ATOM      5  H   UNL A   1      32.563  22.272  26.648  1.00  0.00     0.163 HD
BRANCH   3   6
ATOM      6  C   UNL A   1      32.190  25.467  25.797  1.00  0.00     0.041 A 
ATOM      7  C   UNL A   1      32.301  28.171  24.965  1.00  0.00    -0.028 A 
ATOM      8  C   UNL A   1      33.309  27.593  25.772  1.00  0.00     0.006 A 
ATOM      9  C   UNL A   1      31.321  27.303  24.433  1.00  0.00     0.091 A 
ATOM     10  C   UNL A   1      33.256  26.266  26.184  1.00  0.00     0.014 A 
ATOM     11  C   UNL A   1      31.293  25.948  24.847  1.00  0.00     0.036 A 
BRANCH   7  12
ATOM     12  C   UNL A   1      32.274  29.683  24.945  1.00  0.00     0.033 C 
ATOM     13  C   UNL A   1      32.094  30.370  26.300  1.00  0.00     0.009 C 
ENDBRANCH   7  12
BRANCH   9  14
ATOM     14  S   UNL A   1      29.952  27.686  23.333  1.00  0.00     0.262 S 
ATOM     15  O   UNL A   1      30.478  27.828  22.001  1.00  0.00    -0.201 OA
ATOM     16  O   UNL A   1      28.963  26.652  23.610  1.00  0.00    -0.201 OA
BRANCH  14  17
ATOM     17  N   UNL A   1      29.185  29.097  23.750  1.00  0.00    -0.277 N 
ATOM     18  H   UNL A   1      28.809  29.137  24.659  1.00  0.00     0.180 HD
BRANCH  17  19
ATOM     19  C   UNL A   1      29.006  30.259  22.944  1.00  0.00     0.088 A 
ATOM     20  C   UNL A   1      28.449  30.015  21.674  1.00  0.00     0.033 A 
ATOM     21  C   UNL A   1      29.147  31.581  23.379  1.00  0.00     0.185 A 
ATOM     22  C   UNL A   1      27.940  31.065  20.910  1.00  0.00     0.045 A 
ATOM     23  C   UNL A   1      28.661  32.627  22.601  1.00  0.00     0.196 A 
ATOM     24  F   UNL A   1      29.665  31.868  24.579  1.00  0.00    -0.201 F 
ATOM     25  C   UNL A   1      28.035  32.365  21.390  1.00  0.00     0.162 A 
ATOM     26  F   UNL A   1      28.736  33.887  23.054  1.00  0.00    -0.200 F 
ATOM     27  F   UNL A   1      27.481  33.360  20.686  1.00  0.00    -0.204 F 
ENDBRANCH  17  19
ENDBRANCH  14  17
ENDBRANCH   9  14
ENDBRANCH   3   6
ENDBRANCH   1   2
BRANCH   1  28
ATOM     28  C   UNL A   1      35.296  23.050  26.438  1.00  0.00     0.042 C 
BRANCH  28  29
ATOM     29  C   UNL A   1      36.580  23.502  25.746  1.00  0.00     0.118 C 
BRANCH  29  30
ATOM     30  N   UNL A   1      37.665  22.552  25.935  1.00  0.00    -0.352 N 
ATOM     31  C   UNL A   1      38.951  22.781  26.350  1.00  0.00     0.251 C 
ATOM     32  H   UNL A   1      37.444  21.613  25.738  1.00  0.00     0.163 HD
ATOM     33  O   UNL A   1      39.791  21.891  26.258  1.00  0.00    -0.269 OA
BRANCH  31  34
ATOM     34  C   UNL A   1      39.332  24.097  26.902  1.00  0.00     0.039 A 
ATOM     35  C   UNL A   1      40.015  24.997  26.079  1.00  0.00     0.014 A 
ATOM     36  C   UNL A   1      39.068  24.426  28.235  1.00  0.00     0.014 A 
ATOM     37  C   UNL A   1      40.412  26.236  26.586  1.00  0.00     0.010 A 
ATOM     38  C   UNL A   1      39.405  25.686  28.719  1.00  0.00     0.010 A 
ATOM     39  C   UNL A   1      40.100  26.594  27.906  1.00  0.00    -0.014 A 
BRANCH  39  40
ATOM     40  C   UNL A   1      40.540  27.893  28.472  1.00  0.00     0.031 A 
ATOM     41  C   UNL A   1      41.988  28.097  28.829  1.00  0.00     0.074 A 
ATOM     42  C   UNL A   1      39.638  28.864  28.710  1.00  0.00     0.049 A 
ATOM     43  N   UNL A   1      42.564  29.124  29.403  1.00  0.00    -0.248 NA
ATOM     44  C   UNL A   1      42.907  26.989  28.525  1.00  0.00     0.031 C 
ATOM     45  C   UNL A   1      38.202  28.767  28.443  1.00  0.00     0.029 A 
ATOM     46  N   UNL A   1      39.794  30.120  29.241  1.00  0.00    -0.354 N 
ATOM     47  C   UNL A   1      43.900  28.773  29.550  1.00  0.00     0.074 A 
ATOM     48  C   UNL A   1      44.044  27.425  29.046  1.00  0.00     0.031 C 
ATOM     49  C   UNL A   1      37.611  29.919  28.799  1.00  0.00     0.029 A 
ATOM     50  C   UNL A   1      38.618  30.822  29.348  1.00  0.00     0.049 A 
ATOM     51  H   UNL A   1      40.666  30.482  29.519  1.00  0.00     0.167 HD
ATOM     52  C   UNL A   1      44.919  29.518  30.041  1.00  0.00     0.037 A 
ATOM     53  C   UNL A   1      38.385  32.053  29.840  1.00  0.00     0.037 A 
ATOM     54  C   UNL A   1      44.778  30.874  30.500  1.00  0.00     0.049 A 
ATOM     55  C   UNL A   1      39.541  32.868  30.355  1.00  0.00     0.074 A 
ATOM     56  C   UNL A   1      45.758  31.736  30.960  1.00  0.00     0.029 A 
ATOM     57  N   UNL A   1      43.579  31.568  30.549  1.00  0.00    -0.354 N 
ATOM     58  N   UNL A   1      40.810  32.549  30.430  1.00  0.00    -0.248 NA
ATOM     59  C   UNL A   1      39.233  34.220  30.843  1.00  0.00     0.031 C 
ATOM     60  C   UNL A   1      45.146  32.940  31.322  1.00  0.00     0.029 A 
ATOM     61  C   UNL A   1      43.793  32.845  31.041  1.00  0.00     0.049 A 
ATOM     62  H   UNL A   1      42.705  31.207  30.274  1.00  0.00     0.167 HD
ATOM     63  C   UNL A   1      41.456  33.669  30.936  1.00  0.00     0.074 A 
ATOM     64  C   UNL A   1      40.440  34.680  31.140  1.00  0.00     0.031 C 
ATOM     65  C   UNL A   1      42.772  33.845  31.209  1.00  0.00     0.037 A 
BRANCH  52  66
ATOM     66  C   UNL A   1      46.281  28.889  30.100  1.00  0.00     0.064 A 
ATOM     67  C   UNL A   1      46.665  28.067  31.171  1.00  0.00     0.173 A 
ATOM     68  C   UNL A   1      47.194  29.068  29.050  1.00  0.00     0.173 A 
ATOM     69  F   UNL A   1      45.834  27.874  32.205  1.00  0.00    -0.203 F 
ATOM     70  C   UNL A   1      47.919  27.462  31.196  1.00  0.00     0.198 A 
ATOM     71  C   UNL A   1      48.435  28.439  29.064  1.00  0.00     0.198 A 
ATOM     72  F   UNL A   1      46.874  29.839  27.999  1.00  0.00    -0.203 F 
ATOM     73  F   UNL A   1      48.279  26.713  32.246  1.00  0.00    -0.200 F 
ATOM     74  C   UNL A   1      48.799  27.641  30.139  1.00  0.00     0.200 A 
ATOM     75  F   UNL A   1      49.280  28.601  28.037  1.00  0.00    -0.200 F 
ATOM     76  F   UNL A   1      50.001  27.049  30.159  1.00  0.00    -0.200 F 
ENDBRANCH  52  66
BRANCH  53  77
ATOM     77  C   UNL A   1      37.005  32.606  29.846  1.00  0.00     0.064 A 
ATOM     78  C   UNL A   1      36.507  33.312  28.741  1.00  0.00     0.173 A 
ATOM     79  C   UNL A   1      36.166  32.465  30.960  1.00  0.00     0.173 A 
ATOM     80  F   UNL A   1      37.279  33.491  27.658  1.00  0.00    -0.203 F 
ATOM     81  C   UNL A   1      35.236  33.881  28.762  1.00  0.00     0.198 A 
ATOM     82  C   UNL A   1      34.883  33.009  30.969  1.00  0.00     0.198 A 
ATOM     83  F   UNL A   1      36.592  31.794  32.041  1.00  0.00    -0.203 F 
ATOM     84  F   UNL A   1      34.807  34.598  27.715  1.00  0.00    -0.200 F 
ATOM     85  C   UNL A   1      34.423  33.725  29.874  1.00  0.00     0.200 A 
ATOM     86  F   UNL A   1      34.096  32.846  32.042  1.00  0.00    -0.200 F 
ATOM     87  F   UNL A   1      33.202  34.276  29.897  1.00  0.00    -0.200 F 
ENDBRANCH  53  77
BRANCH  65  88
ATOM     88  C   UNL A   1      43.198  35.198  31.699  1.00  0.00     0.064 A 
ATOM     89  C   UNL A   1      43.232  35.513  33.064  1.00  0.00     0.173 A 
ATOM     90  C   UNL A   1      43.618  36.178  30.785  1.00  0.00     0.173 A 
ATOM     91  F   UNL A   1      42.827  34.615  33.974  1.00  0.00    -0.203 F 
ATOM     92  C   UNL A   1      43.645  36.770  33.496  1.00  0.00     0.198 A 
ATOM     93  C   UNL A   1      44.059  37.422  31.223  1.00  0.00     0.198 A 
ATOM     94  F   UNL A   1      43.612  35.922  29.469  1.00  0.00    -0.203 F 
ATOM     95  F   UNL A   1      43.623  37.067  34.803  1.00  0.00    -0.200 F 
ATOM     96  C   UNL A   1      44.064  37.721  32.577  1.00  0.00     0.200 A 
ATOM     97  F   UNL A   1      44.477  38.335  30.334  1.00  0.00    -0.200 F 
ATOM     98  F   UNL A   1      44.468  38.928  32.997  1.00  0.00    -0.200 F 
ENDBRANCH  65  88
ENDBRANCH  39  40
ENDBRANCH  31  34
ENDBRANCH  29  30
ENDBRANCH  28  29
ENDBRANCH   1  28
TORSDOF 14
ENDMDL
MODEL 3
REMARK VINA RESULT:     -12.9      5.583     10.489
REMARK SMILES CCc1ccc(C(=O)NCCCNC(=O)c2ccc(-c3c4nc(c(-c5c(F)c(F)c(F)c(F)c5F)c5ccc([nH]5)c(-c5c(F)c(F)c(F)c(F)c5F)c5nc(c(-c6c(F)c(F)c(F)c(F)c6F)c6ccc3[nH]6)C=C5)C=C4)cc2)cc1S(=O)(=O)Nc1ccc(F)c(F)c1F
REMARK SMILES IDX 10 1 9 2 7 3 8 4 6 6 3 7 4 8 80 9 5 10 79 11 2 12 1 13 81 14
REMARK SMILES IDX 82 15 83 16 84 17 85 19 86 20 92 21 87 22 90 23 93 24 88 25
REMARK SMILES IDX 91 26 89 27 11 28 12 29 13 30 14 31 15 33 16 34 17 35 78 36
REMARK SMILES IDX 18 37 77 38 19 39 20 40 21 41 71 42 22 43 76 44 70 45 72 46
REMARK SMILES IDX 23 47 75 48 69 49 68 50 24 52 56 53 36 54 55 55 37 56 40 57
REMARK SMILES IDX 54 58 73 59 38 60 39 61 53 63 74 64 41 65 25 66 26 67 34 68
REMARK SMILES IDX 27 69 28 70 32 71 35 72 29 73 30 74 33 75 31 76 57 77 58 78
REMARK SMILES IDX 66 79 59 80 60 81 64 82 67 83 61 84 62 85 65 86 63 87 42 88
REMARK SMILES IDX 43 89 51 90 44 91 45 92 49 93 52 94 46 95 47 96 50 97 48 98
REMARK H PARENT 9 5 84 18 13 32 72 51 40 62
REMARK Flexibility Score: inf
ROOT
ATOM      1  C   UNL A   1      37.105  20.647  24.956  1.00  0.00     0.118 C 
ENDROOT
BRANCH   1   2
ATOM      2  N   UNL A   1      37.570  21.897  25.534  1.00  0.00    -0.352 N 
ATOM      3  C   UNL A   1      36.943  23.098  25.738  1.00  0.00     0.251 C 
ATOM      4  O   UNL A   1      37.599  24.042  26.172  1.00  0.00    -0.269 OA
ATOM      5  H   UNL A   1      38.506  21.877  25.835  1.00  0.00     0.163 HD
BRANCH   3   6
ATOM      6  C   UNL A   1      35.475  23.230  25.600  1.00  0.00     0.041 A 
ATOM      7  C   UNL A   1      32.667  22.876  25.521  1.00  0.00    -0.028 A 
ATOM      8  C   UNL A   1      33.369  23.031  26.740  1.00  0.00     0.006 A 
ATOM      9  C   UNL A   1      33.391  23.085  24.326  1.00  0.00     0.091 A 
ATOM     10  C   UNL A   1      34.748  23.202  26.781  1.00  0.00     0.014 A 
ATOM     11  C   UNL A   1      34.794  23.280  24.387  1.00  0.00     0.036 A 
BRANCH   7  12
ATOM     12  C   UNL A   1      31.276  22.296  25.644  1.00  0.00     0.033 C 
ATOM     13  C   UNL A   1      30.374  22.931  26.704  1.00  0.00     0.009 C 
ENDBRANCH   7  12
BRANCH   9  14
ATOM     14  S   UNL A   1      32.805  23.033  22.628  1.00  0.00     0.262 S 
ATOM     15  O   UNL A   1      33.899  23.400  21.767  1.00  0.00    -0.201 OA
ATOM     16  O   UNL A   1      32.195  21.716  22.494  1.00  0.00    -0.201 OA
BRANCH  14  17
ATOM     17  N   UNL A   1      31.550  24.086  22.362  1.00  0.00    -0.277 N 
ATOM     18  H   UNL A   1      30.850  23.781  21.740  1.00  0.00     0.180 HD
BRANCH  17  19
ATOM     19  C   UNL A   1      31.367  25.380  22.930  1.00  0.00     0.088 A 
ATOM     20  C   UNL A   1      30.335  25.463  23.885  1.00  0.00     0.033 A 
ATOM     21  C   UNL A   1      32.227  26.470  22.767  1.00  0.00     0.185 A 
ATOM     22  C   UNL A   1      30.242  26.566  24.733  1.00  0.00     0.045 A 
ATOM     23  C   UNL A   1      32.114  27.579  23.598  1.00  0.00     0.196 A 
ATOM     24  F   UNL A   1      33.227  26.440  21.878  1.00  0.00    -0.201 F 
ATOM     25  C   UNL A   1      31.147  27.610  24.594  1.00  0.00     0.162 A 
ATOM     26  F   UNL A   1      32.986  28.592  23.484  1.00  0.00    -0.200 F 
ATOM     27  F   UNL A   1      31.098  28.633  25.457  1.00  0.00    -0.204 F 
ENDBRANCH  17  19
ENDBRANCH  14  17
ENDBRANCH   9  14
ENDBRANCH   3   6
ENDBRANCH   1   2
BRANCH   1  28
ATOM     28  C   UNL A   1      38.224  19.610  24.995  1.00  0.00     0.042 C 
BRANCH  28  29
ATOM     29  C   UNL A   1      39.300  19.945  26.026  1.00  0.00     0.118 C 
BRANCH  29  30
ATOM     30  N   UNL A   1      40.407  19.003  25.984  1.00  0.00    -0.352 N 
ATOM     31  C   UNL A   1      41.753  19.247  26.068  1.00  0.00     0.251 C 
ATOM     32  H   UNL A   1      40.154  18.057  25.881  1.00  0.00     0.163 HD
ATOM     33  O   UNL A   1      42.554  18.354  25.810  1.00  0.00    -0.269 OA
BRANCH  31  34
ATOM     34  C   UNL A   1      42.244  20.584  26.462  1.00  0.00     0.039 A 
ATOM     35  C   UNL A   1      42.203  20.942  27.812  1.00  0.00     0.014 A 
ATOM     36  C   UNL A   1      42.692  21.500  25.505  1.00  0.00     0.014 A 
ATOM     37  C   UNL A   1      42.634  22.210  28.206  1.00  0.00     0.010 A 
ATOM     38  C   UNL A   1      43.183  22.738  25.907  1.00  0.00     0.010 A 
ATOM     39  C   UNL A   1      43.138  23.114  27.257  1.00  0.00    -0.014 A 
BRANCH  39  40
ATOM     40  C   UNL A   1      43.571  24.476  27.653  1.00  0.00     0.031 A 
ATOM     41  C   UNL A   1      42.538  25.514  28.005  1.00  0.00     0.074 A 
ATOM     42  C   UNL A   1      44.879  24.795  27.647  1.00  0.00     0.049 A 
ATOM     43  N   UNL A   1      42.701  26.779  28.301  1.00  0.00    -0.248 NA
ATOM     44  C   UNL A   1      41.133  25.076  27.996  1.00  0.00     0.031 C 
ATOM     45  C   UNL A   1      45.969  23.886  27.285  1.00  0.00     0.029 A 
ATOM     46  N   UNL A   1      45.514  25.975  27.944  1.00  0.00    -0.354 N 
ATOM     47  C   UNL A   1      41.422  27.289  28.487  1.00  0.00     0.074 A 
ATOM     48  C   UNL A   1      40.492  26.213  28.229  1.00  0.00     0.031 C 
ATOM     49  C   UNL A   1      47.138  24.538  27.394  1.00  0.00     0.029 A 
ATOM     50  C   UNL A   1      46.879  25.916  27.801  1.00  0.00     0.049 A 
ATOM     51  H   UNL A   1      45.036  26.786  28.231  1.00  0.00     0.167 HD
ATOM     52  C   UNL A   1      41.060  28.539  28.861  1.00  0.00     0.037 A 
ATOM     53  C   UNL A   1      47.812  26.871  27.976  1.00  0.00     0.037 A 
ATOM     54  C   UNL A   1      41.990  29.595  29.159  1.00  0.00     0.049 A 
ATOM     55  C   UNL A   1      47.381  28.244  28.417  1.00  0.00     0.074 A 
ATOM     56  C   UNL A   1      41.728  30.878  29.603  1.00  0.00     0.029 A 
ATOM     57  N   UNL A   1      43.368  29.483  29.048  1.00  0.00    -0.354 N 
ATOM     58  N   UNL A   1      46.173  28.698  28.651  1.00  0.00    -0.248 NA
ATOM     59  C   UNL A   1      48.444  29.236  28.630  1.00  0.00     0.031 C 
ATOM     60  C   UNL A   1      42.945  31.556  29.728  1.00  0.00     0.029 A 
ATOM     61  C   UNL A   1      43.968  30.679  29.408  1.00  0.00     0.049 A 
ATOM     62  H   UNL A   1      43.849  28.674  28.759  1.00  0.00     0.167 HD
ATOM     63  C   UNL A   1      46.334  30.011  29.073  1.00  0.00     0.074 A 
ATOM     64  C   UNL A   1      47.756  30.278  29.074  1.00  0.00     0.031 C 
ATOM     65  C   UNL A   1      45.388  30.914  29.428  1.00  0.00     0.037 A 
BRANCH  52  66
ATOM     66  C   UNL A   1      39.593  28.837  28.980  1.00  0.00     0.064 A 
ATOM     67  C   UNL A   1      38.913  28.709  30.201  1.00  0.00     0.173 A 
ATOM     68  C   UNL A   1      38.870  29.307  27.872  1.00  0.00     0.173 A 
ATOM     69  F   UNL A   1      39.555  28.252  31.286  1.00  0.00    -0.203 F 
ATOM     70  C   UNL A   1      37.560  29.021  30.303  1.00  0.00     0.198 A 
ATOM     71  C   UNL A   1      37.525  29.646  27.985  1.00  0.00     0.198 A 
ATOM     72  F   UNL A   1      39.474  29.453  26.683  1.00  0.00    -0.203 F 
ATOM     73  F   UNL A   1      36.922  28.853  31.469  1.00  0.00    -0.200 F 
ATOM     74  C   UNL A   1      36.869  29.498  29.199  1.00  0.00     0.200 A 
ATOM     75  F   UNL A   1      36.861  30.118  26.921  1.00  0.00    -0.200 F 
ATOM     76  F   UNL A   1      35.570  29.810  29.303  1.00  0.00    -0.200 F 
ENDBRANCH  52  66
BRANCH  53  77
ATOM     77  C   UNL A   1      49.250  26.560  27.760  1.00  0.00     0.064 A 
ATOM     78  C   UNL A   1      50.099  26.296  28.844  1.00  0.00     0.173 A 
ATOM     79  C   UNL A   1      49.809  26.546  26.475  1.00  0.00     0.173 A 
ATOM     80  F   UNL A   1      49.615  26.318  30.095  1.00  0.00    -0.203 F 
ATOM     81  C   UNL A   1      51.458  26.059  28.653  1.00  0.00     0.198 A 
ATOM     82  C   UNL A   1      51.164  26.280  26.283  1.00  0.00     0.198 A 
ATOM     83  F   UNL A   1      49.039  26.788  25.404  1.00  0.00    -0.203 F 
ATOM     84  F   UNL A   1      52.258  25.866  29.711  1.00  0.00    -0.200 F 
ATOM     85  C   UNL A   1      51.989  26.048  27.373  1.00  0.00     0.200 A 
ATOM     86  F   UNL A   1      51.670  26.258  25.042  1.00  0.00    -0.200 F 
ATOM     87  F   UNL A   1      53.297  25.825  27.189  1.00  0.00    -0.200 F 
ENDBRANCH  53  77
BRANCH  65  88
ATOM     88  C   UNL A   1      45.863  32.256  29.905  1.00  0.00     0.064 A 
ATOM     89  C   UNL A   1      46.025  33.337  29.029  1.00  0.00     0.173 A 
ATOM     90  C   UNL A   1      46.119  32.468  31.269  1.00  0.00     0.173 A 
ATOM     91  F   UNL A   1      45.806  33.179  27.715  1.00  0.00    -0.203 F 
ATOM     92  C   UNL A   1      46.453  34.577  29.496  1.00  0.00     0.198 A 
ATOM     93  C   UNL A   1      46.516  33.717  31.736  1.00  0.00     0.198 A 
ATOM     94  F   UNL A   1      45.970  31.467  32.149  1.00  0.00    -0.203 F 
ATOM     95  F   UNL A   1      46.648  35.584  28.633  1.00  0.00    -0.200 F 
ATOM     96  C   UNL A   1      46.691  34.767  30.849  1.00  0.00     0.200 A 
ATOM     97  F   UNL A   1      46.733  33.903  33.046  1.00  0.00    -0.200 F 
ATOM     98  F   UNL A   1      47.096  35.964  31.297  1.00  0.00    -0.200 F 
ENDBRANCH  65  88
ENDBRANCH  39  40
ENDBRANCH  31  34
ENDBRANCH  29  30
ENDBRANCH  28  29
ENDBRANCH   1  28
TORSDOF 14
ENDMDL
