MODEL 1
REMARK VINA RESULT:     -11.7      0.000      0.000
REMARK SMILES CN(C)c1oc(/C=N/c2ccc(O)c(C(=O)NCCCNC(=O)c3ccc(-c4c5nc(c(-c6c(F)c(F)c(F)c(F)c6F)c6ccc([nH]6)c(-c6c(F)c(F)c(F)c(F)c6F)c6nc(c(-c7c(F)c(F)c(F)c(F)c7F)c7ccc4[nH]7)C=C6)C=C5)cc3)c2)cc1Br
REMARK SMILES IDX 18 1 17 2 15 3 16 4 14 6 9 7 10 8 87 9 11 10 12 11 8 12 7 13
REMARK SMILES IDX 6 14 4 15 5 16 89 17 88 18 90 19 2 20 1 21 3 22 13 23 19 25
REMARK SMILES IDX 20 26 21 27 22 28 23 30 24 31 25 32 86 33 26 34 85 35 27 36
REMARK SMILES IDX 28 37 29 38 79 39 30 40 84 41 78 42 80 43 31 44 83 45 77 46
REMARK SMILES IDX 76 47 32 49 64 50 44 51 63 52 45 53 48 54 62 55 81 56 46 57
REMARK SMILES IDX 47 58 61 60 82 61 49 62 33 63 34 64 42 65 35 66 36 67 40 68
REMARK SMILES IDX 43 69 37 70 38 71 41 72 39 73 65 74 66 75 74 76 67 77 68 78
REMARK SMILES IDX 72 79 75 80 69 81 70 82 73 83 71 84 50 85 51 86 59 87 52 88
REMARK SMILES IDX 53 89 57 90 60 91 54 92 55 93 58 94 56 95
REMARK H PARENT 17 5 13 24 21 29 80 48 48 59
REMARK Flexibility Score: inf
ROOT
ATOM      1  C   UNL A   1      42.280  20.566  27.744  1.00  0.00     0.118 C 
ENDROOT
BRANCH   1   2
ATOM      2  N   UNL A   1      42.237  19.281  27.077  1.00  0.00    -0.352 N 
ATOM      3  C   UNL A   1      42.986  18.726  26.074  1.00  0.00     0.255 C 
ATOM      4  O   UNL A   1      42.651  17.590  25.723  1.00  0.00    -0.269 OA
ATOM      5  H   UNL A   1      41.528  18.687  27.413  1.00  0.00     0.163 HD
BRANCH   3   6
ATOM      6  C   UNL A   1      44.190  19.340  25.433  1.00  0.00     0.083 A 
ATOM      7  C   UNL A   1      45.074  21.458  24.546  1.00  0.00     0.064 A 
ATOM      8  C   UNL A   1      46.316  20.855  24.359  1.00  0.00     0.032 A 
ATOM      9  C   UNL A   1      44.024  20.692  25.061  1.00  0.00     0.046 A 
ATOM     10  C   UNL A   1      46.510  19.522  24.714  1.00  0.00     0.049 A 
ATOM     11  C   UNL A   1      45.464  18.782  25.283  1.00  0.00     0.128 A 
BRANCH   7  12
ATOM     12  N   UNL A   1      44.897  22.840  24.426  1.00  0.00    -0.253 NA
ATOM     13  C   UNL A   1      45.389  23.635  25.317  1.00  0.00     0.158 C 
BRANCH  13  14
ATOM     14  C   UNL A   1      45.055  25.029  25.260  1.00  0.00     0.149 A 
ATOM     15  C   UNL A   1      45.498  27.177  25.016  1.00  0.00     0.210 A 
ATOM     16  O   UNL A   1      45.993  25.915  24.812  1.00  0.00    -0.438 OA
ATOM     17  C   UNL A   1      44.220  27.073  25.525  1.00  0.00     0.082 A 
ATOM     18  C   UNL A   1      43.922  25.706  25.663  1.00  0.00     0.070 A 
ATOM     19  Br  UNL A   1      42.993  28.419  25.968  1.00  0.00    -0.045 Br
BRANCH  15  20
ATOM     20  N   UNL A   1      46.337  28.207  24.738  1.00  0.00    -0.348 N 
ATOM     21  C   UNL A   1      46.536  29.279  25.695  1.00  0.00     0.146 C 
ATOM     22  C   UNL A   1      47.107  28.201  23.510  1.00  0.00     0.146 C 
ENDBRANCH  15  20
ENDBRANCH  13  14
ENDBRANCH   7  12
BRANCH  11  23
ATOM     23  O   UNL A   1      45.778  17.540  25.751  1.00  0.00    -0.507 OA
ATOM     24  H   UNL A   1      46.197  16.920  25.188  1.00  0.00     0.293 HD
ENDBRANCH  11  23
ENDBRANCH   3   6
ENDBRANCH   1   2
BRANCH   1  25
ATOM     25  C   UNL A   1      40.977  21.339  27.524  1.00  0.00     0.042 C 
BRANCH  25  26
ATOM     26  C   UNL A   1      40.910  22.070  26.186  1.00  0.00     0.118 C 
BRANCH  26  27
ATOM     27  N   UNL A   1      39.538  22.299  25.758  1.00  0.00    -0.352 N 
ATOM     28  C   UNL A   1      38.649  23.278  26.125  1.00  0.00     0.251 C 
ATOM     29  H   UNL A   1      39.195  21.651  25.103  1.00  0.00     0.163 HD
ATOM     30  O   UNL A   1      37.467  23.164  25.813  1.00  0.00    -0.269 OA
BRANCH  28  31
ATOM     31  C   UNL A   1      39.084  24.466  26.897  1.00  0.00     0.039 A 
ATOM     32  C   UNL A   1      39.777  25.481  26.226  1.00  0.00     0.014 A 
ATOM     33  C   UNL A   1      38.885  24.563  28.277  1.00  0.00     0.014 A 
ATOM     34  C   UNL A   1      40.230  26.604  26.924  1.00  0.00     0.010 A 
ATOM     35  C   UNL A   1      39.283  25.711  28.963  1.00  0.00     0.010 A 
ATOM     36  C   UNL A   1      39.968  26.738  28.296  1.00  0.00    -0.014 A 
BRANCH  36  37
ATOM     37  C   UNL A   1      40.415  27.938  29.049  1.00  0.00     0.031 A 
ATOM     38  C   UNL A   1      41.810  28.006  29.608  1.00  0.00     0.074 A 
ATOM     39  C   UNL A   1      39.551  28.944  29.277  1.00  0.00     0.049 A 
ATOM     40  N   UNL A   1      42.360  28.932  30.353  1.00  0.00    -0.248 NA
ATOM     41  C   UNL A   1      42.695  26.869  29.312  1.00  0.00     0.031 C 
ATOM     42  C   UNL A   1      38.161  28.983  28.819  1.00  0.00     0.029 A 
ATOM     43  N   UNL A   1      39.708  30.123  29.962  1.00  0.00    -0.354 N 
ATOM     44  C   UNL A   1      43.645  28.482  30.628  1.00  0.00     0.074 A 
ATOM     45  C   UNL A   1      43.780  27.183  30.005  1.00  0.00     0.031 C 
ATOM     46  C   UNL A   1      37.597  30.131  29.224  1.00  0.00     0.029 A 
ATOM     47  C   UNL A   1      38.573  30.895  29.997  1.00  0.00     0.049 A 
ATOM     48  H   UNL A   1      40.555  30.390  30.389  1.00  0.00     0.167 HD
ATOM     49  C   UNL A   1      44.629  29.104  31.323  1.00  0.00     0.037 A 
ATOM     50  C   UNL A   1      38.343  32.081  30.591  1.00  0.00     0.037 A 
ATOM     51  C   UNL A   1      44.504  30.409  31.916  1.00  0.00     0.049 A 
ATOM     52  C   UNL A   1      39.453  32.753  31.351  1.00  0.00     0.074 A 
ATOM     53  C   UNL A   1      45.463  31.150  32.585  1.00  0.00     0.029 A 
ATOM     54  N   UNL A   1      43.344  31.170  31.911  1.00  0.00    -0.354 N 
ATOM     55  N   UNL A   1      40.682  32.345  31.554  1.00  0.00    -0.248 NA
ATOM     56  C   UNL A   1      39.146  34.056  31.959  1.00  0.00     0.031 C 
ATOM     57  C   UNL A   1      44.874  32.344  33.015  1.00  0.00     0.029 A 
ATOM     58  C   UNL A   1      43.559  32.364  32.581  1.00  0.00     0.049 A 
ATOM     59  H   UNL A   1      42.493  30.901  31.494  1.00  0.00     0.167 HD
ATOM     60  C   UNL A   1      41.299  33.345  32.291  1.00  0.00     0.074 A 
ATOM     61  C   UNL A   1      40.314  34.388  32.489  1.00  0.00     0.031 C 
ATOM     62  C   UNL A   1      42.569  33.394  32.764  1.00  0.00     0.037 A 
BRANCH  49  63
ATOM     63  C   UNL A   1      45.932  28.376  31.478  1.00  0.00     0.064 A 
ATOM     64  C   UNL A   1      46.161  27.500  32.550  1.00  0.00     0.173 A 
ATOM     65  C   UNL A   1      46.950  28.529  30.526  1.00  0.00     0.173 A 
ATOM     66  F   UNL A   1      45.222  27.327  33.493  1.00  0.00    -0.203 F 
ATOM     67  C   UNL A   1      47.373  26.826  32.678  1.00  0.00     0.198 A 
ATOM     68  C   UNL A   1      48.150  27.832  30.642  1.00  0.00     0.198 A 
ATOM     69  F   UNL A   1      46.780  29.349  29.478  1.00  0.00    -0.203 F 
ATOM     70  F   UNL A   1      47.585  26.029  33.734  1.00  0.00    -0.200 F 
ATOM     71  C   UNL A   1      48.364  26.987  31.721  1.00  0.00     0.200 A 
ATOM     72  F   UNL A   1      49.103  27.980  29.710  1.00  0.00    -0.200 F 
ATOM     73  F   UNL A   1      49.527  26.333  31.843  1.00  0.00    -0.200 F 
ENDBRANCH  49  63
BRANCH  50  74
ATOM     74  C   UNL A   1      37.009  32.721  30.470  1.00  0.00     0.064 A 
ATOM     75  C   UNL A   1      36.035  32.543  31.461  1.00  0.00     0.173 A 
ATOM     76  C   UNL A   1      36.684  33.526  29.369  1.00  0.00     0.173 A 
ATOM     77  F   UNL A   1      36.294  31.764  32.522  1.00  0.00    -0.203 F 
ATOM     78  C   UNL A   1      34.778  33.135  31.350  1.00  0.00     0.198 A 
ATOM     79  C   UNL A   1      35.436  34.137  29.271  1.00  0.00     0.198 A 
ATOM     80  F   UNL A   1      37.583  33.730  28.396  1.00  0.00    -0.203 F 
ATOM     81  F   UNL A   1      33.853  32.919  32.294  1.00  0.00    -0.200 F 
ATOM     82  C   UNL A   1      34.482  33.936  30.258  1.00  0.00     0.200 A 
ATOM     83  F   UNL A   1      35.156  34.922  28.221  1.00  0.00    -0.200 F 
ATOM     84  F   UNL A   1      33.276  34.512  30.154  1.00  0.00    -0.200 F 
ENDBRANCH  50  74
BRANCH  62  85
ATOM     85  C   UNL A   1      42.974  34.627  33.515  1.00  0.00     0.064 A 
ATOM     86  C   UNL A   1      42.914  34.686  34.914  1.00  0.00     0.173 A 
ATOM     87  C   UNL A   1      43.462  35.750  32.829  1.00  0.00     0.173 A 
ATOM     88  F   UNL A   1      42.439  33.643  35.614  1.00  0.00    -0.203 F 
ATOM     89  C   UNL A   1      43.309  35.832  35.600  1.00  0.00     0.198 A 
ATOM     90  C   UNL A   1      43.879  36.884  33.518  1.00  0.00     0.198 A 
ATOM     91  F   UNL A   1      43.542  35.741  31.490  1.00  0.00    -0.203 F 
ATOM     92  F   UNL A   1      43.205  35.881  36.935  1.00  0.00    -0.200 F 
ATOM     93  C   UNL A   1      43.797  36.926  34.901  1.00  0.00     0.200 A 
ATOM     94  F   UNL A   1      44.359  37.938  32.843  1.00  0.00    -0.200 F 
ATOM     95  F   UNL A   1      44.181  38.027  35.563  1.00  0.00    -0.200 F 
ENDBRANCH  62  85
ENDBRANCH  36  37
ENDBRANCH  28  31
ENDBRANCH  26  27
ENDBRANCH  25  26
ENDBRANCH   1  25
TORSDOF 14
ENDMDL
MODEL 2
REMARK VINA RESULT:     -11.7      4.330     11.787
REMARK SMILES CN(C)c1oc(/C=N/c2ccc(O)c(C(=O)NCCCNC(=O)c3ccc(-c4c5nc(c(-c6c(F)c(F)c(F)c(F)c6F)c6ccc([nH]6)c(-c6c(F)c(F)c(F)c(F)c6F)c6nc(c(-c7c(F)c(F)c(F)c(F)c7F)c7ccc4[nH]7)C=C6)C=C5)cc3)c2)cc1Br
REMARK SMILES IDX 18 1 17 2 15 3 16 4 14 6 9 7 10 8 87 9 11 10 12 11 8 12 7 13
REMARK SMILES IDX 6 14 4 15 5 16 89 17 88 18 90 19 2 20 1 21 3 22 13 23 19 25
REMARK SMILES IDX 20 26 21 27 22 28 23 30 24 31 25 32 86 33 26 34 85 35 27 36
REMARK SMILES IDX 28 37 29 38 79 39 30 40 84 41 78 42 80 43 31 44 83 45 77 46
REMARK SMILES IDX 76 47 32 49 64 50 44 51 63 52 45 53 48 54 62 55 81 56 46 57
REMARK SMILES IDX 47 58 61 60 82 61 49 62 33 63 34 64 42 65 35 66 36 67 40 68
REMARK SMILES IDX 43 69 37 70 38 71 41 72 39 73 65 74 66 75 74 76 67 77 68 78
REMARK SMILES IDX 72 79 75 80 69 81 70 82 73 83 71 84 50 85 51 86 59 87 52 88
REMARK SMILES IDX 53 89 57 90 60 91 54 92 55 93 58 94 56 95
REMARK H PARENT 17 5 13 24 21 29 80 48 48 59
REMARK Flexibility Score: inf
ROOT
ATOM      1  C   UNL A   1      35.321  34.672  28.555  1.00  0.00     0.118 C 
ENDROOT
BRANCH   1   2
ATOM      2  N   UNL A   1      34.033  35.324  28.440  1.00  0.00    -0.352 N 
ATOM      3  C   UNL A   1      33.187  35.885  29.359  1.00  0.00     0.255 C 
ATOM      4  O   UNL A   1      32.133  36.342  28.904  1.00  0.00    -0.269 OA
ATOM      5  H   UNL A   1      33.699  35.374  27.515  1.00  0.00     0.163 HD
BRANCH   3   6
ATOM      6  C   UNL A   1      33.461  36.051  30.819  1.00  0.00     0.083 A 
ATOM      7  C   UNL A   1      34.436  34.916  32.773  1.00  0.00     0.064 A 
ATOM      8  C   UNL A   1      34.261  36.075  33.526  1.00  0.00     0.032 A 
ATOM      9  C   UNL A   1      34.018  34.911  31.439  1.00  0.00     0.046 A 
ATOM     10  C   UNL A   1      33.713  37.215  32.944  1.00  0.00     0.049 A 
ATOM     11  C   UNL A   1      33.351  37.214  31.589  1.00  0.00     0.128 A 
BRANCH   7  12
ATOM     12  N   UNL A   1      35.189  33.835  33.242  1.00  0.00    -0.253 NA
ATOM     13  C   UNL A   1      36.005  33.222  32.449  1.00  0.00     0.158 C 
BRANCH  13  14
ATOM     14  C   UNL A   1      36.640  32.019  32.906  1.00  0.00     0.149 A 
ATOM     15  C   UNL A   1      37.933  30.833  34.243  1.00  0.00     0.210 A 
ATOM     16  O   UNL A   1      37.268  32.025  34.118  1.00  0.00    -0.438 OA
ATOM     17  C   UNL A   1      37.658  30.056  33.136  1.00  0.00     0.082 A 
ATOM     18  C   UNL A   1      36.816  30.798  32.289  1.00  0.00     0.070 A 
ATOM     19  Br  UNL A   1      38.214  28.313  32.727  1.00  0.00    -0.045 Br
BRANCH  15  20
ATOM     20  N   UNL A   1      38.717  30.691  35.341  1.00  0.00    -0.348 N 
ATOM     21  C   UNL A   1      38.154  30.799  36.673  1.00  0.00     0.146 C 
ATOM     22  C   UNL A   1      40.118  30.346  35.189  1.00  0.00     0.146 C 
ENDBRANCH  15  20
ENDBRANCH  13  14
ENDBRANCH   7  12
BRANCH  11  23
ATOM     23  O   UNL A   1      32.974  38.411  31.056  1.00  0.00    -0.507 OA
ATOM     24  H   UNL A   1      33.154  38.601  30.158  1.00  0.00     0.293 HD
ENDBRANCH  11  23
ENDBRANCH   3   6
ENDBRANCH   1   2
BRANCH   1  25
ATOM     25  C   UNL A   1      35.253  33.233  28.034  1.00  0.00     0.042 C 
BRANCH  25  26
ATOM     26  C   UNL A   1      34.350  32.319  28.856  1.00  0.00     0.118 C 
BRANCH  26  27
ATOM     27  N   UNL A   1      33.843  31.203  28.071  1.00  0.00    -0.352 N 
ATOM     28  C   UNL A   1      34.499  30.115  27.554  1.00  0.00     0.251 C 
ATOM     29  H   UNL A   1      32.878  31.234  27.883  1.00  0.00     0.163 HD
ATOM     30  O   UNL A   1      33.928  29.402  26.734  1.00  0.00    -0.269 OA
BRANCH  28  31
ATOM     31  C   UNL A   1      35.888  29.787  27.958  1.00  0.00     0.039 A 
ATOM     32  C   UNL A   1      36.922  30.028  27.046  1.00  0.00     0.014 A 
ATOM     33  C   UNL A   1      36.176  29.184  29.185  1.00  0.00     0.014 A 
ATOM     34  C   UNL A   1      38.241  29.705  27.377  1.00  0.00     0.010 A 
ATOM     35  C   UNL A   1      37.499  28.918  29.541  1.00  0.00     0.010 A 
ATOM     36  C   UNL A   1      38.543  29.166  28.638  1.00  0.00    -0.014 A 
BRANCH  36  37
ATOM     37  C   UNL A   1      39.942  28.845  29.019  1.00  0.00     0.031 A 
ATOM     38  C   UNL A   1      40.749  29.819  29.833  1.00  0.00     0.074 A 
ATOM     39  C   UNL A   1      40.507  27.702  28.587  1.00  0.00     0.049 A 
ATOM     40  N   UNL A   1      42.004  29.752  30.201  1.00  0.00    -0.248 NA
ATOM     41  C   UNL A   1      40.060  31.042  30.270  1.00  0.00     0.031 C 
ATOM     42  C   UNL A   1      39.843  26.692  27.761  1.00  0.00     0.029 A 
ATOM     43  N   UNL A   1      41.772  27.202  28.770  1.00  0.00    -0.354 N 
ATOM     44  C   UNL A   1      42.259  30.928  30.894  1.00  0.00     0.074 A 
ATOM     45  C   UNL A   1      41.041  31.709  30.862  1.00  0.00     0.031 C 
ATOM     46  C   UNL A   1      40.700  25.689  27.520  1.00  0.00     0.029 A 
ATOM     47  C   UNL A   1      41.983  25.997  28.145  1.00  0.00     0.049 A 
ATOM     48  H   UNL A   1      42.462  27.663  29.299  1.00  0.00     0.167 HD
ATOM     49  C   UNL A   1      43.399  31.314  31.516  1.00  0.00     0.037 A 
ATOM     50  C   UNL A   1      43.089  25.232  28.078  1.00  0.00     0.037 A 
ATOM     51  C   UNL A   1      44.600  30.524  31.573  1.00  0.00     0.049 A 
ATOM     52  C   UNL A   1      44.340  25.680  28.782  1.00  0.00     0.074 A 
ATOM     53  C   UNL A   1      45.787  30.800  32.232  1.00  0.00     0.029 A 
ATOM     54  N   UNL A   1      44.769  29.298  30.946  1.00  0.00    -0.354 N 
ATOM     55  N   UNL A   1      44.550  26.766  29.484  1.00  0.00    -0.248 NA
ATOM     56  C   UNL A   1      45.507  24.791  28.688  1.00  0.00     0.031 C 
ATOM     57  C   UNL A   1      46.684  29.759  31.974  1.00  0.00     0.029 A 
ATOM     58  C   UNL A   1      46.045  28.814  31.187  1.00  0.00     0.049 A 
ATOM     59  H   UNL A   1      44.084  28.840  30.408  1.00  0.00     0.167 HD
ATOM     60  C   UNL A   1      45.860  26.682  29.934  1.00  0.00     0.074 A 
ATOM     61  C   UNL A   1      46.394  25.431  29.437  1.00  0.00     0.031 C 
ATOM     62  C   UNL A   1      46.559  27.564  30.690  1.00  0.00     0.037 A 
BRANCH  49  63
ATOM     63  C   UNL A   1      43.401  32.656  32.187  1.00  0.00     0.064 A 
ATOM     64  C   UNL A   1      43.203  32.785  33.571  1.00  0.00     0.173 A 
ATOM     65  C   UNL A   1      43.640  33.823  31.447  1.00  0.00     0.173 A 
ATOM     66  F   UNL A   1      42.960  31.700  34.321  1.00  0.00    -0.203 F 
ATOM     67  C   UNL A   1      43.214  34.036  34.183  1.00  0.00     0.198 A 
ATOM     68  C   UNL A   1      43.679  35.070  32.066  1.00  0.00     0.198 A 
ATOM     69  F   UNL A   1      43.844  33.755  30.123  1.00  0.00    -0.203 F 
ATOM     70  F   UNL A   1      42.977  34.139  35.497  1.00  0.00    -0.200 F 
ATOM     71  C   UNL A   1      43.458  35.176  33.432  1.00  0.00     0.200 A 
ATOM     72  F   UNL A   1      43.927  36.170  31.341  1.00  0.00    -0.200 F 
ATOM     73  F   UNL A   1      43.475  36.379  34.023  1.00  0.00    -0.200 F 
ENDBRANCH  49  63
BRANCH  50  74
ATOM     74  C   UNL A   1      43.054  23.948  27.333  1.00  0.00     0.064 A 
ATOM     75  C   UNL A   1      42.612  22.771  27.954  1.00  0.00     0.173 A 
ATOM     76  C   UNL A   1      43.451  23.871  25.992  1.00  0.00     0.173 A 
ATOM     77  F   UNL A   1      42.242  22.793  29.243  1.00  0.00    -0.203 F 
ATOM     78  C   UNL A   1      42.582  21.562  27.264  1.00  0.00     0.198 A 
ATOM     79  C   UNL A   1      43.398  22.666  25.295  1.00  0.00     0.198 A 
ATOM     80  F   UNL A   1      43.877  24.970  25.353  1.00  0.00    -0.203 F 
ATOM     81  F   UNL A   1      42.191  20.444  27.891  1.00  0.00    -0.200 F 
ATOM     82  C   UNL A   1      42.970  21.511  25.933  1.00  0.00     0.200 A 
ATOM     83  F   UNL A   1      43.760  22.622  24.005  1.00  0.00    -0.200 F 
ATOM     84  F   UNL A   1      42.935  20.349  25.267  1.00  0.00    -0.200 F 
ENDBRANCH  50  74
BRANCH  62  85
ATOM     85  C   UNL A   1      47.967  27.194  31.050  1.00  0.00     0.064 A 
ATOM     86  C   UNL A   1      48.251  26.388  32.162  1.00  0.00     0.173 A 
ATOM     87  C   UNL A   1      49.040  27.619  30.253  1.00  0.00     0.173 A 
ATOM     88  F   UNL A   1      47.260  25.970  32.964  1.00  0.00    -0.203 F 
ATOM     89  C   UNL A   1      49.562  26.038  32.474  1.00  0.00     0.198 A 
ATOM     90  C   UNL A   1      50.347  27.247  30.553  1.00  0.00     0.198 A 
ATOM     91  F   UNL A   1      48.818  28.389  29.177  1.00  0.00    -0.203 F 
ATOM     92  F   UNL A   1      49.816  25.301  33.564  1.00  0.00    -0.200 F 
ATOM     93  C   UNL A   1      50.607  26.463  31.666  1.00  0.00     0.200 A 
ATOM     94  F   UNL A   1      51.354  27.650  29.767  1.00  0.00    -0.200 F 
ATOM     95  F   UNL A   1      51.868  26.121  31.965  1.00  0.00    -0.200 F 
ENDBRANCH  62  85
ENDBRANCH  36  37
ENDBRANCH  28  31
ENDBRANCH  26  27
ENDBRANCH  25  26
ENDBRANCH   1  25
TORSDOF 14
ENDMDL
MODEL 3
REMARK VINA RESULT:     -11.4      4.365     11.265
REMARK SMILES CN(C)c1oc(/C=N/c2ccc(O)c(C(=O)NCCCNC(=O)c3ccc(-c4c5nc(c(-c6c(F)c(F)c(F)c(F)c6F)c6ccc([nH]6)c(-c6c(F)c(F)c(F)c(F)c6F)c6nc(c(-c7c(F)c(F)c(F)c(F)c7F)c7ccc4[nH]7)C=C6)C=C5)cc3)c2)cc1Br
REMARK SMILES IDX 18 1 17 2 15 3 16 4 14 6 9 7 10 8 87 9 11 10 12 11 8 12 7 13
REMARK SMILES IDX 6 14 4 15 5 16 89 17 88 18 90 19 2 20 1 21 3 22 13 23 19 25
REMARK SMILES IDX 20 26 21 27 22 28 23 30 24 31 25 32 86 33 26 34 85 35 27 36
REMARK SMILES IDX 28 37 29 38 79 39 30 40 84 41 78 42 80 43 31 44 83 45 77 46
REMARK SMILES IDX 76 47 32 49 64 50 44 51 63 52 45 53 48 54 62 55 81 56 46 57
REMARK SMILES IDX 47 58 61 60 82 61 49 62 33 63 34 64 42 65 35 66 36 67 40 68
REMARK SMILES IDX 43 69 37 70 38 71 41 72 39 73 65 74 66 75 74 76 67 77 68 78
REMARK SMILES IDX 72 79 75 80 69 81 70 82 73 83 71 84 50 85 51 86 59 87 52 88
REMARK SMILES IDX 53 89 57 90 60 91 54 92 55 93 58 94 56 95
REMARK H PARENT 17 5 13 24 21 29 80 48 48 59
REMARK Flexibility Score: inf
ROOT
ATOM      1  C   UNL A   1      35.350  34.586  28.567  1.00  0.00     0.118 C 
ENDROOT
BRANCH   1   2
ATOM      2  N   UNL A   1      34.066  35.240  28.416  1.00  0.00    -0.352 N 
ATOM      3  C   UNL A   1      33.206  35.821  29.310  1.00  0.00     0.255 C 
ATOM      4  O   UNL A   1      32.161  36.272  28.828  1.00  0.00    -0.269 OA
ATOM      5  H   UNL A   1      33.748  35.273  27.485  1.00  0.00     0.163 HD
BRANCH   3   6
ATOM      6  C   UNL A   1      33.455  36.013  30.771  1.00  0.00     0.083 A 
ATOM      7  C   UNL A   1      34.397  34.915  32.762  1.00  0.00     0.064 A 
ATOM      8  C   UNL A   1      34.209  36.087  33.491  1.00  0.00     0.032 A 
ATOM      9  C   UNL A   1      34.002  34.885  31.421  1.00  0.00     0.046 A 
ATOM     10  C   UNL A   1      33.670  37.216  32.878  1.00  0.00     0.049 A 
ATOM     11  C   UNL A   1      33.331  37.191  31.518  1.00  0.00     0.128 A 
BRANCH   7  12
ATOM     12  N   UNL A   1      35.142  33.843  33.263  1.00  0.00    -0.253 NA
ATOM     13  C   UNL A   1      36.224  33.470  32.662  1.00  0.00     0.158 C 
BRANCH  13  14
ATOM     14  C   UNL A   1      36.878  32.270  33.099  1.00  0.00     0.149 A 
ATOM     15  C   UNL A   1      38.077  31.047  34.491  1.00  0.00     0.210 A 
ATOM     16  O   UNL A   1      37.354  32.206  34.377  1.00  0.00    -0.438 OA
ATOM     17  C   UNL A   1      37.989  30.354  33.300  1.00  0.00     0.082 A 
ATOM     18  C   UNL A   1      37.208  31.118  32.415  1.00  0.00     0.070 A 
ATOM     19  Br  UNL A   1      38.705  28.688  32.828  1.00  0.00    -0.045 Br
BRANCH  15  20
ATOM     20  N   UNL A   1      38.731  30.855  35.663  1.00  0.00    -0.348 N 
ATOM     21  C   UNL A   1      40.181  30.833  35.708  1.00  0.00     0.146 C 
ATOM     22  C   UNL A   1      37.983  30.753  36.901  1.00  0.00     0.146 C 
ENDBRANCH  15  20
ENDBRANCH  13  14
ENDBRANCH   7  12
BRANCH  11  23
ATOM     23  O   UNL A   1      32.963  38.377  30.957  1.00  0.00    -0.507 OA
ATOM     24  H   UNL A   1      33.512  39.129  31.049  1.00  0.00     0.293 HD
ENDBRANCH  11  23
ENDBRANCH   3   6
ENDBRANCH   1   2
BRANCH   1  25
ATOM     25  C   UNL A   1      35.288  33.141  28.063  1.00  0.00     0.042 C 
BRANCH  25  26
ATOM     26  C   UNL A   1      34.517  32.198  28.982  1.00  0.00     0.118 C 
BRANCH  26  27
ATOM     27  N   UNL A   1      34.024  31.027  28.272  1.00  0.00    -0.352 N 
ATOM     28  C   UNL A   1      34.703  29.945  27.772  1.00  0.00     0.251 C 
ATOM     29  H   UNL A   1      33.051  31.009  28.130  1.00  0.00     0.163 HD
ATOM     30  O   UNL A   1      34.126  29.171  27.013  1.00  0.00    -0.269 OA
BRANCH  28  31
ATOM     31  C   UNL A   1      36.122  29.695  28.121  1.00  0.00     0.039 A 
ATOM     32  C   UNL A   1      37.104  29.970  27.162  1.00  0.00     0.014 A 
ATOM     33  C   UNL A   1      36.492  29.130  29.345  1.00  0.00     0.014 A 
ATOM     34  C   UNL A   1      38.450  29.720  27.442  1.00  0.00     0.010 A 
ATOM     35  C   UNL A   1      37.841  28.937  29.648  1.00  0.00     0.010 A 
ATOM     36  C   UNL A   1      38.832  29.221  28.697  1.00  0.00    -0.014 A 
BRANCH  36  37
ATOM     37  C   UNL A   1      40.260  28.978  29.023  1.00  0.00     0.031 A 
ATOM     38  C   UNL A   1      40.942  27.722  28.553  1.00  0.00     0.074 A 
ATOM     39  C   UNL A   1      40.930  29.859  29.788  1.00  0.00     0.049 A 
ATOM     40  N   UNL A   1      42.156  27.297  28.798  1.00  0.00    -0.248 NA
ATOM     41  C   UNL A   1      40.144  26.812  27.718  1.00  0.00     0.031 C 
ATOM     42  C   UNL A   1      40.372  31.097  30.337  1.00  0.00     0.029 A 
ATOM     43  N   UNL A   1      42.223  29.844  30.250  1.00  0.00    -0.354 N 
ATOM     44  C   UNL A   1      42.261  26.065  28.164  1.00  0.00     0.074 A 
ATOM     45  C   UNL A   1      40.975  25.792  27.558  1.00  0.00     0.031 C 
ATOM     46  C   UNL A   1      41.319  31.728  31.048  1.00  0.00     0.029 A 
ATOM     47  C   UNL A   1      42.539  30.927  31.034  1.00  0.00     0.049 A 
ATOM     48  H   UNL A   1      42.862  29.126  30.039  1.00  0.00     0.167 HD
ATOM     49  C   UNL A   1      43.336  25.245  28.082  1.00  0.00     0.037 A 
ATOM     50  C   UNL A   1      43.682  31.233  31.677  1.00  0.00     0.037 A 
ATOM     51  C   UNL A   1      44.623  25.531  28.659  1.00  0.00     0.049 A 
ATOM     52  C   UNL A   1      44.863  30.309  31.563  1.00  0.00     0.074 A 
ATOM     53  C   UNL A   1      45.792  24.794  28.576  1.00  0.00     0.029 A 
ATOM     54  N   UNL A   1      44.910  26.649  29.429  1.00  0.00    -0.354 N 
ATOM     55  N   UNL A   1      44.968  29.177  30.912  1.00  0.00    -0.248 NA
ATOM     56  C   UNL A   1      46.088  30.710  32.270  1.00  0.00     0.031 C 
ATOM     57  C   UNL A   1      46.776  25.446  29.324  1.00  0.00     0.029 A 
ATOM     58  C   UNL A   1      46.233  26.611  29.842  1.00  0.00     0.049 A 
ATOM     59  H   UNL A   1      44.270  27.363  29.650  1.00  0.00     0.167 HD
ATOM     60  C   UNL A   1      46.270  28.742  31.111  1.00  0.00     0.074 A 
ATOM     61  C   UNL A   1      46.924  29.739  31.932  1.00  0.00     0.031 C 
ATOM     62  C   UNL A   1      46.870  27.615  30.654  1.00  0.00     0.037 A 
BRANCH  49  63
ATOM     63  C   UNL A   1      43.166  23.954  27.335  1.00  0.00     0.064 A 
ATOM     64  C   UNL A   1      43.542  23.829  25.989  1.00  0.00     0.173 A 
ATOM     65  C   UNL A   1      42.655  22.819  27.982  1.00  0.00     0.173 A 
ATOM     66  F   UNL A   1      44.027  24.888  25.323  1.00  0.00    -0.203 F 
ATOM     67  C   UNL A   1      43.386  22.623  25.310  1.00  0.00     0.198 A 
ATOM     68  C   UNL A   1      42.526  21.608  27.309  1.00  0.00     0.198 A 
ATOM     69  F   UNL A   1      42.287  22.883  29.271  1.00  0.00    -0.203 F 
ATOM     70  F   UNL A   1      43.709  22.540  24.013  1.00  0.00    -0.200 F 
ATOM     71  C   UNL A   1      42.883  21.512  25.972  1.00  0.00     0.200 A 
ATOM     72  F   UNL A   1      42.052  20.531  27.952  1.00  0.00    -0.200 F 
ATOM     73  F   UNL A   1      42.739  20.351  25.319  1.00  0.00    -0.200 F 
ENDBRANCH  49  63
BRANCH  50  74
ATOM     74  C   UNL A   1      43.771  32.488  32.466  1.00  0.00     0.064 A 
ATOM     75  C   UNL A   1      44.124  33.698  31.852  1.00  0.00     0.173 A 
ATOM     76  C   UNL A   1      43.500  32.506  33.841  1.00  0.00     0.173 A 
ATOM     77  F   UNL A   1      44.413  33.724  30.542  1.00  0.00    -0.203 F 
ATOM     78  C   UNL A   1      44.216  34.877  32.587  1.00  0.00     0.198 A 
ATOM     79  C   UNL A   1      43.569  33.691  34.570  1.00  0.00     0.198 A 
ATOM     80  F   UNL A   1      43.155  31.376  34.473  1.00  0.00    -0.203 F 
ATOM     81  F   UNL A   1      44.591  36.013  31.984  1.00  0.00    -0.200 F 
ATOM     82  C   UNL A   1      43.933  34.874  33.945  1.00  0.00     0.200 A 
ATOM     83  F   UNL A   1      43.281  33.688  35.879  1.00  0.00    -0.200 F 
ATOM     84  F   UNL A   1      44.014  36.010  34.651  1.00  0.00    -0.200 F 
ENDBRANCH  50  74
BRANCH  62  85
ATOM     85  C   UNL A   1      48.314  27.415  31.008  1.00  0.00     0.064 A 
ATOM     86  C   UNL A   1      48.695  26.733  32.172  1.00  0.00     0.173 A 
ATOM     87  C   UNL A   1      49.326  27.880  30.155  1.00  0.00     0.173 A 
ATOM     88  F   UNL A   1      47.764  26.285  33.028  1.00  0.00    -0.203 F 
ATOM     89  C   UNL A   1      50.040  26.541  32.480  1.00  0.00     0.198 A 
ATOM     90  C   UNL A   1      50.668  27.664  30.452  1.00  0.00     0.198 A 
ATOM     91  F   UNL A   1      49.011  28.534  29.027  1.00  0.00    -0.203 F 
ATOM     92  F   UNL A   1      50.383  25.922  33.618  1.00  0.00    -0.200 F 
ATOM     93  C   UNL A   1      51.023  27.000  31.617  1.00  0.00     0.200 A 
ATOM     94  F   UNL A   1      51.617  28.100  29.613  1.00  0.00    -0.200 F 
ATOM     95  F   UNL A   1      52.317  26.810  31.911  1.00  0.00    -0.200 F 
ENDBRANCH  62  85
ENDBRANCH  36  37
ENDBRANCH  28  31
ENDBRANCH  26  27
ENDBRANCH  25  26
ENDBRANCH   1  25
TORSDOF 14
ENDMDL
