MODEL 1
REMARK VINA RESULT:     -13.3      0.000      0.000
REMARK SMILES CCCc1cc2c(cc1Cl)C=C(C(=O)NCCCNC(=O)c1ccc(-c3c4nc(c(-c5c(F)c(F)c(F)c(F)c5F)c5ccc([nH]5)c(-c5c(F)c(F)c(F)c(F)c5F)c5nc(c(-c6c(F)c(F)c(F)c(F)c6F)c6ccc3[nH]6)C=C5)C=C4)cc1)[C@@H](C(F)(F)F)O2
REMARK SMILES IDX 17 1 16 2 15 3 13 4 14 5 12 7 4 8 5 9 9 10 6 11 8 12 10 13
REMARK SMILES IDX 7 14 90 15 11 16 85 17 3 18 2 19 1 20 86 21 87 22 88 23
REMARK SMILES IDX 89 24 18 25 19 26 20 27 21 29 22 30 23 31 84 32 24 33 83 34
REMARK SMILES IDX 25 35 26 36 27 37 77 38 28 39 82 40 76 41 78 42 29 43 81 44
REMARK SMILES IDX 75 45 74 46 30 48 62 49 42 50 61 51 43 52 46 53 60 54 79 55
REMARK SMILES IDX 44 56 45 57 59 59 80 60 47 61 31 62 32 63 40 64 33 65 34 66
REMARK SMILES IDX 38 67 41 68 35 69 36 70 39 71 37 72 63 73 64 74 72 75 65 76
REMARK SMILES IDX 66 77 70 78 73 79 67 80 68 81 71 82 69 83 48 84 49 85 57 86
REMARK SMILES IDX 50 87 51 88 55 89 58 90 52 91 53 92 56 93 54 94
REMARK H PARENT 15 6 19 28 78 47 46 58
REMARK Flexibility Score: inf
ROOT
ATOM      1  C   UNL A   1      31.494  32.120  26.678  1.00  0.00     0.042 C 
ENDROOT
BRANCH   1   2
ATOM      2  C   UNL A   1      31.693  30.632  26.440  1.00  0.00     0.118 C 
BRANCH   2   3
ATOM      3  N   UNL A   1      31.296  30.247  25.094  1.00  0.00    -0.352 N 
ATOM      4  C   UNL A   1      31.200  29.106  24.376  1.00  0.00     0.251 C 
ATOM      5  O   UNL A   1      30.825  29.257  23.209  1.00  0.00    -0.270 OA
ATOM      6  H   UNL A   1      31.024  31.030  24.563  1.00  0.00     0.163 HD
BRANCH   4   7
ATOM      7  C   UNL A   1      31.504  27.740  24.884  1.00  0.00     0.067 C 
ATOM      8  C   UNL A   1      33.831  23.550  26.513  1.00  0.00    -0.026 A 
ATOM      9  C   UNL A   1      32.539  24.103  26.671  1.00  0.00     0.052 A 
ATOM     10  C   UNL A   1      34.761  24.294  25.765  1.00  0.00     0.045 A 
ATOM     11  C   UNL A   1      32.210  25.345  26.134  1.00  0.00     0.128 A 
ATOM     12  C   UNL A   1      34.442  25.578  25.291  1.00  0.00     0.032 A 
ATOM     13  Cl  UNL A   1      36.322  23.714  25.312  1.00  0.00    -0.084 Cl
ATOM     14  C   UNL A   1      33.168  26.107  25.475  1.00  0.00     0.019 A 
ATOM     15  O   UNL A   1      30.920  25.777  26.283  1.00  0.00    -0.475 OA
ATOM     16  C   UNL A   1      32.811  27.436  24.995  1.00  0.00     0.025 C 
ATOM     17  C   UNL A   1      30.475  26.708  25.251  1.00  0.00     0.314 C 
BRANCH   8  18
ATOM     18  C   UNL A   1      34.017  22.159  27.093  1.00  0.00     0.037 C 
BRANCH  18  19
ATOM     19  C   UNL A   1      33.606  20.902  26.321  1.00  0.00     0.001 C 
ATOM     20  C   UNL A   1      34.462  20.611  25.099  1.00  0.00     0.004 C 
ENDBRANCH  18  19
ENDBRANCH   8  18
BRANCH  17  21
ATOM     21  C   UNL A   1      29.958  25.931  24.019  1.00  0.00     0.429 C 
ATOM     22  F   UNL A   1      28.672  26.272  23.752  1.00  0.00    -0.167 F 
ATOM     23  F   UNL A   1      30.670  26.210  22.899  1.00  0.00    -0.167 F 
ATOM     24  F   UNL A   1      29.998  24.590  24.180  1.00  0.00    -0.167 F 
ENDBRANCH  17  21
ENDBRANCH   4   7
ENDBRANCH   2   3
ENDBRANCH   1   2
BRANCH   1  25
ATOM     25  C   UNL A   1      32.732  32.787  27.264  1.00  0.00     0.118 C 
BRANCH  25  26
ATOM     26  N   UNL A   1      32.488  34.179  27.630  1.00  0.00    -0.352 N 
ATOM     27  C   UNL A   1      33.030  34.947  28.634  1.00  0.00     0.251 C 
ATOM     28  H   UNL A   1      31.827  34.644  27.067  1.00  0.00     0.163 HD
ATOM     29  O   UNL A   1      32.524  36.022  28.927  1.00  0.00    -0.269 OA
BRANCH  27  30
ATOM     30  C   UNL A   1      34.215  34.462  29.373  1.00  0.00     0.039 A 
ATOM     31  C   UNL A   1      35.494  34.654  28.854  1.00  0.00     0.014 A 
ATOM     32  C   UNL A   1      34.044  33.809  30.597  1.00  0.00     0.014 A 
ATOM     33  C   UNL A   1      36.576  34.023  29.448  1.00  0.00     0.010 A 
ATOM     34  C   UNL A   1      35.153  33.270  31.254  1.00  0.00     0.010 A 
ATOM     35  C   UNL A   1      36.420  33.325  30.656  1.00  0.00    -0.014 A 
BRANCH  35  36
ATOM     36  C   UNL A   1      37.606  32.665  31.260  1.00  0.00     0.031 A 
ATOM     37  C   UNL A   1      38.044  32.997  32.658  1.00  0.00     0.074 A 
ATOM     38  C   UNL A   1      38.234  31.695  30.567  1.00  0.00     0.049 A 
ATOM     39  N   UNL A   1      39.028  32.489  33.358  1.00  0.00    -0.248 NA
ATOM     40  C   UNL A   1      37.285  34.039  33.367  1.00  0.00     0.031 C 
ATOM     41  C   UNL A   1      37.882  31.274  29.209  1.00  0.00     0.029 A 
ATOM     42  N   UNL A   1      39.260  30.858  30.919  1.00  0.00    -0.354 N 
ATOM     43  C   UNL A   1      39.019  33.161  34.573  1.00  0.00     0.074 A 
ATOM     44  C   UNL A   1      37.952  34.136  34.509  1.00  0.00     0.031 C 
ATOM     45  C   UNL A   1      38.619  30.205  28.876  1.00  0.00     0.029 A 
ATOM     46  C   UNL A   1      39.548  29.915  29.963  1.00  0.00     0.049 A 
ATOM     47  H   UNL A   1      39.744  30.927  31.774  1.00  0.00     0.167 HD
ATOM     48  C   UNL A   1      39.822  32.973  35.647  1.00  0.00     0.037 A 
ATOM     49  C   UNL A   1      40.463  28.929  29.957  1.00  0.00     0.037 A 
ATOM     50  C   UNL A   1      40.866  31.983  35.714  1.00  0.00     0.049 A 
ATOM     51  C   UNL A   1      41.368  28.769  31.141  1.00  0.00     0.074 A 
ATOM     52  C   UNL A   1      41.727  31.706  36.761  1.00  0.00     0.029 A 
ATOM     53  N   UNL A   1      41.185  31.103  34.689  1.00  0.00    -0.354 N 
ATOM     54  N   UNL A   1      41.365  29.426  32.275  1.00  0.00    -0.248 NA
ATOM     55  C   UNL A   1      42.418  27.748  31.038  1.00  0.00     0.031 C 
ATOM     56  C   UNL A   1      42.593  30.684  36.356  1.00  0.00     0.029 A 
ATOM     57  C   UNL A   1      42.244  30.295  35.072  1.00  0.00     0.049 A 
ATOM     58  H   UNL A   1      40.727  31.058  33.819  1.00  0.00     0.167 HD
ATOM     59  C   UNL A   1      42.410  28.903  33.021  1.00  0.00     0.074 A 
ATOM     60  C   UNL A   1      43.010  27.854  32.220  1.00  0.00     0.031 C 
ATOM     61  C   UNL A   1      42.837  29.266  34.255  1.00  0.00     0.037 A 
BRANCH  48  62
ATOM     62  C   UNL A   1      39.614  33.867  36.835  1.00  0.00     0.064 A 
ATOM     63  C   UNL A   1      40.187  35.145  36.905  1.00  0.00     0.173 A 
ATOM     64  C   UNL A   1      38.804  33.453  37.903  1.00  0.00     0.173 A 
ATOM     65  F   UNL A   1      40.983  35.583  35.917  1.00  0.00    -0.203 F 
ATOM     66  C   UNL A   1      39.978  35.965  38.011  1.00  0.00     0.198 A 
ATOM     67  C   UNL A   1      38.575  34.286  38.996  1.00  0.00     0.198 A 
ATOM     68  F   UNL A   1      38.228  32.241  37.885  1.00  0.00    -0.203 F 
ATOM     69  F   UNL A   1      40.573  37.164  38.076  1.00  0.00    -0.200 F 
ATOM     70  C   UNL A   1      39.166  35.538  39.052  1.00  0.00     0.200 A 
ATOM     71  F   UNL A   1      37.783  33.875  39.996  1.00  0.00    -0.200 F 
ATOM     72  F   UNL A   1      38.962  36.331  40.112  1.00  0.00    -0.200 F 
ENDBRANCH  48  62
BRANCH  49  73
ATOM     73  C   UNL A   1      40.543  28.021  28.786  1.00  0.00     0.064 A 
ATOM     74  C   UNL A   1      39.805  26.831  28.750  1.00  0.00     0.173 A 
ATOM     75  C   UNL A   1      41.297  28.358  27.652  1.00  0.00     0.173 A 
ATOM     76  F   UNL A   1      39.082  26.459  29.817  1.00  0.00    -0.203 F 
ATOM     77  C   UNL A   1      39.810  26.016  27.619  1.00  0.00     0.198 A 
ATOM     78  C   UNL A   1      41.281  27.557  26.512  1.00  0.00     0.198 A 
ATOM     79  F   UNL A   1      42.015  29.491  27.637  1.00  0.00    -0.203 F 
ATOM     80  F   UNL A   1      39.105  24.877  27.613  1.00  0.00    -0.200 F 
ATOM     81  C   UNL A   1      40.538  26.387  26.497  1.00  0.00     0.200 A 
ATOM     82  F   UNL A   1      41.970  27.930  25.425  1.00  0.00    -0.200 F 
ATOM     83  F   UNL A   1      40.521  25.618  25.401  1.00  0.00    -0.200 F 
ENDBRANCH  49  73
BRANCH  61  84
ATOM     84  C   UNL A   1      44.016  28.529  34.815  1.00  0.00     0.064 A 
ATOM     85  C   UNL A   1      43.854  27.324  35.513  1.00  0.00     0.173 A 
ATOM     86  C   UNL A   1      45.320  28.999  34.601  1.00  0.00     0.173 A 
ATOM     87  F   UNL A   1      42.626  26.844  35.756  1.00  0.00    -0.203 F 
ATOM     88  C   UNL A   1      44.958  26.622  35.989  1.00  0.00     0.198 A 
ATOM     89  C   UNL A   1      46.422  28.282  35.057  1.00  0.00     0.198 A 
ATOM     90  F   UNL A   1      45.524  30.144  33.933  1.00  0.00    -0.203 F 
ATOM     91  F   UNL A   1      44.781  25.489  36.682  1.00  0.00    -0.200 F 
ATOM     92  C   UNL A   1      46.239  27.097  35.753  1.00  0.00     0.200 A 
ATOM     93  F   UNL A   1      47.660  28.735  34.818  1.00  0.00    -0.200 F 
ATOM     94  F   UNL A   1      47.301  26.412  36.201  1.00  0.00    -0.200 F 
ENDBRANCH  61  84
ENDBRANCH  35  36
ENDBRANCH  27  30
ENDBRANCH  25  26
ENDBRANCH   1  25
TORSDOF 13
ENDMDL
MODEL 2
REMARK VINA RESULT:     -13.2      0.169      1.593
REMARK SMILES CCCc1cc2c(cc1Cl)C=C(C(=O)NCCCNC(=O)c1ccc(-c3c4nc(c(-c5c(F)c(F)c(F)c(F)c5F)c5ccc([nH]5)c(-c5c(F)c(F)c(F)c(F)c5F)c5nc(c(-c6c(F)c(F)c(F)c(F)c6F)c6ccc3[nH]6)C=C5)C=C4)cc1)[C@@H](C(F)(F)F)O2
REMARK SMILES IDX 17 1 16 2 15 3 13 4 14 5 12 7 4 8 5 9 9 10 6 11 8 12 10 13
REMARK SMILES IDX 7 14 90 15 11 16 85 17 3 18 2 19 1 20 86 21 87 22 88 23
REMARK SMILES IDX 89 24 18 25 19 26 20 27 21 29 22 30 23 31 84 32 24 33 83 34
REMARK SMILES IDX 25 35 26 36 27 37 77 38 28 39 82 40 76 41 78 42 29 43 81 44
REMARK SMILES IDX 75 45 74 46 30 48 62 49 42 50 61 51 43 52 46 53 60 54 79 55
REMARK SMILES IDX 44 56 45 57 59 59 80 60 47 61 31 62 32 63 40 64 33 65 34 66
REMARK SMILES IDX 38 67 41 68 35 69 36 70 39 71 37 72 63 73 64 74 72 75 65 76
REMARK SMILES IDX 66 77 70 78 73 79 67 80 68 81 71 82 69 83 48 84 49 85 57 86
REMARK SMILES IDX 50 87 51 88 55 89 58 90 52 91 53 92 56 93 54 94
REMARK H PARENT 15 6 19 28 78 47 46 58
REMARK Flexibility Score: inf
ROOT
ATOM      1  C   UNL A   1      31.519  32.113  26.719  1.00  0.00     0.042 C 
ENDROOT
BRANCH   1   2
ATOM      2  C   UNL A   1      31.745  30.634  26.443  1.00  0.00     0.118 C 
BRANCH   2   3
ATOM      3  N   UNL A   1      31.292  30.263  25.111  1.00  0.00    -0.352 N 
ATOM      4  C   UNL A   1      31.149  29.128  24.392  1.00  0.00     0.251 C 
ATOM      5  O   UNL A   1      30.733  29.291  23.241  1.00  0.00    -0.270 OA
ATOM      6  H   UNL A   1      31.014  31.053  24.594  1.00  0.00     0.163 HD
BRANCH   4   7
ATOM      7  C   UNL A   1      31.448  27.755  24.883  1.00  0.00     0.067 C 
ATOM      8  C   UNL A   1      33.755  23.546  26.493  1.00  0.00    -0.026 A 
ATOM      9  C   UNL A   1      32.456  24.090  26.629  1.00  0.00     0.052 A 
ATOM     10  C   UNL A   1      34.699  24.309  25.784  1.00  0.00     0.045 A 
ATOM     11  C   UNL A   1      32.134  25.340  26.106  1.00  0.00     0.128 A 
ATOM     12  C   UNL A   1      34.386  25.600  25.325  1.00  0.00     0.032 A 
ATOM     13  Cl  UNL A   1      36.275  23.745  25.360  1.00  0.00    -0.084 Cl
ATOM     14  C   UNL A   1      33.104  26.119  25.486  1.00  0.00     0.019 A 
ATOM     15  O   UNL A   1      30.838  25.763  26.230  1.00  0.00    -0.475 OA
ATOM     16  C   UNL A   1      32.753  27.454  25.022  1.00  0.00     0.025 C 
ATOM     17  C   UNL A   1      30.415  26.710  25.204  1.00  0.00     0.314 C 
BRANCH   8  18
ATOM     18  C   UNL A   1      33.934  22.146  27.052  1.00  0.00     0.037 C 
BRANCH  18  19
ATOM     19  C   UNL A   1      33.793  20.902  26.171  1.00  0.00     0.001 C 
ATOM     20  C   UNL A   1      33.514  21.202  24.706  1.00  0.00     0.004 C 
ENDBRANCH  18  19
ENDBRANCH   8  18
BRANCH  17  21
ATOM     21  C   UNL A   1      29.934  25.953  23.945  1.00  0.00     0.429 C 
ATOM     22  F   UNL A   1      28.656  26.298  23.648  1.00  0.00    -0.167 F 
ATOM     23  F   UNL A   1      30.676  26.251  22.851  1.00  0.00    -0.167 F 
ATOM     24  F   UNL A   1      29.970  24.611  24.085  1.00  0.00    -0.167 F 
ENDBRANCH  17  21
ENDBRANCH   4   7
ENDBRANCH   2   3
ENDBRANCH   1   2
BRANCH   1  25
ATOM     25  C   UNL A   1      32.761  32.797  27.277  1.00  0.00     0.118 C 
BRANCH  25  26
ATOM     26  N   UNL A   1      32.504  34.184  27.654  1.00  0.00    -0.352 N 
ATOM     27  C   UNL A   1      33.035  34.945  28.670  1.00  0.00     0.251 C 
ATOM     28  H   UNL A   1      31.844  34.649  27.091  1.00  0.00     0.163 HD
ATOM     29  O   UNL A   1      32.519  36.013  28.970  1.00  0.00    -0.269 OA
BRANCH  27  30
ATOM     30  C   UNL A   1      34.218  34.462  29.412  1.00  0.00     0.039 A 
ATOM     31  C   UNL A   1      35.499  34.659  28.898  1.00  0.00     0.014 A 
ATOM     32  C   UNL A   1      34.044  33.805  30.633  1.00  0.00     0.014 A 
ATOM     33  C   UNL A   1      36.580  34.029  29.495  1.00  0.00     0.010 A 
ATOM     34  C   UNL A   1      35.152  33.267  31.293  1.00  0.00     0.010 A 
ATOM     35  C   UNL A   1      36.422  33.328  30.700  1.00  0.00    -0.014 A 
BRANCH  35  36
ATOM     36  C   UNL A   1      37.607  32.669  31.306  1.00  0.00     0.031 A 
ATOM     37  C   UNL A   1      38.046  33.008  32.703  1.00  0.00     0.074 A 
ATOM     38  C   UNL A   1      38.234  31.696  30.617  1.00  0.00     0.049 A 
ATOM     39  N   UNL A   1      39.029  32.502  33.405  1.00  0.00    -0.248 NA
ATOM     40  C   UNL A   1      37.288  34.054  33.407  1.00  0.00     0.031 C 
ATOM     41  C   UNL A   1      37.881  31.269  29.262  1.00  0.00     0.029 A 
ATOM     42  N   UNL A   1      39.259  30.859  30.973  1.00  0.00    -0.354 N 
ATOM     43  C   UNL A   1      39.021  33.180  34.617  1.00  0.00     0.074 A 
ATOM     44  C   UNL A   1      37.956  34.155  34.548  1.00  0.00     0.031 C 
ATOM     45  C   UNL A   1      38.617  30.198  28.933  1.00  0.00     0.029 A 
ATOM     46  C   UNL A   1      39.546  29.912  30.022  1.00  0.00     0.049 A 
ATOM     47  H   UNL A   1      39.744  30.931  31.827  1.00  0.00     0.167 HD
ATOM     48  C   UNL A   1      39.825  32.995  35.692  1.00  0.00     0.037 A 
ATOM     49  C   UNL A   1      40.460  28.925  30.020  1.00  0.00     0.037 A 
ATOM     50  C   UNL A   1      40.868  32.005  35.763  1.00  0.00     0.049 A 
ATOM     51  C   UNL A   1      41.366  28.769  31.205  1.00  0.00     0.074 A 
ATOM     52  C   UNL A   1      41.729  31.732  36.810  1.00  0.00     0.029 A 
ATOM     53  N   UNL A   1      41.186  31.120  34.742  1.00  0.00    -0.354 N 
ATOM     54  N   UNL A   1      41.364  29.432  32.335  1.00  0.00    -0.248 NA
ATOM     55  C   UNL A   1      42.415  27.747  31.106  1.00  0.00     0.031 C 
ATOM     56  C   UNL A   1      42.595  30.708  36.410  1.00  0.00     0.029 A 
ATOM     57  C   UNL A   1      42.245  30.313  35.128  1.00  0.00     0.049 A 
ATOM     58  H   UNL A   1      40.728  31.071  33.872  1.00  0.00     0.167 HD
ATOM     59  C   UNL A   1      42.408  28.911  33.084  1.00  0.00     0.074 A 
ATOM     60  C   UNL A   1      43.007  27.859  32.287  1.00  0.00     0.031 C 
ATOM     61  C   UNL A   1      42.837  29.280  34.315  1.00  0.00     0.037 A 
BRANCH  48  62
ATOM     62  C   UNL A   1      39.618  33.895  36.875  1.00  0.00     0.064 A 
ATOM     63  C   UNL A   1      38.825  33.509  37.966  1.00  0.00     0.173 A 
ATOM     64  C   UNL A   1      40.248  35.147  36.935  1.00  0.00     0.173 A 
ATOM     65  F   UNL A   1      38.188  32.328  37.952  1.00  0.00    -0.203 F 
ATOM     66  C   UNL A   1      38.650  34.352  39.060  1.00  0.00     0.198 A 
ATOM     67  C   UNL A   1      40.093  35.978  38.042  1.00  0.00     0.198 A 
ATOM     68  F   UNL A   1      41.021  35.564  35.921  1.00  0.00    -0.203 F 
ATOM     69  F   UNL A   1      37.850  33.981  40.069  1.00  0.00    -0.200 F 
ATOM     70  C   UNL A   1      39.289  35.583  39.100  1.00  0.00     0.200 A 
ATOM     71  F   UNL A   1      40.719  37.162  38.084  1.00  0.00    -0.200 F 
ATOM     72  F   UNL A   1      39.123  36.391  40.156  1.00  0.00    -0.200 F 
ENDBRANCH  48  62
BRANCH  49  73
ATOM     73  C   UNL A   1      40.539  28.012  28.853  1.00  0.00     0.064 A 
ATOM     74  C   UNL A   1      39.792  26.827  28.818  1.00  0.00     0.173 A 
ATOM     75  C   UNL A   1      41.303  28.338  27.722  1.00  0.00     0.173 A 
ATOM     76  F   UNL A   1      39.060  26.466  29.882  1.00  0.00    -0.203 F 
ATOM     77  C   UNL A   1      39.796  26.008  27.690  1.00  0.00     0.198 A 
ATOM     78  C   UNL A   1      41.286  27.532  26.585  1.00  0.00     0.198 A 
ATOM     79  F   UNL A   1      42.029  29.464  27.706  1.00  0.00    -0.203 F 
ATOM     80  F   UNL A   1      39.082  24.875  27.685  1.00  0.00    -0.200 F 
ATOM     81  C   UNL A   1      40.534  26.368  26.571  1.00  0.00     0.200 A 
ATOM     82  F   UNL A   1      41.984  27.894  25.501  1.00  0.00    -0.200 F 
ATOM     83  F   UNL A   1      40.516  25.595  25.478  1.00  0.00    -0.200 F 
ENDBRANCH  49  73
BRANCH  61  84
ATOM     84  C   UNL A   1      44.015  28.544  34.878  1.00  0.00     0.064 A 
ATOM     85  C   UNL A   1      45.321  29.023  34.705  1.00  0.00     0.173 A 
ATOM     86  C   UNL A   1      43.832  27.386  35.648  1.00  0.00     0.173 A 
ATOM     87  F   UNL A   1      45.546  30.118  33.964  1.00  0.00    -0.203 F 
ATOM     88  C   UNL A   1      46.405  28.359  35.272  1.00  0.00     0.198 A 
ATOM     89  C   UNL A   1      44.916  26.739  36.234  1.00  0.00     0.198 A 
ATOM     90  F   UNL A   1      42.600  26.894  35.846  1.00  0.00    -0.203 F 
ATOM     91  F   UNL A   1      47.649  28.814  35.067  1.00  0.00    -0.200 F 
ATOM     92  C   UNL A   1      46.201  27.224  36.042  1.00  0.00     0.200 A 
ATOM     93  F   UNL A   1      44.716  25.650  36.988  1.00  0.00    -0.200 F 
ATOM     94  F   UNL A   1      47.245  26.593  36.598  1.00  0.00    -0.200 F 
ENDBRANCH  61  84
ENDBRANCH  35  36
ENDBRANCH  27  30
ENDBRANCH  25  26
ENDBRANCH   1  25
TORSDOF 13
ENDMDL
MODEL 3
REMARK VINA RESULT:     -13.0      5.536     10.640
REMARK SMILES CCCc1cc2c(cc1Cl)C=C(C(=O)NCCCNC(=O)c1ccc(-c3c4nc(c(-c5c(F)c(F)c(F)c(F)c5F)c5ccc([nH]5)c(-c5c(F)c(F)c(F)c(F)c5F)c5nc(c(-c6c(F)c(F)c(F)c(F)c6F)c6ccc3[nH]6)C=C5)C=C4)cc1)[C@@H](C(F)(F)F)O2
REMARK SMILES IDX 17 1 16 2 15 3 13 4 14 5 12 7 4 8 5 9 9 10 6 11 8 12 10 13
REMARK SMILES IDX 7 14 90 15 11 16 85 17 3 18 2 19 1 20 86 21 87 22 88 23
REMARK SMILES IDX 89 24 18 25 19 26 20 27 21 29 22 30 23 31 84 32 24 33 83 34
REMARK SMILES IDX 25 35 26 36 27 37 77 38 28 39 82 40 76 41 78 42 29 43 81 44
REMARK SMILES IDX 75 45 74 46 30 48 62 49 42 50 61 51 43 52 46 53 60 54 79 55
REMARK SMILES IDX 44 56 45 57 59 59 80 60 47 61 31 62 32 63 40 64 33 65 34 66
REMARK SMILES IDX 38 67 41 68 35 69 36 70 39 71 37 72 63 73 64 74 72 75 65 76
REMARK SMILES IDX 66 77 70 78 73 79 67 80 68 81 71 82 69 83 48 84 49 85 57 86
REMARK SMILES IDX 50 87 51 88 55 89 58 90 52 91 53 92 56 93 54 94
REMARK H PARENT 15 6 19 28 78 47 46 58
REMARK Flexibility Score: inf
ROOT
ATOM      1  C   UNL A   1      38.146  19.697  24.978  1.00  0.00     0.042 C 
ENDROOT
BRANCH   1   2
ATOM      2  C   UNL A   1      37.144  20.819  24.752  1.00  0.00     0.118 C 
BRANCH   2   3
ATOM      3  N   UNL A   1      35.792  20.404  25.092  1.00  0.00    -0.352 N 
ATOM      4  C   UNL A   1      34.549  20.933  25.039  1.00  0.00     0.251 C 
ATOM      5  O   UNL A   1      33.654  20.203  25.477  1.00  0.00    -0.270 OA
ATOM      6  H   UNL A   1      35.778  19.491  25.460  1.00  0.00     0.163 HD
BRANCH   4   7
ATOM      7  C   UNL A   1      34.209  22.282  24.509  1.00  0.00     0.067 C 
ATOM      8  C   UNL A   1      33.610  27.271  23.894  1.00  0.00    -0.026 A 
ATOM      9  C   UNL A   1      33.694  26.158  23.024  1.00  0.00     0.052 A 
ATOM     10  C   UNL A   1      33.749  27.022  25.271  1.00  0.00     0.045 A 
ATOM     11  C   UNL A   1      33.931  24.875  23.509  1.00  0.00     0.128 A 
ATOM     12  C   UNL A   1      34.062  25.735  25.743  1.00  0.00     0.032 A 
ATOM     13  Cl  UNL A   1      33.502  28.211  26.497  1.00  0.00    -0.084 Cl
ATOM     14  C   UNL A   1      34.155  24.660  24.864  1.00  0.00     0.019 A 
ATOM     15  O   UNL A   1      33.937  23.847  22.604  1.00  0.00    -0.475 OA
ATOM     16  C   UNL A   1      34.480  23.317  25.326  1.00  0.00     0.025 C 
ATOM     17  C   UNL A   1      33.584  22.548  23.168  1.00  0.00     0.314 C 
BRANCH   8  18
ATOM     18  C   UNL A   1      33.276  28.593  23.226  1.00  0.00     0.037 C 
BRANCH  18  19
ATOM     19  C   UNL A   1      31.848  28.943  22.800  1.00  0.00     0.001 C 
ATOM     20  C   UNL A   1      30.880  29.135  23.958  1.00  0.00     0.004 C 
ENDBRANCH  18  19
ENDBRANCH   8  18
BRANCH  17  21
ATOM     21  C   UNL A   1      32.048  22.376  23.191  1.00  0.00     0.429 C 
ATOM     22  F   UNL A   1      31.442  23.504  22.741  1.00  0.00    -0.167 F 
ATOM     23  F   UNL A   1      31.631  21.369  22.385  1.00  0.00    -0.167 F 
ATOM     24  F   UNL A   1      31.560  22.116  24.423  1.00  0.00    -0.167 F 
ENDBRANCH  17  21
ENDBRANCH   4   7
ENDBRANCH   2   3
ENDBRANCH   1   2
BRANCH   1  25
ATOM     25  C   UNL A   1      39.317  20.130  25.852  1.00  0.00     0.118 C 
BRANCH  25  26
ATOM     26  N   UNL A   1      40.366  19.116  25.910  1.00  0.00    -0.352 N 
ATOM     27  C   UNL A   1      41.725  19.246  26.085  1.00  0.00     0.251 C 
ATOM     28  H   UNL A   1      40.050  18.189  25.807  1.00  0.00     0.163 HD
ATOM     29  O   UNL A   1      42.464  18.296  25.869  1.00  0.00    -0.269 OA
BRANCH  27  30
ATOM     30  C   UNL A   1      42.291  20.542  26.516  1.00  0.00     0.039 A 
ATOM     31  C   UNL A   1      42.321  20.881  27.867  1.00  0.00     0.014 A 
ATOM     32  C   UNL A   1      42.796  21.425  25.558  1.00  0.00     0.014 A 
ATOM     33  C   UNL A   1      42.664  22.171  28.241  1.00  0.00     0.010 A 
ATOM     34  C   UNL A   1      43.250  22.687  25.950  1.00  0.00     0.010 A 
ATOM     35  C   UNL A   1      43.135  23.090  27.289  1.00  0.00    -0.014 A 
BRANCH  35  36
ATOM     36  C   UNL A   1      43.493  24.461  27.733  1.00  0.00     0.031 A 
ATOM     37  C   UNL A   1      44.920  24.930  27.706  1.00  0.00     0.074 A 
ATOM     38  C   UNL A   1      42.508  25.311  28.079  1.00  0.00     0.049 A 
ATOM     39  N   UNL A   1      45.409  26.106  28.016  1.00  0.00    -0.248 NA
ATOM     40  C   UNL A   1      45.937  23.957  27.280  1.00  0.00     0.031 C 
ATOM     41  C   UNL A   1      41.084  24.970  28.122  1.00  0.00     0.029 A 
ATOM     42  N   UNL A   1      42.542  26.641  28.410  1.00  0.00    -0.354 N 
ATOM     43  C   UNL A   1      46.783  26.005  27.844  1.00  0.00     0.074 A 
ATOM     44  C   UNL A   1      47.059  24.647  27.431  1.00  0.00     0.031 C 
ATOM     45  C   UNL A   1      40.375  26.079  28.376  1.00  0.00     0.029 A 
ATOM     46  C   UNL A   1      41.296  27.190  28.591  1.00  0.00     0.049 A 
ATOM     47  H   UNL A   1      43.377  27.151  28.510  1.00  0.00     0.167 HD
ATOM     48  C   UNL A   1      47.726  26.964  28.007  1.00  0.00     0.037 A 
ATOM     49  C   UNL A   1      40.933  28.447  28.902  1.00  0.00     0.037 A 
ATOM     50  C   UNL A   1      47.442  28.322  28.393  1.00  0.00     0.049 A 
ATOM     51  C   UNL A   1      41.998  29.480  29.118  1.00  0.00     0.074 A 
ATOM     52  C   UNL A   1      48.325  29.371  28.575  1.00  0.00     0.029 A 
ATOM     53  N   UNL A   1      46.171  28.818  28.653  1.00  0.00    -0.354 N 
ATOM     54  N   UNL A   1      43.296  29.367  28.975  1.00  0.00    -0.248 NA
ATOM     55  C   UNL A   1      41.554  30.807  29.561  1.00  0.00     0.031 C 
ATOM     56  C   UNL A   1      47.595  30.493  28.982  1.00  0.00     0.029 A 
ATOM     57  C   UNL A   1      46.251  30.154  29.013  1.00  0.00     0.049 A 
ATOM     58  H   UNL A   1      45.338  28.299  28.591  1.00  0.00     0.167 HD
ATOM     59  C   UNL A   1      43.826  30.603  29.311  1.00  0.00     0.074 A 
ATOM     60  C   UNL A   1      42.704  31.461  29.641  1.00  0.00     0.031 C 
ATOM     61  C   UNL A   1      45.124  30.988  29.352  1.00  0.00     0.037 A 
BRANCH  48  62
ATOM     62  C   UNL A   1      49.158  26.575  27.781  1.00  0.00     0.064 A 
ATOM     63  C   UNL A   1      49.699  26.468  26.492  1.00  0.00     0.173 A 
ATOM     64  C   UNL A   1      50.010  26.338  28.871  1.00  0.00     0.173 A 
ATOM     65  F   UNL A   1      48.924  26.670  25.415  1.00  0.00    -0.203 F 
ATOM     66  C   UNL A   1      51.032  26.114  26.301  1.00  0.00     0.198 A 
ATOM     67  C   UNL A   1      51.350  26.009  28.677  1.00  0.00     0.198 A 
ATOM     68  F   UNL A   1      49.544  26.430  30.126  1.00  0.00    -0.203 F 
ATOM     69  F   UNL A   1      51.515  25.974  25.058  1.00  0.00    -0.200 F 
ATOM     70  C   UNL A   1      51.858  25.891  27.393  1.00  0.00     0.200 A 
ATOM     71  F   UNL A   1      52.148  25.805  29.734  1.00  0.00    -0.200 F 
ATOM     72  F   UNL A   1      53.142  25.556  27.207  1.00  0.00    -0.200 F 
ENDBRANCH  48  62
BRANCH  49  73
ATOM     73  C   UNL A   1      39.491  28.780  29.011  1.00  0.00     0.064 A 
ATOM     74  C   UNL A   1      38.826  28.690  30.241  1.00  0.00     0.173 A 
ATOM     75  C   UNL A   1      38.769  29.264  27.910  1.00  0.00     0.173 A 
ATOM     76  F   UNL A   1      39.471  28.217  31.318  1.00  0.00    -0.203 F 
ATOM     77  C   UNL A   1      37.494  29.081  30.367  1.00  0.00     0.198 A 
ATOM     78  C   UNL A   1      37.446  29.679  28.043  1.00  0.00     0.198 A 
ATOM     79  F   UNL A   1      39.364  29.374  26.714  1.00  0.00    -0.203 F 
ATOM     80  F   UNL A   1      36.876  28.975  31.551  1.00  0.00    -0.200 F 
ATOM     81  C   UNL A   1      36.810  29.587  29.271  1.00  0.00     0.200 A 
ATOM     82  F   UNL A   1      36.796  30.185  26.986  1.00  0.00    -0.200 F 
ATOM     83  F   UNL A   1      35.539  29.988  29.400  1.00  0.00    -0.200 F 
ENDBRANCH  49  73
BRANCH  61  84
ATOM     84  C   UNL A   1      45.407  32.399  29.772  1.00  0.00     0.064 A 
ATOM     85  C   UNL A   1      45.414  33.447  28.841  1.00  0.00     0.173 A 
ATOM     86  C   UNL A   1      45.613  32.713  31.123  1.00  0.00     0.173 A 
ATOM     87  F   UNL A   1      45.237  33.193  27.537  1.00  0.00    -0.203 F 
ATOM     88  C   UNL A   1      45.630  34.760  29.248  1.00  0.00     0.198 A 
ATOM     89  C   UNL A   1      45.805  34.030  31.529  1.00  0.00     0.198 A 
ATOM     90  F   UNL A   1      45.610  31.744  32.051  1.00  0.00    -0.203 F 
ATOM     91  F   UNL A   1      45.666  35.744  28.339  1.00  0.00    -0.200 F 
ATOM     92  C   UNL A   1      45.817  35.051  30.591  1.00  0.00     0.200 A 
ATOM     93  F   UNL A   1      45.973  34.312  32.828  1.00  0.00    -0.200 F 
ATOM     94  F   UNL A   1      46.013  36.319  30.982  1.00  0.00    -0.200 F 
ENDBRANCH  61  84
ENDBRANCH  35  36
ENDBRANCH  27  30
ENDBRANCH  25  26
ENDBRANCH   1  25
TORSDOF 13
ENDMDL
