MODEL 1
REMARK VINA RESULT:     -12.5      0.000      0.000
REMARK SMILES CCc1ccc2c(c1)C=C(C(=O)NCCCNC(=O)c1ccc(-c3c4nc(c(-c5c(F)c(F)c(F)c(F)c5F)c5ccc([nH]5)c(-c5c(F)c(F)c(F)c(F)c5F)c5nc(c(-c6c(F)c(F)c(F)c(F)c6F)c6ccc3[nH]6)C=C5)C=C4)cc1)[C@H](C(F)(F)F)O2
REMARK SMILES IDX 15 1 14 2 13 3 11 4 12 5 10 7 3 8 4 9 8 10 5 11 7 12 6 13
REMARK SMILES IDX 9 14 88 15 83 16 2 17 1 18 84 19 85 20 86 21 87 22 16 23
REMARK SMILES IDX 17 24 18 25 19 27 20 28 21 29 82 30 22 31 81 32 23 33 24 34
REMARK SMILES IDX 25 35 75 36 26 37 80 38 74 39 76 40 27 41 79 42 73 43 72 44
REMARK SMILES IDX 28 46 60 47 40 48 59 49 41 50 44 51 58 52 77 53 42 54 43 55
REMARK SMILES IDX 57 57 78 58 45 59 29 60 30 61 38 62 31 63 32 64 36 65 39 66
REMARK SMILES IDX 33 67 34 68 37 69 35 70 61 71 62 72 70 73 63 74 64 75 68 76
REMARK SMILES IDX 71 77 65 78 66 79 69 80 67 81 46 82 47 83 55 84 48 85 49 86
REMARK SMILES IDX 53 87 56 88 50 89 51 90 54 91 52 92
REMARK H PARENT 13 6 17 26 76 45 44 56
REMARK Flexibility Score: inf
ROOT
ATOM      1  C   UNL A   1      32.843  28.909  24.009  1.00  0.00     0.042 C 
ENDROOT
BRANCH   1   2
ATOM      2  C   UNL A   1      31.479  28.219  23.900  1.00  0.00     0.118 C 
BRANCH   2   3
ATOM      3  N   UNL A   1      31.131  27.571  25.156  1.00  0.00    -0.352 N 
ATOM      4  C   UNL A   1      31.440  26.361  25.693  1.00  0.00     0.251 C 
ATOM      5  O   UNL A   1      30.873  26.032  26.733  1.00  0.00    -0.270 OA
ATOM      6  H   UNL A   1      30.556  28.122  25.735  1.00  0.00     0.163 HD
BRANCH   4   7
ATOM      7  C   UNL A   1      32.474  25.463  25.119  1.00  0.00     0.067 C 
ATOM      8  C   UNL A   1      36.818  23.315  25.125  1.00  0.00    -0.047 A 
ATOM      9  C   UNL A   1      36.390  22.481  24.086  1.00  0.00     0.007 A 
ATOM     10  C   UNL A   1      35.937  24.307  25.587  1.00  0.00     0.015 A 
ATOM     11  C   UNL A   1      35.111  22.624  23.539  1.00  0.00     0.047 A 
ATOM     12  C   UNL A   1      34.654  24.447  25.043  1.00  0.00     0.017 A 
ATOM     13  C   UNL A   1      34.243  23.601  24.023  1.00  0.00     0.128 A 
ATOM     14  C   UNL A   1      33.719  25.402  25.610  1.00  0.00     0.025 C 
ATOM     15  O   UNL A   1      32.988  23.619  23.494  1.00  0.00    -0.475 OA
ATOM     16  C   UNL A   1      32.098  24.723  23.836  1.00  0.00     0.314 C 
BRANCH   8  17
ATOM     17  C   UNL A   1      38.153  23.178  25.823  1.00  0.00     0.032 C 
ATOM     18  C   UNL A   1      38.553  24.295  26.776  1.00  0.00     0.009 C 
ENDBRANCH   8  17
BRANCH  16  19
ATOM     19  C   UNL A   1      30.653  24.179  23.761  1.00  0.00     0.429 C 
ATOM     20  F   UNL A   1      29.742  25.144  23.502  1.00  0.00    -0.167 F 
ATOM     21  F   UNL A   1      30.523  23.278  22.751  1.00  0.00    -0.167 F 
ATOM     22  F   UNL A   1      30.283  23.547  24.899  1.00  0.00    -0.167 F 
ENDBRANCH  16  19
ENDBRANCH   4   7
ENDBRANCH   2   3
ENDBRANCH   1   2
BRANCH   1  23
ATOM     23  C   UNL A   1      33.260  29.205  25.449  1.00  0.00     0.118 C 
BRANCH  23  24
ATOM     24  N   UNL A   1      32.829  30.527  25.877  1.00  0.00    -0.352 N 
ATOM     25  C   UNL A   1      33.280  31.309  26.912  1.00  0.00     0.251 C 
ATOM     26  H   UNL A   1      32.104  30.923  25.342  1.00  0.00     0.163 HD
ATOM     27  O   UNL A   1      32.635  32.297  27.251  1.00  0.00    -0.269 OA
BRANCH  25  28
ATOM     28  C   UNL A   1      34.527  30.968  27.631  1.00  0.00     0.039 A 
ATOM     29  C   UNL A   1      35.483  31.969  27.832  1.00  0.00     0.014 A 
ATOM     30  C   UNL A   1      34.783  29.663  28.062  1.00  0.00     0.014 A 
ATOM     31  C   UNL A   1      36.665  31.677  28.517  1.00  0.00     0.010 A 
ATOM     32  C   UNL A   1      35.932  29.386  28.799  1.00  0.00     0.010 A 
ATOM     33  C   UNL A   1      36.885  30.390  29.034  1.00  0.00    -0.014 A 
BRANCH  33  34
ATOM     34  C   UNL A   1      38.095  30.077  29.836  1.00  0.00     0.031 A 
ATOM     35  C   UNL A   1      39.136  29.135  29.301  1.00  0.00     0.074 A 
ATOM     36  C   UNL A   1      38.218  30.587  31.077  1.00  0.00     0.049 A 
ATOM     37  N   UNL A   1      40.208  28.663  29.889  1.00  0.00    -0.248 NA
ATOM     38  C   UNL A   1      38.936  28.637  27.931  1.00  0.00     0.031 C 
ATOM     39  C   UNL A   1      37.258  31.484  31.720  1.00  0.00     0.029 A 
ATOM     40  N   UNL A   1      39.194  30.408  32.026  1.00  0.00    -0.354 N 
ATOM     41  C   UNL A   1      40.797  27.805  28.969  1.00  0.00     0.074 A 
ATOM     42  C   UNL A   1      39.943  27.786  27.803  1.00  0.00     0.031 C 
ATOM     43  C   UNL A   1      37.697  31.789  32.950  1.00  0.00     0.029 A 
ATOM     44  C   UNL A   1      38.948  31.078  33.200  1.00  0.00     0.049 A 
ATOM     45  H   UNL A   1      39.994  29.854  31.879  1.00  0.00     0.167 HD
ATOM     46  C   UNL A   1      41.957  27.113  29.084  1.00  0.00     0.037 A 
ATOM     47  C   UNL A   1      39.643  31.104  34.352  1.00  0.00     0.037 A 
ATOM     48  C   UNL A   1      42.814  27.153  30.240  1.00  0.00     0.049 A 
ATOM     49  C   UNL A   1      40.917  30.310  34.459  1.00  0.00     0.074 A 
ATOM     50  C   UNL A   1      44.037  26.532  30.429  1.00  0.00     0.029 A 
ATOM     51  N   UNL A   1      42.536  27.852  31.406  1.00  0.00    -0.354 N 
ATOM     52  N   UNL A   1      41.494  29.549  33.562  1.00  0.00    -0.248 NA
ATOM     53  C   UNL A   1      41.634  30.378  35.740  1.00  0.00     0.031 C 
ATOM     54  C   UNL A   1      44.476  26.819  31.726  1.00  0.00     0.029 A 
ATOM     55  C   UNL A   1      43.553  27.658  32.327  1.00  0.00     0.049 A 
ATOM     56  H   UNL A   1      41.735  28.403  31.556  1.00  0.00     0.167 HD
ATOM     57  C   UNL A   1      42.655  29.072  34.157  1.00  0.00     0.074 A 
ATOM     58  C   UNL A   1      42.705  29.639  35.488  1.00  0.00     0.031 C 
ATOM     59  C   UNL A   1      43.592  28.237  33.645  1.00  0.00     0.037 A 
BRANCH  46  60
ATOM     60  C   UNL A   1      42.367  26.250  27.926  1.00  0.00     0.064 A 
ATOM     61  C   UNL A   1      41.919  24.927  27.800  1.00  0.00     0.173 A 
ATOM     62  C   UNL A   1      43.182  26.766  26.906  1.00  0.00     0.173 A 
ATOM     63  F   UNL A   1      41.146  24.382  28.751  1.00  0.00    -0.203 F 
ATOM     64  C   UNL A   1      42.296  24.142  26.713  1.00  0.00     0.198 A 
ATOM     65  C   UNL A   1      43.532  25.989  25.805  1.00  0.00     0.198 A 
ATOM     66  F   UNL A   1      43.631  28.028  26.972  1.00  0.00    -0.203 F 
ATOM     67  F   UNL A   1      41.894  22.865  26.638  1.00  0.00    -0.200 F 
ATOM     68  C   UNL A   1      43.095  24.676  25.713  1.00  0.00     0.200 A 
ATOM     69  F   UNL A   1      44.293  26.510  24.833  1.00  0.00    -0.200 F 
ATOM     70  F   UNL A   1      43.450  23.921  24.663  1.00  0.00    -0.200 F 
ENDBRANCH  46  60
BRANCH  47  71
ATOM     71  C   UNL A   1      39.159  31.924  35.492  1.00  0.00     0.064 A 
ATOM     72  C   UNL A   1      38.339  31.364  36.482  1.00  0.00     0.173 A 
ATOM     73  C   UNL A   1      39.500  33.278  35.617  1.00  0.00     0.173 A 
ATOM     74  F   UNL A   1      37.968  30.078  36.394  1.00  0.00    -0.203 F 
ATOM     75  C   UNL A   1      37.866  32.131  37.544  1.00  0.00     0.198 A 
ATOM     76  C   UNL A   1      39.051  34.038  36.696  1.00  0.00     0.198 A 
ATOM     77  F   UNL A   1      40.287  33.861  34.700  1.00  0.00    -0.203 F 
ATOM     78  F   UNL A   1      37.050  31.581  38.454  1.00  0.00    -0.200 F 
ATOM     79  C   UNL A   1      38.227  33.465  37.653  1.00  0.00     0.200 A 
ATOM     80  F   UNL A   1      39.415  35.322  36.806  1.00  0.00    -0.200 F 
ATOM     81  F   UNL A   1      37.777  34.201  38.679  1.00  0.00    -0.200 F 
ENDBRANCH  47  71
BRANCH  59  82
ATOM     82  C   UNL A   1      44.771  27.913  34.515  1.00  0.00     0.064 A 
ATOM     83  C   UNL A   1      45.921  28.715  34.524  1.00  0.00     0.173 A 
ATOM     84  C   UNL A   1      44.731  26.812  35.383  1.00  0.00     0.173 A 
ATOM     85  F   UNL A   1      46.015  29.769  33.699  1.00  0.00    -0.203 F 
ATOM     86  C   UNL A   1      46.997  28.415  35.356  1.00  0.00     0.198 A 
ATOM     87  C   UNL A   1      45.796  26.530  36.235  1.00  0.00     0.198 A 
ATOM     88  F   UNL A   1      43.651  26.015  35.417  1.00  0.00    -0.203 F 
ATOM     89  F   UNL A   1      48.103  29.170  35.317  1.00  0.00    -0.200 F 
ATOM     90  C   UNL A   1      46.930  27.329  36.215  1.00  0.00     0.200 A 
ATOM     91  F   UNL A   1      45.725  25.489  37.074  1.00  0.00    -0.200 F 
ATOM     92  F   UNL A   1      47.963  27.047  37.023  1.00  0.00    -0.200 F 
ENDBRANCH  59  82
ENDBRANCH  33  34
ENDBRANCH  25  28
ENDBRANCH  23  24
ENDBRANCH   1  23
TORSDOF 12
ENDMDL
MODEL 2
REMARK VINA RESULT:     -12.5      0.086      1.604
REMARK SMILES CCc1ccc2c(c1)C=C(C(=O)NCCCNC(=O)c1ccc(-c3c4nc(c(-c5c(F)c(F)c(F)c(F)c5F)c5ccc([nH]5)c(-c5c(F)c(F)c(F)c(F)c5F)c5nc(c(-c6c(F)c(F)c(F)c(F)c6F)c6ccc3[nH]6)C=C5)C=C4)cc1)[C@H](C(F)(F)F)O2
REMARK SMILES IDX 15 1 14 2 13 3 11 4 12 5 10 7 3 8 4 9 8 10 5 11 7 12 6 13
REMARK SMILES IDX 9 14 88 15 83 16 2 17 1 18 84 19 85 20 86 21 87 22 16 23
REMARK SMILES IDX 17 24 18 25 19 27 20 28 21 29 82 30 22 31 81 32 23 33 24 34
REMARK SMILES IDX 25 35 75 36 26 37 80 38 74 39 76 40 27 41 79 42 73 43 72 44
REMARK SMILES IDX 28 46 60 47 40 48 59 49 41 50 44 51 58 52 77 53 42 54 43 55
REMARK SMILES IDX 57 57 78 58 45 59 29 60 30 61 38 62 31 63 32 64 36 65 39 66
REMARK SMILES IDX 33 67 34 68 37 69 35 70 61 71 62 72 70 73 63 74 64 75 68 76
REMARK SMILES IDX 71 77 65 78 66 79 69 80 67 81 46 82 47 83 55 84 48 85 49 86
REMARK SMILES IDX 53 87 56 88 50 89 51 90 54 91 52 92
REMARK H PARENT 13 6 17 26 76 45 44 56
REMARK Flexibility Score: inf
ROOT
ATOM      1  C   UNL A   1      32.842  28.892  23.976  1.00  0.00     0.042 C 
ENDROOT
BRANCH   1   2
ATOM      2  C   UNL A   1      31.490  28.172  23.943  1.00  0.00     0.118 C 
BRANCH   2   3
ATOM      3  N   UNL A   1      31.206  27.556  25.231  1.00  0.00    -0.352 N 
ATOM      4  C   UNL A   1      31.544  26.360  25.783  1.00  0.00     0.251 C 
ATOM      5  O   UNL A   1      31.031  26.057  26.857  1.00  0.00    -0.270 OA
ATOM      6  H   UNL A   1      30.659  28.120  25.824  1.00  0.00     0.163 HD
BRANCH   4   7
ATOM      7  C   UNL A   1      32.551  25.448  25.180  1.00  0.00     0.067 C 
ATOM      8  C   UNL A   1      36.850  23.216  25.087  1.00  0.00    -0.047 A 
ATOM      9  C   UNL A   1      36.388  22.403  24.045  1.00  0.00     0.007 A 
ATOM     10  C   UNL A   1      35.997  24.219  25.575  1.00  0.00     0.015 A 
ATOM     11  C   UNL A   1      35.103  22.578  23.522  1.00  0.00     0.047 A 
ATOM     12  C   UNL A   1      34.708  24.392  25.055  1.00  0.00     0.017 A 
ATOM     13  C   UNL A   1      34.263  23.566  24.032  1.00  0.00     0.128 A 
ATOM     14  C   UNL A   1      33.803  25.358  25.649  1.00  0.00     0.025 C 
ATOM     15  O   UNL A   1      33.001  23.615  23.525  1.00  0.00    -0.475 OA
ATOM     16  C   UNL A   1      32.138  24.732  23.895  1.00  0.00     0.314 C 
BRANCH   8  17
ATOM     17  C   UNL A   1      38.194  23.045  25.760  1.00  0.00     0.032 C 
ATOM     18  C   UNL A   1      38.646  24.157  26.695  1.00  0.00     0.009 C 
ENDBRANCH   8  17
BRANCH  16  19
ATOM     19  C   UNL A   1      30.681  24.218  23.839  1.00  0.00     0.429 C 
ATOM     20  F   UNL A   1      29.799  25.179  23.487  1.00  0.00    -0.167 F 
ATOM     21  F   UNL A   1      30.545  23.242  22.902  1.00  0.00    -0.167 F 
ATOM     22  F   UNL A   1      30.278  23.687  25.017  1.00  0.00    -0.167 F 
ENDBRANCH  16  19
ENDBRANCH   4   7
ENDBRANCH   2   3
ENDBRANCH   1   2
BRANCH   1  23
ATOM     23  C   UNL A   1      33.328  29.205  25.390  1.00  0.00     0.118 C 
BRANCH  23  24
ATOM     24  N   UNL A   1      32.866  30.508  25.845  1.00  0.00    -0.352 N 
ATOM     25  C   UNL A   1      33.291  31.274  26.903  1.00  0.00     0.251 C 
ATOM     26  H   UNL A   1      32.138  30.901  25.313  1.00  0.00     0.163 HD
ATOM     27  O   UNL A   1      32.623  32.239  27.259  1.00  0.00    -0.269 OA
BRANCH  25  28
ATOM     28  C   UNL A   1      34.539  30.941  27.625  1.00  0.00     0.039 A 
ATOM     29  C   UNL A   1      35.491  31.947  27.820  1.00  0.00     0.014 A 
ATOM     30  C   UNL A   1      34.797  29.641  28.066  1.00  0.00     0.014 A 
ATOM     31  C   UNL A   1      36.674  31.663  28.508  1.00  0.00     0.010 A 
ATOM     32  C   UNL A   1      35.947  29.372  28.806  1.00  0.00     0.010 A 
ATOM     33  C   UNL A   1      36.896  30.381  29.035  1.00  0.00    -0.014 A 
BRANCH  33  34
ATOM     34  C   UNL A   1      38.107  30.077  29.839  1.00  0.00     0.031 A 
ATOM     35  C   UNL A   1      39.159  29.146  29.306  1.00  0.00     0.074 A 
ATOM     36  C   UNL A   1      38.220  30.584  31.082  1.00  0.00     0.049 A 
ATOM     37  N   UNL A   1      40.233  28.683  29.896  1.00  0.00    -0.248 NA
ATOM     38  C   UNL A   1      38.968  28.651  27.934  1.00  0.00     0.031 C 
ATOM     39  C   UNL A   1      37.250  31.471  31.725  1.00  0.00     0.029 A 
ATOM     40  N   UNL A   1      39.195  30.412  32.034  1.00  0.00    -0.354 N 
ATOM     41  C   UNL A   1      40.833  27.833  28.976  1.00  0.00     0.074 A 
ATOM     42  C   UNL A   1      39.983  27.809  27.806  1.00  0.00     0.031 C 
ATOM     43  C   UNL A   1      37.682  31.776  32.957  1.00  0.00     0.029 A 
ATOM     44  C   UNL A   1      38.939  31.077  33.209  1.00  0.00     0.049 A 
ATOM     45  H   UNL A   1      40.000  29.866  31.889  1.00  0.00     0.167 HD
ATOM     46  C   UNL A   1      41.999  27.152  29.093  1.00  0.00     0.037 A 
ATOM     47  C   UNL A   1      39.630  31.106  34.363  1.00  0.00     0.037 A 
ATOM     48  C   UNL A   1      42.852  27.196  30.252  1.00  0.00     0.049 A 
ATOM     49  C   UNL A   1      40.910  30.323  34.473  1.00  0.00     0.074 A 
ATOM     50  C   UNL A   1      44.080  26.587  30.443  1.00  0.00     0.029 A 
ATOM     51  N   UNL A   1      42.564  27.890  31.418  1.00  0.00    -0.354 N 
ATOM     52  N   UNL A   1      41.498  29.571  33.576  1.00  0.00    -0.248 NA
ATOM     53  C   UNL A   1      41.623  30.395  35.756  1.00  0.00     0.031 C 
ATOM     54  C   UNL A   1      44.513  26.874  31.742  1.00  0.00     0.029 A 
ATOM     55  C   UNL A   1      43.579  27.703  32.343  1.00  0.00     0.049 A 
ATOM     56  H   UNL A   1      41.757  28.432  31.568  1.00  0.00     0.167 HD
ATOM     57  C   UNL A   1      42.661  29.103  34.173  1.00  0.00     0.074 A 
ATOM     58  C   UNL A   1      42.702  29.667  35.506  1.00  0.00     0.031 C 
ATOM     59  C   UNL A   1      43.608  28.278  33.663  1.00  0.00     0.037 A 
BRANCH  46  60
ATOM     60  C   UNL A   1      42.422  26.296  27.934  1.00  0.00     0.064 A 
ATOM     61  C   UNL A   1      43.297  26.775  26.948  1.00  0.00     0.173 A 
ATOM     62  C   UNL A   1      41.982  24.967  27.829  1.00  0.00     0.173 A 
ATOM     63  F   UNL A   1      43.740  28.041  26.995  1.00  0.00    -0.203 F 
ATOM     64  C   UNL A   1      43.693  25.966  25.885  1.00  0.00     0.198 A 
ATOM     65  C   UNL A   1      42.404  24.152  26.783  1.00  0.00     0.198 A 
ATOM     66  F   UNL A   1      41.151  24.456  28.750  1.00  0.00    -0.203 F 
ATOM     67  F   UNL A   1      44.493  26.462  24.930  1.00  0.00    -0.200 F 
ATOM     68  C   UNL A   1      43.252  24.654  25.808  1.00  0.00     0.200 A 
ATOM     69  F   UNL A   1      41.988  22.880  26.717  1.00  0.00    -0.200 F 
ATOM     70  F   UNL A   1      43.641  23.875  24.789  1.00  0.00    -0.200 F 
ENDBRANCH  46  60
BRANCH  47  71
ATOM     71  C   UNL A   1      39.134  31.918  35.505  1.00  0.00     0.064 A 
ATOM     72  C   UNL A   1      39.485  33.269  35.630  1.00  0.00     0.173 A 
ATOM     73  C   UNL A   1      38.304  31.365  36.491  1.00  0.00     0.173 A 
ATOM     74  F   UNL A   1      40.293  33.837  34.722  1.00  0.00    -0.203 F 
ATOM     75  C   UNL A   1      39.038  34.032  36.706  1.00  0.00     0.198 A 
ATOM     76  C   UNL A   1      37.835  32.136  37.553  1.00  0.00     0.198 A 
ATOM     77  F   UNL A   1      37.935  30.077  36.415  1.00  0.00    -0.203 F 
ATOM     78  F   UNL A   1      39.423  35.311  36.823  1.00  0.00    -0.200 F 
ATOM     79  C   UNL A   1      38.210  33.467  37.663  1.00  0.00     0.200 A 
ATOM     80  F   UNL A   1      37.022  31.591  38.466  1.00  0.00    -0.200 F 
ATOM     81  F   UNL A   1      37.776  34.203  38.696  1.00  0.00    -0.200 F 
ENDBRANCH  47  71
BRANCH  59  82
ATOM     82  C   UNL A   1      44.787  27.963  34.535  1.00  0.00     0.064 A 
ATOM     83  C   UNL A   1      45.923  28.785  34.562  1.00  0.00     0.173 A 
ATOM     84  C   UNL A   1      44.761  26.850  35.389  1.00  0.00     0.173 A 
ATOM     85  F   UNL A   1      46.004  29.851  33.752  1.00  0.00    -0.203 F 
ATOM     86  C   UNL A   1      46.998  28.492  35.397  1.00  0.00     0.198 A 
ATOM     87  C   UNL A   1      45.825  26.576  36.243  1.00  0.00     0.198 A 
ATOM     88  F   UNL A   1      43.695  26.035  35.406  1.00  0.00    -0.203 F 
ATOM     89  F   UNL A   1      48.092  29.267  35.375  1.00  0.00    -0.200 F 
ATOM     90  C   UNL A   1      46.946  27.394  36.242  1.00  0.00     0.200 A 
ATOM     91  F   UNL A   1      45.767  25.522  37.068  1.00  0.00    -0.200 F 
ATOM     92  F   UNL A   1      47.978  27.119  37.052  1.00  0.00    -0.200 F 
ENDBRANCH  59  82
ENDBRANCH  33  34
ENDBRANCH  25  28
ENDBRANCH  23  24
ENDBRANCH   1  23
TORSDOF 12
ENDMDL
MODEL 3
REMARK VINA RESULT:     -12.4      2.074      7.672
REMARK SMILES CCc1ccc2c(c1)C=C(C(=O)NCCCNC(=O)c1ccc(-c3c4nc(c(-c5c(F)c(F)c(F)c(F)c5F)c5ccc([nH]5)c(-c5c(F)c(F)c(F)c(F)c5F)c5nc(c(-c6c(F)c(F)c(F)c(F)c6F)c6ccc3[nH]6)C=C5)C=C4)cc1)[C@H](C(F)(F)F)O2
REMARK SMILES IDX 15 1 14 2 13 3 11 4 12 5 10 7 3 8 4 9 8 10 5 11 7 12 6 13
REMARK SMILES IDX 9 14 88 15 83 16 2 17 1 18 84 19 85 20 86 21 87 22 16 23
REMARK SMILES IDX 17 24 18 25 19 27 20 28 21 29 82 30 22 31 81 32 23 33 24 34
REMARK SMILES IDX 25 35 75 36 26 37 80 38 74 39 76 40 27 41 79 42 73 43 72 44
REMARK SMILES IDX 28 46 60 47 40 48 59 49 41 50 44 51 58 52 77 53 42 54 43 55
REMARK SMILES IDX 57 57 78 58 45 59 29 60 30 61 38 62 31 63 32 64 36 65 39 66
REMARK SMILES IDX 33 67 34 68 37 69 35 70 61 71 62 72 70 73 63 74 64 75 68 76
REMARK SMILES IDX 71 77 65 78 66 79 69 80 67 81 46 82 47 83 55 84 48 85 49 86
REMARK SMILES IDX 53 87 56 88 50 89 51 90 54 91 52 92
REMARK H PARENT 13 6 17 26 76 45 44 56
REMARK Flexibility Score: inf
ROOT
ATOM      1  C   UNL A   1      33.001  27.937  27.038  1.00  0.00     0.042 C 
ENDROOT
BRANCH   1   2
ATOM      2  C   UNL A   1      31.663  27.639  26.352  1.00  0.00     0.118 C 
BRANCH   2   3
ATOM      3  N   UNL A   1      31.120  26.371  26.819  1.00  0.00    -0.352 N 
ATOM      4  C   UNL A   1      31.383  25.076  26.501  1.00  0.00     0.251 C 
ATOM      5  O   UNL A   1      30.650  24.209  26.972  1.00  0.00    -0.270 OA
ATOM      6  H   UNL A   1      30.421  26.473  27.504  1.00  0.00     0.163 HD
BRANCH   4   7
ATOM      7  C   UNL A   1      32.549  24.667  25.676  1.00  0.00     0.067 C 
ATOM      8  C   UNL A   1      36.911  22.650  25.062  1.00  0.00    -0.047 A 
ATOM      9  C   UNL A   1      36.728  22.711  23.675  1.00  0.00     0.007 A 
ATOM     10  C   UNL A   1      35.913  23.189  25.889  1.00  0.00     0.015 A 
ATOM     11  C   UNL A   1      35.569  23.279  23.135  1.00  0.00     0.047 A 
ATOM     12  C   UNL A   1      34.750  23.753  25.349  1.00  0.00     0.017 A 
ATOM     13  C   UNL A   1      34.580  23.792  23.972  1.00  0.00     0.128 A 
ATOM     14  C   UNL A   1      33.681  24.201  26.222  1.00  0.00     0.025 C 
ATOM     15  O   UNL A   1      33.448  24.250  23.369  1.00  0.00    -0.475 OA
ATOM     16  C   UNL A   1      32.457  24.952  24.178  1.00  0.00     0.314 C 
BRANCH   8  17
ATOM     17  C   UNL A   1      38.097  21.986  25.728  1.00  0.00     0.032 C 
ATOM     18  C   UNL A   1      39.051  22.888  26.497  1.00  0.00     0.009 C 
ENDBRANCH   8  17
BRANCH  16  19
ATOM     19  C   UNL A   1      31.080  24.707  23.521  1.00  0.00     0.429 C 
ATOM     20  F   UNL A   1      30.132  25.569  23.951  1.00  0.00    -0.167 F 
ATOM     21  F   UNL A   1      31.144  24.883  22.174  1.00  0.00    -0.167 F 
ATOM     22  F   UNL A   1      30.628  23.448  23.729  1.00  0.00    -0.167 F 
ENDBRANCH  16  19
ENDBRANCH   4   7
ENDBRANCH   2   3
ENDBRANCH   1   2
BRANCH   1  23
ATOM     23  C   UNL A   1      33.924  28.827  26.207  1.00  0.00     0.118 C 
BRANCH  23  24
ATOM     24  N   UNL A   1      33.841  30.222  26.612  1.00  0.00    -0.352 N 
ATOM     25  C   UNL A   1      34.585  30.919  27.532  1.00  0.00     0.251 C 
ATOM     26  H   UNL A   1      33.145  30.748  26.156  1.00  0.00     0.163 HD
ATOM     27  O   UNL A   1      34.213  32.030  27.897  1.00  0.00    -0.269 OA
BRANCH  25  28
ATOM     28  C   UNL A   1      35.824  30.340  28.098  1.00  0.00     0.039 A 
ATOM     29  C   UNL A   1      36.998  30.393  27.340  1.00  0.00     0.014 A 
ATOM     30  C   UNL A   1      35.825  29.704  29.342  1.00  0.00     0.014 A 
ATOM     31  C   UNL A   1      38.184  29.864  27.854  1.00  0.00     0.010 A 
ATOM     32  C   UNL A   1      37.020  29.232  29.881  1.00  0.00     0.010 A 
ATOM     33  C   UNL A   1      38.212  29.308  29.142  1.00  0.00    -0.014 A 
BRANCH  33  34
ATOM     34  C   UNL A   1      39.477  28.813  29.742  1.00  0.00     0.031 A 
ATOM     35  C   UNL A   1      40.118  29.555  30.881  1.00  0.00     0.074 A 
ATOM     36  C   UNL A   1      40.085  27.735  29.211  1.00  0.00     0.049 A 
ATOM     37  N   UNL A   1      41.267  29.337  31.471  1.00  0.00    -0.248 NA
ATOM     38  C   UNL A   1      39.380  30.711  31.414  1.00  0.00     0.031 C 
ATOM     39  C   UNL A   1      39.580  26.951  28.083  1.00  0.00     0.029 A 
ATOM     40  N   UNL A   1      41.270  27.122  29.539  1.00  0.00    -0.354 N 
ATOM     41  C   UNL A   1      41.396  30.334  32.429  1.00  0.00     0.074 A 
ATOM     42  C   UNL A   1      40.231  31.184  32.314  1.00  0.00     0.031 C 
ATOM     43  C   UNL A   1      40.440  25.955  27.821  1.00  0.00     0.029 A 
ATOM     44  C   UNL A   1      41.576  26.052  28.733  1.00  0.00     0.049 A 
ATOM     45  H   UNL A   1      41.844  27.421  30.279  1.00  0.00     0.167 HD
ATOM     46  C   UNL A   1      42.389  30.510  33.335  1.00  0.00     0.037 A 
ATOM     47  C   UNL A   1      42.656  25.251  28.721  1.00  0.00     0.037 A 
ATOM     48  C   UNL A   1      43.536  29.649  33.459  1.00  0.00     0.049 A 
ATOM     49  C   UNL A   1      43.753  25.481  29.724  1.00  0.00     0.074 A 
ATOM     50  C   UNL A   1      44.565  29.711  34.382  1.00  0.00     0.029 A 
ATOM     51  N   UNL A   1      43.805  28.568  32.632  1.00  0.00    -0.354 N 
ATOM     52  N   UNL A   1      43.836  26.391  30.664  1.00  0.00    -0.248 NA
ATOM     53  C   UNL A   1      44.907  24.573  29.665  1.00  0.00     0.031 C 
ATOM     54  C   UNL A   1      45.481  28.696  34.084  1.00  0.00     0.029 A 
ATOM     55  C   UNL A   1      44.997  27.971  33.008  1.00  0.00     0.049 A 
ATOM     56  H   UNL A   1      43.234  28.271  31.888  1.00  0.00     0.167 HD
ATOM     57  C   UNL A   1      45.033  26.149  31.325  1.00  0.00     0.074 A 
ATOM     58  C   UNL A   1      45.637  24.998  30.687  1.00  0.00     0.031 C 
ATOM     59  C   UNL A   1      45.581  26.821  32.367  1.00  0.00     0.037 A 
BRANCH  46  60
ATOM     60  C   UNL A   1      42.277  31.682  34.267  1.00  0.00     0.064 A 
ATOM     61  C   UNL A   1      42.816  32.936  33.939  1.00  0.00     0.173 A 
ATOM     62  C   UNL A   1      41.586  31.565  35.483  1.00  0.00     0.173 A 
ATOM     63  F   UNL A   1      43.494  33.100  32.793  1.00  0.00    -0.203 F 
ATOM     64  C   UNL A   1      42.693  34.019  34.806  1.00  0.00     0.198 A 
ATOM     65  C   UNL A   1      41.439  32.657  36.333  1.00  0.00     0.198 A 
ATOM     66  F   UNL A   1      41.044  30.391  35.841  1.00  0.00    -0.203 F 
ATOM     67  F   UNL A   1      43.257  35.194  34.491  1.00  0.00    -0.200 F 
ATOM     68  C   UNL A   1      41.999  33.881  35.998  1.00  0.00     0.200 A 
ATOM     69  F   UNL A   1      40.756  32.525  37.478  1.00  0.00    -0.200 F 
ATOM     70  F   UNL A   1      41.874  34.927  36.827  1.00  0.00    -0.200 F 
ENDBRANCH  46  60
BRANCH  47  71
ATOM     71  C   UNL A   1      42.747  24.143  27.734  1.00  0.00     0.064 A 
ATOM     72  C   UNL A   1      42.370  22.839  28.083  1.00  0.00     0.173 A 
ATOM     73  C   UNL A   1      43.212  24.361  26.429  1.00  0.00     0.173 A 
ATOM     74  F   UNL A   1      41.939  22.578  29.326  1.00  0.00    -0.203 F 
ATOM     75  C   UNL A   1      42.469  21.792  27.170  1.00  0.00     0.198 A 
ATOM     76  C   UNL A   1      43.285  23.318  25.507  1.00  0.00     0.198 A 
ATOM     77  F   UNL A   1      43.581  25.592  26.043  1.00  0.00    -0.203 F 
ATOM     78  F   UNL A   1      42.141  20.547  27.543  1.00  0.00    -0.200 F 
ATOM     79  C   UNL A   1      42.921  22.033  25.881  1.00  0.00     0.200 A 
ATOM     80  F   UNL A   1      43.706  23.559  24.259  1.00  0.00    -0.200 F 
ATOM     81  F   UNL A   1      43.011  21.027  25.001  1.00  0.00    -0.200 F 
ENDBRANCH  47  71
BRANCH  59  82
ATOM     82  C   UNL A   1      46.885  26.310  32.904  1.00  0.00     0.064 A 
ATOM     83  C   UNL A   1      46.936  25.282  33.857  1.00  0.00     0.173 A 
ATOM     84  C   UNL A   1      48.100  26.823  32.426  1.00  0.00     0.173 A 
ATOM     85  F   UNL A   1      45.802  24.770  34.358  1.00  0.00    -0.203 F 
ATOM     86  C   UNL A   1      48.156  24.801  34.326  1.00  0.00     0.198 A 
ATOM     87  C   UNL A   1      49.318  26.321  32.876  1.00  0.00     0.198 A 
ATOM     88  F   UNL A   1      48.107  27.804  31.510  1.00  0.00    -0.203 F 
ATOM     89  F   UNL A   1      48.180  23.848  35.268  1.00  0.00    -0.200 F 
ATOM     90  C   UNL A   1      49.344  25.314  33.831  1.00  0.00     0.200 A 
ATOM     91  F   UNL A   1      50.465  26.809  32.386  1.00  0.00    -0.200 F 
ATOM     92  F   UNL A   1      50.518  24.843  34.276  1.00  0.00    -0.200 F 
ENDBRANCH  59  82
ENDBRANCH  33  34
ENDBRANCH  25  28
ENDBRANCH  23  24
ENDBRANCH   1  23
TORSDOF 12
ENDMDL
