MODEL 1
REMARK VINA RESULT:     -11.3      0.000      0.000
REMARK SMILES CC(C)[C@H](NS(=O)(=O)N1C[C@@H](C)O[C@H](C)C1)C(=O)NCCCNC(=O)c1ccc(-c2c3nc(c(-c4c(F)c(F)c(F)c(F)c4F)c4ccc([nH]4)c(-c4c(F)c(F)c(F)c(F)c4F)c4nc(c(-c5c(F)c(F)c(F)c(F)c5F)c5ccc2[nH]5)C=C4)C=C3)cc1
REMARK SMILES IDX 20 1 19 2 17 3 18 4 4 6 2 7 1 8 3 9 5 10 6 12 7 13 8 14 9 15
REMARK SMILES IDX 10 16 16 17 11 18 14 19 12 20 13 21 15 22 21 23 22 24 23 25
REMARK SMILES IDX 24 26 25 28 26 29 27 30 88 31 28 32 87 33 29 34 30 35 31 36
REMARK SMILES IDX 81 37 32 38 86 39 80 40 82 41 33 42 85 43 79 44 78 45 34 47
REMARK SMILES IDX 66 48 46 49 65 50 47 51 50 52 64 53 83 54 48 55 49 56 63 58
REMARK SMILES IDX 84 59 51 60 35 61 36 62 44 63 37 64 38 65 42 66 45 67 39 68
REMARK SMILES IDX 40 69 43 70 41 71 67 72 68 73 76 74 69 75 70 76 74 77 77 78
REMARK SMILES IDX 71 79 72 80 75 81 73 82 52 83 53 84 61 85 54 86 55 87 59 88
REMARK SMILES IDX 62 89 56 90 57 91 60 92 58 93
REMARK H PARENT 19 5 5 11 23 27 82 46 50 57
REMARK Flexibility Score: inf
ROOT
ATOM      1  C   UNL A   1      31.786  28.113  27.196  1.00  0.00     0.117 C 
ENDROOT
BRANCH   1   2
ATOM      2  N   UNL A   1      31.018  26.934  26.852  1.00  0.00    -0.355 N 
ATOM      3  C   UNL A   1      30.749  26.314  25.678  1.00  0.00     0.238 C 
ATOM      4  O   UNL A   1      30.071  25.280  25.781  1.00  0.00    -0.273 OA
ATOM      5  H   UNL A   1      30.607  26.495  27.631  1.00  0.00     0.163 HD
BRANCH   3   6
ATOM      6  C   UNL A   1      31.249  26.731  24.288  1.00  0.00     0.162 C 
BRANCH   6   7
ATOM      7  C   UNL A   1      30.435  27.761  23.446  1.00  0.00     0.010 C 
ATOM      8  C   UNL A   1      28.926  27.563  23.393  1.00  0.00     0.009 C 
ATOM      9  C   UNL A   1      30.752  29.209  23.877  1.00  0.00     0.009 C 
ENDBRANCH   6   7
BRANCH   6  10
ATOM     10  N   UNL A   1      31.919  25.771  23.361  1.00  0.00    -0.189 NA
ATOM     11  H   UNL A   1      31.963  26.259  22.467  1.00  0.00     0.143 HD
BRANCH  10  12
ATOM     12  S   UNL A   1      33.409  25.071  23.534  1.00  0.00     0.280 S 
ATOM     13  O   UNL A   1      33.923  24.959  22.194  1.00  0.00    -0.195 OA
ATOM     14  O   UNL A   1      34.161  25.813  24.517  1.00  0.00    -0.195 OA
BRANCH  12  15
ATOM     15  N   UNL A   1      33.113  23.515  24.093  1.00  0.00    -0.184 NA
ATOM     16  C   UNL A   1      33.838  22.332  23.597  1.00  0.00     0.135 C 
ATOM     17  C   UNL A   1      32.974  23.361  25.579  1.00  0.00     0.135 C 
ATOM     18  C   UNL A   1      35.222  22.144  24.198  1.00  0.00     0.130 C 
ATOM     19  C   UNL A   1      34.336  23.033  26.257  1.00  0.00     0.130 C 
ATOM     20  C   UNL A   1      36.283  23.170  23.829  1.00  0.00     0.040 C 
ATOM     21  O   UNL A   1      35.093  21.988  25.612  1.00  0.00    -0.373 OA
ATOM     22  C   UNL A   1      34.110  22.507  27.670  1.00  0.00     0.040 C 
ENDBRANCH  12  15
ENDBRANCH  10  12
ENDBRANCH   6  10
ENDBRANCH   3   6
ENDBRANCH   1   2
BRANCH   1  23
ATOM     23  C   UNL A   1      33.287  27.933  26.972  1.00  0.00     0.042 C 
BRANCH  23  24
ATOM     24  C   UNL A   1      33.935  29.011  26.112  1.00  0.00     0.118 C 
BRANCH  24  25
ATOM     25  N   UNL A   1      33.873  30.306  26.770  1.00  0.00    -0.352 N 
ATOM     26  C   UNL A   1      34.617  30.803  27.814  1.00  0.00     0.251 C 
ATOM     27  H   UNL A   1      33.193  30.921  26.413  1.00  0.00     0.163 HD
ATOM     28  O   UNL A   1      34.158  31.739  28.467  1.00  0.00    -0.269 OA
BRANCH  26  29
ATOM     29  C   UNL A   1      35.953  30.256  28.168  1.00  0.00     0.039 A 
ATOM     30  C   UNL A   1      36.122  29.664  29.427  1.00  0.00     0.014 A 
ATOM     31  C   UNL A   1      37.067  30.411  27.342  1.00  0.00     0.014 A 
ATOM     32  C   UNL A   1      37.384  29.220  29.840  1.00  0.00     0.010 A 
ATOM     33  C   UNL A   1      38.306  29.880  27.712  1.00  0.00     0.010 A 
ATOM     34  C   UNL A   1      38.489  29.308  28.979  1.00  0.00    -0.014 A 
BRANCH  34  35
ATOM     35  C   UNL A   1      39.846  28.855  29.402  1.00  0.00     0.031 A 
ATOM     36  C   UNL A   1      40.694  29.730  30.293  1.00  0.00     0.074 A 
ATOM     37  C   UNL A   1      40.341  27.688  28.945  1.00  0.00     0.049 A 
ATOM     38  N   UNL A   1      41.928  29.554  30.699  1.00  0.00    -0.248 NA
ATOM     39  C   UNL A   1      40.089  30.987  30.764  1.00  0.00     0.031 C 
ATOM     40  C   UNL A   1      39.646  26.772  28.040  1.00  0.00     0.029 A 
ATOM     41  N   UNL A   1      41.553  27.079  29.165  1.00  0.00    -0.354 N 
ATOM     42  C   UNL A   1      42.252  30.686  31.439  1.00  0.00     0.074 A 
ATOM     43  C   UNL A   1      41.103  31.563  31.392  1.00  0.00     0.031 C 
ATOM     44  C   UNL A   1      40.435  25.714  27.793  1.00  0.00     0.029 A 
ATOM     45  C   UNL A   1      41.707  25.893  28.486  1.00  0.00     0.049 A 
ATOM     46  H   UNL A   1      42.246  27.455  29.755  1.00  0.00     0.167 HD
ATOM     47  C   UNL A   1      43.394  30.960  32.113  1.00  0.00     0.037 A 
ATOM     48  C   UNL A   1      42.760  25.055  28.414  1.00  0.00     0.037 A 
ATOM     49  C   UNL A   1      44.515  30.062  32.204  1.00  0.00     0.049 A 
ATOM     50  C   UNL A   1      44.008  25.376  29.194  1.00  0.00     0.074 A 
ATOM     51  C   UNL A   1      45.677  30.207  32.943  1.00  0.00     0.029 A 
ATOM     52  N   UNL A   1      44.615  28.854  31.532  1.00  0.00    -0.354 N 
ATOM     53  N   UNL A   1      44.266  26.408  29.960  1.00  0.00    -0.248 NA
ATOM     54  C   UNL A   1      45.112  24.407  29.106  1.00  0.00     0.031 C 
ATOM     55  C   UNL A   1      46.506  29.115  32.672  1.00  0.00     0.029 A 
ATOM     56  C   UNL A   1      45.834  28.257  31.815  1.00  0.00     0.049 A 
ATOM     57  H   UNL A   1      43.924  28.476  30.942  1.00  0.00     0.167 HD
ATOM     58  C   UNL A   1      45.542  26.201  30.465  1.00  0.00     0.074 A 
ATOM     59  C   UNL A   1      46.000  24.934  29.936  1.00  0.00     0.031 C 
ATOM     60  C   UNL A   1      46.273  26.991  31.289  1.00  0.00     0.037 A 
BRANCH  47  61
ATOM     61  C   UNL A   1      43.503  32.285  32.815  1.00  0.00     0.064 A 
ATOM     62  C   UNL A   1      43.087  32.457  34.145  1.00  0.00     0.173 A 
ATOM     63  C   UNL A   1      44.099  33.380  32.170  1.00  0.00     0.173 A 
ATOM     64  F   UNL A   1      42.504  31.446  34.806  1.00  0.00    -0.203 F 
ATOM     65  C   UNL A   1      43.245  33.679  34.794  1.00  0.00     0.198 A 
ATOM     66  C   UNL A   1      44.283  34.591  32.832  1.00  0.00     0.198 A 
ATOM     67  F   UNL A   1      44.522  33.270  30.902  1.00  0.00    -0.203 F 
ATOM     68  F   UNL A   1      42.805  33.830  36.051  1.00  0.00    -0.200 F 
ATOM     69  C   UNL A   1      43.852  34.741  34.141  1.00  0.00     0.200 A 
ATOM     70  F   UNL A   1      44.887  35.611  32.206  1.00  0.00    -0.200 F 
ATOM     71  F   UNL A   1      44.019  35.911  34.773  1.00  0.00    -0.200 F 
ENDBRANCH  47  61
BRANCH  48  72
ATOM     72  C   UNL A   1      42.684  23.830  27.573  1.00  0.00     0.064 A 
ATOM     73  C   UNL A   1      42.292  22.599  28.118  1.00  0.00     0.173 A 
ATOM     74  C   UNL A   1      43.027  23.858  26.213  1.00  0.00     0.173 A 
ATOM     75  F   UNL A   1      41.974  22.514  29.418  1.00  0.00    -0.203 F 
ATOM     76  C   UNL A   1      42.278  21.439  27.345  1.00  0.00     0.198 A 
ATOM     77  C   UNL A   1      42.977  22.705  25.432  1.00  0.00     0.198 A 
ATOM     78  F   UNL A   1      43.403  25.010  25.638  1.00  0.00    -0.203 F 
ATOM     79  F   UNL A   1      41.957  20.265  27.908  1.00  0.00    -0.200 F 
ATOM     80  C   UNL A   1      42.615  21.494  26.002  1.00  0.00     0.200 A 
ATOM     81  F   UNL A   1      43.287  22.766  24.130  1.00  0.00    -0.200 F 
ATOM     82  F   UNL A   1      42.600  20.380  25.258  1.00  0.00    -0.200 F 
ENDBRANCH  48  72
BRANCH  60  83
ATOM     83  C   UNL A   1      47.627  26.493  31.704  1.00  0.00     0.064 A 
ATOM     84  C   UNL A   1      47.805  25.714  32.858  1.00  0.00     0.173 A 
ATOM     85  C   UNL A   1      48.756  26.764  30.915  1.00  0.00     0.173 A 
ATOM     86  F   UNL A   1      46.761  25.437  33.653  1.00  0.00    -0.203 F 
ATOM     87  C   UNL A   1      49.067  25.249  33.219  1.00  0.00     0.198 A 
ATOM     88  C   UNL A   1      50.009  26.269  31.261  1.00  0.00     0.198 A 
ATOM     89  F   UNL A   1      48.639  27.497  29.797  1.00  0.00    -0.203 F 
ATOM     90  F   UNL A   1      49.221  24.551  34.353  1.00  0.00    -0.200 F 
ATOM     91  C   UNL A   1      50.165  25.520  32.418  1.00  0.00     0.200 A 
ATOM     92  F   UNL A   1      51.066  26.517  30.476  1.00  0.00    -0.200 F 
ATOM     93  F   UNL A   1      51.377  25.063  32.762  1.00  0.00    -0.200 F 
ENDBRANCH  60  83
ENDBRANCH  34  35
ENDBRANCH  26  29
ENDBRANCH  24  25
ENDBRANCH  23  24
ENDBRANCH   1  23
TORSDOF 14
ENDMDL
MODEL 2
REMARK VINA RESULT:     -11.2      3.523      8.695
REMARK SMILES CC(C)[C@H](NS(=O)(=O)N1C[C@@H](C)O[C@H](C)C1)C(=O)NCCCNC(=O)c1ccc(-c2c3nc(c(-c4c(F)c(F)c(F)c(F)c4F)c4ccc([nH]4)c(-c4c(F)c(F)c(F)c(F)c4F)c4nc(c(-c5c(F)c(F)c(F)c(F)c5F)c5ccc2[nH]5)C=C4)C=C3)cc1
REMARK SMILES IDX 20 1 19 2 17 3 18 4 4 6 2 7 1 8 3 9 5 10 6 12 7 13 8 14 9 15
REMARK SMILES IDX 10 16 16 17 11 18 14 19 12 20 13 21 15 22 21 23 22 24 23 25
REMARK SMILES IDX 24 26 25 28 26 29 27 30 88 31 28 32 87 33 29 34 30 35 31 36
REMARK SMILES IDX 81 37 32 38 86 39 80 40 82 41 33 42 85 43 79 44 78 45 34 47
REMARK SMILES IDX 66 48 46 49 65 50 47 51 50 52 64 53 83 54 48 55 49 56 63 58
REMARK SMILES IDX 84 59 51 60 35 61 36 62 44 63 37 64 38 65 42 66 45 67 39 68
REMARK SMILES IDX 40 69 43 70 41 71 67 72 68 73 76 74 69 75 70 76 74 77 77 78
REMARK SMILES IDX 71 79 72 80 75 81 73 82 52 83 53 84 61 85 54 86 55 87 59 88
REMARK SMILES IDX 62 89 56 90 57 91 60 92 58 93
REMARK H PARENT 19 5 5 11 23 27 82 46 50 57
REMARK Flexibility Score: inf
ROOT
ATOM      1  C   UNL A   1      31.483  30.578  25.770  1.00  0.00     0.117 C 
ENDROOT
BRANCH   1   2
ATOM      2  N   UNL A   1      30.653  30.342  24.608  1.00  0.00    -0.355 N 
ATOM      3  C   UNL A   1      30.605  29.345  23.691  1.00  0.00     0.238 C 
ATOM      4  O   UNL A   1      29.713  29.467  22.838  1.00  0.00    -0.273 OA
ATOM      5  H   UNL A   1      29.989  31.051  24.451  1.00  0.00     0.163 HD
BRANCH   3   6
ATOM      6  C   UNL A   1      31.488  28.090  23.658  1.00  0.00     0.162 C 
BRANCH   6   7
ATOM      7  C   UNL A   1      32.979  28.198  23.213  1.00  0.00     0.010 C 
ATOM      8  C   UNL A   1      34.028  28.168  24.316  1.00  0.00     0.009 C 
ATOM      9  C   UNL A   1      33.321  27.136  22.146  1.00  0.00     0.009 C 
ENDBRANCH   6   7
BRANCH   6  10
ATOM     10  N   UNL A   1      30.959  26.754  23.251  1.00  0.00    -0.189 NA
ATOM     11  H   UNL A   1      31.635  26.401  22.574  1.00  0.00     0.143 HD
BRANCH  10  12
ATOM     12  S   UNL A   1      30.624  25.459  24.226  1.00  0.00     0.280 S 
ATOM     13  O   UNL A   1      29.662  25.952  25.178  1.00  0.00    -0.195 OA
ATOM     14  O   UNL A   1      30.279  24.329  23.399  1.00  0.00    -0.195 OA
BRANCH  12  15
ATOM     15  N   UNL A   1      32.046  25.146  25.062  1.00  0.00    -0.184 NA
ATOM     16  C   UNL A   1      32.079  24.829  26.501  1.00  0.00     0.135 C 
ATOM     17  C   UNL A   1      33.025  24.234  24.383  1.00  0.00     0.135 C 
ATOM     18  C   UNL A   1      31.718  23.390  26.838  1.00  0.00     0.130 C 
ATOM     19  C   UNL A   1      32.803  22.746  24.783  1.00  0.00     0.130 C 
ATOM     20  C   UNL A   1      30.278  22.963  26.595  1.00  0.00     0.040 C 
ATOM     21  O   UNL A   1      32.653  22.519  26.200  1.00  0.00    -0.373 OA
ATOM     22  C   UNL A   1      34.020  21.910  24.402  1.00  0.00     0.040 C 
ENDBRANCH  12  15
ENDBRANCH  10  12
ENDBRANCH   6  10
ENDBRANCH   3   6
ENDBRANCH   1   2
BRANCH   1  23
ATOM     23  C   UNL A   1      31.392  32.015  26.285  1.00  0.00     0.042 C 
BRANCH  23  24
ATOM     24  C   UNL A   1      32.501  32.416  27.251  1.00  0.00     0.118 C 
BRANCH  24  25
ATOM     25  N   UNL A   1      32.487  33.850  27.488  1.00  0.00    -0.352 N 
ATOM     26  C   UNL A   1      33.061  34.584  28.499  1.00  0.00     0.251 C 
ATOM     27  H   UNL A   1      31.988  34.376  26.822  1.00  0.00     0.163 HD
ATOM     28  O   UNL A   1      32.613  35.705  28.735  1.00  0.00    -0.269 OA
BRANCH  26  29
ATOM     29  C   UNL A   1      34.204  34.074  29.300  1.00  0.00     0.039 A 
ATOM     30  C   UNL A   1      35.506  34.353  28.864  1.00  0.00     0.014 A 
ATOM     31  C   UNL A   1      34.028  33.235  30.403  1.00  0.00     0.014 A 
ATOM     32  C   UNL A   1      36.611  33.813  29.533  1.00  0.00     0.010 A 
ATOM     33  C   UNL A   1      35.130  32.778  31.130  1.00  0.00     0.010 A 
ATOM     34  C   UNL A   1      36.436  33.032  30.687  1.00  0.00    -0.014 A 
BRANCH  34  35
ATOM     35  C   UNL A   1      37.596  32.436  31.409  1.00  0.00     0.031 A 
ATOM     36  C   UNL A   1      38.358  31.284  30.799  1.00  0.00     0.074 A 
ATOM     37  C   UNL A   1      37.935  32.887  32.632  1.00  0.00     0.049 A 
ATOM     38  N   UNL A   1      39.338  30.575  31.305  1.00  0.00    -0.248 NA
ATOM     39  C   UNL A   1      37.943  30.847  29.456  1.00  0.00     0.031 C 
ATOM     40  C   UNL A   1      37.252  33.960  33.356  1.00  0.00     0.029 A 
ATOM     41  N   UNL A   1      38.929  32.488  33.494  1.00  0.00    -0.354 N 
ATOM     42  C   UNL A   1      39.628  29.596  30.361  1.00  0.00     0.074 A 
ATOM     43  C   UNL A   1      38.696  29.772  29.271  1.00  0.00     0.031 C 
ATOM     44  C   UNL A   1      37.853  34.144  34.542  1.00  0.00     0.029 A 
ATOM     45  C   UNL A   1      38.937  33.176  34.684  1.00  0.00     0.049 A 
ATOM     46  H   UNL A   1      39.576  31.778  33.278  1.00  0.00     0.167 HD
ATOM     47  C   UNL A   1      40.598  28.651  30.391  1.00  0.00     0.037 A 
ATOM     48  C   UNL A   1      39.715  33.031  35.775  1.00  0.00     0.037 A 
ATOM     49  C   UNL A   1      41.560  28.512  31.452  1.00  0.00     0.049 A 
ATOM     50  C   UNL A   1      40.799  31.985  35.769  1.00  0.00     0.074 A 
ATOM     51  C   UNL A   1      42.640  27.649  31.528  1.00  0.00     0.029 A 
ATOM     52  N   UNL A   1      41.556  29.253  32.624  1.00  0.00    -0.354 N 
ATOM     53  N   UNL A   1      41.118  31.125  34.832  1.00  0.00    -0.248 NA
ATOM     54  C   UNL A   1      41.641  31.896  36.972  1.00  0.00     0.031 C 
ATOM     55  C   UNL A   1      43.255  27.827  32.771  1.00  0.00     0.029 A 
ATOM     56  C   UNL A   1      42.597  28.845  33.443  1.00  0.00     0.049 A 
ATOM     57  H   UNL A   1      40.911  29.963  32.841  1.00  0.00     0.167 HD
ATOM     58  C   UNL A   1      42.207  30.416  35.318  1.00  0.00     0.074 A 
ATOM     59  C   UNL A   1      42.511  30.959  36.625  1.00  0.00     0.031 C 
ATOM     60  C   UNL A   1      42.894  29.402  34.737  1.00  0.00     0.037 A 
BRANCH  47  61
ATOM     61  C   UNL A   1      40.679  27.682  29.244  1.00  0.00     0.064 A 
ATOM     62  C   UNL A   1      39.800  26.593  29.130  1.00  0.00     0.173 A 
ATOM     63  C   UNL A   1      41.602  27.889  28.207  1.00  0.00     0.173 A 
ATOM     64  F   UNL A   1      38.904  26.345  30.095  1.00  0.00    -0.203 F 
ATOM     65  C   UNL A   1      39.858  25.737  28.032  1.00  0.00     0.198 A 
ATOM     66  C   UNL A   1      41.636  27.050  27.096  1.00  0.00     0.198 A 
ATOM     67  F   UNL A   1      42.459  28.919  28.260  1.00  0.00    -0.203 F 
ATOM     68  F   UNL A   1      39.035  24.682  27.963  1.00  0.00    -0.200 F 
ATOM     69  C   UNL A   1      40.767  25.972  27.012  1.00  0.00     0.200 A 
ATOM     70  F   UNL A   1      42.503  27.289  26.103  1.00  0.00    -0.200 F 
ATOM     71  F   UNL A   1      40.809  25.158  25.948  1.00  0.00    -0.200 F 
ENDBRANCH  47  61
BRANCH  48  72
ATOM     72  C   UNL A   1      39.501  33.895  36.967  1.00  0.00     0.064 A 
ATOM     73  C   UNL A   1      40.086  35.166  37.056  1.00  0.00     0.173 A 
ATOM     74  C   UNL A   1      38.729  33.459  38.054  1.00  0.00     0.173 A 
ATOM     75  F   UNL A   1      40.850  35.623  36.052  1.00  0.00    -0.203 F 
ATOM     76  C   UNL A   1      39.934  35.952  38.197  1.00  0.00     0.198 A 
ATOM     77  C   UNL A   1      38.548  34.260  39.179  1.00  0.00     0.198 A 
ATOM     78  F   UNL A   1      38.141  32.254  38.020  1.00  0.00    -0.203 F 
ATOM     79  F   UNL A   1      40.555  37.138  38.278  1.00  0.00    -0.200 F 
ATOM     80  C   UNL A   1      39.161  35.502  39.255  1.00  0.00     0.200 A 
ATOM     81  F   UNL A   1      37.786  33.827  40.193  1.00  0.00    -0.200 F 
ATOM     82  F   UNL A   1      39.015  36.257  40.352  1.00  0.00    -0.200 F 
ENDBRANCH  48  72
BRANCH  60  83
ATOM     83  C   UNL A   1      44.065  28.839  35.488  1.00  0.00     0.064 A 
ATOM     84  C   UNL A   1      43.920  27.775  36.392  1.00  0.00     0.173 A 
ATOM     85  C   UNL A   1      45.357  29.342  35.269  1.00  0.00     0.173 A 
ATOM     86  F   UNL A   1      42.705  27.267  36.647  1.00  0.00    -0.203 F 
ATOM     87  C   UNL A   1      45.021  27.256  37.069  1.00  0.00     0.198 A 
ATOM     88  C   UNL A   1      46.459  28.798  35.921  1.00  0.00     0.198 A 
ATOM     89  F   UNL A   1      45.552  30.353  34.408  1.00  0.00    -0.203 F 
ATOM     90  F   UNL A   1      44.851  26.275  37.966  1.00  0.00    -0.200 F 
ATOM     91  C   UNL A   1      46.290  27.762  36.827  1.00  0.00     0.200 A 
ATOM     92  F   UNL A   1      47.686  29.277  35.673  1.00  0.00    -0.200 F 
ATOM     93  F   UNL A   1      47.349  27.255  37.472  1.00  0.00    -0.200 F 
ENDBRANCH  60  83
ENDBRANCH  34  35
ENDBRANCH  26  29
ENDBRANCH  24  25
ENDBRANCH  23  24
ENDBRANCH   1  23
TORSDOF 14
ENDMDL
MODEL 3
REMARK VINA RESULT:     -11.1      2.726      7.765
REMARK SMILES CC(C)[C@H](NS(=O)(=O)N1C[C@@H](C)O[C@H](C)C1)C(=O)NCCCNC(=O)c1ccc(-c2c3nc(c(-c4c(F)c(F)c(F)c(F)c4F)c4ccc([nH]4)c(-c4c(F)c(F)c(F)c(F)c4F)c4nc(c(-c5c(F)c(F)c(F)c(F)c5F)c5ccc2[nH]5)C=C4)C=C3)cc1
REMARK SMILES IDX 20 1 19 2 17 3 18 4 4 6 2 7 1 8 3 9 5 10 6 12 7 13 8 14 9 15
REMARK SMILES IDX 10 16 16 17 11 18 14 19 12 20 13 21 15 22 21 23 22 24 23 25
REMARK SMILES IDX 24 26 25 28 26 29 27 30 88 31 28 32 87 33 29 34 30 35 31 36
REMARK SMILES IDX 81 37 32 38 86 39 80 40 82 41 33 42 85 43 79 44 78 45 34 47
REMARK SMILES IDX 66 48 46 49 65 50 47 51 50 52 64 53 83 54 48 55 49 56 63 58
REMARK SMILES IDX 84 59 51 60 35 61 36 62 44 63 37 64 38 65 42 66 45 67 39 68
REMARK SMILES IDX 40 69 43 70 41 71 67 72 68 73 76 74 69 75 70 76 74 77 77 78
REMARK SMILES IDX 71 79 72 80 75 81 73 82 52 83 53 84 61 85 54 86 55 87 59 88
REMARK SMILES IDX 62 89 56 90 57 91 60 92 58 93
REMARK H PARENT 19 5 5 11 23 27 82 46 50 57
REMARK Flexibility Score: inf
ROOT
ATOM      1  C   UNL A   1      32.169  27.177  26.608  1.00  0.00     0.117 C 
ENDROOT
BRANCH   1   2
ATOM      2  N   UNL A   1      31.035  26.316  26.871  1.00  0.00    -0.355 N 
ATOM      3  C   UNL A   1      30.301  25.486  26.091  1.00  0.00     0.238 C 
ATOM      4  O   UNL A   1      29.408  24.866  26.689  1.00  0.00    -0.273 OA
ATOM      5  H   UNL A   1      30.735  26.340  27.808  1.00  0.00     0.163 HD
BRANCH   3   6
ATOM      6  C   UNL A   1      30.516  25.209  24.597  1.00  0.00     0.162 C 
BRANCH   6   7
ATOM      7  C   UNL A   1      29.793  26.087  23.531  1.00  0.00     0.010 C 
ATOM      8  C   UNL A   1      28.474  26.725  23.949  1.00  0.00     0.009 C 
ATOM      9  C   UNL A   1      30.736  27.172  22.969  1.00  0.00     0.009 C 
ENDBRANCH   6   7
BRANCH   6  10
ATOM     10  N   UNL A   1      30.668  23.824  24.058  1.00  0.00    -0.189 NA
ATOM     11  H   UNL A   1      30.818  23.949  23.057  1.00  0.00     0.143 HD
BRANCH  10  12
ATOM     12  S   UNL A   1      31.776  22.680  24.510  1.00  0.00     0.280 S 
ATOM     13  O   UNL A   1      31.205  22.052  25.673  1.00  0.00    -0.195 OA
ATOM     14  O   UNL A   1      32.104  21.869  23.363  1.00  0.00    -0.195 OA
BRANCH  12  15
ATOM     15  N   UNL A   1      33.129  23.537  25.013  1.00  0.00    -0.184 NA
ATOM     16  C   UNL A   1      33.797  23.301  26.305  1.00  0.00     0.135 C 
ATOM     17  C   UNL A   1      34.205  23.736  23.986  1.00  0.00     0.135 C 
ATOM     18  C   UNL A   1      34.718  22.091  26.326  1.00  0.00     0.130 C 
ATOM     19  C   UNL A   1      35.267  22.599  24.034  1.00  0.00     0.130 C 
ATOM     20  C   UNL A   1      34.065  20.721  26.210  1.00  0.00     0.040 C 
ATOM     21  O   UNL A   1      35.749  22.280  25.356  1.00  0.00    -0.373 OA
ATOM     22  C   UNL A   1      36.522  23.016  23.275  1.00  0.00     0.040 C 
ENDBRANCH  12  15
ENDBRANCH  10  12
ENDBRANCH   6  10
ENDBRANCH   3   6
ENDBRANCH   1   2
BRANCH   1  23
ATOM     23  C   UNL A   1      31.761  28.575  26.143  1.00  0.00     0.042 C 
BRANCH  23  24
ATOM     24  C   UNL A   1      32.909  29.435  25.629  1.00  0.00     0.118 C 
BRANCH  24  25
ATOM     25  N   UNL A   1      32.684  30.838  25.939  1.00  0.00    -0.352 N 
ATOM     26  C   UNL A   1      33.217  31.618  26.937  1.00  0.00     0.251 C 
ATOM     27  H   UNL A   1      32.052  31.299  25.342  1.00  0.00     0.163 HD
ATOM     28  O   UNL A   1      32.617  32.641  27.265  1.00  0.00    -0.269 OA
BRANCH  26  29
ATOM     29  C   UNL A   1      34.492  31.273  27.620  1.00  0.00     0.039 A 
ATOM     30  C   UNL A   1      34.660  29.970  28.107  1.00  0.00     0.014 A 
ATOM     31  C   UNL A   1      35.475  32.227  27.892  1.00  0.00     0.014 A 
ATOM     32  C   UNL A   1      35.803  29.627  28.839  1.00  0.00     0.010 A 
ATOM     33  C   UNL A   1      36.660  31.860  28.536  1.00  0.00     0.010 A 
ATOM     34  C   UNL A   1      36.826  30.565  29.047  1.00  0.00    -0.014 A 
BRANCH  34  35
ATOM     35  C   UNL A   1      38.046  30.227  29.835  1.00  0.00     0.031 A 
ATOM     36  C   UNL A   1      39.069  29.267  29.275  1.00  0.00     0.074 A 
ATOM     37  C   UNL A   1      38.214  30.734  31.072  1.00  0.00     0.049 A 
ATOM     38  N   UNL A   1      40.149  28.782  29.838  1.00  0.00    -0.248 NA
ATOM     39  C   UNL A   1      38.831  28.759  27.915  1.00  0.00     0.031 C 
ATOM     40  C   UNL A   1      37.279  31.634  31.750  1.00  0.00     0.029 A 
ATOM     41  N   UNL A   1      39.222  30.554  31.989  1.00  0.00    -0.354 N 
ATOM     42  C   UNL A   1      40.692  27.893  28.919  1.00  0.00     0.074 A 
ATOM     43  C   UNL A   1      39.805  27.870  27.778  1.00  0.00     0.031 C 
ATOM     44  C   UNL A   1      37.762  31.936  32.966  1.00  0.00     0.029 A 
ATOM     45  C   UNL A   1      39.017  31.221  33.173  1.00  0.00     0.049 A 
ATOM     46  H   UNL A   1      40.016  29.999  31.813  1.00  0.00     0.167 HD
ATOM     47  C   UNL A   1      41.838  27.176  29.007  1.00  0.00     0.037 A 
ATOM     48  C   UNL A   1      39.748  31.240  34.305  1.00  0.00     0.037 A 
ATOM     49  C   UNL A   1      42.749  27.241  30.120  1.00  0.00     0.049 A 
ATOM     50  C   UNL A   1      41.030  30.451  34.365  1.00  0.00     0.074 A 
ATOM     51  C   UNL A   1      43.983  26.628  30.261  1.00  0.00     0.029 A 
ATOM     52  N   UNL A   1      42.523  27.959  31.285  1.00  0.00    -0.354 N 
ATOM     53  N   UNL A   1      41.575  29.684  33.453  1.00  0.00    -0.248 NA
ATOM     54  C   UNL A   1      41.805  30.538  35.613  1.00  0.00     0.031 C 
ATOM     55  C   UNL A   1      44.477  26.928  31.533  1.00  0.00     0.029 A 
ATOM     56  C   UNL A   1      43.581  27.779  32.161  1.00  0.00     0.049 A 
ATOM     57  H   UNL A   1      41.730  28.513  31.462  1.00  0.00     0.167 HD
ATOM     58  C   UNL A   1      42.763  29.221  34.002  1.00  0.00     0.074 A 
ATOM     59  C   UNL A   1      42.872  29.810  35.320  1.00  0.00     0.031 C 
ATOM     60  C   UNL A   1      43.681  28.380  33.466  1.00  0.00     0.037 A 
BRANCH  47  61
ATOM     61  C   UNL A   1      42.187  26.252  27.873  1.00  0.00     0.064 A 
ATOM     62  C   UNL A   1      41.581  24.995  27.729  1.00  0.00     0.173 A 
ATOM     63  C   UNL A   1      43.087  26.663  26.878  1.00  0.00     0.173 A 
ATOM     64  F   UNL A   1      40.719  24.549  28.655  1.00  0.00    -0.203 F 
ATOM     65  C   UNL A   1      41.879  24.176  26.642  1.00  0.00     0.198 A 
ATOM     66  C   UNL A   1      43.358  25.855  25.776  1.00  0.00     0.198 A 
ATOM     67  F   UNL A   1      43.688  27.859  26.961  1.00  0.00    -0.203 F 
ATOM     68  F   UNL A   1      41.317  22.963  26.545  1.00  0.00    -0.200 F 
ATOM     69  C   UNL A   1      42.758  24.610  25.662  1.00  0.00     0.200 A 
ATOM     70  F   UNL A   1      44.195  26.285  24.821  1.00  0.00    -0.200 F 
ATOM     71  F   UNL A   1      43.030  23.829  24.608  1.00  0.00    -0.200 F 
ENDBRANCH  47  61
BRANCH  48  72
ATOM     72  C   UNL A   1      39.290  32.033  35.477  1.00  0.00     0.064 A 
ATOM     73  C   UNL A   1      38.476  31.462  36.467  1.00  0.00     0.173 A 
ATOM     74  C   UNL A   1      39.632  33.387  35.621  1.00  0.00     0.173 A 
ATOM     75  F   UNL A   1      38.104  30.178  36.367  1.00  0.00    -0.203 F 
ATOM     76  C   UNL A   1      37.998  32.220  37.534  1.00  0.00     0.198 A 
ATOM     77  C   UNL A   1      39.182  34.134  36.706  1.00  0.00     0.198 A 
ATOM     78  F   UNL A   1      40.412  33.983  34.707  1.00  0.00    -0.203 F 
ATOM     79  F   UNL A   1      37.173  31.663  38.432  1.00  0.00    -0.200 F 
ATOM     80  C   UNL A   1      38.355  33.554  37.656  1.00  0.00     0.200 A 
ATOM     81  F   UNL A   1      39.544  35.418  36.830  1.00  0.00    -0.200 F 
ATOM     82  F   UNL A   1      37.895  34.283  38.682  1.00  0.00    -0.200 F 
ENDBRANCH  48  72
BRANCH  60  83
ATOM     83  C   UNL A   1      44.903  28.076  34.284  1.00  0.00     0.064 A 
ATOM     84  C   UNL A   1      46.049  28.885  34.227  1.00  0.00     0.173 A 
ATOM     85  C   UNL A   1      44.913  26.985  35.167  1.00  0.00     0.173 A 
ATOM     86  F   UNL A   1      46.095  29.932  33.389  1.00  0.00    -0.203 F 
ATOM     87  C   UNL A   1      47.167  28.596  35.004  1.00  0.00     0.198 A 
ATOM     88  C   UNL A   1      46.019  26.720  35.967  1.00  0.00     0.198 A 
ATOM     89  F   UNL A   1      43.840  26.186  35.267  1.00  0.00    -0.203 F 
ATOM     90  F   UNL A   1      48.269  29.351  34.895  1.00  0.00    -0.200 F 
ATOM     91  C   UNL A   1      47.150  27.519  35.878  1.00  0.00     0.200 A 
ATOM     92  F   UNL A   1      45.994  25.690  36.824  1.00  0.00    -0.200 F 
ATOM     93  F   UNL A   1      48.224  27.249  36.631  1.00  0.00    -0.200 F 
ENDBRANCH  60  83
ENDBRANCH  34  35
ENDBRANCH  26  29
ENDBRANCH  24  25
ENDBRANCH  23  24
ENDBRANCH   1  23
TORSDOF 14
ENDMDL
