MODEL 1
REMARK VINA RESULT:     -12.8      0.000      0.000
REMARK SMILES CC(=O)O[C@H]1C[C@@H](C(=O)NCCCNC(=O)c2ccc(-c3c4nc(c(-c5c(F)c(F)c(F)c(F)c5F)c5ccc([nH]5)c(-c5c(F)c(F)c(F)c(F)c5F)c5nc(c(-c6c(F)c(F)c(F)c(F)c6F)c6ccc3[nH]6)C=C5)C=C4)cc2)N(S(=O)(=O)c2ccc(F)cc2)C1
REMARK SMILES IDX 12 1 11 2 10 3 8 4 9 5 7 7 5 8 6 9 91 10 80 11 4 12 2 13
REMARK SMILES IDX 1 14 3 15 81 16 82 17 83 18 84 19 85 20 90 21 86 22 89 23
REMARK SMILES IDX 87 24 88 25 13 26 14 27 15 28 16 30 17 31 18 32 79 33 19 34
REMARK SMILES IDX 78 35 20 36 21 37 22 38 72 39 23 40 77 41 71 42 73 43 24 44
REMARK SMILES IDX 76 45 70 46 69 47 25 49 57 50 37 51 56 52 38 53 41 54 55 55
REMARK SMILES IDX 74 56 39 57 40 58 54 60 75 61 42 62 26 63 27 64 35 65 28 66
REMARK SMILES IDX 29 67 33 68 36 69 30 70 31 71 34 72 32 73 58 74 59 75 67 76
REMARK SMILES IDX 60 77 61 78 65 79 68 80 62 81 63 82 66 83 64 84 43 85 44 86
REMARK SMILES IDX 52 87 45 88 46 89 50 90 53 91 47 92 48 93 51 94 49 95
REMARK H PARENT 10 6 14 29 73 48 41 59
REMARK Flexibility Score: inf
ROOT
ATOM      1  C   UNL A   1      31.174  32.096  26.499  1.00  0.00     0.042 C 
ENDROOT
BRANCH   1   2
ATOM      2  C   UNL A   1      31.287  30.828  25.661  1.00  0.00     0.117 C 
BRANCH   2   3
ATOM      3  N   UNL A   1      32.536  30.100  25.819  1.00  0.00    -0.355 N 
ATOM      4  C   UNL A   1      32.840  28.782  25.646  1.00  0.00     0.238 C 
ATOM      5  O   UNL A   1      34.033  28.467  25.688  1.00  0.00    -0.273 OA
ATOM      6  H   UNL A   1      33.296  30.657  26.101  1.00  0.00     0.163 HD
BRANCH   4   7
ATOM      7  C   UNL A   1      31.787  27.724  25.343  1.00  0.00     0.166 C 
ATOM      8  C   UNL A   1      30.955  25.614  26.118  1.00  0.00     0.193 C 
ATOM      9  C   UNL A   1      31.540  26.916  26.614  1.00  0.00     0.077 C 
ATOM     10  C   UNL A   1      31.467  25.435  24.681  1.00  0.00     0.148 C 
ATOM     11  N   UNL A   1      32.149  26.727  24.295  1.00  0.00    -0.182 NA
BRANCH   8  12
ATOM     12  O   UNL A   1      31.097  24.454  26.971  1.00  0.00    -0.461 OA
BRANCH  12  13
ATOM     13  C   UNL A   1      30.458  23.267  26.874  1.00  0.00     0.302 C 
ATOM     14  C   UNL A   1      31.014  22.261  25.917  1.00  0.00     0.139 C 
ATOM     15  O   UNL A   1      29.531  22.984  27.626  1.00  0.00    -0.253 OA
ENDBRANCH  12  13
ENDBRANCH   8  12
BRANCH  11  16
ATOM     16  S   UNL A   1      31.852  27.158  22.655  1.00  0.00     0.243 S 
ATOM     17  O   UNL A   1      33.013  27.926  22.239  1.00  0.00    -0.207 OA
ATOM     18  O   UNL A   1      31.465  25.960  21.954  1.00  0.00    -0.207 OA
BRANCH  16  19
ATOM     19  C   UNL A   1      30.459  28.271  22.636  1.00  0.00     0.082 A 
ATOM     20  C   UNL A   1      30.598  29.569  22.126  1.00  0.00     0.025 A 
ATOM     21  C   UNL A   1      29.203  27.824  23.058  1.00  0.00     0.025 A 
ATOM     22  C   UNL A   1      29.507  30.444  22.145  1.00  0.00     0.040 A 
ATOM     23  C   UNL A   1      28.132  28.718  23.128  1.00  0.00     0.040 A 
ATOM     24  C   UNL A   1      28.296  30.023  22.682  1.00  0.00     0.123 A 
ATOM     25  F   UNL A   1      27.279  30.888  22.775  1.00  0.00    -0.207 F 
ENDBRANCH  16  19
ENDBRANCH  11  16
ENDBRANCH   4   7
ENDBRANCH   2   3
ENDBRANCH   1   2
BRANCH   1  26
ATOM     26  C   UNL A   1      32.475  32.558  27.146  1.00  0.00     0.118 C 
BRANCH  26  27
ATOM     27  N   UNL A   1      32.427  33.943  27.573  1.00  0.00    -0.352 N 
ATOM     28  C   UNL A   1      33.127  34.583  28.566  1.00  0.00     0.251 C 
ATOM     29  H   UNL A   1      31.795  34.511  27.074  1.00  0.00     0.163 HD
ATOM     30  O   UNL A   1      32.783  35.715  28.900  1.00  0.00    -0.269 OA
BRANCH  28  31
ATOM     31  C   UNL A   1      34.276  33.943  29.259  1.00  0.00     0.039 A 
ATOM     32  C   UNL A   1      35.564  34.203  28.777  1.00  0.00     0.014 A 
ATOM     33  C   UNL A   1      34.111  33.027  30.302  1.00  0.00     0.014 A 
ATOM     34  C   UNL A   1      36.674  33.572  29.351  1.00  0.00     0.010 A 
ATOM     35  C   UNL A   1      35.227  32.455  30.925  1.00  0.00     0.010 A 
ATOM     36  C   UNL A   1      36.522  32.702  30.441  1.00  0.00    -0.014 A 
BRANCH  36  37
ATOM     37  C   UNL A   1      37.707  32.023  31.041  1.00  0.00     0.031 A 
ATOM     38  C   UNL A   1      38.167  32.369  32.434  1.00  0.00     0.074 A 
ATOM     39  C   UNL A   1      38.382  31.094  30.336  1.00  0.00     0.049 A 
ATOM     40  N   UNL A   1      39.167  31.874  33.126  1.00  0.00    -0.248 NA
ATOM     41  C   UNL A   1      37.420  33.422  33.138  1.00  0.00     0.031 C 
ATOM     42  C   UNL A   1      38.075  30.685  28.967  1.00  0.00     0.029 A 
ATOM     43  N   UNL A   1      39.468  30.322  30.677  1.00  0.00    -0.354 N 
ATOM     44  C   UNL A   1      39.172  32.561  34.333  1.00  0.00     0.074 A 
ATOM     45  C   UNL A   1      38.113  33.544  34.262  1.00  0.00     0.031 C 
ATOM     46  C   UNL A   1      38.930  29.720  28.593  1.00  0.00     0.029 A 
ATOM     47  C   UNL A   1      39.868  29.463  29.682  1.00  0.00     0.049 A 
ATOM     48  H   UNL A   1      39.917  30.380  31.552  1.00  0.00     0.167 HD
ATOM     49  C   UNL A   1      39.969  32.376  35.415  1.00  0.00     0.037 A 
ATOM     50  C   UNL A   1      40.875  28.567  29.648  1.00  0.00     0.037 A 
ATOM     51  C   UNL A   1      41.007  31.382  35.504  1.00  0.00     0.049 A 
ATOM     52  C   UNL A   1      41.751  28.385  30.859  1.00  0.00     0.074 A 
ATOM     53  C   UNL A   1      41.821  31.080  36.584  1.00  0.00     0.029 A 
ATOM     54  N   UNL A   1      41.380  30.532  34.474  1.00  0.00    -0.354 N 
ATOM     55  N   UNL A   1      41.697  28.990  32.020  1.00  0.00    -0.248 NA
ATOM     56  C   UNL A   1      42.826  27.386  30.755  1.00  0.00     0.031 C 
ATOM     57  C   UNL A   1      42.721  30.083  36.189  1.00  0.00     0.029 A 
ATOM     58  C   UNL A   1      42.431  29.725  34.883  1.00  0.00     0.049 A 
ATOM     59  H   UNL A   1      40.961  30.505  33.584  1.00  0.00     0.167 HD
ATOM     60  C   UNL A   1      42.706  28.429  32.792  1.00  0.00     0.074 A 
ATOM     61  C   UNL A   1      43.349  27.424  31.973  1.00  0.00     0.031 C 
ATOM     62  C   UNL A   1      43.064  28.722  34.066  1.00  0.00     0.037 A 
BRANCH  49  63
ATOM     63  C   UNL A   1      39.750  33.273  36.600  1.00  0.00     0.064 A 
ATOM     64  C   UNL A   1      40.435  34.491  36.739  1.00  0.00     0.173 A 
ATOM     65  C   UNL A   1      38.816  32.930  37.590  1.00  0.00     0.173 A 
ATOM     66  F   UNL A   1      41.344  34.863  35.826  1.00  0.00    -0.203 F 
ATOM     67  C   UNL A   1      40.217  35.314  37.841  1.00  0.00     0.198 A 
ATOM     68  C   UNL A   1      38.578  33.771  38.674  1.00  0.00     0.198 A 
ATOM     69  F   UNL A   1      38.127  31.784  37.501  1.00  0.00    -0.203 F 
ATOM     70  F   UNL A   1      40.921  36.447  37.980  1.00  0.00    -0.200 F 
ATOM     71  C   UNL A   1      39.284  34.957  38.804  1.00  0.00     0.200 A 
ATOM     72  F   UNL A   1      37.665  33.433  39.595  1.00  0.00    -0.200 F 
ATOM     73  F   UNL A   1      39.071  35.753  39.861  1.00  0.00    -0.200 F 
ENDBRANCH  49  63
BRANCH  50  74
ATOM     74  C   UNL A   1      41.095  27.751  28.425  1.00  0.00     0.064 A 
ATOM     75  C   UNL A   1      41.972  28.177  27.420  1.00  0.00     0.173 A 
ATOM     76  C   UNL A   1      40.430  26.530  28.238  1.00  0.00     0.173 A 
ATOM     77  F   UNL A   1      42.612  29.350  27.543  1.00  0.00    -0.203 F 
ATOM     78  C   UNL A   1      42.168  27.421  26.266  1.00  0.00     0.198 A 
ATOM     79  C   UNL A   1      40.647  25.760  27.097  1.00  0.00     0.198 A 
ATOM     80  F   UNL A   1      39.580  26.078  29.171  1.00  0.00    -0.203 F 
ATOM     81  F   UNL A   1      42.980  27.872  25.300  1.00  0.00    -0.200 F 
ATOM     82  C   UNL A   1      41.510  26.211  26.108  1.00  0.00     0.200 A 
ATOM     83  F   UNL A   1      40.019  24.585  26.954  1.00  0.00    -0.200 F 
ATOM     84  F   UNL A   1      41.702  25.481  25.001  1.00  0.00    -0.200 F 
ENDBRANCH  50  74
BRANCH  62  85
ATOM     85  C   UNL A   1      44.184  27.925  34.672  1.00  0.00     0.064 A 
ATOM     86  C   UNL A   1      45.514  28.370  34.628  1.00  0.00     0.173 A 
ATOM     87  C   UNL A   1      43.917  26.722  35.344  1.00  0.00     0.173 A 
ATOM     88  F   UNL A   1      45.825  29.506  33.988  1.00  0.00    -0.203 F 
ATOM     89  C   UNL A   1      46.537  27.627  35.213  1.00  0.00     0.198 A 
ATOM     90  C   UNL A   1      44.938  25.998  35.952  1.00  0.00     0.198 A 
ATOM     91  F   UNL A   1      42.661  26.255  35.421  1.00  0.00    -0.203 F 
ATOM     92  F   UNL A   1      47.806  28.048  35.120  1.00  0.00    -0.200 F 
ATOM     93  C   UNL A   1      46.248  26.446  35.881  1.00  0.00     0.200 A 
ATOM     94  F   UNL A   1      44.653  24.864  36.609  1.00  0.00    -0.200 F 
ATOM     95  F   UNL A   1      47.232  25.737  36.449  1.00  0.00    -0.200 F 
ENDBRANCH  62  85
ENDBRANCH  36  37
ENDBRANCH  28  31
ENDBRANCH  26  27
ENDBRANCH   1  26
TORSDOF 14
ENDMDL
MODEL 2
REMARK VINA RESULT:     -12.7      0.316      1.681
REMARK SMILES CC(=O)O[C@H]1C[C@@H](C(=O)NCCCNC(=O)c2ccc(-c3c4nc(c(-c5c(F)c(F)c(F)c(F)c5F)c5ccc([nH]5)c(-c5c(F)c(F)c(F)c(F)c5F)c5nc(c(-c6c(F)c(F)c(F)c(F)c6F)c6ccc3[nH]6)C=C5)C=C4)cc2)N(S(=O)(=O)c2ccc(F)cc2)C1
REMARK SMILES IDX 12 1 11 2 10 3 8 4 9 5 7 7 5 8 6 9 91 10 80 11 4 12 2 13
REMARK SMILES IDX 1 14 3 15 81 16 82 17 83 18 84 19 85 20 90 21 86 22 89 23
REMARK SMILES IDX 87 24 88 25 13 26 14 27 15 28 16 30 17 31 18 32 79 33 19 34
REMARK SMILES IDX 78 35 20 36 21 37 22 38 72 39 23 40 77 41 71 42 73 43 24 44
REMARK SMILES IDX 76 45 70 46 69 47 25 49 57 50 37 51 56 52 38 53 41 54 55 55
REMARK SMILES IDX 74 56 39 57 40 58 54 60 75 61 42 62 26 63 27 64 35 65 28 66
REMARK SMILES IDX 29 67 33 68 36 69 30 70 31 71 34 72 32 73 58 74 59 75 67 76
REMARK SMILES IDX 60 77 61 78 65 79 68 80 62 81 63 82 66 83 64 84 43 85 44 86
REMARK SMILES IDX 52 87 45 88 46 89 50 90 53 91 47 92 48 93 51 94 49 95
REMARK H PARENT 10 6 14 29 73 48 41 59
REMARK Flexibility Score: inf
ROOT
ATOM      1  C   UNL A   1      31.198  32.119  26.401  1.00  0.00     0.042 C 
ENDROOT
BRANCH   1   2
ATOM      2  C   UNL A   1      31.261  30.796  25.648  1.00  0.00     0.117 C 
BRANCH   2   3
ATOM      3  N   UNL A   1      32.514  30.071  25.790  1.00  0.00    -0.355 N 
ATOM      4  C   UNL A   1      32.820  28.754  25.608  1.00  0.00     0.238 C 
ATOM      5  O   UNL A   1      34.015  28.443  25.635  1.00  0.00    -0.273 OA
ATOM      6  H   UNL A   1      33.276  30.630  26.065  1.00  0.00     0.163 HD
BRANCH   4   7
ATOM      7  C   UNL A   1      31.767  27.695  25.313  1.00  0.00     0.166 C 
ATOM      8  C   UNL A   1      30.952  25.578  26.086  1.00  0.00     0.193 C 
ATOM      9  C   UNL A   1      31.539  26.879  26.582  1.00  0.00     0.077 C 
ATOM     10  C   UNL A   1      31.446  25.408  24.642  1.00  0.00     0.148 C 
ATOM     11  N   UNL A   1      32.119  26.704  24.255  1.00  0.00    -0.182 NA
BRANCH   8  12
ATOM     12  O   UNL A   1      31.109  24.413  26.931  1.00  0.00    -0.461 OA
BRANCH  12  13
ATOM     13  C   UNL A   1      30.443  23.239  26.861  1.00  0.00     0.302 C 
ATOM     14  C   UNL A   1      30.965  22.206  25.914  1.00  0.00     0.139 C 
ATOM     15  O   UNL A   1      29.520  22.988  27.629  1.00  0.00    -0.253 OA
ENDBRANCH  12  13
ENDBRANCH   8  12
BRANCH  11  16
ATOM     16  S   UNL A   1      31.800  27.144  22.621  1.00  0.00     0.243 S 
ATOM     17  O   UNL A   1      32.946  27.929  22.198  1.00  0.00    -0.207 OA
ATOM     18  O   UNL A   1      31.420  25.945  21.915  1.00  0.00    -0.207 OA
BRANCH  16  19
ATOM     19  C   UNL A   1      30.392  28.239  22.624  1.00  0.00     0.082 A 
ATOM     20  C   UNL A   1      30.510  29.544  22.126  1.00  0.00     0.025 A 
ATOM     21  C   UNL A   1      29.146  27.771  23.052  1.00  0.00     0.025 A 
ATOM     22  C   UNL A   1      29.408  30.404  22.162  1.00  0.00     0.040 A 
ATOM     23  C   UNL A   1      28.064  28.651  23.140  1.00  0.00     0.040 A 
ATOM     24  C   UNL A   1      28.208  29.962  22.706  1.00  0.00     0.123 A 
ATOM     25  F   UNL A   1      27.180  30.814  22.815  1.00  0.00    -0.207 F 
ENDBRANCH  16  19
ENDBRANCH  11  16
ENDBRANCH   4   7
ENDBRANCH   2   3
ENDBRANCH   1   2
BRANCH   1  26
ATOM     26  C   UNL A   1      32.417  32.428  27.264  1.00  0.00     0.118 C 
BRANCH  26  27
ATOM     27  N   UNL A   1      32.516  33.832  27.610  1.00  0.00    -0.352 N 
ATOM     28  C   UNL A   1      33.398  34.473  28.447  1.00  0.00     0.251 C 
ATOM     29  H   UNL A   1      31.849  34.415  27.181  1.00  0.00     0.163 HD
ATOM     30  O   UNL A   1      33.176  35.640  28.762  1.00  0.00    -0.269 OA
BRANCH  28  31
ATOM     31  C   UNL A   1      34.601  33.792  28.993  1.00  0.00     0.039 A 
ATOM     32  C   UNL A   1      34.411  32.685  29.828  1.00  0.00     0.014 A 
ATOM     33  C   UNL A   1      35.899  34.270  28.782  1.00  0.00     0.014 A 
ATOM     34  C   UNL A   1      35.508  32.050  30.422  1.00  0.00     0.010 A 
ATOM     35  C   UNL A   1      36.999  33.589  29.315  1.00  0.00     0.010 A 
ATOM     36  C   UNL A   1      36.816  32.484  30.162  1.00  0.00    -0.014 A 
BRANCH  36  37
ATOM     37  C   UNL A   1      37.980  31.812  30.807  1.00  0.00     0.031 A 
ATOM     38  C   UNL A   1      38.389  32.167  32.215  1.00  0.00     0.074 A 
ATOM     39  C   UNL A   1      38.684  30.880  30.134  1.00  0.00     0.049 A 
ATOM     40  N   UNL A   1      39.365  31.680  32.945  1.00  0.00    -0.248 NA
ATOM     41  C   UNL A   1      37.615  33.222  32.885  1.00  0.00     0.031 C 
ATOM     42  C   UNL A   1      38.426  30.462  28.757  1.00  0.00     0.029 A 
ATOM     43  N   UNL A   1      39.759  30.113  30.518  1.00  0.00    -0.354 N 
ATOM     44  C   UNL A   1      39.325  32.374  34.147  1.00  0.00     0.074 A 
ATOM     45  C   UNL A   1      38.267  33.353  34.031  1.00  0.00     0.031 C 
ATOM     46  C   UNL A   1      39.297  29.497  28.419  1.00  0.00     0.029 A 
ATOM     47  C   UNL A   1      40.196  29.249  29.544  1.00  0.00     0.049 A 
ATOM     48  H   UNL A   1      40.175  30.178  31.408  1.00  0.00     0.167 HD
ATOM     49  C   UNL A   1      40.083  32.198  35.257  1.00  0.00     0.037 A 
ATOM     50  C   UNL A   1      41.206  28.357  29.551  1.00  0.00     0.037 A 
ATOM     51  C   UNL A   1      41.121  31.208  35.390  1.00  0.00     0.049 A 
ATOM     52  C   UNL A   1      42.039  28.184  30.793  1.00  0.00     0.074 A 
ATOM     53  C   UNL A   1      41.896  30.915  36.500  1.00  0.00     0.029 A 
ATOM     54  N   UNL A   1      41.533  30.353  34.380  1.00  0.00    -0.354 N 
ATOM     55  N   UNL A   1      41.941  28.796  31.948  1.00  0.00    -0.248 NA
ATOM     56  C   UNL A   1      43.119  27.188  30.734  1.00  0.00     0.031 C 
ATOM     57  C   UNL A   1      42.812  29.918  36.144  1.00  0.00     0.029 A 
ATOM     58  C   UNL A   1      42.571  29.551  34.831  1.00  0.00     0.049 A 
ATOM     59  H   UNL A   1      41.146  30.319  33.475  1.00  0.00     0.167 HD
ATOM     60  C   UNL A   1      42.924  28.243  32.759  1.00  0.00     0.074 A 
ATOM     61  C   UNL A   1      43.599  27.235  31.970  1.00  0.00     0.031 C 
ATOM     62  C   UNL A   1      43.235  28.545  34.043  1.00  0.00     0.037 A 
BRANCH  49  63
ATOM     63  C   UNL A   1      39.820  33.102  36.429  1.00  0.00     0.064 A 
ATOM     64  C   UNL A   1      40.515  34.310  36.599  1.00  0.00     0.173 A 
ATOM     65  C   UNL A   1      38.833  32.776  37.372  1.00  0.00     0.173 A 
ATOM     66  F   UNL A   1      41.473  34.666  35.731  1.00  0.00    -0.203 F 
ATOM     67  C   UNL A   1      40.255  35.139  37.687  1.00  0.00     0.198 A 
ATOM     68  C   UNL A   1      38.554  33.623  38.441  1.00  0.00     0.198 A 
ATOM     69  F   UNL A   1      38.132  31.639  37.252  1.00  0.00    -0.203 F 
ATOM     70  F   UNL A   1      40.968  36.262  37.857  1.00  0.00    -0.200 F 
ATOM     71  C   UNL A   1      39.270  34.799  38.603  1.00  0.00     0.200 A 
ATOM     72  F   UNL A   1      37.592  33.301  39.317  1.00  0.00    -0.200 F 
ATOM     73  F   UNL A   1      39.018  35.601  39.646  1.00  0.00    -0.200 F 
ENDBRANCH  49  63
BRANCH  50  74
ATOM     74  C   UNL A   1      41.472  27.533  28.342  1.00  0.00     0.064 A 
ATOM     75  C   UNL A   1      40.782  26.335  28.119  1.00  0.00     0.173 A 
ATOM     76  C   UNL A   1      42.422  27.928  27.388  1.00  0.00     0.173 A 
ATOM     77  F   UNL A   1      39.881  25.903  29.015  1.00  0.00    -0.203 F 
ATOM     78  C   UNL A   1      41.040  25.553  26.994  1.00  0.00     0.198 A 
ATOM     79  C   UNL A   1      42.660  27.160  26.250  1.00  0.00     0.198 A 
ATOM     80  F   UNL A   1      43.109  29.067  27.556  1.00  0.00    -0.203 F 
ATOM     81  F   UNL A   1      40.397  24.390  26.827  1.00  0.00    -0.200 F 
ATOM     82  C   UNL A   1      41.974  25.970  26.058  1.00  0.00     0.200 A 
ATOM     83  F   UNL A   1      43.554  27.573  25.341  1.00  0.00    -0.200 F 
ATOM     84  F   UNL A   1      42.219  25.221  24.974  1.00  0.00    -0.200 F 
ENDBRANCH  50  74
BRANCH  62  85
ATOM     85  C   UNL A   1      44.335  27.755  34.694  1.00  0.00     0.064 A 
ATOM     86  C   UNL A   1      44.084  26.537  35.344  1.00  0.00     0.173 A 
ATOM     87  C   UNL A   1      45.664  28.202  34.628  1.00  0.00     0.173 A 
ATOM     88  F   UNL A   1      42.831  26.072  35.446  1.00  0.00    -0.203 F 
ATOM     89  C   UNL A   1      45.121  25.810  35.925  1.00  0.00     0.198 A 
ATOM     90  C   UNL A   1      46.700  27.457  35.184  1.00  0.00     0.198 A 
ATOM     91  F   UNL A   1      45.960  29.357  34.012  1.00  0.00    -0.203 F 
ATOM     92  F   UNL A   1      44.852  24.672  36.580  1.00  0.00    -0.200 F 
ATOM     93  C   UNL A   1      46.427  26.266  35.838  1.00  0.00     0.200 A 
ATOM     94  F   UNL A   1      47.964  27.894  35.087  1.00  0.00    -0.200 F 
ATOM     95  F   UNL A   1      47.424  25.560  36.391  1.00  0.00    -0.200 F 
ENDBRANCH  62  85
ENDBRANCH  36  37
ENDBRANCH  28  31
ENDBRANCH  26  27
ENDBRANCH   1  26
TORSDOF 14
ENDMDL
MODEL 3
REMARK VINA RESULT:     -12.7      2.048      3.377
REMARK SMILES CC(=O)O[C@H]1C[C@@H](C(=O)NCCCNC(=O)c2ccc(-c3c4nc(c(-c5c(F)c(F)c(F)c(F)c5F)c5ccc([nH]5)c(-c5c(F)c(F)c(F)c(F)c5F)c5nc(c(-c6c(F)c(F)c(F)c(F)c6F)c6ccc3[nH]6)C=C5)C=C4)cc2)N(S(=O)(=O)c2ccc(F)cc2)C1
REMARK SMILES IDX 12 1 11 2 10 3 8 4 9 5 7 7 5 8 6 9 91 10 80 11 4 12 2 13
REMARK SMILES IDX 1 14 3 15 81 16 82 17 83 18 84 19 85 20 90 21 86 22 89 23
REMARK SMILES IDX 87 24 88 25 13 26 14 27 15 28 16 30 17 31 18 32 79 33 19 34
REMARK SMILES IDX 78 35 20 36 21 37 22 38 72 39 23 40 77 41 71 42 73 43 24 44
REMARK SMILES IDX 76 45 70 46 69 47 25 49 57 50 37 51 56 52 38 53 41 54 55 55
REMARK SMILES IDX 74 56 39 57 40 58 54 60 75 61 42 62 26 63 27 64 35 65 28 66
REMARK SMILES IDX 29 67 33 68 36 69 30 70 31 71 34 72 32 73 58 74 59 75 67 76
REMARK SMILES IDX 60 77 61 78 65 79 68 80 62 81 63 82 66 83 64 84 43 85 44 86
REMARK SMILES IDX 52 87 45 88 46 89 50 90 53 91 47 92 48 93 51 94 49 95
REMARK H PARENT 10 6 14 29 73 48 41 59
REMARK Flexibility Score: inf
ROOT
ATOM      1  C   UNL A   1      32.061  28.125  25.889  1.00  0.00     0.042 C 
ENDROOT
BRANCH   1   2
ATOM      2  C   UNL A   1      32.743  26.890  26.465  1.00  0.00     0.117 C 
BRANCH   2   3
ATOM      3  N   UNL A   1      31.839  25.818  26.853  1.00  0.00    -0.355 N 
ATOM      4  C   UNL A   1      31.872  24.477  26.605  1.00  0.00     0.238 C 
ATOM      5  O   UNL A   1      31.057  23.772  27.207  1.00  0.00    -0.273 OA
ATOM      6  H   UNL A   1      31.068  26.112  27.389  1.00  0.00     0.163 HD
BRANCH   4   7
ATOM      7  C   UNL A   1      32.901  23.832  25.686  1.00  0.00     0.166 C 
ATOM      8  C   UNL A   1      35.264  23.543  25.409  1.00  0.00     0.193 C 
ATOM      9  C   UNL A   1      34.195  23.645  26.472  1.00  0.00     0.077 C 
ATOM     10  C   UNL A   1      34.722  24.291  24.183  1.00  0.00     0.148 C 
ATOM     11  N   UNL A   1      33.276  24.619  24.476  1.00  0.00    -0.182 NA
BRANCH   8  12
ATOM     12  O   UNL A   1      36.617  23.886  25.792  1.00  0.00    -0.461 OA
BRANCH  12  13
ATOM     13  C   UNL A   1      37.714  23.098  25.765  1.00  0.00     0.302 C 
ATOM     14  C   UNL A   1      38.916  23.564  26.523  1.00  0.00     0.139 C 
ATOM     15  O   UNL A   1      37.685  21.990  25.240  1.00  0.00    -0.253 OA
ENDBRANCH  12  13
ENDBRANCH   8  12
BRANCH  11  16
ATOM     16  S   UNL A   1      32.275  24.457  23.084  1.00  0.00     0.243 S 
ATOM     17  O   UNL A   1      33.161  24.629  21.946  1.00  0.00    -0.207 OA
ATOM     18  O   UNL A   1      31.499  23.253  23.246  1.00  0.00    -0.207 OA
BRANCH  16  19
ATOM     19  C   UNL A   1      31.142  25.834  23.074  1.00  0.00     0.082 A 
ATOM     20  C   UNL A   1      31.442  26.991  22.341  1.00  0.00     0.025 A 
ATOM     21  C   UNL A   1      29.913  25.732  23.733  1.00  0.00     0.025 A 
ATOM     22  C   UNL A   1      30.562  28.078  22.366  1.00  0.00     0.040 A 
ATOM     23  C   UNL A   1      29.065  26.839  23.802  1.00  0.00     0.040 A 
ATOM     24  C   UNL A   1      29.402  28.006  23.128  1.00  0.00     0.123 A 
ATOM     25  F   UNL A   1      28.603  29.077  23.216  1.00  0.00    -0.207 F 
ENDBRANCH  16  19
ENDBRANCH  11  16
ENDBRANCH   4   7
ENDBRANCH   2   3
ENDBRANCH   1   2
BRANCH   1  26
ATOM     26  C   UNL A   1      33.007  29.233  25.442  1.00  0.00     0.118 C 
BRANCH  26  27
ATOM     27  N   UNL A   1      32.592  30.544  25.902  1.00  0.00    -0.352 N 
ATOM     28  C   UNL A   1      33.111  31.333  26.900  1.00  0.00     0.251 C 
ATOM     29  H   UNL A   1      31.818  30.926  25.427  1.00  0.00     0.163 HD
ATOM     30  O   UNL A   1      32.478  32.321  27.266  1.00  0.00    -0.269 OA
BRANCH  28  31
ATOM     31  C   UNL A   1      34.406  31.019  27.559  1.00  0.00     0.039 A 
ATOM     32  C   UNL A   1      34.596  29.724  28.055  1.00  0.00     0.014 A 
ATOM     33  C   UNL A   1      35.392  31.985  27.783  1.00  0.00     0.014 A 
ATOM     34  C   UNL A   1      35.770  29.396  28.743  1.00  0.00     0.010 A 
ATOM     35  C   UNL A   1      36.596  31.637  28.404  1.00  0.00     0.010 A 
ATOM     36  C   UNL A   1      36.791  30.342  28.914  1.00  0.00    -0.014 A 
BRANCH  36  37
ATOM     37  C   UNL A   1      38.034  29.991  29.659  1.00  0.00     0.031 A 
ATOM     38  C   UNL A   1      38.263  30.506  31.058  1.00  0.00     0.074 A 
ATOM     39  C   UNL A   1      38.971  29.211  29.084  1.00  0.00     0.049 A 
ATOM     40  N   UNL A   1      39.276  30.296  31.865  1.00  0.00    -0.248 NA
ATOM     41  C   UNL A   1      37.230  31.390  31.617  1.00  0.00     0.031 C 
ATOM     42  C   UNL A   1      38.902  28.672  27.727  1.00  0.00     0.029 A 
ATOM     43  N   UNL A   1      40.165  28.733  29.571  1.00  0.00    -0.354 N 
ATOM     44  C   UNL A   1      39.004  31.026  33.015  1.00  0.00     0.074 A 
ATOM     45  C   UNL A   1      37.761  31.728  32.783  1.00  0.00     0.031 C 
ATOM     46  C   UNL A   1      39.988  27.916  27.498  1.00  0.00     0.029 A 
ATOM     47  C   UNL A   1      40.847  27.942  28.679  1.00  0.00     0.049 A 
ATOM     48  H   UNL A   1      40.499  28.940  30.474  1.00  0.00     0.167 HD
ATOM     49  C   UNL A   1      39.711  31.089  34.171  1.00  0.00     0.037 A 
ATOM     50  C   UNL A   1      42.030  27.307  28.795  1.00  0.00     0.037 A 
ATOM     51  C   UNL A   1      40.935  30.372  34.420  1.00  0.00     0.049 A 
ATOM     52  C   UNL A   1      42.800  27.397  30.086  1.00  0.00     0.074 A 
ATOM     53  C   UNL A   1      41.685  30.324  35.583  1.00  0.00     0.029 A 
ATOM     54  N   UNL A   1      41.593  29.581  33.490  1.00  0.00    -0.354 N 
ATOM     55  N   UNL A   1      42.495  28.031  31.191  1.00  0.00    -0.248 NA
ATOM     56  C   UNL A   1      44.080  26.673  30.146  1.00  0.00     0.031 C 
ATOM     57  C   UNL A   1      42.823  29.547  35.340  1.00  0.00     0.029 A 
ATOM     58  C   UNL A   1      42.754  29.064  34.044  1.00  0.00     0.049 A 
ATOM     59  H   UNL A   1      41.281  29.411  32.572  1.00  0.00     0.167 HD
ATOM     60  C   UNL A   1      43.523  27.763  32.084  1.00  0.00     0.074 A 
ATOM     61  C   UNL A   1      44.457  26.895  31.398  1.00  0.00     0.031 C 
ATOM     62  C   UNL A   1      43.677  28.196  33.359  1.00  0.00     0.037 A 
BRANCH  49  63
ATOM     63  C   UNL A   1      39.177  31.970  35.265  1.00  0.00     0.064 A 
ATOM     64  C   UNL A   1      38.404  31.452  36.316  1.00  0.00     0.173 A 
ATOM     65  C   UNL A   1      39.474  33.341  35.284  1.00  0.00     0.173 A 
ATOM     66  F   UNL A   1      38.084  30.150  36.343  1.00  0.00    -0.203 F 
ATOM     67  C   UNL A   1      37.921  32.280  37.326  1.00  0.00     0.198 A 
ATOM     68  C   UNL A   1      39.016  34.160  36.313  1.00  0.00     0.198 A 
ATOM     69  F   UNL A   1      40.217  33.886  34.310  1.00  0.00    -0.203 F 
ATOM     70  F   UNL A   1      37.141  31.773  38.291  1.00  0.00    -0.200 F 
ATOM     71  C   UNL A   1      38.233  33.632  37.327  1.00  0.00     0.200 A 
ATOM     72  F   UNL A   1      39.331  35.463  36.321  1.00  0.00    -0.200 F 
ATOM     73  F   UNL A   1      37.772  34.426  38.303  1.00  0.00    -0.200 F 
ENDBRANCH  49  63
BRANCH  50  74
ATOM     74  C   UNL A   1      42.550  26.502  27.658  1.00  0.00     0.064 A 
ATOM     75  C   UNL A   1      42.188  25.158  27.499  1.00  0.00     0.173 A 
ATOM     76  C   UNL A   1      43.421  27.061  26.711  1.00  0.00     0.173 A 
ATOM     77  F   UNL A   1      41.377  24.573  28.393  1.00  0.00    -0.203 F 
ATOM     78  C   UNL A   1      42.687  24.398  26.443  1.00  0.00     0.198 A 
ATOM     79  C   UNL A   1      43.897  26.308  25.639  1.00  0.00     0.198 A 
ATOM     80  F   UNL A   1      43.798  28.343  26.819  1.00  0.00    -0.203 F 
ATOM     81  F   UNL A   1      42.359  23.103  26.338  1.00  0.00    -0.200 F 
ATOM     82  C   UNL A   1      43.536  24.976  25.511  1.00  0.00     0.200 A 
ATOM     83  F   UNL A   1      44.707  26.874  24.734  1.00  0.00    -0.200 F 
ATOM     84  F   UNL A   1      44.011  24.246  24.493  1.00  0.00    -0.200 F 
ENDBRANCH  50  74
BRANCH  62  85
ATOM     85  C   UNL A   1      44.884  27.716  34.114  1.00  0.00     0.064 A 
ATOM     86  C   UNL A   1      46.081  28.449  34.135  1.00  0.00     0.173 A 
ATOM     87  C   UNL A   1      44.828  26.530  34.861  1.00  0.00     0.173 A 
ATOM     88  F   UNL A   1      46.191  29.582  33.428  1.00  0.00    -0.203 F 
ATOM     89  C   UNL A   1      47.183  27.997  34.857  1.00  0.00     0.198 A 
ATOM     90  C   UNL A   1      45.922  26.098  35.605  1.00  0.00     0.198 A 
ATOM     91  F   UNL A   1      43.706  25.795  34.881  1.00  0.00    -0.203 F 
ATOM     92  F   UNL A   1      48.330  28.689  34.827  1.00  0.00    -0.200 F 
ATOM     93  C   UNL A   1      47.101  26.828  35.597  1.00  0.00     0.200 A 
ATOM     94  F   UNL A   1      45.836  24.974  36.330  1.00  0.00    -0.200 F 
ATOM     95  F   UNL A   1      48.160  26.399  36.297  1.00  0.00    -0.200 F 
ENDBRANCH  62  85
ENDBRANCH  36  37
ENDBRANCH  28  31
ENDBRANCH  26  27
ENDBRANCH   1  26
TORSDOF 14
ENDMDL
