MODEL 1
REMARK VINA RESULT:     -11.9      0.000      0.000
REMARK SMILES COc1ccc(CCN2/C(=[NH+]/C(=O)CCC(=O)NCCCNC(=O)c3ccc(-c4c5nc(c(-c6c(F)c(F)c(F)c(F)c6F)c6ccc([nH]6)c(-c6c(F)c(F)c(F)c(F)c6F)c6nc(c(-c7c(F)c(F)c(F)c(F)c7F)c7ccc4[nH]7)C=C6)C=C5)cc3)S[C@@H]3CS(=O)(=O)C[C@@H]32)cc1
REMARK SMILES IDX 16 1 17 2 18 3 15 5 14 6 12 7 9 8 10 9 95 10 11 11 88 12
REMARK SMILES IDX 89 13 94 14 90 16 91 17 13 18 92 19 93 20 8 21 7 22 6 23
REMARK SMILES IDX 3 24 4 25 97 26 5 27 96 28 2 29 1 30 19 31 20 32 21 33 22 34
REMARK SMILES IDX 23 35 24 37 25 38 26 39 87 40 27 41 86 42 28 43 29 44 30 45
REMARK SMILES IDX 80 46 31 47 85 48 79 49 81 50 32 51 84 52 78 53 77 54 33 56
REMARK SMILES IDX 65 57 45 58 64 59 46 60 49 61 63 62 82 63 47 64 48 65 62 67
REMARK SMILES IDX 83 68 50 69 34 70 35 71 43 72 36 73 37 74 41 75 44 76 38 77
REMARK SMILES IDX 39 78 42 79 40 80 66 81 67 82 75 83 68 84 69 85 73 86 76 87
REMARK SMILES IDX 70 88 71 89 74 90 72 91 51 92 52 93 60 94 53 95 54 96 58 97
REMARK SMILES IDX 61 98 55 99 56 100 59 101 57 102
REMARK H PARENT 18 4 11 15 22 36 81 55 49 66
REMARK Flexibility Score: inf
ROOT
ATOM      1  C   UNL A   1      35.768  22.759  25.618  1.00  0.00     0.220 C 
ATOM      2  O   UNL A   1      35.187  23.583  26.329  1.00  0.00    -0.275 OA
ATOM      3  N   UNL A   1      37.042  22.417  25.965  1.00  0.00    -0.356 N 
ATOM      4  H   UNL A   1      37.318  22.731  26.857  1.00  0.00     0.163 HD
ENDROOT
BRANCH   1   5
ATOM      5  C   UNL A   1      35.056  22.134  24.432  1.00  0.00     0.112 C 
BRANCH   5   6
ATOM      6  C   UNL A   1      34.878  23.119  23.284  1.00  0.00     0.138 C 
BRANCH   6   7
ATOM      7  C   UNL A   1      33.470  23.654  23.283  1.00  0.00     0.308 C 
ATOM      8  N   UNL A   1      31.964  26.403  25.079  1.00  0.00    -0.251 N 
ATOM      9  C   UNL A   1      32.147  25.227  24.390  1.00  0.00     0.314 C 
ATOM     10  C   UNL A   1      30.754  27.181  24.650  1.00  0.00     0.206 C 
ATOM     11  N   UNL A   1      33.286  24.675  24.175  1.00  0.00    -0.205 N 
ATOM     12  S   UNL A   1      30.587  24.755  23.704  1.00  0.00    -0.030 SA
ATOM     13  C   UNL A   1      30.154  26.481  23.428  1.00  0.00     0.120 C 
ATOM     14  C   UNL A   1      30.927  28.635  24.229  1.00  0.00     0.187 C 
ATOM     15  H   UNL A   1      34.066  25.003  24.677  1.00  0.00     0.316 HD
ATOM     16  C   UNL A   1      30.828  27.013  22.161  1.00  0.00     0.156 C 
ATOM     17  S   UNL A   1      31.026  28.742  22.468  1.00  0.00     0.155 S 
ATOM     18  O   UNL A   1      32.686  23.287  22.413  1.00  0.00    -0.247 OA
ATOM     19  O   UNL A   1      32.366  29.169  22.095  1.00  0.00    -0.229 OA
ATOM     20  O   UNL A   1      29.855  29.441  22.000  1.00  0.00    -0.229 OA
BRANCH   8  21
ATOM     21  C   UNL A   1      32.604  26.823  26.328  1.00  0.00     0.242 C 
BRANCH  21  22
ATOM     22  C   UNL A   1      33.957  27.509  26.621  1.00  0.00     0.081 C 
BRANCH  22  23
ATOM     23  C   UNL A   1      34.181  28.927  27.021  1.00  0.00    -0.044 A 
ATOM     24  C   UNL A   1      34.598  31.600  27.657  1.00  0.00     0.118 A 
ATOM     25  C   UNL A   1      35.653  30.694  27.740  1.00  0.00     0.046 A 
ATOM     26  C   UNL A   1      33.309  31.174  27.348  1.00  0.00     0.046 A 
ATOM     27  C   UNL A   1      35.437  29.349  27.454  1.00  0.00     0.007 A 
ATOM     28  C   UNL A   1      33.102  29.832  27.039  1.00  0.00     0.007 A 
BRANCH  24  29
ATOM     29  O   UNL A   1      34.889  32.935  27.671  1.00  0.00    -0.497 OA
ATOM     30  C   UNL A   1      33.927  33.663  28.422  1.00  0.00     0.278 C 
ENDBRANCH  24  29
ENDBRANCH  22  23
ENDBRANCH  21  22
ENDBRANCH   8  21
ENDBRANCH   6   7
ENDBRANCH   5   6
ENDBRANCH   1   5
BRANCH   3  31
ATOM     31  C   UNL A   1      38.066  21.671  25.250  1.00  0.00     0.117 C 
BRANCH  31  32
ATOM     32  C   UNL A   1      38.224  20.234  25.782  1.00  0.00     0.042 C 
BRANCH  32  33
ATOM     33  C   UNL A   1      39.462  19.389  25.386  1.00  0.00     0.118 C 
BRANCH  33  34
ATOM     34  N   UNL A   1      40.732  19.923  25.966  1.00  0.00    -0.352 N 
ATOM     35  C   UNL A   1      40.919  20.336  27.292  1.00  0.00     0.251 C 
ATOM     36  H   UNL A   1      41.507  19.991  25.363  1.00  0.00     0.163 HD
ATOM     37  O   UNL A   1      40.920  19.544  28.225  1.00  0.00    -0.269 OA
BRANCH  35  38
ATOM     38  C   UNL A   1      41.207  21.811  27.558  1.00  0.00     0.039 A 
ATOM     39  C   UNL A   1      41.955  22.278  28.655  1.00  0.00     0.014 A 
ATOM     40  C   UNL A   1      40.760  22.769  26.648  1.00  0.00     0.014 A 
ATOM     41  C   UNL A   1      42.379  23.640  28.758  1.00  0.00     0.010 A 
ATOM     42  C   UNL A   1      41.187  24.121  26.744  1.00  0.00     0.010 A 
ATOM     43  C   UNL A   1      42.028  24.586  27.783  1.00  0.00    -0.014 A 
BRANCH  43  44
ATOM     44  C   UNL A   1      42.298  26.079  27.910  1.00  0.00     0.031 A 
ATOM     45  C   UNL A   1      43.586  26.590  27.295  1.00  0.00     0.074 A 
ATOM     46  C   UNL A   1      41.533  26.992  28.561  1.00  0.00     0.049 A 
ATOM     47  N   UNL A   1      44.206  27.735  27.444  1.00  0.00    -0.248 NA
ATOM     48  C   UNL A   1      44.283  25.640  26.416  1.00  0.00     0.031 C 
ATOM     49  C   UNL A   1      40.237  26.748  29.190  1.00  0.00     0.029 A 
ATOM     50  N   UNL A   1      41.760  28.339  28.822  1.00  0.00    -0.354 N 
ATOM     51  C   UNL A   1      45.389  27.615  26.724  1.00  0.00     0.074 A 
ATOM     52  C   UNL A   1      45.421  26.271  26.191  1.00  0.00     0.031 C 
ATOM     53  C   UNL A   1      39.790  27.890  29.756  1.00  0.00     0.029 A 
ATOM     54  C   UNL A   1      40.782  28.955  29.578  1.00  0.00     0.049 A 
ATOM     55  H   UNL A   1      42.556  28.816  28.493  1.00  0.00     0.167 HD
ATOM     56  C   UNL A   1      46.360  28.532  26.492  1.00  0.00     0.037 A 
ATOM     57  C   UNL A   1      40.695  30.212  30.086  1.00  0.00     0.037 A 
ATOM     58  C   UNL A   1      46.340  29.893  26.953  1.00  0.00     0.049 A 
ATOM     59  C   UNL A   1      41.822  31.211  29.869  1.00  0.00     0.074 A 
ATOM     60  C   UNL A   1      47.276  30.889  26.731  1.00  0.00     0.029 A 
ATOM     61  N   UNL A   1      45.329  30.455  27.714  1.00  0.00    -0.354 N 
ATOM     62  N   UNL A   1      42.930  31.080  29.182  1.00  0.00    -0.248 NA
ATOM     63  C   UNL A   1      41.686  32.535  30.510  1.00  0.00     0.031 C 
ATOM     64  C   UNL A   1      46.854  32.044  27.396  1.00  0.00     0.029 A 
ATOM     65  C   UNL A   1      45.628  31.781  27.983  1.00  0.00     0.049 A 
ATOM     66  H   UNL A   1      44.520  29.984  28.017  1.00  0.00     0.167 HD
ATOM     67  C   UNL A   1      43.593  32.304  29.274  1.00  0.00     0.074 A 
ATOM     68  C   UNL A   1      42.764  33.174  30.074  1.00  0.00     0.031 C 
ATOM     69  C   UNL A   1      44.787  32.667  28.746  1.00  0.00     0.037 A 
BRANCH  56  70
ATOM     70  C   UNL A   1      47.547  28.076  25.694  1.00  0.00     0.064 A 
ATOM     71  C   UNL A   1      47.493  27.950  24.297  1.00  0.00     0.173 A 
ATOM     72  C   UNL A   1      48.753  27.755  26.335  1.00  0.00     0.173 A 
ATOM     73  F   UNL A   1      46.357  28.229  23.638  1.00  0.00    -0.203 F 
ATOM     74  C   UNL A   1      48.582  27.467  23.579  1.00  0.00     0.198 A 
ATOM     75  C   UNL A   1      49.854  27.313  25.609  1.00  0.00     0.198 A 
ATOM     76  F   UNL A   1      48.862  27.868  27.668  1.00  0.00    -0.203 F 
ATOM     77  F   UNL A   1      48.476  27.275  22.257  1.00  0.00    -0.200 F 
ATOM     78  C   UNL A   1      49.763  27.155  24.234  1.00  0.00     0.200 A 
ATOM     79  F   UNL A   1      51.001  27.028  26.240  1.00  0.00    -0.200 F 
ATOM     80  F   UNL A   1      50.811  26.688  23.541  1.00  0.00    -0.200 F 
ENDBRANCH  56  70
BRANCH  57  81
ATOM     81  C   UNL A   1      39.507  30.654  30.891  1.00  0.00     0.064 A 
ATOM     82  C   UNL A   1      39.364  30.281  32.240  1.00  0.00     0.173 A 
ATOM     83  C   UNL A   1      38.439  31.352  30.307  1.00  0.00     0.173 A 
ATOM     84  F   UNL A   1      40.326  29.565  32.841  1.00  0.00    -0.203 F 
ATOM     85  C   UNL A   1      38.198  30.563  32.957  1.00  0.00     0.198 A 
ATOM     86  C   UNL A   1      37.287  31.663  31.035  1.00  0.00     0.198 A 
ATOM     87  F   UNL A   1      38.499  31.713  29.018  1.00  0.00    -0.203 F 
ATOM     88  F   UNL A   1      38.066  30.126  34.217  1.00  0.00    -0.200 F 
ATOM     89  C   UNL A   1      37.162  31.259  32.355  1.00  0.00     0.200 A 
ATOM     90  F   UNL A   1      36.288  32.335  30.448  1.00  0.00    -0.200 F 
ATOM     91  F   UNL A   1      36.040  31.522  33.040  1.00  0.00    -0.200 F 
ENDBRANCH  57  81
BRANCH  69  92
ATOM     92  C   UNL A   1      45.266  34.081  28.943  1.00  0.00     0.064 A 
ATOM     93  C   UNL A   1      46.191  34.420  29.942  1.00  0.00     0.173 A 
ATOM     94  C   UNL A   1      44.867  35.093  28.055  1.00  0.00     0.173 A 
ATOM     95  F   UNL A   1      46.601  33.495  30.823  1.00  0.00    -0.203 F 
ATOM     96  C   UNL A   1      46.688  35.718  30.051  1.00  0.00     0.198 A 
ATOM     97  C   UNL A   1      45.388  36.382  28.147  1.00  0.00     0.198 A 
ATOM     98  F   UNL A   1      43.993  34.824  27.073  1.00  0.00    -0.203 F 
ATOM     99  F   UNL A   1      47.548  36.024  31.032  1.00  0.00    -0.200 F 
ATOM    100  C   UNL A   1      46.295  36.694  29.148  1.00  0.00     0.200 A 
ATOM    101  F   UNL A   1      45.021  37.318  27.261  1.00  0.00    -0.200 F 
ATOM    102  F   UNL A   1      46.791  37.936  29.241  1.00  0.00    -0.200 F 
ENDBRANCH  69  92
ENDBRANCH  43  44
ENDBRANCH  35  38
ENDBRANCH  33  34
ENDBRANCH  32  33
ENDBRANCH  31  32
ENDBRANCH   3  31
TORSDOF 16
ENDMDL
MODEL 2
REMARK VINA RESULT:     -11.5      3.164      8.972
REMARK SMILES COc1ccc(CCN2/C(=[NH+]/C(=O)CCC(=O)NCCCNC(=O)c3ccc(-c4c5nc(c(-c6c(F)c(F)c(F)c(F)c6F)c6ccc([nH]6)c(-c6c(F)c(F)c(F)c(F)c6F)c6nc(c(-c7c(F)c(F)c(F)c(F)c7F)c7ccc4[nH]7)C=C6)C=C5)cc3)S[C@@H]3CS(=O)(=O)C[C@@H]32)cc1
REMARK SMILES IDX 16 1 17 2 18 3 15 5 14 6 12 7 9 8 10 9 95 10 11 11 88 12
REMARK SMILES IDX 89 13 94 14 90 16 91 17 13 18 92 19 93 20 8 21 7 22 6 23
REMARK SMILES IDX 3 24 4 25 97 26 5 27 96 28 2 29 1 30 19 31 20 32 21 33 22 34
REMARK SMILES IDX 23 35 24 37 25 38 26 39 87 40 27 41 86 42 28 43 29 44 30 45
REMARK SMILES IDX 80 46 31 47 85 48 79 49 81 50 32 51 84 52 78 53 77 54 33 56
REMARK SMILES IDX 65 57 45 58 64 59 46 60 49 61 63 62 82 63 47 64 48 65 62 67
REMARK SMILES IDX 83 68 50 69 34 70 35 71 43 72 36 73 37 74 41 75 44 76 38 77
REMARK SMILES IDX 39 78 42 79 40 80 66 81 67 82 75 83 68 84 69 85 73 86 76 87
REMARK SMILES IDX 70 88 71 89 74 90 72 91 51 92 52 93 60 94 53 95 54 96 58 97
REMARK SMILES IDX 61 98 55 99 56 100 59 101 57 102
REMARK H PARENT 18 4 11 15 22 36 81 55 49 66
REMARK Flexibility Score: inf
ROOT
ATOM      1  C   UNL A   1      32.948  32.953  27.806  1.00  0.00     0.220 C 
ATOM      2  O   UNL A   1      32.012  33.551  27.269  1.00  0.00    -0.275 OA
ATOM      3  N   UNL A   1      33.672  33.630  28.743  1.00  0.00    -0.356 N 
ATOM      4  H   UNL A   1      33.267  34.481  29.032  1.00  0.00     0.163 HD
ENDROOT
BRANCH   1   5
ATOM      5  C   UNL A   1      33.237  31.506  27.449  1.00  0.00     0.112 C 
BRANCH   5   6
ATOM      6  C   UNL A   1      32.125  30.889  26.611  1.00  0.00     0.138 C 
BRANCH   6   7
ATOM      7  C   UNL A   1      32.310  29.396  26.535  1.00  0.00     0.308 C 
ATOM      8  N   UNL A   1      30.693  26.896  24.489  1.00  0.00    -0.251 N 
ATOM      9  C   UNL A   1      31.369  27.521  25.511  1.00  0.00     0.314 C 
ATOM     10  C   UNL A   1      31.271  25.568  24.097  1.00  0.00     0.206 C 
ATOM     11  N   UNL A   1      31.436  28.793  25.673  1.00  0.00    -0.205 N 
ATOM     12  S   UNL A   1      32.268  26.284  26.399  1.00  0.00    -0.030 SA
ATOM     13  C   UNL A   1      32.574  25.373  24.876  1.00  0.00     0.120 C 
ATOM     14  C   UNL A   1      31.641  25.329  22.638  1.00  0.00     0.187 C 
ATOM     15  H   UNL A   1      30.827  29.363  25.151  1.00  0.00     0.316 HD
ATOM     16  C   UNL A   1      33.728  26.000  24.092  1.00  0.00     0.156 C 
ATOM     17  S   UNL A   1      33.370  25.609  22.406  1.00  0.00     0.155 S 
ATOM     18  O   UNL A   1      33.284  28.880  27.075  1.00  0.00    -0.247 OA
ATOM     19  O   UNL A   1      33.550  26.784  21.567  1.00  0.00    -0.229 OA
ATOM     20  O   UNL A   1      33.983  24.346  22.074  1.00  0.00    -0.229 OA
BRANCH   8  21
ATOM     21  C   UNL A   1      29.362  27.212  23.965  1.00  0.00     0.242 C 
BRANCH  21  22
ATOM     22  C   UNL A   1      28.898  27.995  22.717  1.00  0.00     0.081 C 
BRANCH  22  23
ATOM     23  C   UNL A   1      28.639  29.459  22.616  1.00  0.00    -0.044 A 
ATOM     24  C   UNL A   1      28.256  32.208  22.476  1.00  0.00     0.118 A 
ATOM     25  C   UNL A   1      27.575  31.460  23.434  1.00  0.00     0.046 A 
ATOM     26  C   UNL A   1      29.059  31.591  21.522  1.00  0.00     0.046 A 
ATOM     27  C   UNL A   1      27.740  30.080  23.483  1.00  0.00     0.007 A 
ATOM     28  C   UNL A   1      29.242  30.211  21.589  1.00  0.00     0.007 A 
BRANCH  24  29
ATOM     29  O   UNL A   1      28.294  33.567  22.621  1.00  0.00    -0.497 OA
ATOM     30  C   UNL A   1      29.403  33.969  23.412  1.00  0.00     0.278 C 
ENDBRANCH  24  29
ENDBRANCH  22  23
ENDBRANCH  21  22
ENDBRANCH   8  21
ENDBRANCH   6   7
ENDBRANCH   5   6
ENDBRANCH   1   5
BRANCH   3  31
ATOM     31  C   UNL A   1      34.936  33.318  29.392  1.00  0.00     0.117 C 
BRANCH  31  32
ATOM     32  C   UNL A   1      34.772  32.303  30.539  1.00  0.00     0.042 C 
BRANCH  32  33
ATOM     33  C   UNL A   1      34.818  32.779  32.013  1.00  0.00     0.118 C 
BRANCH  33  34
ATOM     34  N   UNL A   1      36.061  32.342  32.720  1.00  0.00    -0.352 N 
ATOM     35  C   UNL A   1      37.211  33.117  32.913  1.00  0.00     0.251 C 
ATOM     36  H   UNL A   1      36.071  31.426  33.082  1.00  0.00     0.163 HD
ATOM     37  O   UNL A   1      37.224  34.085  33.662  1.00  0.00    -0.269 OA
BRANCH  35  38
ATOM     38  C   UNL A   1      38.502  32.682  32.226  1.00  0.00     0.039 A 
ATOM     39  C   UNL A   1      39.537  31.980  32.872  1.00  0.00     0.014 A 
ATOM     40  C   UNL A   1      38.670  32.937  30.864  1.00  0.00     0.014 A 
ATOM     41  C   UNL A   1      40.632  31.410  32.150  1.00  0.00     0.010 A 
ATOM     42  C   UNL A   1      39.753  32.365  30.144  1.00  0.00     0.010 A 
ATOM     43  C   UNL A   1      40.746  31.566  30.760  1.00  0.00    -0.014 A 
BRANCH  43  44
ATOM     44  C   UNL A   1      41.962  31.135  29.952  1.00  0.00     0.031 A 
ATOM     45  C   UNL A   1      41.908  29.755  29.329  1.00  0.00     0.074 A 
ATOM     46  C   UNL A   1      43.111  31.836  29.776  1.00  0.00     0.049 A 
ATOM     47  N   UNL A   1      42.857  29.019  28.803  1.00  0.00    -0.248 NA
ATOM     48  C   UNL A   1      40.588  29.108  29.346  1.00  0.00     0.031 C 
ATOM     49  C   UNL A   1      43.379  33.195  30.240  1.00  0.00     0.029 A 
ATOM     50  N   UNL A   1      44.303  31.475  29.156  1.00  0.00    -0.354 N 
ATOM     51  C   UNL A   1      42.255  27.807  28.483  1.00  0.00     0.074 A 
ATOM     52  C   UNL A   1      40.882  27.891  28.925  1.00  0.00     0.031 C 
ATOM     53  C   UNL A   1      44.636  33.548  29.896  1.00  0.00     0.029 A 
ATOM     54  C   UNL A   1      45.300  32.430  29.219  1.00  0.00     0.049 A 
ATOM     55  H   UNL A   1      44.426  30.607  28.708  1.00  0.00     0.167 HD
ATOM     56  C   UNL A   1      42.772  26.722  27.855  1.00  0.00     0.037 A 
ATOM     57  C   UNL A   1      46.593  32.408  28.804  1.00  0.00     0.037 A 
ATOM     58  C   UNL A   1      44.112  26.620  27.348  1.00  0.00     0.049 A 
ATOM     59  C   UNL A   1      47.175  31.160  28.156  1.00  0.00     0.074 A 
ATOM     60  C   UNL A   1      44.697  25.561  26.674  1.00  0.00     0.029 A 
ATOM     61  N   UNL A   1      45.072  27.613  27.444  1.00  0.00    -0.354 N 
ATOM     62  N   UNL A   1      46.590  30.027  27.859  1.00  0.00    -0.248 NA
ATOM     63  C   UNL A   1      48.608  31.190  27.796  1.00  0.00     0.031 C 
ATOM     64  C   UNL A   1      46.027  25.895  26.400  1.00  0.00     0.029 A 
ATOM     65  C   UNL A   1      46.251  27.184  26.854  1.00  0.00     0.049 A 
ATOM     66  H   UNL A   1      44.938  28.491  27.866  1.00  0.00     0.167 HD
ATOM     67  C   UNL A   1      47.561  29.236  27.246  1.00  0.00     0.074 A 
ATOM     68  C   UNL A   1      48.775  30.016  27.201  1.00  0.00     0.031 C 
ATOM     69  C   UNL A   1      47.453  27.971  26.769  1.00  0.00     0.037 A 
BRANCH  56  70
ATOM     70  C   UNL A   1      41.862  25.539  27.687  1.00  0.00     0.064 A 
ATOM     71  C   UNL A   1      42.042  24.360  28.428  1.00  0.00     0.173 A 
ATOM     72  C   UNL A   1      40.803  25.583  26.769  1.00  0.00     0.173 A 
ATOM     73  F   UNL A   1      43.052  24.263  29.307  1.00  0.00    -0.203 F 
ATOM     74  C   UNL A   1      41.229  23.252  28.215  1.00  0.00     0.198 A 
ATOM     75  C   UNL A   1      39.965  24.487  26.590  1.00  0.00     0.198 A 
ATOM     76  F   UNL A   1      40.581  26.690  26.043  1.00  0.00    -0.203 F 
ATOM     77  F   UNL A   1      41.474  22.110  28.874  1.00  0.00    -0.200 F 
ATOM     78  C   UNL A   1      40.188  23.318  27.302  1.00  0.00     0.200 A 
ATOM     79  F   UNL A   1      38.948  24.557  25.720  1.00  0.00    -0.200 F 
ATOM     80  F   UNL A   1      39.407  22.248  27.098  1.00  0.00    -0.200 F 
ENDBRANCH  56  70
BRANCH  57  81
ATOM     81  C   UNL A   1      47.496  33.594  28.987  1.00  0.00     0.064 A 
ATOM     82  C   UNL A   1      48.256  33.756  30.159  1.00  0.00     0.173 A 
ATOM     83  C   UNL A   1      47.531  34.644  28.055  1.00  0.00     0.173 A 
ATOM     84  F   UNL A   1      48.222  32.812  31.112  1.00  0.00    -0.203 F 
ATOM     85  C   UNL A   1      48.987  34.921  30.402  1.00  0.00     0.198 A 
ATOM     86  C   UNL A   1      48.290  35.796  28.285  1.00  0.00     0.198 A 
ATOM     87  F   UNL A   1      46.809  34.566  26.929  1.00  0.00    -0.203 F 
ATOM     88  F   UNL A   1      49.638  35.073  31.564  1.00  0.00    -0.200 F 
ATOM     89  C   UNL A   1      49.007  35.939  29.462  1.00  0.00     0.200 A 
ATOM     90  F   UNL A   1      48.305  36.776  27.373  1.00  0.00    -0.200 F 
ATOM     91  F   UNL A   1      49.701  37.061  29.698  1.00  0.00    -0.200 F 
ENDBRANCH  57  81
BRANCH  69  92
ATOM     92  C   UNL A   1      48.645  27.348  26.092  1.00  0.00     0.064 A 
ATOM     93  C   UNL A   1      48.831  27.416  24.703  1.00  0.00     0.173 A 
ATOM     94  C   UNL A   1      49.665  26.759  26.857  1.00  0.00     0.173 A 
ATOM     95  F   UNL A   1      47.885  27.961  23.922  1.00  0.00    -0.203 F 
ATOM     96  C   UNL A   1      49.984  26.909  24.106  1.00  0.00     0.198 A 
ATOM     97  C   UNL A   1      50.830  26.281  26.262  1.00  0.00     0.198 A 
ATOM     98  F   UNL A   1      49.547  26.677  28.191  1.00  0.00    -0.203 F 
ATOM     99  F   UNL A   1      50.125  26.960  22.775  1.00  0.00    -0.200 F 
ATOM    100  C   UNL A   1      50.987  26.353  24.886  1.00  0.00     0.200 A 
ATOM    101  F   UNL A   1      51.805  25.762  27.020  1.00  0.00    -0.200 F 
ATOM    102  F   UNL A   1      52.105  25.886  24.313  1.00  0.00    -0.200 F 
ENDBRANCH  69  92
ENDBRANCH  43  44
ENDBRANCH  35  38
ENDBRANCH  33  34
ENDBRANCH  32  33
ENDBRANCH  31  32
ENDBRANCH   3  31
TORSDOF 16
ENDMDL
MODEL 3
REMARK VINA RESULT:     -11.1      3.068      4.811
REMARK SMILES COc1ccc(CCN2/C(=[NH+]/C(=O)CCC(=O)NCCCNC(=O)c3ccc(-c4c5nc(c(-c6c(F)c(F)c(F)c(F)c6F)c6ccc([nH]6)c(-c6c(F)c(F)c(F)c(F)c6F)c6nc(c(-c7c(F)c(F)c(F)c(F)c7F)c7ccc4[nH]7)C=C6)C=C5)cc3)S[C@@H]3CS(=O)(=O)C[C@@H]32)cc1
REMARK SMILES IDX 16 1 17 2 18 3 15 5 14 6 12 7 9 8 10 9 95 10 11 11 88 12
REMARK SMILES IDX 89 13 94 14 90 16 91 17 13 18 92 19 93 20 8 21 7 22 6 23
REMARK SMILES IDX 3 24 4 25 97 26 5 27 96 28 2 29 1 30 19 31 20 32 21 33 22 34
REMARK SMILES IDX 23 35 24 37 25 38 26 39 87 40 27 41 86 42 28 43 29 44 30 45
REMARK SMILES IDX 80 46 31 47 85 48 79 49 81 50 32 51 84 52 78 53 77 54 33 56
REMARK SMILES IDX 65 57 45 58 64 59 46 60 49 61 63 62 82 63 47 64 48 65 62 67
REMARK SMILES IDX 83 68 50 69 34 70 35 71 43 72 36 73 37 74 41 75 44 76 38 77
REMARK SMILES IDX 39 78 42 79 40 80 66 81 67 82 75 83 68 84 69 85 73 86 76 87
REMARK SMILES IDX 70 88 71 89 74 90 72 91 51 92 52 93 60 94 53 95 54 96 58 97
REMARK SMILES IDX 61 98 55 99 56 100 59 101 57 102
REMARK H PARENT 18 4 11 15 22 36 81 55 49 66
REMARK Flexibility Score: inf
ROOT
ATOM      1  C   UNL A   1      35.588  22.738  23.756  1.00  0.00     0.220 C 
ATOM      2  O   UNL A   1      35.140  23.316  22.762  1.00  0.00    -0.275 OA
ATOM      3  N   UNL A   1      36.897  22.955  24.074  1.00  0.00    -0.356 N 
ATOM      4  H   UNL A   1      37.317  23.696  23.578  1.00  0.00     0.163 HD
ENDROOT
BRANCH   1   5
ATOM      5  C   UNL A   1      34.685  21.856  24.600  1.00  0.00     0.112 C 
BRANCH   5   6
ATOM      6  C   UNL A   1      34.376  22.480  25.954  1.00  0.00     0.138 C 
BRANCH   6   7
ATOM      7  C   UNL A   1      33.109  23.288  25.869  1.00  0.00     0.308 C 
ATOM      8  N   UNL A   1      32.553  26.858  25.879  1.00  0.00    -0.251 N 
ATOM      9  C   UNL A   1      32.378  25.501  26.015  1.00  0.00     0.314 C 
ATOM     10  C   UNL A   1      31.376  27.570  25.280  1.00  0.00     0.206 C 
ATOM     11  N   UNL A   1      33.324  24.634  25.986  1.00  0.00    -0.205 N 
ATOM     12  S   UNL A   1      30.639  25.180  26.024  1.00  0.00    -0.030 SA
ATOM     13  C   UNL A   1      30.359  26.513  24.845  1.00  0.00     0.120 C 
ATOM     14  C   UNL A   1      31.592  28.443  24.050  1.00  0.00     0.187 C 
ATOM     15  H   UNL A   1      34.253  24.954  26.051  1.00  0.00     0.316 HD
ATOM     16  C   UNL A   1      30.685  26.055  23.422  1.00  0.00     0.156 C 
ATOM     17  S   UNL A   1      31.175  27.537  22.592  1.00  0.00     0.155 S 
ATOM     18  O   UNL A   1      32.062  22.737  25.541  1.00  0.00    -0.247 OA
ATOM     19  O   UNL A   1      32.385  27.303  21.819  1.00  0.00    -0.229 OA
ATOM     20  O   UNL A   1      30.013  28.154  22.003  1.00  0.00    -0.229 OA
BRANCH   8  21
ATOM     21  C   UNL A   1      33.582  27.698  26.497  1.00  0.00     0.242 C 
BRANCH  21  22
ATOM     22  C   UNL A   1      33.506  29.041  27.258  1.00  0.00     0.081 C 
BRANCH  22  23
ATOM     23  C   UNL A   1      34.639  29.943  27.610  1.00  0.00    -0.044 A 
ATOM     24  C   UNL A   1      36.740  31.593  28.375  1.00  0.00     0.118 A 
ATOM     25  C   UNL A   1      35.499  32.147  28.066  1.00  0.00     0.046 A 
ATOM     26  C   UNL A   1      36.977  30.231  28.219  1.00  0.00     0.046 A 
ATOM     27  C   UNL A   1      34.456  31.325  27.651  1.00  0.00     0.007 A 
ATOM     28  C   UNL A   1      35.924  29.407  27.827  1.00  0.00     0.007 A 
BRANCH  24  29
ATOM     29  O   UNL A   1      37.650  32.371  29.035  1.00  0.00    -0.497 OA
ATOM     30  C   UNL A   1      37.230  33.728  29.079  1.00  0.00     0.278 C 
ENDBRANCH  24  29
ENDBRANCH  22  23
ENDBRANCH  21  22
ENDBRANCH   8  21
ENDBRANCH   6   7
ENDBRANCH   5   6
ENDBRANCH   1   5
BRANCH   3  31
ATOM     31  C   UNL A   1      37.781  22.287  25.016  1.00  0.00     0.117 C 
BRANCH  31  32
ATOM     32  C   UNL A   1      38.083  23.154  26.253  1.00  0.00     0.042 C 
BRANCH  32  33
ATOM     33  C   UNL A   1      39.547  23.512  26.613  1.00  0.00     0.118 C 
BRANCH  33  34
ATOM     34  N   UNL A   1      39.960  24.847  26.079  1.00  0.00    -0.352 N 
ATOM     35  C   UNL A   1      41.239  25.411  26.179  1.00  0.00     0.251 C 
ATOM     36  H   UNL A   1      39.272  25.376  25.614  1.00  0.00     0.163 HD
ATOM     37  O   UNL A   1      42.198  24.960  25.568  1.00  0.00    -0.269 OA
BRANCH  35  38
ATOM     38  C   UNL A   1      41.409  26.675  27.017  1.00  0.00     0.039 A 
ATOM     39  C   UNL A   1      42.058  26.706  28.266  1.00  0.00     0.014 A 
ATOM     40  C   UNL A   1      40.950  27.894  26.516  1.00  0.00     0.014 A 
ATOM     41  C   UNL A   1      42.380  27.935  28.922  1.00  0.00     0.010 A 
ATOM     42  C   UNL A   1      41.276  29.116  27.163  1.00  0.00     0.010 A 
ATOM     43  C   UNL A   1      42.022  29.172  28.365  1.00  0.00    -0.014 A 
BRANCH  43  44
ATOM     44  C   UNL A   1      42.180  30.506  29.081  1.00  0.00     0.031 A 
ATOM     45  C   UNL A   1      43.405  31.325  28.726  1.00  0.00     0.074 A 
ATOM     46  C   UNL A   1      41.368  31.015  30.042  1.00  0.00     0.049 A 
ATOM     47  N   UNL A   1      43.940  32.361  29.323  1.00  0.00    -0.248 NA
ATOM     48  C   UNL A   1      44.146  30.867  27.542  1.00  0.00     0.031 C 
ATOM     49  C   UNL A   1      40.114  30.434  30.516  1.00  0.00     0.029 A 
ATOM     50  N   UNL A   1      41.499  32.159  30.822  1.00  0.00    -0.354 N 
ATOM     51  C   UNL A   1      45.107  32.638  28.619  1.00  0.00     0.074 A 
ATOM     52  C   UNL A   1      45.225  31.627  27.592  1.00  0.00     0.031 C 
ATOM     53  C   UNL A   1      39.599  31.212  31.493  1.00  0.00     0.029 A 
ATOM     54  C   UNL A   1      40.500  32.338  31.760  1.00  0.00     0.049 A 
ATOM     55  H   UNL A   1      42.245  32.792  30.715  1.00  0.00     0.167 HD
ATOM     56  C   UNL A   1      45.996  33.648  28.777  1.00  0.00     0.037 A 
ATOM     57  C   UNL A   1      40.333  33.274  32.729  1.00  0.00     0.037 A 
ATOM     58  C   UNL A   1      45.886  34.704  29.746  1.00  0.00     0.049 A 
ATOM     59  C   UNL A   1      41.373  34.367  32.934  1.00  0.00     0.074 A 
ATOM     60  C   UNL A   1      46.735  35.779  29.945  1.00  0.00     0.029 A 
ATOM     61  N   UNL A   1      44.859  34.829  30.666  1.00  0.00    -0.354 N 
ATOM     62  N   UNL A   1      42.466  34.613  32.256  1.00  0.00    -0.248 NA
ATOM     63  C   UNL A   1      41.155  35.307  34.053  1.00  0.00     0.031 C 
ATOM     64  C   UNL A   1      46.247  36.532  31.017  1.00  0.00     0.029 A 
ATOM     65  C   UNL A   1      45.063  35.956  31.446  1.00  0.00     0.049 A 
ATOM     66  H   UNL A   1      44.099  34.211  30.753  1.00  0.00     0.167 HD
ATOM     67  C   UNL A   1      43.035  35.748  32.833  1.00  0.00     0.074 A 
ATOM     68  C   UNL A   1      42.167  36.153  33.913  1.00  0.00     0.031 C 
ATOM     69  C   UNL A   1      44.181  36.389  32.498  1.00  0.00     0.037 A 
BRANCH  56  70
ATOM     70  C   UNL A   1      47.190  33.649  27.867  1.00  0.00     0.064 A 
ATOM     71  C   UNL A   1      47.201  34.376  26.666  1.00  0.00     0.173 A 
ATOM     72  C   UNL A   1      48.335  32.908  28.196  1.00  0.00     0.173 A 
ATOM     73  F   UNL A   1      46.123  35.087  26.298  1.00  0.00    -0.203 F 
ATOM     74  C   UNL A   1      48.290  34.317  25.804  1.00  0.00     0.198 A 
ATOM     75  C   UNL A   1      49.440  32.886  27.351  1.00  0.00     0.198 A 
ATOM     76  F   UNL A   1      48.381  32.204  29.337  1.00  0.00    -0.203 F 
ATOM     77  F   UNL A   1      48.242  34.952  24.624  1.00  0.00    -0.200 F 
ATOM     78  C   UNL A   1      49.412  33.578  26.149  1.00  0.00     0.200 A 
ATOM     79  F   UNL A   1      50.530  32.186  27.693  1.00  0.00    -0.200 F 
ATOM     80  F   UNL A   1      50.460  33.522  25.316  1.00  0.00    -0.200 F 
ENDBRANCH  56  70
BRANCH  57  81
ATOM     81  C   UNL A   1      39.139  33.257  33.641  1.00  0.00     0.064 A 
ATOM     82  C   UNL A   1      38.005  34.042  33.367  1.00  0.00     0.173 A 
ATOM     83  C   UNL A   1      39.151  32.555  34.856  1.00  0.00     0.173 A 
ATOM     84  F   UNL A   1      37.956  34.778  32.247  1.00  0.00    -0.203 F 
ATOM     85  C   UNL A   1      36.950  34.145  34.278  1.00  0.00     0.198 A 
ATOM     86  C   UNL A   1      38.080  32.633  35.752  1.00  0.00     0.198 A 
ATOM     87  F   UNL A   1      40.213  31.810  35.191  1.00  0.00    -0.203 F 
ATOM     88  F   UNL A   1      35.919  34.962  34.018  1.00  0.00    -0.200 F 
ATOM     89  C   UNL A   1      36.986  33.436  35.468  1.00  0.00     0.200 A 
ATOM     90  F   UNL A   1      38.120  31.946  36.901  1.00  0.00    -0.200 F 
ATOM     91  F   UNL A   1      35.979  33.541  36.346  1.00  0.00    -0.200 F 
ENDBRANCH  57  81
BRANCH  69  92
ATOM     92  C   UNL A   1      44.556  37.641  33.247  1.00  0.00     0.064 A 
ATOM     93  C   UNL A   1      44.105  38.908  32.849  1.00  0.00     0.173 A 
ATOM     94  C   UNL A   1      45.298  37.557  34.437  1.00  0.00     0.173 A 
ATOM     95  F   UNL A   1      43.400  39.049  31.717  1.00  0.00    -0.203 F 
ATOM     96  C   UNL A   1      44.392  40.043  33.606  1.00  0.00     0.198 A 
ATOM     97  C   UNL A   1      45.557  38.688  35.208  1.00  0.00     0.198 A 
ATOM     98  F   UNL A   1      45.745  36.369  34.872  1.00  0.00    -0.203 F 
ATOM     99  F   UNL A   1      43.975  41.247  33.191  1.00  0.00    -0.200 F 
ATOM    100  C   UNL A   1      45.107  39.931  34.790  1.00  0.00     0.200 A 
ATOM    101  F   UNL A   1      46.231  38.573  36.360  1.00  0.00    -0.200 F 
ATOM    102  F   UNL A   1      45.362  41.021  35.528  1.00  0.00    -0.200 F 
ENDBRANCH  69  92
ENDBRANCH  43  44
ENDBRANCH  35  38
ENDBRANCH  33  34
ENDBRANCH  32  33
ENDBRANCH  31  32
ENDBRANCH   3  31
TORSDOF 16
ENDMDL
