MODEL 1
REMARK VINA RESULT:     -12.5      0.000      0.000
REMARK SMILES Cc1cc(C[N@@H+]2C[C@@H](C(=O)NCCCNC(=O)c3ccc(-c4c5nc(c(-c6c(F)c(F)c(F)c(F)c6F)c6ccc([nH]6)c(-c6c(F)c(F)c(F)c(F)c6F)c6nc(c(-c7c(F)c(F)c(F)c(F)c7F)c7ccc4[nH]7)C=C6)C=C5)cc3)[C@H](C3CC3)C2)on1
REMARK SMILES IDX 13 1 12 2 11 3 9 4 10 5 8 7 6 8 7 9 85 10 81 12 5 13 4 14
REMARK SMILES IDX 1 15 2 16 3 17 87 18 86 19 82 20 83 21 84 22 14 23 15 24
REMARK SMILES IDX 16 25 17 27 18 28 19 29 80 30 20 31 79 32 21 33 22 34 23 35
REMARK SMILES IDX 73 36 24 37 78 38 72 39 74 40 25 41 77 42 71 43 70 44 26 46
REMARK SMILES IDX 58 47 38 48 57 49 39 50 42 51 56 52 75 53 40 54 41 55 55 57
REMARK SMILES IDX 76 58 43 59 27 60 28 61 36 62 29 63 30 64 34 65 37 66 31 67
REMARK SMILES IDX 32 68 35 69 33 70 59 71 60 72 68 73 61 74 62 75 66 76 69 77
REMARK SMILES IDX 63 78 64 79 67 80 65 81 44 82 45 83 53 84 46 85 47 86 51 87
REMARK SMILES IDX 54 88 48 89 49 90 52 91 50 92
REMARK H PARENT 11 6 6 11 15 26 74 45 42 56
REMARK Flexibility Score: inf
ROOT
ATOM      1  C   UNL A   1      33.069  28.899  23.858  1.00  0.00     0.042 C 
ENDROOT
BRANCH   1   2
ATOM      2  C   UNL A   1      34.090  27.978  23.185  1.00  0.00     0.117 C 
BRANCH   2   3
ATOM      3  N   UNL A   1      33.538  27.423  21.965  1.00  0.00    -0.356 N 
ATOM      4  C   UNL A   1      33.070  26.175  21.680  1.00  0.00     0.229 C 
ATOM      5  O   UNL A   1      32.969  25.910  20.480  1.00  0.00    -0.275 OA
ATOM      6  H   UNL A   1      33.494  28.056  21.212  1.00  0.00     0.163 HD
BRANCH   4   7
ATOM      7  C   UNL A   1      32.607  25.215  22.778  1.00  0.00     0.142 C 
ATOM      8  N   UNL A   1      31.938  22.959  23.277  1.00  0.00    -0.328 N 
ATOM      9  C   UNL A   1      32.878  23.745  22.479  1.00  0.00     0.276 C 
ATOM     10  C   UNL A   1      30.720  23.764  23.364  1.00  0.00     0.267 C 
ATOM     11  H   UNL A   1      31.740  22.067  22.825  1.00  0.00     0.348 HD
ATOM     12  C   UNL A   1      31.074  25.220  22.969  1.00  0.00     0.065 C 
BRANCH   8  13
ATOM     13  C   UNL A   1      32.467  22.487  24.569  1.00  0.00     0.341 C 
BRANCH  13  14
ATOM     14  C   UNL A   1      32.824  21.047  24.669  1.00  0.00     0.191 A 
ATOM     15  C   UNL A   1      34.442  17.775  24.543  1.00  0.00     0.070 C 
ATOM     16  C   UNL A   1      33.611  18.991  24.698  1.00  0.00     0.081 A 
ATOM     17  C   UNL A   1      33.974  20.331  24.443  1.00  0.00     0.078 A 
ATOM     18  N   UNL A   1      32.336  18.901  25.093  1.00  0.00    -0.085 NA
ATOM     19  O   UNL A   1      31.849  20.197  25.094  1.00  0.00    -0.355 OA
ENDBRANCH  13  14
ENDBRANCH   8  13
BRANCH  12  20
ATOM     20  C   UNL A   1      30.459  26.193  23.951  1.00  0.00    -0.001 C 
ATOM     21  C   UNL A   1      29.925  27.562  23.609  1.00  0.00     0.004 C 
ATOM     22  C   UNL A   1      28.973  26.460  23.967  1.00  0.00     0.004 C 
ENDBRANCH  12  20
ENDBRANCH   4   7
ENDBRANCH   2   3
ENDBRANCH   1   2
BRANCH   1  23
ATOM     23  C   UNL A   1      33.392  29.182  25.322  1.00  0.00     0.118 C 
BRANCH  23  24
ATOM     24  N   UNL A   1      32.869  30.468  25.752  1.00  0.00    -0.352 N 
ATOM     25  C   UNL A   1      33.231  31.241  26.826  1.00  0.00     0.251 C 
ATOM     26  H   UNL A   1      32.149  30.839  25.191  1.00  0.00     0.163 HD
ATOM     27  O   UNL A   1      32.520  32.178  27.175  1.00  0.00    -0.269 OA
BRANCH  25  28
ATOM     28  C   UNL A   1      34.474  30.946  27.573  1.00  0.00     0.039 A 
ATOM     29  C   UNL A   1      35.426  31.958  27.728  1.00  0.00     0.014 A 
ATOM     30  C   UNL A   1      34.721  29.669  28.084  1.00  0.00     0.014 A 
ATOM     31  C   UNL A   1      36.603  31.702  28.435  1.00  0.00     0.010 A 
ATOM     32  C   UNL A   1      35.860  29.436  28.850  1.00  0.00     0.010 A 
ATOM     33  C   UNL A   1      36.816  30.446  29.025  1.00  0.00    -0.014 A 
BRANCH  33  34
ATOM     34  C   UNL A   1      38.041  30.160  29.814  1.00  0.00     0.031 A 
ATOM     35  C   UNL A   1      39.087  29.229  29.266  1.00  0.00     0.074 A 
ATOM     36  C   UNL A   1      38.176  30.678  31.050  1.00  0.00     0.049 A 
ATOM     37  N   UNL A   1      40.170  28.768  29.838  1.00  0.00    -0.248 NA
ATOM     38  C   UNL A   1      38.870  28.724  27.901  1.00  0.00     0.031 C 
ATOM     39  C   UNL A   1      37.209  31.560  31.707  1.00  0.00     0.029 A 
ATOM     40  N   UNL A   1      39.170  30.523  31.984  1.00  0.00    -0.354 N 
ATOM     41  C   UNL A   1      40.748  27.906  28.915  1.00  0.00     0.074 A 
ATOM     42  C   UNL A   1      39.872  27.869  27.765  1.00  0.00     0.031 C 
ATOM     43  C   UNL A   1      37.663  31.878  32.930  1.00  0.00     0.029 A 
ATOM     44  C   UNL A   1      38.931  31.192  33.160  1.00  0.00     0.049 A 
ATOM     45  H   UNL A   1      39.977  29.984  31.826  1.00  0.00     0.167 HD
ATOM     46  C   UNL A   1      41.914  27.224  29.012  1.00  0.00     0.037 A 
ATOM     47  C   UNL A   1      39.646  31.233  34.300  1.00  0.00     0.037 A 
ATOM     48  C   UNL A   1      42.796  27.292  30.148  1.00  0.00     0.049 A 
ATOM     49  C   UNL A   1      40.939  30.465  34.381  1.00  0.00     0.074 A 
ATOM     50  C   UNL A   1      44.031  26.691  30.317  1.00  0.00     0.029 A 
ATOM     51  N   UNL A   1      42.533  28.003  31.308  1.00  0.00    -0.354 N 
ATOM     52  N   UNL A   1      41.508  29.706  33.476  1.00  0.00    -0.248 NA
ATOM     53  C   UNL A   1      41.690  30.564  35.639  1.00  0.00     0.031 C 
ATOM     54  C   UNL A   1      44.495  27.002  31.599  1.00  0.00     0.029 A 
ATOM     55  C   UNL A   1      43.574  27.839  32.208  1.00  0.00     0.049 A 
ATOM     56  H   UNL A   1      41.726  28.545  31.470  1.00  0.00     0.167 HD
ATOM     57  C   UNL A   1      42.695  29.262  34.042  1.00  0.00     0.074 A 
ATOM     58  C   UNL A   1      42.771  29.849  35.364  1.00  0.00     0.031 C 
ATOM     59  C   UNL A   1      43.638  28.443  33.515  1.00  0.00     0.037 A 
BRANCH  46  60
ATOM     60  C   UNL A   1      42.307  26.347  27.858  1.00  0.00     0.064 A 
ATOM     61  C   UNL A   1      41.772  25.060  27.695  1.00  0.00     0.173 A 
ATOM     62  C   UNL A   1      43.197  26.815  26.879  1.00  0.00     0.173 A 
ATOM     63  F   UNL A   1      40.925  24.560  28.606  1.00  0.00    -0.203 F 
ATOM     64  C   UNL A   1      42.136  24.264  26.611  1.00  0.00     0.198 A 
ATOM     65  C   UNL A   1      43.534  26.030  25.780  1.00  0.00     0.198 A 
ATOM     66  F   UNL A   1      43.733  28.041  26.982  1.00  0.00    -0.203 F 
ATOM     67  F   UNL A   1      41.648  23.021  26.502  1.00  0.00    -0.200 F 
ATOM     68  C   UNL A   1      43.009  24.751  25.650  1.00  0.00     0.200 A 
ATOM     69  F   UNL A   1      44.367  26.507  24.845  1.00  0.00    -0.200 F 
ATOM     70  F   UNL A   1      43.350  23.989  24.603  1.00  0.00    -0.200 F 
ENDBRANCH  46  60
BRANCH  47  71
ATOM     71  C   UNL A   1      39.166  32.041  35.451  1.00  0.00     0.064 A 
ATOM     72  C   UNL A   1      39.500  33.398  35.566  1.00  0.00     0.173 A 
ATOM     73  C   UNL A   1      38.372  31.478  36.461  1.00  0.00     0.173 A 
ATOM     74  F   UNL A   1      40.274  33.978  34.637  1.00  0.00    -0.203 F 
ATOM     75  C   UNL A   1      39.078  34.153  36.659  1.00  0.00     0.198 A 
ATOM     76  C   UNL A   1      37.927  32.242  37.537  1.00  0.00     0.198 A 
ATOM     77  F   UNL A   1      38.019  30.186  36.395  1.00  0.00    -0.203 F 
ATOM     78  F   UNL A   1      39.453  35.435  36.769  1.00  0.00    -0.200 F 
ATOM     79  C   UNL A   1      38.287  33.576  37.641  1.00  0.00     0.200 A 
ATOM     80  F   UNL A   1      37.149  31.684  38.475  1.00  0.00    -0.200 F 
ATOM     81  F   UNL A   1      37.879  34.304  38.689  1.00  0.00    -0.200 F 
ENDBRANCH  47  71
BRANCH  59  82
ATOM     82  C   UNL A   1      44.852  28.163  34.350  1.00  0.00     0.064 A 
ATOM     83  C   UNL A   1      44.918  27.057  35.209  1.00  0.00     0.173 A 
ATOM     84  C   UNL A   1      45.985  28.986  34.249  1.00  0.00     0.173 A 
ATOM     85  F   UNL A   1      43.856  26.250  35.352  1.00  0.00    -0.203 F 
ATOM     86  C   UNL A   1      46.066  26.797  35.954  1.00  0.00     0.198 A 
ATOM     87  C   UNL A   1      47.141  28.706  34.971  1.00  0.00     0.198 A 
ATOM     88  F   UNL A   1      45.977  30.053  33.435  1.00  0.00    -0.203 F 
ATOM     89  F   UNL A   1      46.091  25.761  36.802  1.00  0.00    -0.200 F 
ATOM     90  C   UNL A   1      47.179  27.616  35.827  1.00  0.00     0.200 A 
ATOM     91  F   UNL A   1      48.220  29.489  34.836  1.00  0.00    -0.200 F 
ATOM     92  F   UNL A   1      48.286  27.357  36.535  1.00  0.00    -0.200 F 
ENDBRANCH  59  82
ENDBRANCH  33  34
ENDBRANCH  25  28
ENDBRANCH  23  24
ENDBRANCH   1  23
TORSDOF 13
ENDMDL
MODEL 2
REMARK VINA RESULT:     -12.5      2.249      3.811
REMARK SMILES Cc1cc(C[N@@H+]2C[C@@H](C(=O)NCCCNC(=O)c3ccc(-c4c5nc(c(-c6c(F)c(F)c(F)c(F)c6F)c6ccc([nH]6)c(-c6c(F)c(F)c(F)c(F)c6F)c6nc(c(-c7c(F)c(F)c(F)c(F)c7F)c7ccc4[nH]7)C=C6)C=C5)cc3)[C@H](C3CC3)C2)on1
REMARK SMILES IDX 13 1 12 2 11 3 9 4 10 5 8 7 6 8 7 9 85 10 81 12 5 13 4 14
REMARK SMILES IDX 1 15 2 16 3 17 87 18 86 19 82 20 83 21 84 22 14 23 15 24
REMARK SMILES IDX 16 25 17 27 18 28 19 29 80 30 20 31 79 32 21 33 22 34 23 35
REMARK SMILES IDX 73 36 24 37 78 38 72 39 74 40 25 41 77 42 71 43 70 44 26 46
REMARK SMILES IDX 58 47 38 48 57 49 39 50 42 51 56 52 75 53 40 54 41 55 55 57
REMARK SMILES IDX 76 58 43 59 27 60 28 61 36 62 29 63 30 64 34 65 37 66 31 67
REMARK SMILES IDX 32 68 35 69 33 70 59 71 60 72 68 73 61 74 62 75 66 76 69 77
REMARK SMILES IDX 63 78 64 79 67 80 65 81 44 82 45 83 53 84 46 85 47 86 51 87
REMARK SMILES IDX 54 88 48 89 49 90 52 91 50 92
REMARK H PARENT 11 6 6 11 15 26 74 45 42 56
REMARK Flexibility Score: inf
ROOT
ATOM      1  C   UNL A   1      31.226  32.329  26.756  1.00  0.00     0.042 C 
ENDROOT
BRANCH   1   2
ATOM      2  C   UNL A   1      31.411  31.059  25.921  1.00  0.00     0.117 C 
BRANCH   2   3
ATOM      3  N   UNL A   1      31.736  29.937  26.779  1.00  0.00    -0.356 N 
ATOM      4  C   UNL A   1      31.931  28.619  26.493  1.00  0.00     0.229 C 
ATOM      5  O   UNL A   1      31.872  27.854  27.459  1.00  0.00    -0.275 OA
ATOM      6  H   UNL A   1      31.831  30.165  27.732  1.00  0.00     0.163 HD
BRANCH   4   7
ATOM      7  C   UNL A   1      32.302  28.142  25.087  1.00  0.00     0.142 C 
ATOM      8  N   UNL A   1      32.906  28.831  22.862  1.00  0.00    -0.328 N 
ATOM      9  C   UNL A   1      33.104  29.153  24.274  1.00  0.00     0.276 C 
ATOM     10  C   UNL A   1      31.544  28.306  22.761  1.00  0.00     0.267 C 
ATOM     11  H   UNL A   1      33.006  29.665  22.285  1.00  0.00     0.348 HD
ATOM     12  C   UNL A   1      31.068  27.922  24.185  1.00  0.00     0.065 C 
BRANCH   8  13
ATOM     13  C   UNL A   1      33.950  27.975  22.271  1.00  0.00     0.341 C 
BRANCH  13  14
ATOM     14  C   UNL A   1      33.648  26.524  22.152  1.00  0.00     0.191 A 
ATOM     15  C   UNL A   1      33.208  22.937  22.680  1.00  0.00     0.070 C 
ATOM     16  C   UNL A   1      33.295  24.353  22.257  1.00  0.00     0.081 A 
ATOM     17  C   UNL A   1      33.643  25.475  23.040  1.00  0.00     0.078 A 
ATOM     18  N   UNL A   1      33.064  24.702  20.985  1.00  0.00    -0.085 NA
ATOM     19  O   UNL A   1      33.266  26.070  20.927  1.00  0.00    -0.355 OA
ENDBRANCH  13  14
ENDBRANCH   8  13
BRANCH  12  20
ATOM     20  C   UNL A   1      30.405  26.561  24.166  1.00  0.00    -0.001 C 
ATOM     21  C   UNL A   1      29.747  25.892  25.346  1.00  0.00     0.004 C 
ATOM     22  C   UNL A   1      28.903  26.418  24.224  1.00  0.00     0.004 C 
ENDBRANCH  12  20
ENDBRANCH   4   7
ENDBRANCH   2   3
ENDBRANCH   1   2
BRANCH   1  23
ATOM     23  C   UNL A   1      32.545  32.924  27.240  1.00  0.00     0.118 C 
BRANCH  23  24
ATOM     24  N   UNL A   1      32.396  34.315  27.636  1.00  0.00    -0.352 N 
ATOM     25  C   UNL A   1      33.016  35.003  28.649  1.00  0.00     0.251 C 
ATOM     26  H   UNL A   1      31.758  34.840  27.100  1.00  0.00     0.163 HD
ATOM     27  O   UNL A   1      32.591  36.102  28.992  1.00  0.00    -0.269 OA
BRANCH  25  28
ATOM     28  C   UNL A   1      34.191  34.423  29.337  1.00  0.00     0.039 A 
ATOM     29  C   UNL A   1      33.998  33.728  30.535  1.00  0.00     0.014 A 
ATOM     30  C   UNL A   1      35.481  34.596  28.828  1.00  0.00     0.014 A 
ATOM     31  C   UNL A   1      35.092  33.167  31.196  1.00  0.00     0.010 A 
ATOM     32  C   UNL A   1      36.561  33.975  29.449  1.00  0.00     0.010 A 
ATOM     33  C   UNL A   1      36.379  33.262  30.643  1.00  0.00    -0.014 A 
BRANCH  33  34
ATOM     34  C   UNL A   1      37.554  32.642  31.307  1.00  0.00     0.031 A 
ATOM     35  C   UNL A   1      38.282  31.508  30.639  1.00  0.00     0.074 A 
ATOM     36  C   UNL A   1      37.917  33.049  32.539  1.00  0.00     0.049 A 
ATOM     37  N   UNL A   1      39.258  30.765  31.095  1.00  0.00    -0.248 NA
ATOM     38  C   UNL A   1      37.832  31.142  29.287  1.00  0.00     0.031 C 
ATOM     39  C   UNL A   1      37.261  34.110  33.306  1.00  0.00     0.029 A 
ATOM     40  N   UNL A   1      38.914  32.605  33.372  1.00  0.00    -0.354 N 
ATOM     41  C   UNL A   1      39.521  29.834  30.100  1.00  0.00     0.074 A 
ATOM     42  C   UNL A   1      38.571  30.072  29.035  1.00  0.00     0.031 C 
ATOM     43  C   UNL A   1      37.882  34.244  34.489  1.00  0.00     0.029 A 
ATOM     44  C   UNL A   1      38.950  33.254  34.582  1.00  0.00     0.049 A 
ATOM     45  H   UNL A   1      39.543  31.891  33.124  1.00  0.00     0.167 HD
ATOM     46  C   UNL A   1      40.481  28.879  30.069  1.00  0.00     0.037 A 
ATOM     47  C   UNL A   1      39.745  33.060  35.652  1.00  0.00     0.037 A 
ATOM     48  C   UNL A   1      41.443  28.669  31.119  1.00  0.00     0.049 A 
ATOM     49  C   UNL A   1      40.804  31.992  35.591  1.00  0.00     0.074 A 
ATOM     50  C   UNL A   1      42.497  27.773  31.157  1.00  0.00     0.029 A 
ATOM     51  N   UNL A   1      41.466  29.366  32.318  1.00  0.00    -0.354 N 
ATOM     52  N   UNL A   1      41.087  31.160  34.617  1.00  0.00    -0.248 NA
ATOM     53  C   UNL A   1      41.659  31.838  36.776  1.00  0.00     0.031 C 
ATOM     54  C   UNL A   1      43.129  27.895  32.399  1.00  0.00     0.029 A 
ATOM     55  C   UNL A   1      42.503  28.904  33.113  1.00  0.00     0.049 A 
ATOM     56  H   UNL A   1      40.837  30.082  32.569  1.00  0.00     0.167 HD
ATOM     57  C   UNL A   1      42.166  30.408  35.058  1.00  0.00     0.074 A 
ATOM     58  C   UNL A   1      42.498  30.891  36.382  1.00  0.00     0.031 C 
ATOM     59  C   UNL A   1      42.825  29.407  34.424  1.00  0.00     0.037 A 
BRANCH  46  60
ATOM     60  C   UNL A   1      40.544  27.990  28.861  1.00  0.00     0.064 A 
ATOM     61  C   UNL A   1      39.809  26.796  28.785  1.00  0.00     0.173 A 
ATOM     62  C   UNL A   1      41.312  28.357  27.746  1.00  0.00     0.173 A 
ATOM     63  F   UNL A   1      39.065  26.394  29.826  1.00  0.00    -0.203 F 
ATOM     64  C   UNL A   1      39.866  25.990  27.651  1.00  0.00     0.198 A 
ATOM     65  C   UNL A   1      41.342  27.564  26.601  1.00  0.00     0.198 A 
ATOM     66  F   UNL A   1      42.029  29.491  27.762  1.00  0.00    -0.203 F 
ATOM     67  F   UNL A   1      39.193  24.831  27.621  1.00  0.00    -0.200 F 
ATOM     68  C   UNL A   1      40.624  26.378  26.557  1.00  0.00     0.200 A 
ATOM     69  F   UNL A   1      42.065  27.948  25.539  1.00  0.00    -0.200 F 
ATOM     70  F   UNL A   1      40.670  25.606  25.463  1.00  0.00    -0.200 F 
ENDBRANCH  46  60
BRANCH  47  71
ATOM     71  C   UNL A   1      39.582  33.904  36.863  1.00  0.00     0.064 A 
ATOM     72  C   UNL A   1      38.808  33.466  37.947  1.00  0.00     0.173 A 
ATOM     73  C   UNL A   1      40.188  35.165  36.964  1.00  0.00     0.173 A 
ATOM     74  F   UNL A   1      38.191  32.276  37.891  1.00  0.00    -0.203 F 
ATOM     75  C   UNL A   1      38.627  34.266  39.073  1.00  0.00     0.198 A 
ATOM     76  C   UNL A   1      40.030  35.952  38.103  1.00  0.00     0.198 A 
ATOM     77  F   UNL A   1      40.944  35.629  35.957  1.00  0.00    -0.203 F 
ATOM     78  F   UNL A   1      37.842  33.843  40.073  1.00  0.00    -0.200 F 
ATOM     79  C   UNL A   1      39.243  35.506  39.153  1.00  0.00     0.200 A 
ATOM     80  F   UNL A   1      40.640  37.142  38.182  1.00  0.00    -0.200 F 
ATOM     81  F   UNL A   1      39.071  36.274  40.238  1.00  0.00    -0.200 F 
ENDBRANCH  47  71
BRANCH  59  82
ATOM     82  C   UNL A   1      43.995  28.794  35.134  1.00  0.00     0.064 A 
ATOM     83  C   UNL A   1      45.288  29.328  35.024  1.00  0.00     0.173 A 
ATOM     84  C   UNL A   1      43.811  27.687  35.977  1.00  0.00     0.173 A 
ATOM     85  F   UNL A   1      45.518  30.375  34.219  1.00  0.00    -0.203 F 
ATOM     86  C   UNL A   1      46.356  28.762  35.715  1.00  0.00     0.198 A 
ATOM     87  C   UNL A   1      44.875  27.142  36.689  1.00  0.00     0.198 A 
ATOM     88  F   UNL A   1      42.593  27.143  36.123  1.00  0.00    -0.203 F 
ATOM     89  F   UNL A   1      47.590  29.260  35.560  1.00  0.00    -0.200 F 
ATOM     90  C   UNL A   1      46.147  27.677  36.554  1.00  0.00     0.200 A 
ATOM     91  F   UNL A   1      44.669  26.104  37.510  1.00  0.00    -0.200 F 
ATOM     92  F   UNL A   1      47.175  27.141  37.226  1.00  0.00    -0.200 F 
ENDBRANCH  59  82
ENDBRANCH  33  34
ENDBRANCH  25  28
ENDBRANCH  23  24
ENDBRANCH   1  23
TORSDOF 13
ENDMDL
MODEL 3
REMARK VINA RESULT:     -12.5      5.065      9.652
REMARK SMILES Cc1cc(C[N@@H+]2C[C@@H](C(=O)NCCCNC(=O)c3ccc(-c4c5nc(c(-c6c(F)c(F)c(F)c(F)c6F)c6ccc([nH]6)c(-c6c(F)c(F)c(F)c(F)c6F)c6nc(c(-c7c(F)c(F)c(F)c(F)c7F)c7ccc4[nH]7)C=C6)C=C5)cc3)[C@H](C3CC3)C2)on1
REMARK SMILES IDX 13 1 12 2 11 3 9 4 10 5 8 7 6 8 7 9 85 10 81 12 5 13 4 14
REMARK SMILES IDX 1 15 2 16 3 17 87 18 86 19 82 20 83 21 84 22 14 23 15 24
REMARK SMILES IDX 16 25 17 27 18 28 19 29 80 30 20 31 79 32 21 33 22 34 23 35
REMARK SMILES IDX 73 36 24 37 78 38 72 39 74 40 25 41 77 42 71 43 70 44 26 46
REMARK SMILES IDX 58 47 38 48 57 49 39 50 42 51 56 52 75 53 40 54 41 55 55 57
REMARK SMILES IDX 76 58 43 59 27 60 28 61 36 62 29 63 30 64 34 65 37 66 31 67
REMARK SMILES IDX 32 68 35 69 33 70 59 71 60 72 68 73 61 74 62 75 66 76 69 77
REMARK SMILES IDX 63 78 64 79 67 80 65 81 44 82 45 83 53 84 46 85 47 86 51 87
REMARK SMILES IDX 54 88 48 89 49 90 52 91 50 92
REMARK H PARENT 11 6 6 11 15 26 74 45 42 56
REMARK Flexibility Score: inf
ROOT
ATOM      1  C   UNL A   1      42.287  22.348  25.751  1.00  0.00     0.042 C 
ENDROOT
BRANCH   1   2
ATOM      2  C   UNL A   1      43.081  23.517  26.339  1.00  0.00     0.117 C 
BRANCH   2   3
ATOM      3  N   UNL A   1      44.354  23.651  25.659  1.00  0.00    -0.356 N 
ATOM      4  C   UNL A   1      45.082  24.756  25.332  1.00  0.00     0.229 C 
ATOM      5  O   UNL A   1      45.954  24.581  24.479  1.00  0.00    -0.275 OA
ATOM      6  H   UNL A   1      44.763  22.799  25.386  1.00  0.00     0.163 HD
BRANCH   4   7
ATOM      7  C   UNL A   1      44.893  26.092  26.055  1.00  0.00     0.142 C 
ATOM      8  N   UNL A   1      44.763  28.480  25.792  1.00  0.00    -0.328 N 
ATOM      9  C   UNL A   1      44.375  27.217  25.166  1.00  0.00     0.276 C 
ATOM     10  C   UNL A   1      46.043  28.221  26.449  1.00  0.00     0.267 C 
ATOM     11  H   UNL A   1      44.868  29.212  25.090  1.00  0.00     0.348 HD
ATOM     12  C   UNL A   1      46.222  26.686  26.571  1.00  0.00     0.065 C 
BRANCH   8  13
ATOM     13  C   UNL A   1      43.731  29.086  26.652  1.00  0.00     0.341 C 
BRANCH  13  14
ATOM     14  C   UNL A   1      43.955  30.488  27.094  1.00  0.00     0.191 A 
ATOM     15  C   UNL A   1      44.445  33.580  28.974  1.00  0.00     0.070 C 
ATOM     16  C   UNL A   1      44.276  32.458  28.024  1.00  0.00     0.081 A 
ATOM     17  C   UNL A   1      44.183  31.079  28.313  1.00  0.00     0.078 A 
ATOM     18  N   UNL A   1      44.153  32.687  26.711  1.00  0.00    -0.085 NA
ATOM     19  O   UNL A   1      43.973  31.445  26.126  1.00  0.00    -0.355 OA
ENDBRANCH  13  14
ENDBRANCH   8  13
BRANCH  12  20
ATOM     20  C   UNL A   1      46.699  26.323  27.961  1.00  0.00    -0.001 C 
ATOM     21  C   UNL A   1      46.509  24.985  28.629  1.00  0.00     0.004 C 
ATOM     22  C   UNL A   1      47.875  25.400  28.173  1.00  0.00     0.004 C 
ENDBRANCH  12  20
ENDBRANCH   4   7
ENDBRANCH   2   3
ENDBRANCH   1   2
BRANCH   1  23
ATOM     23  C   UNL A   1      41.119  21.914  26.632  1.00  0.00     0.118 C 
BRANCH  23  24
ATOM     24  N   UNL A   1      39.840  22.118  25.972  1.00  0.00    -0.352 N 
ATOM     25  C   UNL A   1      38.932  23.136  26.126  1.00  0.00     0.251 C 
ATOM     26  H   UNL A   1      39.587  21.424  25.320  1.00  0.00     0.163 HD
ATOM     27  O   UNL A   1      37.800  23.020  25.670  1.00  0.00    -0.269 OA
BRANCH  25  28
ATOM     28  C   UNL A   1      39.311  24.371  26.849  1.00  0.00     0.039 A 
ATOM     29  C   UNL A   1      38.925  24.518  28.184  1.00  0.00     0.014 A 
ATOM     30  C   UNL A   1      40.006  25.397  26.203  1.00  0.00     0.014 A 
ATOM     31  C   UNL A   1      39.278  25.672  28.886  1.00  0.00     0.010 A 
ATOM     32  C   UNL A   1      40.419  26.514  26.924  1.00  0.00     0.010 A 
ATOM     33  C   UNL A   1      40.052  26.668  28.269  1.00  0.00    -0.014 A 
BRANCH  33  34
ATOM     34  C   UNL A   1      40.473  27.888  29.004  1.00  0.00     0.031 A 
ATOM     35  C   UNL A   1      41.851  27.966  29.601  1.00  0.00     0.074 A 
ATOM     36  C   UNL A   1      39.592  28.888  29.196  1.00  0.00     0.049 A 
ATOM     37  N   UNL A   1      42.372  28.891  30.366  1.00  0.00    -0.248 NA
ATOM     38  C   UNL A   1      42.754  26.838  29.326  1.00  0.00     0.031 C 
ATOM     39  C   UNL A   1      38.214  28.908  28.702  1.00  0.00     0.029 A 
ATOM     40  N   UNL A   1      39.717  30.075  29.876  1.00  0.00    -0.354 N 
ATOM     41  C   UNL A   1      43.650  28.448  30.680  1.00  0.00     0.074 A 
ATOM     42  C   UNL A   1      43.810  27.149  30.064  1.00  0.00     0.031 C 
ATOM     43  C   UNL A   1      37.627  30.054  29.082  1.00  0.00     0.029 A 
ATOM     44  C   UNL A   1      38.571  30.830  29.881  1.00  0.00     0.049 A 
ATOM     45  H   UNL A   1      40.551  30.356  30.317  1.00  0.00     0.167 HD
ATOM     46  C   UNL A   1      44.609  29.077  31.399  1.00  0.00     0.037 A 
ATOM     47  C   UNL A   1      38.306  32.009  30.476  1.00  0.00     0.037 A 
ATOM     48  C   UNL A   1      44.454  30.384  31.982  1.00  0.00     0.049 A 
ATOM     49  C   UNL A   1      39.391  32.687  31.270  1.00  0.00     0.074 A 
ATOM     50  C   UNL A   1      45.386  31.137  32.673  1.00  0.00     0.029 A 
ATOM     51  N   UNL A   1      43.286  31.131  31.941  1.00  0.00    -0.354 N 
ATOM     52  N   UNL A   1      40.618  32.288  31.505  1.00  0.00    -0.248 NA
ATOM     53  C   UNL A   1      39.056  33.982  31.878  1.00  0.00     0.031 C 
ATOM     54  C   UNL A   1      44.770  32.320  33.091  1.00  0.00     0.029 A 
ATOM     55  C   UNL A   1      43.468  32.328  32.614  1.00  0.00     0.049 A 
ATOM     56  H   UNL A   1      42.451  30.852  31.499  1.00  0.00     0.167 HD
ATOM     57  C   UNL A   1      41.209  33.291  32.259  1.00  0.00     0.074 A 
ATOM     58  C   UNL A   1      40.210  34.326  32.432  1.00  0.00     0.031 C 
ATOM     59  C   UNL A   1      42.465  33.352  32.763  1.00  0.00     0.037 A 
BRANCH  46  60
ATOM     60  C   UNL A   1      45.916  28.363  31.595  1.00  0.00     0.064 A 
ATOM     61  C   UNL A   1      46.991  28.537  30.711  1.00  0.00     0.173 A 
ATOM     62  C   UNL A   1      46.111  27.527  32.706  1.00  0.00     0.173 A 
ATOM     63  F   UNL A   1      46.856  29.318  29.629  1.00  0.00    -0.203 F 
ATOM     64  C   UNL A   1      48.202  27.879  30.915  1.00  0.00     0.198 A 
ATOM     65  C   UNL A   1      47.332  26.896  32.924  1.00  0.00     0.198 A 
ATOM     66  F   UNL A   1      45.118  27.330  33.587  1.00  0.00    -0.203 F 
ATOM     67  F   UNL A   1      49.199  28.025  30.031  1.00  0.00    -0.200 F 
ATOM     68  C   UNL A   1      48.375  27.067  32.024  1.00  0.00     0.200 A 
ATOM     69  F   UNL A   1      47.503  26.121  34.005  1.00  0.00    -0.200 F 
ATOM     70  F   UNL A   1      49.543  26.442  32.225  1.00  0.00    -0.200 F 
ENDBRANCH  46  60
BRANCH  47  71
ATOM     71  C   UNL A   1      36.965  32.632  30.331  1.00  0.00     0.064 A 
ATOM     72  C   UNL A   1      36.653  33.416  29.212  1.00  0.00     0.173 A 
ATOM     73  C   UNL A   1      35.971  32.463  31.306  1.00  0.00     0.173 A 
ATOM     74  F   UNL A   1      37.576  33.624  28.262  1.00  0.00    -0.203 F 
ATOM     75  C   UNL A   1      35.407  34.028  29.086  1.00  0.00     0.198 A 
ATOM     76  C   UNL A   1      34.715  33.051  31.164  1.00  0.00     0.198 A 
ATOM     77  F   UNL A   1      36.215  31.718  32.394  1.00  0.00    -0.203 F 
ATOM     78  F   UNL A   1      35.153  34.813  28.030  1.00  0.00    -0.200 F 
ATOM     79  C   UNL A   1      34.437  33.840  30.058  1.00  0.00     0.200 A 
ATOM     80  F   UNL A   1      33.776  32.854  32.099  1.00  0.00    -0.200 F 
ATOM     81  F   UNL A   1      33.238  34.426  29.935  1.00  0.00    -0.200 F 
ENDBRANCH  47  71
BRANCH  59  82
ATOM     82  C   UNL A   1      42.847  34.593  33.515  1.00  0.00     0.064 A 
ATOM     83  C   UNL A   1      43.270  35.755  32.854  1.00  0.00     0.173 A 
ATOM     84  C   UNL A   1      42.738  34.634  34.914  1.00  0.00     0.173 A 
ATOM     85  F   UNL A   1      43.405  35.761  31.520  1.00  0.00    -0.203 F 
ATOM     86  C   UNL A   1      43.592  36.907  33.568  1.00  0.00     0.198 A 
ATOM     87  C   UNL A   1      43.032  35.796  35.622  1.00  0.00     0.198 A 
ATOM     88  F   UNL A   1      42.331  33.551  35.593  1.00  0.00    -0.203 F 
ATOM     89  F   UNL A   1      44.037  37.991  32.920  1.00  0.00    -0.200 F 
ATOM     90  C   UNL A   1      43.463  36.929  34.949  1.00  0.00     0.200 A 
ATOM     91  F   UNL A   1      42.893  35.820  36.954  1.00  0.00    -0.200 F 
ATOM     92  F   UNL A   1      43.763  38.041  35.633  1.00  0.00    -0.200 F 
ENDBRANCH  59  82
ENDBRANCH  33  34
ENDBRANCH  25  28
ENDBRANCH  23  24
ENDBRANCH   1  23
TORSDOF 13
ENDMDL
