MODEL 1
REMARK VINA RESULT:     -11.3      0.000      0.000
REMARK SMILES C[NH+](C)CC(C)(C)CNc1cccc(F)c1C(=O)NCCCNC(=O)c1ccc(-c2c3nc(c(-c4c(F)c(F)c(F)c(F)c4F)c4ccc([nH]4)c(-c4c(F)c(F)c(F)c(F)c4F)c4nc(c(-c5c(F)c(F)c(F)c(F)c5F)c5ccc2[nH]5)C=C4)C=C3)cc1
REMARK SMILES IDX 17 1 18 2 19 3 16 5 10 6 11 7 12 8 14 9 13 10 15 11 9 12
REMARK SMILES IDX 8 14 5 15 6 16 7 17 4 18 2 19 1 20 3 21 20 23 21 24 22 25
REMARK SMILES IDX 23 26 24 27 25 29 26 30 27 31 88 32 28 33 87 34 29 35 30 36
REMARK SMILES IDX 31 37 81 38 32 39 86 40 80 41 82 42 33 43 85 44 79 45 78 46
REMARK SMILES IDX 34 48 66 49 46 50 65 51 47 52 50 53 64 54 83 55 48 56 49 57
REMARK SMILES IDX 63 59 84 60 51 61 35 62 36 63 44 64 37 65 38 66 42 67 45 68
REMARK SMILES IDX 39 69 40 70 43 71 41 72 67 73 68 74 76 75 69 76 70 77 74 78
REMARK SMILES IDX 77 79 71 80 72 81 75 82 73 83 52 84 53 85 61 86 54 87 55 88
REMARK SMILES IDX 59 89 62 90 56 91 57 92 60 93 58 94
REMARK H PARENT 19 4 9 13 2 22 23 28 82 47 50 58
REMARK Flexibility Score: inf
ROOT
ATOM      1  C   UNL A   1      31.382  29.582  23.818  1.00  0.00     0.256 C 
ATOM      2  O   UNL A   1      32.169  29.312  22.903  1.00  0.00    -0.269 OA
ATOM      3  N   UNL A   1      31.965  30.022  24.978  1.00  0.00    -0.352 N 
ATOM      4  H   UNL A   1      32.934  30.176  24.891  1.00  0.00     0.163 HD
ENDROOT
BRANCH   1   5
ATOM      5  C   UNL A   1      29.910  29.491  23.564  1.00  0.00     0.098 A 
ATOM      6  C   UNL A   1      29.338  28.197  23.387  1.00  0.00     0.050 A 
ATOM      7  C   UNL A   1      27.959  28.097  23.128  1.00  0.00     0.027 A 
ATOM      8  C   UNL A   1      27.147  29.226  23.039  1.00  0.00     0.005 A 
ATOM      9  C   UNL A   1      29.063  30.603  23.523  1.00  0.00     0.138 A 
ATOM     10  C   UNL A   1      27.703  30.480  23.239  1.00  0.00     0.040 A 
ATOM     11  F   UNL A   1      29.493  31.837  23.800  1.00  0.00    -0.206 F 
BRANCH   6  12
ATOM     12  N   UNL A   1      30.136  27.063  23.402  1.00  0.00    -0.384 N 
ATOM     13  H   UNL A   1      30.896  27.058  22.776  1.00  0.00     0.160 HD
BRANCH  12  14
ATOM     14  C   UNL A   1      29.982  25.886  24.232  1.00  0.00     0.125 C 
BRANCH  14  15
ATOM     15  C   UNL A   1      31.300  25.509  24.956  1.00  0.00     0.031 C 
ATOM     16  C   UNL A   1      31.121  24.103  25.559  1.00  0.00     0.019 C 
ATOM     17  C   UNL A   1      31.520  26.472  26.155  1.00  0.00     0.019 C 
BRANCH  15  18
ATOM     18  C   UNL A   1      32.579  25.609  24.053  1.00  0.00     0.269 C 
BRANCH  18  19
ATOM     19  N   UNL A   1      32.801  24.844  22.821  1.00  0.00    -0.339 N 
ATOM     20  C   UNL A   1      32.914  25.611  21.595  1.00  0.00     0.332 C 
ATOM     21  C   UNL A   1      33.782  23.779  22.901  1.00  0.00     0.332 C 
ATOM     22  H   UNL A   1      31.900  24.371  22.746  1.00  0.00     0.347 HD
ENDBRANCH  18  19
ENDBRANCH  15  18
ENDBRANCH  14  15
ENDBRANCH  12  14
ENDBRANCH   6  12
ENDBRANCH   1   5
BRANCH   3  23
ATOM     23  C   UNL A   1      31.458  30.307  26.306  1.00  0.00     0.118 C 
BRANCH  23  24
ATOM     24  C   UNL A   1      31.355  31.819  26.522  1.00  0.00     0.042 C 
BRANCH  24  25
ATOM     25  C   UNL A   1      32.680  32.485  26.883  1.00  0.00     0.118 C 
BRANCH  25  26
ATOM     26  N   UNL A   1      32.497  33.835  27.387  1.00  0.00    -0.352 N 
ATOM     27  C   UNL A   1      33.081  34.459  28.455  1.00  0.00     0.251 C 
ATOM     28  H   UNL A   1      31.853  34.385  26.884  1.00  0.00     0.163 HD
ATOM     29  O   UNL A   1      32.627  35.542  28.841  1.00  0.00    -0.269 OA
BRANCH  27  30
ATOM     30  C   UNL A   1      34.241  33.869  29.161  1.00  0.00     0.039 A 
ATOM     31  C   UNL A   1      35.526  34.282  28.788  1.00  0.00     0.014 A 
ATOM     32  C   UNL A   1      34.090  32.858  30.117  1.00  0.00     0.014 A 
ATOM     33  C   UNL A   1      36.649  33.699  29.379  1.00  0.00     0.010 A 
ATOM     34  C   UNL A   1      35.212  32.323  30.754  1.00  0.00     0.010 A 
ATOM     35  C   UNL A   1      36.502  32.719  30.374  1.00  0.00    -0.014 A 
BRANCH  35  36
ATOM     36  C   UNL A   1      37.693  32.073  30.983  1.00  0.00     0.031 A 
ATOM     37  C   UNL A   1      38.124  32.443  32.377  1.00  0.00     0.074 A 
ATOM     38  C   UNL A   1      38.397  31.166  30.280  1.00  0.00     0.049 A 
ATOM     39  N   UNL A   1      39.144  32.008  33.072  1.00  0.00    -0.248 NA
ATOM     40  C   UNL A   1      37.311  33.452  33.075  1.00  0.00     0.031 C 
ATOM     41  C   UNL A   1      38.102  30.747  28.910  1.00  0.00     0.029 A 
ATOM     42  N   UNL A   1      39.504  30.430  30.623  1.00  0.00    -0.354 N 
ATOM     43  C   UNL A   1      39.104  32.699  34.276  1.00  0.00     0.074 A 
ATOM     44  C   UNL A   1      37.989  33.617  34.202  1.00  0.00     0.031 C 
ATOM     45  C   UNL A   1      38.984  29.805  28.540  1.00  0.00     0.029 A 
ATOM     46  C   UNL A   1      39.924  29.574  29.634  1.00  0.00     0.049 A 
ATOM     47  H   UNL A   1      39.955  30.508  31.495  1.00  0.00     0.167 HD
ATOM     48  C   UNL A   1      39.910  32.563  35.357  1.00  0.00     0.037 A 
ATOM     49  C   UNL A   1      40.944  28.695  29.616  1.00  0.00     0.037 A 
ATOM     50  C   UNL A   1      40.999  31.626  35.444  1.00  0.00     0.049 A 
ATOM     51  C   UNL A   1      41.810  28.544  30.837  1.00  0.00     0.074 A 
ATOM     52  C   UNL A   1      41.853  31.391  36.507  1.00  0.00     0.029 A 
ATOM     53  N   UNL A   1      41.375  30.760  34.428  1.00  0.00    -0.354 N 
ATOM     54  N   UNL A   1      41.740  29.180  31.982  1.00  0.00    -0.248 NA
ATOM     55  C   UNL A   1      42.886  27.547  30.769  1.00  0.00     0.031 C 
ATOM     56  C   UNL A   1      42.767  30.404  36.124  1.00  0.00     0.029 A 
ATOM     57  C   UNL A   1      42.452  29.990  34.839  1.00  0.00     0.049 A 
ATOM     58  H   UNL A   1      40.942  30.700  33.546  1.00  0.00     0.167 HD
ATOM     59  C   UNL A   1      42.742  28.641  32.778  1.00  0.00     0.074 A 
ATOM     60  C   UNL A   1      43.399  27.620  31.990  1.00  0.00     0.031 C 
ATOM     61  C   UNL A   1      43.084  28.966  34.049  1.00  0.00     0.037 A 
BRANCH  48  62
ATOM     62  C   UNL A   1      39.636  33.438  36.545  1.00  0.00     0.064 A 
ATOM     63  C   UNL A   1      40.274  34.680  36.682  1.00  0.00     0.173 A 
ATOM     64  C   UNL A   1      38.782  33.023  37.579  1.00  0.00     0.173 A 
ATOM     65  F   UNL A   1      41.106  35.122  35.725  1.00  0.00    -0.203 F 
ATOM     66  C   UNL A   1      40.073  35.470  37.811  1.00  0.00     0.198 A 
ATOM     67  C   UNL A   1      38.562  33.828  38.693  1.00  0.00     0.198 A 
ATOM     68  F   UNL A   1      38.139  31.849  37.492  1.00  0.00    -0.203 F 
ATOM     69  F   UNL A   1      40.714  36.641  37.930  1.00  0.00    -0.200 F 
ATOM     70  C   UNL A   1      39.213  35.046  38.812  1.00  0.00     0.200 A 
ATOM     71  F   UNL A   1      37.711  33.428  39.649  1.00  0.00    -0.200 F 
ATOM     72  F   UNL A   1      39.010  35.814  39.892  1.00  0.00    -0.200 F 
ENDBRANCH  48  62
BRANCH  49  73
ATOM     73  C   UNL A   1      41.161  27.849  28.415  1.00  0.00     0.064 A 
ATOM     74  C   UNL A   1      42.014  28.254  27.378  1.00  0.00     0.173 A 
ATOM     75  C   UNL A   1      40.490  26.627  28.270  1.00  0.00     0.173 A 
ATOM     76  F   UNL A   1      42.674  29.418  27.467  1.00  0.00    -0.203 F 
ATOM     77  C   UNL A   1      42.174  27.474  26.235  1.00  0.00     0.198 A 
ATOM     78  C   UNL A   1      40.670  25.838  27.138  1.00  0.00     0.198 A 
ATOM     79  F   UNL A   1      39.679  26.190  29.245  1.00  0.00    -0.203 F 
ATOM     80  F   UNL A   1      42.971  27.897  25.244  1.00  0.00    -0.200 F 
ATOM     81  C   UNL A   1      41.505  26.265  26.117  1.00  0.00     0.200 A 
ATOM     82  F   UNL A   1      40.039  24.660  27.039  1.00  0.00    -0.200 F 
ATOM     83  F   UNL A   1      41.668  25.510  25.021  1.00  0.00    -0.200 F 
ENDBRANCH  49  73
BRANCH  61  84
ATOM     84  C   UNL A   1      44.196  28.188  34.688  1.00  0.00     0.064 A 
ATOM     85  C   UNL A   1      45.526  28.614  34.555  1.00  0.00     0.173 A 
ATOM     86  C   UNL A   1      43.955  26.989  35.375  1.00  0.00     0.173 A 
ATOM     87  F   UNL A   1      45.809  29.750  33.899  1.00  0.00    -0.203 F 
ATOM     88  C   UNL A   1      46.575  27.863  35.076  1.00  0.00     0.198 A 
ATOM     89  C   UNL A   1      45.004  26.254  35.919  1.00  0.00     0.198 A 
ATOM     90  F   UNL A   1      42.699  26.547  35.539  1.00  0.00    -0.203 F 
ATOM     91  F   UNL A   1      47.839  28.276  34.912  1.00  0.00    -0.200 F 
ATOM     92  C   UNL A   1      46.313  26.687  35.762  1.00  0.00     0.200 A 
ATOM     93  F   UNL A   1      44.749  25.129  36.601  1.00  0.00    -0.200 F 
ATOM     94  F   UNL A   1      47.322  25.970  36.276  1.00  0.00    -0.200 F 
ENDBRANCH  61  84
ENDBRANCH  35  36
ENDBRANCH  27  30
ENDBRANCH  25  26
ENDBRANCH  24  25
ENDBRANCH  23  24
ENDBRANCH   3  23
TORSDOF 15
ENDMDL
MODEL 2
REMARK VINA RESULT:     -11.1      0.629      1.593
REMARK SMILES C[NH+](C)CC(C)(C)CNc1cccc(F)c1C(=O)NCCCNC(=O)c1ccc(-c2c3nc(c(-c4c(F)c(F)c(F)c(F)c4F)c4ccc([nH]4)c(-c4c(F)c(F)c(F)c(F)c4F)c4nc(c(-c5c(F)c(F)c(F)c(F)c5F)c5ccc2[nH]5)C=C4)C=C3)cc1
REMARK SMILES IDX 17 1 18 2 19 3 16 5 10 6 11 7 12 8 14 9 13 10 15 11 9 12
REMARK SMILES IDX 8 14 5 15 6 16 7 17 4 18 2 19 1 20 3 21 20 23 21 24 22 25
REMARK SMILES IDX 23 26 24 27 25 29 26 30 27 31 88 32 28 33 87 34 29 35 30 36
REMARK SMILES IDX 31 37 81 38 32 39 86 40 80 41 82 42 33 43 85 44 79 45 78 46
REMARK SMILES IDX 34 48 66 49 46 50 65 51 47 52 50 53 64 54 83 55 48 56 49 57
REMARK SMILES IDX 63 59 84 60 51 61 35 62 36 63 44 64 37 65 38 66 42 67 45 68
REMARK SMILES IDX 39 69 40 70 43 71 41 72 67 73 68 74 76 75 69 76 70 77 74 78
REMARK SMILES IDX 77 79 71 80 72 81 75 82 73 83 52 84 53 85 61 86 54 87 55 88
REMARK SMILES IDX 59 89 62 90 56 91 57 92 60 93 58 94
REMARK H PARENT 19 4 9 13 2 22 23 28 82 47 50 58
REMARK Flexibility Score: inf
ROOT
ATOM      1  C   UNL A   1      31.471  29.559  23.890  1.00  0.00     0.256 C 
ATOM      2  O   UNL A   1      32.278  29.272  22.998  1.00  0.00    -0.269 OA
ATOM      3  N   UNL A   1      32.024  30.077  25.032  1.00  0.00    -0.352 N 
ATOM      4  H   UNL A   1      32.987  30.262  24.948  1.00  0.00     0.163 HD
ENDROOT
BRANCH   1   5
ATOM      5  C   UNL A   1      30.005  29.404  23.625  1.00  0.00     0.098 A 
ATOM      6  C   UNL A   1      29.502  28.091  23.391  1.00  0.00     0.050 A 
ATOM      7  C   UNL A   1      28.130  27.931  23.122  1.00  0.00     0.027 A 
ATOM      8  C   UNL A   1      27.262  29.020  23.076  1.00  0.00     0.005 A 
ATOM      9  C   UNL A   1      29.102  30.472  23.627  1.00  0.00     0.138 A 
ATOM     10  C   UNL A   1      27.752  30.291  23.331  1.00  0.00     0.040 A 
ATOM     11  F   UNL A   1      29.468  31.713  23.957  1.00  0.00    -0.206 F 
BRANCH   6  12
ATOM     12  N   UNL A   1      30.357  27.000  23.363  1.00  0.00    -0.384 N 
ATOM     13  H   UNL A   1      31.157  27.088  22.795  1.00  0.00     0.160 HD
BRANCH  12  14
ATOM     14  C   UNL A   1      30.212  25.745  24.072  1.00  0.00     0.125 C 
BRANCH  14  15
ATOM     15  C   UNL A   1      31.579  25.177  24.535  1.00  0.00     0.031 C 
ATOM     16  C   UNL A   1      32.212  26.199  25.498  1.00  0.00     0.019 C 
ATOM     17  C   UNL A   1      32.533  25.080  23.313  1.00  0.00     0.019 C 
BRANCH  15  18
ATOM     18  C   UNL A   1      31.496  23.742  25.162  1.00  0.00     0.269 C 
BRANCH  18  19
ATOM     19  N   UNL A   1      31.298  23.456  26.587  1.00  0.00    -0.339 N 
ATOM     20  C   UNL A   1      29.991  22.955  26.971  1.00  0.00     0.332 C 
ATOM     21  C   UNL A   1      32.379  22.754  27.253  1.00  0.00     0.332 C 
ATOM     22  H   UNL A   1      31.328  24.406  26.960  1.00  0.00     0.347 HD
ENDBRANCH  18  19
ENDBRANCH  15  18
ENDBRANCH  14  15
ENDBRANCH  12  14
ENDBRANCH   6  12
ENDBRANCH   1   5
BRANCH   3  23
ATOM     23  C   UNL A   1      31.490  30.411  26.339  1.00  0.00     0.118 C 
BRANCH  23  24
ATOM     24  C   UNL A   1      31.400  31.930  26.504  1.00  0.00     0.042 C 
BRANCH  24  25
ATOM     25  C   UNL A   1      32.719  32.590  26.893  1.00  0.00     0.118 C 
BRANCH  25  26
ATOM     26  N   UNL A   1      32.526  33.919  27.448  1.00  0.00    -0.352 N 
ATOM     27  C   UNL A   1      33.102  34.504  28.542  1.00  0.00     0.251 C 
ATOM     28  H   UNL A   1      31.880  34.484  26.965  1.00  0.00     0.163 HD
ATOM     29  O   UNL A   1      32.640  35.568  28.968  1.00  0.00    -0.269 OA
BRANCH  27  30
ATOM     30  C   UNL A   1      34.264  33.895  29.228  1.00  0.00     0.039 A 
ATOM     31  C   UNL A   1      35.547  34.190  28.752  1.00  0.00     0.014 A 
ATOM     32  C   UNL A   1      34.109  32.975  30.271  1.00  0.00     0.014 A 
ATOM     33  C   UNL A   1      36.666  33.581  29.325  1.00  0.00     0.010 A 
ATOM     34  C   UNL A   1      35.232  32.417  30.887  1.00  0.00     0.010 A 
ATOM     35  C   UNL A   1      36.519  32.695  30.404  1.00  0.00    -0.014 A 
BRANCH  35  36
ATOM     36  C   UNL A   1      37.701  32.019  30.997  1.00  0.00     0.031 A 
ATOM     37  C   UNL A   1      38.149  32.365  32.392  1.00  0.00     0.074 A 
ATOM     38  C   UNL A   1      38.384  31.108  30.279  1.00  0.00     0.049 A 
ATOM     39  N   UNL A   1      39.166  31.904  33.075  1.00  0.00    -0.248 NA
ATOM     40  C   UNL A   1      37.360  33.380  33.107  1.00  0.00     0.031 C 
ATOM     41  C   UNL A   1      38.072  30.710  28.906  1.00  0.00     0.029 A 
ATOM     42  N   UNL A   1      39.480  30.347  30.605  1.00  0.00    -0.354 N 
ATOM     43  C   UNL A   1      39.147  32.581  34.287  1.00  0.00     0.074 A 
ATOM     44  C   UNL A   1      38.048  33.520  34.231  1.00  0.00     0.031 C 
ATOM     45  C   UNL A   1      38.934  29.757  28.518  1.00  0.00     0.029 A 
ATOM     46  C   UNL A   1      39.876  29.496  29.603  1.00  0.00     0.049 A 
ATOM     47  H   UNL A   1      39.938  30.407  31.475  1.00  0.00     0.167 HD
ATOM     48  C   UNL A   1      39.958  32.417  35.360  1.00  0.00     0.037 A 
ATOM     49  C   UNL A   1      40.880  28.598  29.568  1.00  0.00     0.037 A 
ATOM     50  C   UNL A   1      41.030  31.460  35.428  1.00  0.00     0.049 A 
ATOM     51  C   UNL A   1      41.751  28.418  30.781  1.00  0.00     0.074 A 
ATOM     52  C   UNL A   1      41.887  31.197  36.482  1.00  0.00     0.029 A 
ATOM     53  N   UNL A   1      41.383  30.599  34.399  1.00  0.00    -0.354 N 
ATOM     54  N   UNL A   1      41.701  29.041  31.934  1.00  0.00    -0.248 NA
ATOM     55  C   UNL A   1      42.809  27.402  30.693  1.00  0.00     0.031 C 
ATOM     56  C   UNL A   1      42.780  30.198  36.082  1.00  0.00     0.029 A 
ATOM     57  C   UNL A   1      42.448  29.805  34.795  1.00  0.00     0.049 A 
ATOM     58  H   UNL A   1      40.943  30.557  33.520  1.00  0.00     0.167 HD
ATOM     59  C   UNL A   1      42.698  28.475  32.716  1.00  0.00     0.074 A 
ATOM     60  C   UNL A   1      43.332  27.450  31.912  1.00  0.00     0.031 C 
ATOM     61  C   UNL A   1      43.056  28.779  33.988  1.00  0.00     0.037 A 
BRANCH  48  62
ATOM     62  C   UNL A   1      39.708  33.284  36.560  1.00  0.00     0.064 A 
ATOM     63  C   UNL A   1      40.454  34.454  36.765  1.00  0.00     0.173 A 
ATOM     64  C   UNL A   1      38.768  32.926  37.538  1.00  0.00     0.173 A 
ATOM     65  F   UNL A   1      41.371  34.839  35.864  1.00  0.00    -0.203 F 
ATOM     66  C   UNL A   1      40.272  35.230  37.907  1.00  0.00     0.198 A 
ATOM     67  C   UNL A   1      38.569  33.719  38.665  1.00  0.00     0.198 A 
ATOM     68  F   UNL A   1      38.021  31.822  37.385  1.00  0.00    -0.203 F 
ATOM     69  F   UNL A   1      41.015  36.330  38.093  1.00  0.00    -0.200 F 
ATOM     70  C   UNL A   1      39.326  34.866  38.853  1.00  0.00     0.200 A 
ATOM     71  F   UNL A   1      37.637  33.379  39.566  1.00  0.00    -0.200 F 
ATOM     72  F   UNL A   1      39.142  35.621  39.945  1.00  0.00    -0.200 F 
ENDBRANCH  48  62
BRANCH  49  73
ATOM     73  C   UNL A   1      41.073  27.763  28.356  1.00  0.00     0.064 A 
ATOM     74  C   UNL A   1      40.398  26.544  28.190  1.00  0.00     0.173 A 
ATOM     75  C   UNL A   1      41.965  28.157  27.349  1.00  0.00     0.173 A 
ATOM     76  F   UNL A   1      39.539  26.120  29.128  1.00  0.00    -0.203 F 
ATOM     77  C   UNL A   1      40.621  25.747  27.070  1.00  0.00     0.198 A 
ATOM     78  C   UNL A   1      42.169  27.371  26.219  1.00  0.00     0.198 A 
ATOM     79  F   UNL A   1      42.619  29.324  27.455  1.00  0.00    -0.203 F 
ATOM     80  F   UNL A   1      39.987  24.573  26.949  1.00  0.00    -0.200 F 
ATOM     81  C   UNL A   1      41.504  26.162  26.084  1.00  0.00     0.200 A 
ATOM     82  F   UNL A   1      43.005  27.787  25.258  1.00  0.00    -0.200 F 
ATOM     83  F   UNL A   1      41.710  25.399  25.001  1.00  0.00    -0.200 F 
ENDBRANCH  49  73
BRANCH  61  84
ATOM     84  C   UNL A   1      44.157  27.973  34.610  1.00  0.00     0.064 A 
ATOM     85  C   UNL A   1      45.494  28.377  34.474  1.00  0.00     0.173 A 
ATOM     86  C   UNL A   1      43.899  26.770  35.283  1.00  0.00     0.173 A 
ATOM     87  F   UNL A   1      45.793  29.517  33.831  1.00  0.00    -0.203 F 
ATOM     88  C   UNL A   1      46.532  27.601  34.979  1.00  0.00     0.198 A 
ATOM     89  C   UNL A   1      44.939  26.009  35.811  1.00  0.00     0.198 A 
ATOM     90  F   UNL A   1      42.637  26.347  35.448  1.00  0.00    -0.203 F 
ATOM     91  F   UNL A   1      47.803  27.994  34.813  1.00  0.00    -0.200 F 
ATOM     92  C   UNL A   1      46.254  26.420  35.651  1.00  0.00     0.200 A 
ATOM     93  F   UNL A   1      44.668  24.880  36.479  1.00  0.00    -0.200 F 
ATOM     94  F   UNL A   1      47.253  25.680  36.150  1.00  0.00    -0.200 F 
ENDBRANCH  61  84
ENDBRANCH  35  36
ENDBRANCH  27  30
ENDBRANCH  25  26
ENDBRANCH  24  25
ENDBRANCH  23  24
ENDBRANCH   3  23
TORSDOF 15
ENDMDL
MODEL 3
REMARK VINA RESULT:     -11.1      1.070      2.130
REMARK SMILES C[NH+](C)CC(C)(C)CNc1cccc(F)c1C(=O)NCCCNC(=O)c1ccc(-c2c3nc(c(-c4c(F)c(F)c(F)c(F)c4F)c4ccc([nH]4)c(-c4c(F)c(F)c(F)c(F)c4F)c4nc(c(-c5c(F)c(F)c(F)c(F)c5F)c5ccc2[nH]5)C=C4)C=C3)cc1
REMARK SMILES IDX 17 1 18 2 19 3 16 5 10 6 11 7 12 8 14 9 13 10 15 11 9 12
REMARK SMILES IDX 8 14 5 15 6 16 7 17 4 18 2 19 1 20 3 21 20 23 21 24 22 25
REMARK SMILES IDX 23 26 24 27 25 29 26 30 27 31 88 32 28 33 87 34 29 35 30 36
REMARK SMILES IDX 31 37 81 38 32 39 86 40 80 41 82 42 33 43 85 44 79 45 78 46
REMARK SMILES IDX 34 48 66 49 46 50 65 51 47 52 50 53 64 54 83 55 48 56 49 57
REMARK SMILES IDX 63 59 84 60 51 61 35 62 36 63 44 64 37 65 38 66 42 67 45 68
REMARK SMILES IDX 39 69 40 70 43 71 41 72 67 73 68 74 76 75 69 76 70 77 74 78
REMARK SMILES IDX 77 79 71 80 72 81 75 82 73 83 52 84 53 85 61 86 54 87 55 88
REMARK SMILES IDX 59 89 62 90 56 91 57 92 60 93 58 94
REMARK H PARENT 19 4 9 13 2 22 23 28 82 47 50 58
REMARK Flexibility Score: inf
ROOT
ATOM      1  C   UNL A   1      32.220  29.348  24.477  1.00  0.00     0.256 C 
ATOM      2  O   UNL A   1      33.224  29.201  23.769  1.00  0.00    -0.269 OA
ATOM      3  N   UNL A   1      32.323  30.317  25.440  1.00  0.00    -0.352 N 
ATOM      4  H   UNL A   1      33.148  30.851  25.367  1.00  0.00     0.163 HD
ENDROOT
BRANCH   1   5
ATOM      5  C   UNL A   1      30.992  28.547  24.176  1.00  0.00     0.098 A 
ATOM      6  C   UNL A   1      30.977  27.174  24.562  1.00  0.00     0.050 A 
ATOM      7  C   UNL A   1      29.837  26.403  24.269  1.00  0.00     0.027 A 
ATOM      8  C   UNL A   1      28.734  26.946  23.613  1.00  0.00     0.005 A 
ATOM      9  C   UNL A   1      29.851  29.079  23.569  1.00  0.00     0.138 A 
ATOM     10  C   UNL A   1      28.744  28.288  23.265  1.00  0.00     0.040 A 
ATOM     11  F   UNL A   1      29.735  30.380  23.287  1.00  0.00    -0.206 F 
BRANCH   6  12
ATOM     12  N   UNL A   1      32.088  26.593  25.153  1.00  0.00    -0.384 N 
ATOM     13  H   UNL A   1      32.923  27.114  25.117  1.00  0.00     0.160 HD
BRANCH  12  14
ATOM     14  C   UNL A   1      32.163  25.308  25.818  1.00  0.00     0.125 C 
BRANCH  14  15
ATOM     15  C   UNL A   1      33.207  24.371  25.155  1.00  0.00     0.031 C 
ATOM     16  C   UNL A   1      33.832  25.127  23.968  1.00  0.00     0.019 C 
ATOM     17  C   UNL A   1      32.478  23.139  24.552  1.00  0.00     0.019 C 
BRANCH  15  18
ATOM     18  C   UNL A   1      34.290  23.817  26.145  1.00  0.00     0.269 C 
BRANCH  18  19
ATOM     19  N   UNL A   1      35.390  22.920  25.772  1.00  0.00    -0.339 N 
ATOM     20  C   UNL A   1      36.732  23.455  25.897  1.00  0.00     0.332 C 
ATOM     21  C   UNL A   1      35.289  21.556  26.255  1.00  0.00     0.332 C 
ATOM     22  H   UNL A   1      35.230  22.858  24.766  1.00  0.00     0.347 HD
ENDBRANCH  18  19
ENDBRANCH  15  18
ENDBRANCH  14  15
ENDBRANCH  12  14
ENDBRANCH   6  12
ENDBRANCH   1   5
BRANCH   3  23
ATOM     23  C   UNL A   1      31.477  30.722  26.546  1.00  0.00     0.118 C 
BRANCH  23  24
ATOM     24  C   UNL A   1      31.400  32.249  26.625  1.00  0.00     0.042 C 
BRANCH  24  25
ATOM     25  C   UNL A   1      32.718  32.917  27.002  1.00  0.00     0.118 C 
BRANCH  25  26
ATOM     26  N   UNL A   1      32.519  34.220  27.615  1.00  0.00    -0.352 N 
ATOM     27  C   UNL A   1      33.086  34.756  28.739  1.00  0.00     0.251 C 
ATOM     28  H   UNL A   1      31.876  34.805  27.152  1.00  0.00     0.163 HD
ATOM     29  O   UNL A   1      32.620  35.799  29.208  1.00  0.00    -0.269 OA
BRANCH  27  30
ATOM     30  C   UNL A   1      34.243  34.118  29.406  1.00  0.00     0.039 A 
ATOM     31  C   UNL A   1      35.531  34.517  29.029  1.00  0.00     0.014 A 
ATOM     32  C   UNL A   1      34.084  33.076  30.327  1.00  0.00     0.014 A 
ATOM     33  C   UNL A   1      36.650  33.890  29.583  1.00  0.00     0.010 A 
ATOM     34  C   UNL A   1      35.203  32.496  30.929  1.00  0.00     0.010 A 
ATOM     35  C   UNL A   1      36.496  32.879  30.544  1.00  0.00    -0.014 A 
BRANCH  35  36
ATOM     36  C   UNL A   1      37.681  32.187  31.113  1.00  0.00     0.031 A 
ATOM     37  C   UNL A   1      38.175  32.541  32.490  1.00  0.00     0.074 A 
ATOM     38  C   UNL A   1      38.324  31.252  30.388  1.00  0.00     0.049 A 
ATOM     39  N   UNL A   1      39.201  32.067  33.150  1.00  0.00    -0.248 NA
ATOM     40  C   UNL A   1      37.427  33.581  33.214  1.00  0.00     0.031 C 
ATOM     41  C   UNL A   1      37.966  30.844  29.030  1.00  0.00     0.029 A 
ATOM     42  N   UNL A   1      39.413  30.473  30.693  1.00  0.00    -0.354 N 
ATOM     43  C   UNL A   1      39.230  32.759  34.354  1.00  0.00     0.074 A 
ATOM     44  C   UNL A   1      38.150  33.720  34.316  1.00  0.00     0.031 C 
ATOM     45  C   UNL A   1      38.796  29.868  28.631  1.00  0.00     0.029 A 
ATOM     46  C   UNL A   1      39.764  29.601  29.692  1.00  0.00     0.049 A 
ATOM     47  H   UNL A   1      39.897  30.534  31.549  1.00  0.00     0.167 HD
ATOM     48  C   UNL A   1      40.068  32.593  35.406  1.00  0.00     0.037 A 
ATOM     49  C   UNL A   1      40.748  28.683  29.641  1.00  0.00     0.037 A 
ATOM     50  C   UNL A   1      41.121  31.614  35.456  1.00  0.00     0.049 A 
ATOM     51  C   UNL A   1      41.649  28.499  30.831  1.00  0.00     0.074 A 
ATOM     52  C   UNL A   1      42.002  31.347  36.489  1.00  0.00     0.029 A 
ATOM     53  N   UNL A   1      41.428  30.733  34.430  1.00  0.00    -0.354 N 
ATOM     54  N   UNL A   1      41.644  29.137  31.976  1.00  0.00    -0.248 NA
ATOM     55  C   UNL A   1      42.682  27.460  30.727  1.00  0.00     0.031 C 
ATOM     56  C   UNL A   1      42.863  30.324  36.077  1.00  0.00     0.029 A 
ATOM     57  C   UNL A   1      42.487  29.922  34.805  1.00  0.00     0.049 A 
ATOM     58  H   UNL A   1      40.962  30.689  33.564  1.00  0.00     0.167 HD
ATOM     59  C   UNL A   1      42.651  28.561  32.738  1.00  0.00     0.074 A 
ATOM     60  C   UNL A   1      43.240  27.514  31.930  1.00  0.00     0.031 C 
ATOM     61  C   UNL A   1      43.051  28.873  33.995  1.00  0.00     0.037 A 
BRANCH  48  62
ATOM     62  C   UNL A   1      39.870  33.479  36.601  1.00  0.00     0.064 A 
ATOM     63  C   UNL A   1      38.955  33.130  37.606  1.00  0.00     0.173 A 
ATOM     64  C   UNL A   1      40.545  34.702  36.725  1.00  0.00     0.173 A 
ATOM     65  F   UNL A   1      38.277  31.973  37.533  1.00  0.00    -0.203 F 
ATOM     66  C   UNL A   1      38.719  33.976  38.687  1.00  0.00     0.198 A 
ATOM     67  C   UNL A   1      40.327  35.533  37.821  1.00  0.00     0.198 A 
ATOM     68  F   UNL A   1      41.438  35.077  35.797  1.00  0.00    -0.203 F 
ATOM     69  F   UNL A   1      37.821  33.634  39.621  1.00  0.00    -0.200 F 
ATOM     70  C   UNL A   1      39.409  35.173  38.796  1.00  0.00     0.200 A 
ATOM     71  F   UNL A   1      41.014  36.678  37.938  1.00  0.00    -0.200 F 
ATOM     72  F   UNL A   1      39.192  35.981  39.844  1.00  0.00    -0.200 F 
ENDBRANCH  48  62
BRANCH  49  73
ATOM     73  C   UNL A   1      40.889  27.828  28.435  1.00  0.00     0.064 A 
ATOM     74  C   UNL A   1      40.242  26.588  28.334  1.00  0.00     0.173 A 
ATOM     75  C   UNL A   1      41.704  28.227  27.366  1.00  0.00     0.173 A 
ATOM     76  F   UNL A   1      39.456  26.159  29.333  1.00  0.00    -0.203 F 
ATOM     77  C   UNL A   1      40.418  25.774  27.218  1.00  0.00     0.198 A 
ATOM     78  C   UNL A   1      41.860  27.424  26.241  1.00  0.00     0.198 A 
ATOM     79  F   UNL A   1      42.328  29.414  27.409  1.00  0.00    -0.203 F 
ATOM     80  F   UNL A   1      39.813  24.580  27.160  1.00  0.00    -0.200 F 
ATOM     81  C   UNL A   1      41.224  26.194  26.170  1.00  0.00     0.200 A 
ATOM     82  F   UNL A   1      42.622  27.844  25.221  1.00  0.00    -0.200 F 
ATOM     83  F   UNL A   1      41.385  25.415  25.092  1.00  0.00    -0.200 F 
ENDBRANCH  49  73
BRANCH  61  84
ATOM     84  C   UNL A   1      44.153  28.052  34.597  1.00  0.00     0.064 A 
ATOM     85  C   UNL A   1      45.492  28.435  34.429  1.00  0.00     0.173 A 
ATOM     86  C   UNL A   1      43.890  26.857  35.281  1.00  0.00     0.173 A 
ATOM     87  F   UNL A   1      45.795  29.566  33.774  1.00  0.00    -0.203 F 
ATOM     88  C   UNL A   1      46.529  27.644  34.915  1.00  0.00     0.198 A 
ATOM     89  C   UNL A   1      44.929  26.082  35.790  1.00  0.00     0.198 A 
ATOM     90  F   UNL A   1      42.625  26.456  35.477  1.00  0.00    -0.203 F 
ATOM     91  F   UNL A   1      47.801  28.015  34.718  1.00  0.00    -0.200 F 
ATOM     92  C   UNL A   1      46.247  26.471  35.599  1.00  0.00     0.200 A 
ATOM     93  F   UNL A   1      44.654  24.960  36.470  1.00  0.00    -0.200 F 
ATOM     94  F   UNL A   1      47.245  25.717  36.079  1.00  0.00    -0.200 F 
ENDBRANCH  61  84
ENDBRANCH  35  36
ENDBRANCH  27  30
ENDBRANCH  25  26
ENDBRANCH  24  25
ENDBRANCH  23  24
ENDBRANCH   3  23
TORSDOF 15
ENDMDL
