MODEL 1
REMARK VINA RESULT:     -11.8      0.000      0.000
REMARK SMILES O=C(NCCCNC(=O)c1cc(Cl)ncc1-c1cccc(C(F)(F)F)c1)c1ccc(-c2c3nc(c(-c4c(F)c(F)c(F)c(F)c4F)c4ccc([nH]4)c(-c4c(F)c(F)c(F)c(F)c4F)c4nc(c(-c5c(F)c(F)c(F)c(F)c5F)c5ccc2[nH]5)C=C4)C=C3)cc1
REMARK SMILES IDX 5 1 4 2 3 3 1 4 2 5 27 7 28 8 89 9 29 10 88 11 30 12 31 13
REMARK SMILES IDX 32 14 82 15 33 16 87 17 81 18 83 19 34 20 86 21 80 22 79 23
REMARK SMILES IDX 35 25 67 26 47 27 66 28 48 29 51 30 65 31 84 32 49 33 50 34
REMARK SMILES IDX 64 36 85 37 52 38 36 39 37 40 45 41 38 42 39 43 43 44 46 45
REMARK SMILES IDX 40 46 41 47 44 48 42 49 68 50 69 51 77 52 70 53 71 54 75 55
REMARK SMILES IDX 78 56 72 57 73 58 76 59 74 60 53 61 54 62 62 63 55 64 56 65
REMARK SMILES IDX 60 66 63 67 57 68 58 69 61 70 59 71 6 72 7 73 8 74 9 76
REMARK SMILES IDX 10 77 11 78 16 79 12 80 15 81 13 82 14 83 17 84 18 85 26 86
REMARK SMILES IDX 19 87 21 88 20 89 22 90 23 91 24 92 25 93
REMARK H PARENT 3 6 83 24 51 35 7 75
REMARK Flexibility Score: inf
ROOT
ATOM      1  C   UNL A   1      33.048  27.858  25.481  1.00  0.00     0.042 C 
ENDROOT
BRANCH   1   2
ATOM      2  C   UNL A   1      33.661  29.179  25.041  1.00  0.00     0.118 C 
BRANCH   2   3
ATOM      3  N   UNL A   1      33.030  30.336  25.666  1.00  0.00    -0.352 N 
ATOM      4  O   UNL A   1      32.561  31.851  27.261  1.00  0.00    -0.269 OA
ATOM      5  C   UNL A   1      33.333  31.001  26.829  1.00  0.00     0.251 C 
ATOM      6  H   UNL A   1      32.260  30.700  25.173  1.00  0.00     0.163 HD
BRANCH   5   7
ATOM      7  C   UNL A   1      34.570  30.687  27.577  1.00  0.00     0.039 A 
ATOM      8  C   UNL A   1      34.741  29.446  28.190  1.00  0.00     0.014 A 
ATOM      9  C   UNL A   1      35.591  31.641  27.641  1.00  0.00     0.014 A 
ATOM     10  C   UNL A   1      35.841  29.223  29.009  1.00  0.00     0.010 A 
ATOM     11  C   UNL A   1      36.752  31.371  28.374  1.00  0.00     0.010 A 
ATOM     12  C   UNL A   1      36.871  30.173  29.092  1.00  0.00    -0.014 A 
BRANCH  12  13
ATOM     13  C   UNL A   1      38.088  29.849  29.879  1.00  0.00     0.031 A 
ATOM     14  C   UNL A   1      38.279  30.373  31.274  1.00  0.00     0.074 A 
ATOM     15  C   UNL A   1      39.013  29.041  29.326  1.00  0.00     0.049 A 
ATOM     16  N   UNL A   1      39.275  30.170  32.101  1.00  0.00    -0.248 NA
ATOM     17  C   UNL A   1      37.223  31.244  31.811  1.00  0.00     0.031 C 
ATOM     18  C   UNL A   1      38.939  28.481  27.974  1.00  0.00     0.029 A 
ATOM     19  N   UNL A   1      40.184  28.534  29.830  1.00  0.00    -0.354 N 
ATOM     20  C   UNL A   1      38.975  30.897  33.246  1.00  0.00     0.074 A 
ATOM     21  C   UNL A   1      37.718  31.572  32.997  1.00  0.00     0.031 C 
ATOM     22  C   UNL A   1      39.988  27.671  27.774  1.00  0.00     0.029 A 
ATOM     23  C   UNL A   1      40.846  27.712  28.952  1.00  0.00     0.049 A 
ATOM     24  H   UNL A   1      40.517  28.740  30.732  1.00  0.00     0.167 HD
ATOM     25  C   UNL A   1      39.682  30.984  34.398  1.00  0.00     0.037 A 
ATOM     26  C   UNL A   1      42.025  27.077  29.070  1.00  0.00     0.037 A 
ATOM     27  C   UNL A   1      40.928  30.299  34.639  1.00  0.00     0.049 A 
ATOM     28  C   UNL A   1      42.803  27.222  30.345  1.00  0.00     0.074 A 
ATOM     29  C   UNL A   1      41.703  30.294  35.787  1.00  0.00     0.029 A 
ATOM     30  N   UNL A   1      41.587  29.503  33.713  1.00  0.00    -0.354 N 
ATOM     31  N   UNL A   1      42.490  27.881  31.434  1.00  0.00    -0.248 NA
ATOM     32  C   UNL A   1      44.099  26.536  30.408  1.00  0.00     0.031 C 
ATOM     33  C   UNL A   1      42.854  29.542  35.536  1.00  0.00     0.029 A 
ATOM     34  C   UNL A   1      42.771  29.026  34.253  1.00  0.00     0.049 A 
ATOM     35  H   UNL A   1      41.260  29.305  32.805  1.00  0.00     0.167 HD
ATOM     36  C   UNL A   1      43.539  27.677  32.318  1.00  0.00     0.074 A 
ATOM     37  C   UNL A   1      44.487  26.811  31.646  1.00  0.00     0.031 C 
ATOM     38  C   UNL A   1      43.705  28.165  33.571  1.00  0.00     0.037 A 
BRANCH  25  39
ATOM     39  C   UNL A   1      39.142  31.868  35.487  1.00  0.00     0.064 A 
ATOM     40  C   UNL A   1      38.318  31.367  36.507  1.00  0.00     0.173 A 
ATOM     41  C   UNL A   1      39.494  33.225  35.540  1.00  0.00     0.173 A 
ATOM     42  F   UNL A   1      37.942  30.078  36.499  1.00  0.00    -0.203 F 
ATOM     43  C   UNL A   1      37.849  32.195  37.523  1.00  0.00     0.198 A 
ATOM     44  C   UNL A   1      39.047  34.045  36.575  1.00  0.00     0.198 A 
ATOM     45  F   UNL A   1      40.285  33.756  34.596  1.00  0.00    -0.203 F 
ATOM     46  F   UNL A   1      37.028  31.704  38.462  1.00  0.00    -0.200 F 
ATOM     47  C   UNL A   1      38.221  33.531  37.562  1.00  0.00     0.200 A 
ATOM     48  F   UNL A   1      39.420  35.331  36.617  1.00  0.00    -0.200 F 
ATOM     49  F   UNL A   1      37.775  34.325  38.545  1.00  0.00    -0.200 F 
ENDBRANCH  25  39
BRANCH  26  50
ATOM     50  C   UNL A   1      42.540  26.259  27.941  1.00  0.00     0.064 A 
ATOM     51  C   UNL A   1      42.213  24.903  27.822  1.00  0.00     0.173 A 
ATOM     52  C   UNL A   1      43.360  26.822  26.951  1.00  0.00     0.173 A 
ATOM     53  F   UNL A   1      41.446  24.314  28.751  1.00  0.00    -0.203 F 
ATOM     54  C   UNL A   1      42.702  24.135  26.767  1.00  0.00     0.198 A 
ATOM     55  C   UNL A   1      43.821  26.064  25.879  1.00  0.00     0.198 A 
ATOM     56  F   UNL A   1      43.697  28.120  27.016  1.00  0.00    -0.203 F 
ATOM     57  F   UNL A   1      42.412  22.829  26.700  1.00  0.00    -0.200 F 
ATOM     58  C   UNL A   1      43.499  24.718  25.792  1.00  0.00     0.200 A 
ATOM     59  F   UNL A   1      44.573  26.637  24.930  1.00  0.00    -0.200 F 
ATOM     60  F   UNL A   1      43.961  23.982  24.773  1.00  0.00    -0.200 F 
ENDBRANCH  26  50
BRANCH  38  61
ATOM     61  C   UNL A   1      44.944  27.747  34.308  1.00  0.00     0.064 A 
ATOM     62  C   UNL A   1      46.124  28.504  34.254  1.00  0.00     0.173 A 
ATOM     63  C   UNL A   1      44.944  26.587  35.096  1.00  0.00     0.173 A 
ATOM     64  F   UNL A   1      46.181  29.612  33.500  1.00  0.00    -0.203 F 
ATOM     65  C   UNL A   1      47.267  28.098  34.938  1.00  0.00     0.198 A 
ATOM     66  C   UNL A   1      46.078  26.202  35.806  1.00  0.00     0.198 A 
ATOM     67  F   UNL A   1      43.840  25.830  35.186  1.00  0.00    -0.203 F 
ATOM     68  F   UNL A   1      48.399  28.807  34.827  1.00  0.00    -0.200 F 
ATOM     69  C   UNL A   1      47.241  26.952  35.719  1.00  0.00     0.200 A 
ATOM     70  F   UNL A   1      46.046  25.102  36.569  1.00  0.00    -0.200 F 
ATOM     71  F   UNL A   1      48.339  26.566  36.381  1.00  0.00    -0.200 F 
ENDBRANCH  38  61
ENDBRANCH  12  13
ENDBRANCH   5   7
ENDBRANCH   2   3
ENDBRANCH   1   2
BRANCH   1  72
ATOM     72  C   UNL A   1      33.984  26.668  25.344  1.00  0.00     0.118 C 
BRANCH  72  73
ATOM     73  N   UNL A   1      33.717  25.876  24.150  1.00  0.00    -0.352 N 
ATOM     74  C   UNL A   1      33.225  24.601  24.018  1.00  0.00     0.252 C 
ATOM     75  H   UNL A   1      33.924  26.328  23.302  1.00  0.00     0.163 HD
ATOM     76  O   UNL A   1      33.133  24.094  22.904  1.00  0.00    -0.269 OA
BRANCH  74  77
ATOM     77  C   UNL A   1      32.789  23.857  25.217  1.00  0.00     0.052 A 
ATOM     78  C   UNL A   1      31.432  23.922  25.555  1.00  0.00     0.055 A 
ATOM     79  C   UNL A   1      33.681  23.069  25.966  1.00  0.00     0.013 A 
ATOM     80  C   UNL A   1      31.027  23.289  26.706  1.00  0.00     0.129 A 
ATOM     81  C   UNL A   1      33.133  22.469  27.102  1.00  0.00     0.122 A 
ATOM     82  Cl  UNL A   1      29.408  23.408  27.251  1.00  0.00    -0.062 Cl
ATOM     83  N   UNL A   1      31.843  22.577  27.501  1.00  0.00    -0.244 NA
BRANCH  79  84
ATOM     84  C   UNL A   1      35.092  22.827  25.626  1.00  0.00    -0.015 A 
ATOM     85  C   UNL A   1      35.421  21.896  24.623  1.00  0.00     0.009 A 
ATOM     86  C   UNL A   1      36.145  23.483  26.286  1.00  0.00     0.021 A 
ATOM     87  C   UNL A   1      36.749  21.623  24.294  1.00  0.00     0.001 A 
ATOM     88  C   UNL A   1      37.489  23.225  25.957  1.00  0.00     0.056 A 
ATOM     89  C   UNL A   1      37.778  22.282  24.958  1.00  0.00     0.013 A 
BRANCH  88  90
ATOM     90  C   UNL A   1      38.618  23.937  26.659  1.00  0.00     0.416 C 
ATOM     91  F   UNL A   1      39.569  23.075  27.116  1.00  0.00    -0.166 F 
ATOM     92  F   UNL A   1      39.269  24.817  25.850  1.00  0.00    -0.166 F 
ATOM     93  F   UNL A   1      38.216  24.656  27.746  1.00  0.00    -0.166 F 
ENDBRANCH  88  90
ENDBRANCH  79  84
ENDBRANCH  74  77
ENDBRANCH  72  73
ENDBRANCH   1  72
TORSDOF 12
ENDMDL
MODEL 2
REMARK VINA RESULT:     -11.7      3.099      4.439
REMARK SMILES O=C(NCCCNC(=O)c1cc(Cl)ncc1-c1cccc(C(F)(F)F)c1)c1ccc(-c2c3nc(c(-c4c(F)c(F)c(F)c(F)c4F)c4ccc([nH]4)c(-c4c(F)c(F)c(F)c(F)c4F)c4nc(c(-c5c(F)c(F)c(F)c(F)c5F)c5ccc2[nH]5)C=C4)C=C3)cc1
REMARK SMILES IDX 5 1 4 2 3 3 1 4 2 5 27 7 28 8 89 9 29 10 88 11 30 12 31 13
REMARK SMILES IDX 32 14 82 15 33 16 87 17 81 18 83 19 34 20 86 21 80 22 79 23
REMARK SMILES IDX 35 25 67 26 47 27 66 28 48 29 51 30 65 31 84 32 49 33 50 34
REMARK SMILES IDX 64 36 85 37 52 38 36 39 37 40 45 41 38 42 39 43 43 44 46 45
REMARK SMILES IDX 40 46 41 47 44 48 42 49 68 50 69 51 77 52 70 53 71 54 75 55
REMARK SMILES IDX 78 56 72 57 73 58 76 59 74 60 53 61 54 62 62 63 55 64 56 65
REMARK SMILES IDX 60 66 63 67 57 68 58 69 61 70 59 71 6 72 7 73 8 74 9 76
REMARK SMILES IDX 10 77 11 78 16 79 12 80 15 81 13 82 14 83 17 84 18 85 26 86
REMARK SMILES IDX 19 87 21 88 20 89 22 90 23 91 24 92 25 93
REMARK H PARENT 3 6 83 24 51 35 7 75
REMARK Flexibility Score: inf
ROOT
ATOM      1  C   UNL A   1      31.669  29.356  26.428  1.00  0.00     0.042 C 
ENDROOT
BRANCH   1   2
ATOM      2  C   UNL A   1      32.768  30.304  25.974  1.00  0.00     0.118 C 
BRANCH   2   3
ATOM      3  N   UNL A   1      32.530  31.685  26.377  1.00  0.00    -0.352 N 
ATOM      4  O   UNL A   1      32.672  33.551  27.626  1.00  0.00    -0.269 OA
ATOM      5  C   UNL A   1      33.147  32.459  27.329  1.00  0.00     0.251 C 
ATOM      6  H   UNL A   1      31.807  32.137  25.886  1.00  0.00     0.163 HD
BRANCH   5   7
ATOM      7  C   UNL A   1      34.367  31.981  28.015  1.00  0.00     0.039 A 
ATOM      8  C   UNL A   1      34.440  30.685  28.525  1.00  0.00     0.014 A 
ATOM      9  C   UNL A   1      35.471  32.833  28.123  1.00  0.00     0.014 A 
ATOM     10  C   UNL A   1      35.532  30.302  29.293  1.00  0.00     0.010 A 
ATOM     11  C   UNL A   1      36.618  32.406  28.799  1.00  0.00     0.010 A 
ATOM     12  C   UNL A   1      36.645  31.148  29.420  1.00  0.00    -0.014 A 
BRANCH  12  13
ATOM     13  C   UNL A   1      37.845  30.659  30.145  1.00  0.00     0.031 A 
ATOM     14  C   UNL A   1      38.117  31.058  31.567  1.00  0.00     0.074 A 
ATOM     15  C   UNL A   1      38.678  29.813  29.507  1.00  0.00     0.049 A 
ATOM     16  N   UNL A   1      39.108  30.704  32.347  1.00  0.00    -0.248 NA
ATOM     17  C   UNL A   1      37.159  31.979  32.197  1.00  0.00     0.031 C 
ATOM     18  C   UNL A   1      38.521  29.363  28.122  1.00  0.00     0.029 A 
ATOM     19  N   UNL A   1      39.808  29.165  29.938  1.00  0.00    -0.354 N 
ATOM     20  C   UNL A   1      38.905  31.369  33.549  1.00  0.00     0.074 A 
ATOM     21  C   UNL A   1      37.710  32.172  33.388  1.00  0.00     0.031 C 
ATOM     22  C   UNL A   1      39.485  28.478  27.832  1.00  0.00     0.029 A 
ATOM     23  C   UNL A   1      40.370  28.353  28.984  1.00  0.00     0.049 A 
ATOM     24  H   UNL A   1      40.180  29.273  30.843  1.00  0.00     0.167 HD
ATOM     25  C   UNL A   1      39.644  31.306  34.683  1.00  0.00     0.037 A 
ATOM     26  C   UNL A   1      41.488  27.607  29.021  1.00  0.00     0.037 A 
ATOM     27  C   UNL A   1      40.826  30.495  34.837  1.00  0.00     0.049 A 
ATOM     28  C   UNL A   1      42.305  27.586  30.279  1.00  0.00     0.074 A 
ATOM     29  C   UNL A   1      41.623  30.335  35.958  1.00  0.00     0.029 A 
ATOM     30  N   UNL A   1      41.385  29.713  33.836  1.00  0.00    -0.354 N 
ATOM     31  N   UNL A   1      42.081  28.189  31.421  1.00  0.00    -0.248 NA
ATOM     32  C   UNL A   1      43.534  26.783  30.254  1.00  0.00     0.031 C 
ATOM     33  C   UNL A   1      42.694  29.502  35.619  1.00  0.00     0.029 A 
ATOM     34  C   UNL A   1      42.533  29.091  34.305  1.00  0.00     0.049 A 
ATOM     35  H   UNL A   1      41.020  29.613  32.927  1.00  0.00     0.167 HD
ATOM     36  C   UNL A   1      43.127  27.825  32.256  1.00  0.00     0.074 A 
ATOM     37  C   UNL A   1      43.974  26.929  31.496  1.00  0.00     0.031 C 
ATOM     38  C   UNL A   1      43.367  28.203  33.535  1.00  0.00     0.037 A 
BRANCH  25  39
ATOM     39  C   UNL A   1      39.213  32.152  35.848  1.00  0.00     0.064 A 
ATOM     40  C   UNL A   1      38.320  31.675  36.820  1.00  0.00     0.173 A 
ATOM     41  C   UNL A   1      39.740  33.441  36.023  1.00  0.00     0.173 A 
ATOM     42  F   UNL A   1      37.778  30.454  36.697  1.00  0.00    -0.203 F 
ATOM     43  C   UNL A   1      37.954  32.464  37.908  1.00  0.00     0.198 A 
ATOM     44  C   UNL A   1      39.395  34.217  37.128  1.00  0.00     0.198 A 
ATOM     45  F   UNL A   1      40.605  33.945  35.129  1.00  0.00    -0.203 F 
ATOM     46  F   UNL A   1      37.066  32.003  38.800  1.00  0.00    -0.200 F 
ATOM     47  C   UNL A   1      38.498  33.730  38.066  1.00  0.00     0.200 A 
ATOM     48  F   UNL A   1      39.933  35.433  37.285  1.00  0.00    -0.200 F 
ATOM     49  F   UNL A   1      38.151  34.484  39.118  1.00  0.00    -0.200 F 
ENDBRANCH  25  39
BRANCH  26  50
ATOM     50  C   UNL A   1      41.898  26.832  27.821  1.00  0.00     0.064 A 
ATOM     51  C   UNL A   1      42.693  27.410  26.823  1.00  0.00     0.173 A 
ATOM     52  C   UNL A   1      41.512  25.494  27.654  1.00  0.00     0.173 A 
ATOM     53  F   UNL A   1      43.074  28.692  26.928  1.00  0.00    -0.203 F 
ATOM     54  C   UNL A   1      43.071  26.685  25.695  1.00  0.00     0.198 A 
ATOM     55  C   UNL A   1      41.917  24.759  26.543  1.00  0.00     0.198 A 
ATOM     56  F   UNL A   1      40.755  24.891  28.585  1.00  0.00    -0.203 F 
ATOM     57  F   UNL A   1      43.794  27.274  24.733  1.00  0.00    -0.200 F 
ATOM     58  C   UNL A   1      42.689  25.358  25.560  1.00  0.00     0.200 A 
ATOM     59  F   UNL A   1      41.563  23.473  26.428  1.00  0.00    -0.200 F 
ATOM     60  F   UNL A   1      43.061  24.659  24.480  1.00  0.00    -0.200 F 
ENDBRANCH  26  50
BRANCH  38  61
ATOM     61  C   UNL A   1      44.579  27.620  34.203  1.00  0.00     0.064 A 
ATOM     62  C   UNL A   1      45.815  28.283  34.192  1.00  0.00     0.173 A 
ATOM     63  C   UNL A   1      44.496  26.395  34.880  1.00  0.00     0.173 A 
ATOM     64  F   UNL A   1      45.951  29.449  33.543  1.00  0.00    -0.203 F 
ATOM     65  C   UNL A   1      46.931  27.725  34.811  1.00  0.00     0.198 A 
ATOM     66  C   UNL A   1      45.606  25.856  35.526  1.00  0.00     0.198 A 
ATOM     67  F   UNL A   1      43.336  25.722  34.924  1.00  0.00    -0.203 F 
ATOM     68  F   UNL A   1      48.116  28.350  34.741  1.00  0.00    -0.200 F 
ATOM     69  C   UNL A   1      46.824  26.517  35.483  1.00  0.00     0.200 A 
ATOM     70  F   UNL A   1      45.496  24.695  36.185  1.00  0.00    -0.200 F 
ATOM     71  F   UNL A   1      47.897  25.984  36.082  1.00  0.00    -0.200 F 
ENDBRANCH  38  61
ENDBRANCH  12  13
ENDBRANCH   5   7
ENDBRANCH   2   3
ENDBRANCH   1   2
BRANCH   1  72
ATOM     72  C   UNL A   1      32.168  27.973  26.813  1.00  0.00     0.118 C 
BRANCH  72  73
ATOM     73  N   UNL A   1      31.096  26.989  26.896  1.00  0.00    -0.352 N 
ATOM     74  C   UNL A   1      30.616  26.112  25.954  1.00  0.00     0.252 C 
ATOM     75  H   UNL A   1      30.643  26.947  27.768  1.00  0.00     0.163 HD
ATOM     76  O   UNL A   1      29.651  25.401  26.217  1.00  0.00    -0.269 OA
BRANCH  74  77
ATOM     77  C   UNL A   1      31.278  26.017  24.638  1.00  0.00     0.052 A 
ATOM     78  C   UNL A   1      32.347  25.120  24.521  1.00  0.00     0.055 A 
ATOM     79  C   UNL A   1      30.830  26.752  23.527  1.00  0.00     0.013 A 
ATOM     80  C   UNL A   1      33.014  25.072  23.320  1.00  0.00     0.129 A 
ATOM     81  C   UNL A   1      31.591  26.596  22.365  1.00  0.00     0.122 A 
ATOM     82  Cl  UNL A   1      34.399  24.082  23.124  1.00  0.00    -0.062 Cl
ATOM     83  N   UNL A   1      32.678  25.798  22.242  1.00  0.00    -0.244 NA
BRANCH  79  84
ATOM     84  C   UNL A   1      29.642  27.620  23.506  1.00  0.00    -0.015 A 
ATOM     85  C   UNL A   1      28.356  27.048  23.545  1.00  0.00     0.009 A 
ATOM     86  C   UNL A   1      29.739  29.019  23.425  1.00  0.00     0.021 A 
ATOM     87  C   UNL A   1      27.209  27.841  23.500  1.00  0.00     0.001 A 
ATOM     88  C   UNL A   1      28.589  29.831  23.389  1.00  0.00     0.056 A 
ATOM     89  C   UNL A   1      27.323  29.224  23.420  1.00  0.00     0.013 A 
BRANCH  88  90
ATOM     90  C   UNL A   1      28.693  31.333  23.314  1.00  0.00     0.416 C 
ATOM     91  F   UNL A   1      27.490  31.946  23.501  1.00  0.00    -0.166 F 
ATOM     92  F   UNL A   1      29.526  31.852  24.257  1.00  0.00    -0.166 F 
ATOM     93  F   UNL A   1      29.157  31.787  22.115  1.00  0.00    -0.166 F 
ENDBRANCH  88  90
ENDBRANCH  79  84
ENDBRANCH  74  77
ENDBRANCH  72  73
ENDBRANCH   1  72
TORSDOF 12
ENDMDL
MODEL 3
REMARK VINA RESULT:     -11.7      2.752      3.814
REMARK SMILES O=C(NCCCNC(=O)c1cc(Cl)ncc1-c1cccc(C(F)(F)F)c1)c1ccc(-c2c3nc(c(-c4c(F)c(F)c(F)c(F)c4F)c4ccc([nH]4)c(-c4c(F)c(F)c(F)c(F)c4F)c4nc(c(-c5c(F)c(F)c(F)c(F)c5F)c5ccc2[nH]5)C=C4)C=C3)cc1
REMARK SMILES IDX 5 1 4 2 3 3 1 4 2 5 27 7 28 8 89 9 29 10 88 11 30 12 31 13
REMARK SMILES IDX 32 14 82 15 33 16 87 17 81 18 83 19 34 20 86 21 80 22 79 23
REMARK SMILES IDX 35 25 67 26 47 27 66 28 48 29 51 30 65 31 84 32 49 33 50 34
REMARK SMILES IDX 64 36 85 37 52 38 36 39 37 40 45 41 38 42 39 43 43 44 46 45
REMARK SMILES IDX 40 46 41 47 44 48 42 49 68 50 69 51 77 52 70 53 71 54 75 55
REMARK SMILES IDX 78 56 72 57 73 58 76 59 74 60 53 61 54 62 62 63 55 64 56 65
REMARK SMILES IDX 60 66 63 67 57 68 58 69 61 70 59 71 6 72 7 73 8 74 9 76
REMARK SMILES IDX 10 77 11 78 16 79 12 80 15 81 13 82 14 83 17 84 18 85 26 86
REMARK SMILES IDX 19 87 21 88 20 89 22 90 23 91 24 92 25 93
REMARK H PARENT 3 6 83 24 51 35 7 75
REMARK Flexibility Score: inf
ROOT
ATOM      1  C   UNL A   1      33.157  29.483  25.381  1.00  0.00     0.042 C 
ENDROOT
BRANCH   1   2
ATOM      2  C   UNL A   1      32.366  30.025  26.562  1.00  0.00     0.118 C 
BRANCH   2   3
ATOM      3  N   UNL A   1      32.348  31.482  26.615  1.00  0.00    -0.352 N 
ATOM      4  O   UNL A   1      32.858  33.553  27.332  1.00  0.00    -0.269 OA
ATOM      5  C   UNL A   1      33.158  32.363  27.290  1.00  0.00     0.251 C 
ATOM      6  H   UNL A   1      31.639  31.903  26.079  1.00  0.00     0.163 HD
BRANCH   5   7
ATOM      7  C   UNL A   1      34.375  31.889  27.983  1.00  0.00     0.039 A 
ATOM      8  C   UNL A   1      34.436  30.607  28.528  1.00  0.00     0.014 A 
ATOM      9  C   UNL A   1      35.489  32.732  28.063  1.00  0.00     0.014 A 
ATOM     10  C   UNL A   1      35.527  30.233  29.301  1.00  0.00     0.010 A 
ATOM     11  C   UNL A   1      36.634  32.310  28.746  1.00  0.00     0.010 A 
ATOM     12  C   UNL A   1      36.650  31.069  29.401  1.00  0.00    -0.014 A 
BRANCH  12  13
ATOM     13  C   UNL A   1      37.847  30.586  30.133  1.00  0.00     0.031 A 
ATOM     14  C   UNL A   1      38.117  31.002  31.551  1.00  0.00     0.074 A 
ATOM     15  C   UNL A   1      38.680  29.731  29.507  1.00  0.00     0.049 A 
ATOM     16  N   UNL A   1      39.107  30.655  32.337  1.00  0.00    -0.248 NA
ATOM     17  C   UNL A   1      37.160  31.932  32.169  1.00  0.00     0.031 C 
ATOM     18  C   UNL A   1      38.524  29.265  28.128  1.00  0.00     0.029 A 
ATOM     19  N   UNL A   1      39.808  29.087  29.948  1.00  0.00    -0.354 N 
ATOM     20  C   UNL A   1      38.902  31.334  33.531  1.00  0.00     0.074 A 
ATOM     21  C   UNL A   1      37.709  32.138  33.358  1.00  0.00     0.031 C 
ATOM     22  C   UNL A   1      39.487  28.375  27.850  1.00  0.00     0.029 A 
ATOM     23  C   UNL A   1      40.370  28.263  29.005  1.00  0.00     0.049 A 
ATOM     24  H   UNL A   1      40.178  29.204  30.852  1.00  0.00     0.167 HD
ATOM     25  C   UNL A   1      39.638  31.283  34.667  1.00  0.00     0.037 A 
ATOM     26  C   UNL A   1      41.487  27.515  29.052  1.00  0.00     0.037 A 
ATOM     27  C   UNL A   1      40.819  30.472  34.833  1.00  0.00     0.049 A 
ATOM     28  C   UNL A   1      42.301  27.507  30.313  1.00  0.00     0.074 A 
ATOM     29  C   UNL A   1      41.613  30.323  35.957  1.00  0.00     0.029 A 
ATOM     30  N   UNL A   1      41.379  29.677  33.843  1.00  0.00    -0.354 N 
ATOM     31  N   UNL A   1      42.076  28.123  31.447  1.00  0.00    -0.248 NA
ATOM     32  C   UNL A   1      43.528  26.701  30.299  1.00  0.00     0.031 C 
ATOM     33  C   UNL A   1      42.683  29.484  35.630  1.00  0.00     0.029 A 
ATOM     34  C   UNL A   1      42.524  29.059  34.321  1.00  0.00     0.049 A 
ATOM     35  H   UNL A   1      41.015  29.567  32.934  1.00  0.00     0.167 HD
ATOM     36  C   UNL A   1      43.120  27.768  32.288  1.00  0.00     0.074 A 
ATOM     37  C   UNL A   1      43.966  26.861  31.540  1.00  0.00     0.031 C 
ATOM     38  C   UNL A   1      43.358  28.160  33.563  1.00  0.00     0.037 A 
BRANCH  25  39
ATOM     39  C   UNL A   1      39.207  32.144  35.822  1.00  0.00     0.064 A 
ATOM     40  C   UNL A   1      38.317  31.677  36.801  1.00  0.00     0.173 A 
ATOM     41  C   UNL A   1      39.731  33.436  35.978  1.00  0.00     0.173 A 
ATOM     42  F   UNL A   1      37.778  30.453  36.695  1.00  0.00    -0.203 F 
ATOM     43  C   UNL A   1      37.950  32.480  37.879  1.00  0.00     0.198 A 
ATOM     44  C   UNL A   1      39.386  34.226  37.073  1.00  0.00     0.198 A 
ATOM     45  F   UNL A   1      40.593  33.931  35.077  1.00  0.00    -0.203 F 
ATOM     46  F   UNL A   1      37.065  32.028  38.778  1.00  0.00    -0.200 F 
ATOM     47  C   UNL A   1      38.491  33.750  38.019  1.00  0.00     0.200 A 
ATOM     48  F   UNL A   1      39.920  35.446  37.213  1.00  0.00    -0.200 F 
ATOM     49  F   UNL A   1      38.144  34.517  39.061  1.00  0.00    -0.200 F 
ENDBRANCH  25  39
BRANCH  26  50
ATOM     50  C   UNL A   1      41.897  26.725  27.863  1.00  0.00     0.064 A 
ATOM     51  C   UNL A   1      41.386  25.441  27.635  1.00  0.00     0.173 A 
ATOM     52  C   UNL A   1      42.801  27.243  26.923  1.00  0.00     0.173 A 
ATOM     53  F   UNL A   1      40.532  24.894  28.512  1.00  0.00    -0.203 F 
ATOM     54  C   UNL A   1      41.777  24.698  26.523  1.00  0.00     0.198 A 
ATOM     55  C   UNL A   1      43.166  26.515  25.795  1.00  0.00     0.198 A 
ATOM     56  F   UNL A   1      43.315  28.472  27.092  1.00  0.00    -0.203 F 
ATOM     57  F   UNL A   1      41.309  23.455  26.351  1.00  0.00    -0.200 F 
ATOM     58  C   UNL A   1      42.661  25.239  25.600  1.00  0.00     0.200 A 
ATOM     59  F   UNL A   1      44.004  27.049  24.897  1.00  0.00    -0.200 F 
ATOM     60  F   UNL A   1      43.030  24.528  24.527  1.00  0.00    -0.200 F 
ENDBRANCH  26  50
BRANCH  38  61
ATOM     61  C   UNL A   1      44.567  27.583  34.240  1.00  0.00     0.064 A 
ATOM     62  C   UNL A   1      45.808  28.238  34.215  1.00  0.00     0.173 A 
ATOM     63  C   UNL A   1      44.478  26.371  34.941  1.00  0.00     0.173 A 
ATOM     64  F   UNL A   1      45.949  29.390  33.543  1.00  0.00    -0.203 F 
ATOM     65  C   UNL A   1      46.921  27.685  34.842  1.00  0.00     0.198 A 
ATOM     66  C   UNL A   1      45.586  25.838  35.595  1.00  0.00     0.198 A 
ATOM     67  F   UNL A   1      43.314  25.707  35.000  1.00  0.00    -0.203 F 
ATOM     68  F   UNL A   1      48.109  28.301  34.758  1.00  0.00    -0.200 F 
ATOM     69  C   UNL A   1      46.808  26.491  35.538  1.00  0.00     0.200 A 
ATOM     70  F   UNL A   1      45.470  24.691  36.277  1.00  0.00    -0.200 F 
ATOM     71  F   UNL A   1      47.879  25.963  36.145  1.00  0.00    -0.200 F 
ENDBRANCH  38  61
ENDBRANCH  12  13
ENDBRANCH   5   7
ENDBRANCH   2   3
ENDBRANCH   1   2
BRANCH   1  72
ATOM     72  C   UNL A   1      33.864  28.168  25.664  1.00  0.00     0.118 C 
BRANCH  72  73
ATOM     73  N   UNL A   1      33.035  27.232  26.413  1.00  0.00    -0.352 N 
ATOM     74  C   UNL A   1      32.542  26.000  26.062  1.00  0.00     0.252 C 
ATOM     75  H   UNL A   1      32.789  27.532  27.317  1.00  0.00     0.163 HD
ATOM     76  O   UNL A   1      31.803  25.394  26.833  1.00  0.00    -0.269 OA
BRANCH  74  77
ATOM     77  C   UNL A   1      32.922  25.401  24.767  1.00  0.00     0.052 A 
ATOM     78  C   UNL A   1      34.055  24.578  24.747  1.00  0.00     0.055 A 
ATOM     79  C   UNL A   1      32.156  25.599  23.605  1.00  0.00     0.013 A 
ATOM     80  C   UNL A   1      34.457  24.070  23.535  1.00  0.00     0.129 A 
ATOM     81  C   UNL A   1      32.672  25.013  22.446  1.00  0.00     0.122 A 
ATOM     82  Cl  UNL A   1      35.892  23.144  23.404  1.00  0.00    -0.062 Cl
ATOM     83  N   UNL A   1      33.808  24.278  22.378  1.00  0.00    -0.244 NA
BRANCH  79  84
ATOM     84  C   UNL A   1      30.883  26.334  23.542  1.00  0.00    -0.015 A 
ATOM     85  C   UNL A   1      29.693  25.710  23.960  1.00  0.00     0.009 A 
ATOM     86  C   UNL A   1      30.801  27.649  23.053  1.00  0.00     0.021 A 
ATOM     87  C   UNL A   1      28.464  26.369  23.889  1.00  0.00     0.001 A 
ATOM     88  C   UNL A   1      29.570  28.328  22.985  1.00  0.00     0.056 A 
ATOM     89  C   UNL A   1      28.402  27.670  23.402  1.00  0.00     0.013 A 
BRANCH  88  90
ATOM     90  C   UNL A   1      29.483  29.743  22.470  1.00  0.00     0.416 C 
ATOM     91  F   UNL A   1      28.334  29.972  21.775  1.00  0.00    -0.166 F 
ATOM     92  F   UNL A   1      29.507  30.670  23.468  1.00  0.00    -0.166 F 
ATOM     93  F   UNL A   1      30.500  30.078  21.625  1.00  0.00    -0.166 F 
ENDBRANCH  88  90
ENDBRANCH  79  84
ENDBRANCH  74  77
ENDBRANCH  72  73
ENDBRANCH   1  72
TORSDOF 12
ENDMDL
