MODEL 1
REMARK VINA RESULT:     -11.8      0.000      0.000
REMARK SMILES COc1cc(OC(F)(F)F)cc2c1O[C@@H](C(F)(F)F)C(C(=O)NCCCNC(=O)c1ccc(-c3c4nc(c(-c5c(F)c(F)c(F)c(F)c5F)c5ccc([nH]5)c(-c5c(F)c(F)c(F)c(F)c5F)c5nc(c(-c6c(F)c(F)c(F)c(F)c6F)c6ccc3[nH]6)C=C5)C=C4)cc1)=C2
REMARK SMILES IDX 25 1 24 2 23 3 21 4 22 5 20 7 3 8 4 9 13 10 5 11 12 12 14 13
REMARK SMILES IDX 11 14 93 15 15 16 2 17 1 18 6 19 7 20 8 21 9 22 10 23 16 24
REMARK SMILES IDX 17 25 18 26 19 27 26 28 27 29 28 30 29 32 30 33 31 34 92 35
REMARK SMILES IDX 32 36 91 37 33 38 34 39 35 40 85 41 36 42 90 43 84 44 86 45
REMARK SMILES IDX 37 46 89 47 83 48 82 49 38 51 70 52 50 53 69 54 51 55 54 56
REMARK SMILES IDX 68 57 87 58 52 59 53 60 67 62 88 63 55 64 39 65 40 66 48 67
REMARK SMILES IDX 41 68 42 69 46 70 49 71 43 72 44 73 47 74 45 75 71 76 72 77
REMARK SMILES IDX 80 78 73 79 74 80 78 81 81 82 75 83 76 84 79 85 77 86 56 87
REMARK SMILES IDX 57 88 65 89 58 90 59 91 63 92 66 93 60 94 61 95 64 96 62 97
REMARK H PARENT 23 6 27 31 86 50 54 61
REMARK Flexibility Score: inf
ROOT
ATOM      1  C   UNL A   1      36.849  23.192  23.735  1.00  0.00     0.042 C 
ENDROOT
BRANCH   1   2
ATOM      2  C   UNL A   1      35.358  23.112  23.398  1.00  0.00     0.118 C 
BRANCH   2   3
ATOM      3  N   UNL A   1      34.619  22.521  24.504  1.00  0.00    -0.352 N 
ATOM      4  C   UNL A   1      33.728  23.028  25.394  1.00  0.00     0.251 C 
ATOM      5  O   UNL A   1      33.386  22.315  26.334  1.00  0.00    -0.270 OA
ATOM      6  H   UNL A   1      34.802  21.563  24.631  1.00  0.00     0.163 HD
BRANCH   4   7
ATOM      7  C   UNL A   1      33.106  24.367  25.240  1.00  0.00     0.067 C 
ATOM      8  C   UNL A   1      31.322  28.080  24.381  1.00  0.00     0.165 A 
ATOM      9  C   UNL A   1      31.938  29.254  24.837  1.00  0.00     0.097 A 
ATOM     10  C   UNL A   1      31.881  26.831  24.681  1.00  0.00     0.170 A 
ATOM     11  C   UNL A   1      33.086  29.194  25.623  1.00  0.00     0.134 A 
ATOM     12  C   UNL A   1      33.026  26.766  25.476  1.00  0.00     0.025 A 
ATOM     13  O   UNL A   1      31.362  25.715  24.092  1.00  0.00    -0.471 OA
ATOM     14  C   UNL A   1      33.618  27.944  25.948  1.00  0.00     0.059 A 
ATOM     15  C   UNL A   1      33.671  25.483  25.720  1.00  0.00     0.026 C 
ATOM     16  C   UNL A   1      31.701  24.414  24.650  1.00  0.00     0.314 C 
BRANCH   8  17
ATOM     17  O   UNL A   1      30.224  28.290  23.587  1.00  0.00    -0.493 OA
ATOM     18  C   UNL A   1      30.477  29.023  22.391  1.00  0.00     0.278 C 
ENDBRANCH   8  17
BRANCH  11  19
ATOM     19  O   UNL A   1      33.797  30.250  26.115  1.00  0.00    -0.406 OA
BRANCH  19  20
ATOM     20  C   UNL A   1      33.451  30.745  27.397  1.00  0.00     0.573 C 
ATOM     21  F   UNL A   1      34.488  30.647  28.256  1.00  0.00    -0.132 F 
ATOM     22  F   UNL A   1      33.039  32.028  27.323  1.00  0.00    -0.132 F 
ATOM     23  F   UNL A   1      32.432  30.002  27.883  1.00  0.00    -0.132 F 
ENDBRANCH  19  20
ENDBRANCH  11  19
BRANCH  16  24
ATOM     24  C   UNL A   1      31.355  23.363  23.570  1.00  0.00     0.429 C 
ATOM     25  F   UNL A   1      31.304  22.105  24.060  1.00  0.00    -0.167 F 
ATOM     26  F   UNL A   1      30.118  23.598  23.053  1.00  0.00    -0.167 F 
ATOM     27  F   UNL A   1      32.223  23.382  22.533  1.00  0.00    -0.167 F 
ENDBRANCH  16  24
ENDBRANCH   4   7
ENDBRANCH   2   3
ENDBRANCH   1   2
BRANCH   1  28
ATOM     28  C   UNL A   1      37.118  23.520  25.202  1.00  0.00     0.118 C 
BRANCH  28  29
ATOM     29  N   UNL A   1      37.993  22.538  25.825  1.00  0.00    -0.352 N 
ATOM     30  C   UNL A   1      39.148  22.724  26.542  1.00  0.00     0.251 C 
ATOM     31  H   UNL A   1      37.713  21.600  25.716  1.00  0.00     0.163 HD
ATOM     32  O   UNL A   1      39.870  21.764  26.794  1.00  0.00    -0.269 OA
BRANCH  30  33
ATOM     33  C   UNL A   1      39.533  24.074  27.005  1.00  0.00     0.039 A 
ATOM     34  C   UNL A   1      39.184  24.470  28.300  1.00  0.00     0.014 A 
ATOM     35  C   UNL A   1      40.196  24.963  26.155  1.00  0.00     0.014 A 
ATOM     36  C   UNL A   1      39.546  25.738  28.761  1.00  0.00     0.010 A 
ATOM     37  C   UNL A   1      40.615  26.200  26.636  1.00  0.00     0.010 A 
ATOM     38  C   UNL A   1      40.289  26.602  27.942  1.00  0.00    -0.014 A 
BRANCH  38  39
ATOM     39  C   UNL A   1      40.730  27.939  28.414  1.00  0.00     0.031 A 
ATOM     40  C   UNL A   1      42.178  28.177  28.739  1.00  0.00     0.074 A 
ATOM     41  C   UNL A   1      39.817  28.904  28.637  1.00  0.00     0.049 A 
ATOM     42  N   UNL A   1      42.742  29.214  29.304  1.00  0.00    -0.248 NA
ATOM     43  C   UNL A   1      43.112  27.089  28.412  1.00  0.00     0.031 C 
ATOM     44  C   UNL A   1      38.381  28.783  28.387  1.00  0.00     0.029 A 
ATOM     45  N   UNL A   1      39.960  30.169  29.147  1.00  0.00    -0.354 N 
ATOM     46  C   UNL A   1      44.089  28.893  29.421  1.00  0.00     0.074 A 
ATOM     47  C   UNL A   1      44.251  27.549  28.910  1.00  0.00     0.031 C 
ATOM     48  C   UNL A   1      37.776  29.928  28.737  1.00  0.00     0.029 A 
ATOM     49  C   UNL A   1      38.773  30.846  29.280  1.00  0.00     0.049 A 
ATOM     50  H   UNL A   1      40.832  30.556  29.395  1.00  0.00     0.167 HD
ATOM     51  C   UNL A   1      45.100  29.658  29.897  1.00  0.00     0.037 A 
ATOM     52  C   UNL A   1      38.516  32.062  29.799  1.00  0.00     0.037 A 
ATOM     53  C   UNL A   1      44.936  31.004  30.379  1.00  0.00     0.049 A 
ATOM     54  C   UNL A   1      39.655  32.888  30.332  1.00  0.00     0.074 A 
ATOM     55  C   UNL A   1      45.903  31.883  30.835  1.00  0.00     0.029 A 
ATOM     56  N   UNL A   1      43.720  31.667  30.467  1.00  0.00    -0.354 N 
ATOM     57  N   UNL A   1      40.931  32.595  30.395  1.00  0.00    -0.248 NA
ATOM     58  C   UNL A   1      39.320  34.216  30.864  1.00  0.00     0.031 C 
ATOM     59  C   UNL A   1      45.268  33.061  31.241  1.00  0.00     0.029 A 
ATOM     60  C   UNL A   1      43.911  32.938  30.986  1.00  0.00     0.049 A 
ATOM     61  H   UNL A   1      42.850  31.291  30.200  1.00  0.00     0.167 HD
ATOM     62  C   UNL A   1      41.554  33.712  30.934  1.00  0.00     0.074 A 
ATOM     63  C   UNL A   1      40.517  34.691  31.178  1.00  0.00     0.031 C 
ATOM     64  C   UNL A   1      42.869  33.908  31.201  1.00  0.00     0.037 A 
BRANCH  51  65
ATOM     65  C   UNL A   1      46.476  29.056  29.925  1.00  0.00     0.064 A 
ATOM     66  C   UNL A   1      47.354  29.172  28.835  1.00  0.00     0.173 A 
ATOM     67  C   UNL A   1      46.937  28.387  31.068  1.00  0.00     0.173 A 
ATOM     68  F   UNL A   1      46.959  29.792  27.714  1.00  0.00    -0.203 F 
ATOM     69  C   UNL A   1      48.628  28.612  28.878  1.00  0.00     0.198 A 
ATOM     70  C   UNL A   1      48.225  27.857  31.120  1.00  0.00     0.198 A 
ATOM     71  F   UNL A   1      46.144  28.253  32.141  1.00  0.00    -0.203 F 
ATOM     72  F   UNL A   1      49.428  28.691  27.806  1.00  0.00    -0.200 F 
ATOM     73  C   UNL A   1      49.065  27.963  30.023  1.00  0.00     0.200 A 
ATOM     74  F   UNL A   1      48.650  27.243  32.232  1.00  0.00    -0.200 F 
ATOM     75  F   UNL A   1      50.295  27.432  30.065  1.00  0.00    -0.200 F 
ENDBRANCH  51  65
BRANCH  52  76
ATOM     76  C   UNL A   1      37.122  32.579  29.825  1.00  0.00     0.064 A 
ATOM     77  C   UNL A   1      36.624  33.355  28.769  1.00  0.00     0.173 A 
ATOM     78  C   UNL A   1      36.260  32.308  30.899  1.00  0.00     0.173 A 
ATOM     79  F   UNL A   1      37.416  33.656  27.729  1.00  0.00    -0.203 F 
ATOM     80  C   UNL A   1      35.326  33.860  28.796  1.00  0.00     0.198 A 
ATOM     81  C   UNL A   1      34.953  32.790  30.910  1.00  0.00     0.198 A 
ATOM     82  F   UNL A   1      36.685  31.565  31.930  1.00  0.00    -0.203 F 
ATOM     83  F   UNL A   1      34.892  34.638  27.795  1.00  0.00    -0.200 F 
ATOM     84  C   UNL A   1      34.489  33.572  29.863  1.00  0.00     0.200 A 
ATOM     85  F   UNL A   1      34.142  32.495  31.936  1.00  0.00    -0.200 F 
ATOM     86  F   UNL A   1      33.239  34.053  29.887  1.00  0.00    -0.200 F 
ENDBRANCH  52  76
BRANCH  64  87
ATOM     87  C   UNL A   1      43.273  35.253  31.730  1.00  0.00     0.064 A 
ATOM     88  C   UNL A   1      43.685  36.290  30.880  1.00  0.00     0.173 A 
ATOM     89  C   UNL A   1      43.189  35.524  33.104  1.00  0.00     0.173 A 
ATOM     90  F   UNL A   1      43.796  36.077  29.560  1.00  0.00    -0.203 F 
ATOM     91  C   UNL A   1      44.018  37.542  31.390  1.00  0.00     0.198 A 
ATOM     92  C   UNL A   1      43.494  36.785  33.607  1.00  0.00     0.198 A 
ATOM     93  F   UNL A   1      42.793  34.568  33.959  1.00  0.00    -0.203 F 
ATOM     94  F   UNL A   1      44.449  38.506  30.564  1.00  0.00    -0.200 F 
ATOM     95  C   UNL A   1      43.913  37.792  32.751  1.00  0.00     0.200 A 
ATOM     96  F   UNL A   1      43.377  37.028  34.920  1.00  0.00    -0.200 F 
ATOM     97  F   UNL A   1      44.222  39.002  33.237  1.00  0.00    -0.200 F 
ENDBRANCH  64  87
ENDBRANCH  38  39
ENDBRANCH  30  33
ENDBRANCH  28  29
ENDBRANCH   1  28
TORSDOF 14
ENDMDL
MODEL 2
REMARK VINA RESULT:     -11.8      3.111      8.317
REMARK SMILES COc1cc(OC(F)(F)F)cc2c1O[C@@H](C(F)(F)F)C(C(=O)NCCCNC(=O)c1ccc(-c3c4nc(c(-c5c(F)c(F)c(F)c(F)c5F)c5ccc([nH]5)c(-c5c(F)c(F)c(F)c(F)c5F)c5nc(c(-c6c(F)c(F)c(F)c(F)c6F)c6ccc3[nH]6)C=C5)C=C4)cc1)=C2
REMARK SMILES IDX 25 1 24 2 23 3 21 4 22 5 20 7 3 8 4 9 13 10 5 11 12 12 14 13
REMARK SMILES IDX 11 14 93 15 15 16 2 17 1 18 6 19 7 20 8 21 9 22 10 23 16 24
REMARK SMILES IDX 17 25 18 26 19 27 26 28 27 29 28 30 29 32 30 33 31 34 92 35
REMARK SMILES IDX 32 36 91 37 33 38 34 39 35 40 85 41 36 42 90 43 84 44 86 45
REMARK SMILES IDX 37 46 89 47 83 48 82 49 38 51 70 52 50 53 69 54 51 55 54 56
REMARK SMILES IDX 68 57 87 58 52 59 53 60 67 62 88 63 55 64 39 65 40 66 48 67
REMARK SMILES IDX 41 68 42 69 46 70 49 71 43 72 44 73 47 74 45 75 71 76 72 77
REMARK SMILES IDX 80 78 73 79 74 80 78 81 81 82 75 83 76 84 79 85 77 86 56 87
REMARK SMILES IDX 57 88 65 89 58 90 59 91 63 92 66 93 60 94 61 95 64 96 62 97
REMARK H PARENT 23 6 27 31 86 50 54 61
REMARK Flexibility Score: inf
ROOT
ATOM      1  C   UNL A   1      39.378  21.426  26.306  1.00  0.00     0.042 C 
ENDROOT
BRANCH   1   2
ATOM      2  C   UNL A   1      38.236  22.431  26.134  1.00  0.00     0.118 C 
BRANCH   2   3
ATOM      3  N   UNL A   1      37.866  22.544  24.732  1.00  0.00    -0.352 N 
ATOM      4  C   UNL A   1      36.699  22.847  24.106  1.00  0.00     0.251 C 
ATOM      5  O   UNL A   1      36.648  22.705  22.887  1.00  0.00    -0.270 OA
ATOM      6  H   UNL A   1      38.610  22.366  24.113  1.00  0.00     0.163 HD
BRANCH   4   7
ATOM      7  C   UNL A   1      35.522  23.401  24.820  1.00  0.00     0.067 C 
ATOM      8  C   UNL A   1      31.949  24.676  26.641  1.00  0.00     0.165 A 
ATOM      9  C   UNL A   1      31.593  26.030  26.570  1.00  0.00     0.097 A 
ATOM     10  C   UNL A   1      33.149  24.233  26.068  1.00  0.00     0.170 A 
ATOM     11  C   UNL A   1      32.441  26.955  25.966  1.00  0.00     0.134 A 
ATOM     12  C   UNL A   1      34.005  25.159  25.472  1.00  0.00     0.025 A 
ATOM     13  O   UNL A   1      33.396  22.893  26.004  1.00  0.00    -0.471 OA
ATOM     14  C   UNL A   1      33.652  26.513  25.429  1.00  0.00     0.059 A 
ATOM     15  C   UNL A   1      35.211  24.704  24.793  1.00  0.00     0.026 C 
ATOM     16  C   UNL A   1      34.758  22.451  25.735  1.00  0.00     0.314 C 
BRANCH   8  17
ATOM     17  O   UNL A   1      31.004  23.873  27.227  1.00  0.00    -0.493 OA
ATOM     18  C   UNL A   1      30.303  23.016  26.329  1.00  0.00     0.278 C 
ENDBRANCH   8  17
BRANCH  11  19
ATOM     19  O   UNL A   1      32.213  28.292  25.809  1.00  0.00    -0.406 OA
BRANCH  19  20
ATOM     20  C   UNL A   1      32.672  29.168  26.824  1.00  0.00     0.573 C 
ATOM     21  F   UNL A   1      31.647  29.842  27.388  1.00  0.00    -0.132 F 
ATOM     22  F   UNL A   1      33.351  28.492  27.774  1.00  0.00    -0.132 F 
ATOM     23  F   UNL A   1      33.511  30.069  26.267  1.00  0.00    -0.132 F 
ENDBRANCH  19  20
ENDBRANCH  11  19
BRANCH  16  24
ATOM     24  C   UNL A   1      34.666  20.971  25.295  1.00  0.00     0.429 C 
ATOM     25  F   UNL A   1      35.840  20.315  25.414  1.00  0.00    -0.167 F 
ATOM     26  F   UNL A   1      33.792  20.291  26.086  1.00  0.00    -0.167 F 
ATOM     27  F   UNL A   1      34.229  20.836  24.023  1.00  0.00    -0.167 F 
ENDBRANCH  16  24
ENDBRANCH   4   7
ENDBRANCH   2   3
ENDBRANCH   1   2
BRANCH   1  28
ATOM     28  C   UNL A   1      39.216  20.177  25.442  1.00  0.00     0.118 C 
BRANCH  28  29
ATOM     29  N   UNL A   1      40.218  19.169  25.753  1.00  0.00    -0.352 N 
ATOM     30  C   UNL A   1      41.540  19.324  26.089  1.00  0.00     0.251 C 
ATOM     31  H   UNL A   1      39.900  18.238  25.720  1.00  0.00     0.163 HD
ATOM     32  O   UNL A   1      42.285  18.349  26.094  1.00  0.00    -0.269 OA
BRANCH  30  33
ATOM     33  C   UNL A   1      42.075  20.658  26.434  1.00  0.00     0.039 A 
ATOM     34  C   UNL A   1      42.438  21.529  25.402  1.00  0.00     0.014 A 
ATOM     35  C   UNL A   1      42.259  21.034  27.767  1.00  0.00     0.014 A 
ATOM     36  C   UNL A   1      42.936  22.799  25.707  1.00  0.00     0.010 A 
ATOM     37  C   UNL A   1      42.693  22.322  28.070  1.00  0.00     0.010 A 
ATOM     38  C   UNL A   1      43.040  23.215  27.043  1.00  0.00    -0.014 A 
BRANCH  38  39
ATOM     39  C   UNL A   1      43.523  24.572  27.403  1.00  0.00     0.031 A 
ATOM     40  C   UNL A   1      42.555  25.595  27.926  1.00  0.00     0.074 A 
ATOM     41  C   UNL A   1      44.806  24.909  27.170  1.00  0.00     0.049 A 
ATOM     42  N   UNL A   1      42.738  26.871  28.155  1.00  0.00    -0.248 NA
ATOM     43  C   UNL A   1      41.188  25.126  28.203  1.00  0.00     0.031 C 
ATOM     44  C   UNL A   1      45.833  24.012  26.639  1.00  0.00     0.029 A 
ATOM     45  N   UNL A   1      45.460  26.104  27.330  1.00  0.00    -0.354 N 
ATOM     46  C   UNL A   1      41.507  27.359  28.576  1.00  0.00     0.074 A 
ATOM     47  C   UNL A   1      40.575  26.254  28.530  1.00  0.00     0.031 C 
ATOM     48  C   UNL A   1      46.988  24.685  26.523  1.00  0.00     0.029 A 
ATOM     49  C   UNL A   1      46.772  26.072  26.927  1.00  0.00     0.049 A 
ATOM     50  H   UNL A   1      45.030  26.910  27.700  1.00  0.00     0.167 HD
ATOM     51  C   UNL A   1      41.191  28.613  28.979  1.00  0.00     0.037 A 
ATOM     52  C   UNL A   1      47.692  27.054  26.871  1.00  0.00     0.037 A 
ATOM     53  C   UNL A   1      42.130  29.700  29.048  1.00  0.00     0.049 A 
ATOM     54  C   UNL A   1      47.312  28.441  27.314  1.00  0.00     0.074 A 
ATOM     55  C   UNL A   1      41.923  30.995  29.491  1.00  0.00     0.029 A 
ATOM     56  N   UNL A   1      43.460  29.619  28.660  1.00  0.00    -0.354 N 
ATOM     57  N   UNL A   1      46.158  28.882  27.756  1.00  0.00    -0.248 NA
ATOM     58  C   UNL A   1      48.361  29.468  27.255  1.00  0.00     0.031 C 
ATOM     59  C   UNL A   1      43.115  31.709  29.330  1.00  0.00     0.029 A 
ATOM     60  C   UNL A   1      44.080  30.845  28.839  1.00  0.00     0.049 A 
ATOM     61  H   UNL A   1      43.898  28.810  28.311  1.00  0.00     0.167 HD
ATOM     62  C   UNL A   1      46.353  30.221  28.063  1.00  0.00     0.074 A 
ATOM     63  C   UNL A   1      47.737  30.522  27.761  1.00  0.00     0.031 C 
ATOM     64  C   UNL A   1      45.465  31.120  28.554  1.00  0.00     0.037 A 
BRANCH  51  65
ATOM     65  C   UNL A   1      39.766  28.878  29.376  1.00  0.00     0.064 A 
ATOM     66  C   UNL A   1      38.812  29.321  28.447  1.00  0.00     0.173 A 
ATOM     67  C   UNL A   1      39.340  28.650  30.693  1.00  0.00     0.173 A 
ATOM     68  F   UNL A   1      39.169  29.565  27.177  1.00  0.00    -0.203 F 
ATOM     69  C   UNL A   1      37.494  29.557  28.829  1.00  0.00     0.198 A 
ATOM     70  C   UNL A   1      38.013  28.855  31.064  1.00  0.00     0.198 A 
ATOM     71  F   UNL A   1      40.207  28.218  31.621  1.00  0.00    -0.203 F 
ATOM     72  F   UNL A   1      36.614  30.030  27.935  1.00  0.00    -0.200 F 
ATOM     73  C   UNL A   1      37.094  29.317  30.135  1.00  0.00     0.200 A 
ATOM     74  F   UNL A   1      37.625  28.608  32.323  1.00  0.00    -0.200 F 
ATOM     75  F   UNL A   1      35.823  29.537  30.498  1.00  0.00    -0.200 F 
ENDBRANCH  51  65
BRANCH  52  76
ATOM     76  C   UNL A   1      49.068  26.757  26.391  1.00  0.00     0.064 A 
ATOM     77  C   UNL A   1      49.412  26.935  25.043  1.00  0.00     0.173 A 
ATOM     78  C   UNL A   1      50.064  26.294  27.263  1.00  0.00     0.173 A 
ATOM     79  F   UNL A   1      48.488  27.358  24.167  1.00  0.00    -0.203 F 
ATOM     80  C   UNL A   1      50.692  26.641  24.582  1.00  0.00     0.198 A 
ATOM     81  C   UNL A   1      51.352  26.027  26.805  1.00  0.00     0.198 A 
ATOM     82  F   UNL A   1      49.789  26.114  28.562  1.00  0.00    -0.203 F 
ATOM     83  F   UNL A   1      50.980  26.776  23.280  1.00  0.00    -0.200 F 
ATOM     84  C   UNL A   1      51.664  26.193  25.464  1.00  0.00     0.200 A 
ATOM     85  F   UNL A   1      52.293  25.610  27.664  1.00  0.00    -0.200 F 
ATOM     86  F   UNL A   1      52.897  25.914  25.021  1.00  0.00    -0.200 F 
ENDBRANCH  52  76
BRANCH  64  87
ATOM     87  C   UNL A   1      45.973  32.500  28.854  1.00  0.00     0.064 A 
ATOM     88  C   UNL A   1      46.549  32.824  30.091  1.00  0.00     0.173 A 
ATOM     89  C   UNL A   1      45.935  33.495  27.866  1.00  0.00     0.173 A 
ATOM     90  F   UNL A   1      46.597  31.911  31.074  1.00  0.00    -0.203 F 
ATOM     91  C   UNL A   1      47.050  34.100  30.334  1.00  0.00     0.198 A 
ATOM     92  C   UNL A   1      46.463  34.762  28.102  1.00  0.00     0.198 A 
ATOM     93  F   UNL A   1      45.400  33.234  26.663  1.00  0.00    -0.203 F 
ATOM     94  F   UNL A   1      47.560  34.400  31.537  1.00  0.00    -0.200 F 
ATOM     95  C   UNL A   1      47.015  35.064  29.337  1.00  0.00     0.200 A 
ATOM     96  F   UNL A   1      46.441  35.687  27.133  1.00  0.00    -0.200 F 
ATOM     97  F   UNL A   1      47.510  36.288  29.569  1.00  0.00    -0.200 F 
ENDBRANCH  64  87
ENDBRANCH  38  39
ENDBRANCH  30  33
ENDBRANCH  28  29
ENDBRANCH   1  28
TORSDOF 14
ENDMDL
MODEL 3
REMARK VINA RESULT:     -11.7      4.178      8.206
REMARK SMILES COc1cc(OC(F)(F)F)cc2c1O[C@@H](C(F)(F)F)C(C(=O)NCCCNC(=O)c1ccc(-c3c4nc(c(-c5c(F)c(F)c(F)c(F)c5F)c5ccc([nH]5)c(-c5c(F)c(F)c(F)c(F)c5F)c5nc(c(-c6c(F)c(F)c(F)c(F)c6F)c6ccc3[nH]6)C=C5)C=C4)cc1)=C2
REMARK SMILES IDX 25 1 24 2 23 3 21 4 22 5 20 7 3 8 4 9 13 10 5 11 12 12 14 13
REMARK SMILES IDX 11 14 93 15 15 16 2 17 1 18 6 19 7 20 8 21 9 22 10 23 16 24
REMARK SMILES IDX 17 25 18 26 19 27 26 28 27 29 28 30 29 32 30 33 31 34 92 35
REMARK SMILES IDX 32 36 91 37 33 38 34 39 35 40 85 41 36 42 90 43 84 44 86 45
REMARK SMILES IDX 37 46 89 47 83 48 82 49 38 51 70 52 50 53 69 54 51 55 54 56
REMARK SMILES IDX 68 57 87 58 52 59 53 60 67 62 88 63 55 64 39 65 40 66 48 67
REMARK SMILES IDX 41 68 42 69 46 70 49 71 43 72 44 73 47 74 45 75 71 76 72 77
REMARK SMILES IDX 80 78 73 79 74 80 78 81 81 82 75 83 76 84 79 85 77 86 56 87
REMARK SMILES IDX 57 88 65 89 58 90 59 91 63 92 66 93 60 94 61 95 64 96 62 97
REMARK H PARENT 23 6 27 31 86 50 54 61
REMARK Flexibility Score: inf
ROOT
ATOM      1  C   UNL A   1      33.780  32.019  27.492  1.00  0.00     0.042 C 
ENDROOT
BRANCH   1   2
ATOM      2  C   UNL A   1      33.928  30.540  27.127  1.00  0.00     0.118 C 
BRANCH   2   3
ATOM      3  N   UNL A   1      32.795  29.778  27.629  1.00  0.00    -0.352 N 
ATOM      4  C   UNL A   1      32.176  28.650  27.194  1.00  0.00     0.251 C 
ATOM      5  O   UNL A   1      31.125  28.325  27.740  1.00  0.00    -0.270 OA
ATOM      6  H   UNL A   1      32.399  30.154  28.446  1.00  0.00     0.163 HD
BRANCH   4   7
ATOM      7  C   UNL A   1      32.747  27.769  26.145  1.00  0.00     0.067 C 
ATOM      8  C   UNL A   1      33.977  25.261  22.997  1.00  0.00     0.165 A 
ATOM      9  C   UNL A   1      34.649  24.068  23.299  1.00  0.00     0.097 A 
ATOM     10  C   UNL A   1      33.585  26.127  24.027  1.00  0.00     0.170 A 
ATOM     11  C   UNL A   1      34.968  23.748  24.616  1.00  0.00     0.134 A 
ATOM     12  C   UNL A   1      33.912  25.814  25.347  1.00  0.00     0.025 A 
ATOM     13  O   UNL A   1      32.791  27.195  23.727  1.00  0.00    -0.471 OA
ATOM     14  C   UNL A   1      34.607  24.633  25.634  1.00  0.00     0.059 A 
ATOM     15  C   UNL A   1      33.433  26.655  26.435  1.00  0.00     0.026 C 
ATOM     16  C   UNL A   1      32.670  28.266  24.706  1.00  0.00     0.314 C 
BRANCH   8  17
ATOM     17  O   UNL A   1      33.693  25.429  21.666  1.00  0.00    -0.493 OA
ATOM     18  C   UNL A   1      32.529  24.745  21.209  1.00  0.00     0.278 C 
ENDBRANCH   8  17
BRANCH  11  19
ATOM     19  O   UNL A   1      35.598  22.618  25.053  1.00  0.00    -0.406 OA
BRANCH  19  20
ATOM     20  C   UNL A   1      36.994  22.509  24.837  1.00  0.00     0.573 C 
ATOM     21  F   UNL A   1      37.263  22.036  23.601  1.00  0.00    -0.132 F 
ATOM     22  F   UNL A   1      37.603  23.701  25.012  1.00  0.00    -0.132 F 
ATOM     23  F   UNL A   1      37.502  21.640  25.739  1.00  0.00    -0.132 F 
ENDBRANCH  19  20
ENDBRANCH  11  19
BRANCH  16  24
ATOM     24  C   UNL A   1      31.421  29.090  24.312  1.00  0.00     0.429 C 
ATOM     25  F   UNL A   1      31.393  30.309  24.892  1.00  0.00    -0.167 F 
ATOM     26  F   UNL A   1      31.410  29.329  22.972  1.00  0.00    -0.167 F 
ATOM     27  F   UNL A   1      30.267  28.450  24.605  1.00  0.00    -0.167 F 
ENDBRANCH  16  24
ENDBRANCH   4   7
ENDBRANCH   2   3
ENDBRANCH   1   2
BRANCH   1  28
ATOM     28  C   UNL A   1      32.351  32.536  27.343  1.00  0.00     0.118 C 
BRANCH  28  29
ATOM     29  N   UNL A   1      32.261  33.963  27.612  1.00  0.00    -0.352 N 
ATOM     30  C   UNL A   1      32.950  34.729  28.518  1.00  0.00     0.251 C 
ATOM     31  H   UNL A   1      31.609  34.453  27.059  1.00  0.00     0.163 HD
ATOM     32  O   UNL A   1      32.577  35.873  28.757  1.00  0.00    -0.269 OA
BRANCH  30  33
ATOM     33  C   UNL A   1      34.134  34.182  29.214  1.00  0.00     0.039 A 
ATOM     34  C   UNL A   1      33.947  33.445  30.389  1.00  0.00     0.014 A 
ATOM     35  C   UNL A   1      35.424  34.429  28.740  1.00  0.00     0.014 A 
ATOM     36  C   UNL A   1      35.051  32.910  31.058  1.00  0.00     0.010 A 
ATOM     37  C   UNL A   1      36.519  33.841  29.370  1.00  0.00     0.010 A 
ATOM     38  C   UNL A   1      36.344  33.081  30.537  1.00  0.00    -0.014 A 
BRANCH  38  39
ATOM     39  C   UNL A   1      37.535  32.490  31.196  1.00  0.00     0.031 A 
ATOM     40  C   UNL A   1      38.261  31.347  30.543  1.00  0.00     0.074 A 
ATOM     41  C   UNL A   1      37.904  32.918  32.419  1.00  0.00     0.049 A 
ATOM     42  N   UNL A   1      39.222  30.595  31.016  1.00  0.00    -0.248 NA
ATOM     43  C   UNL A   1      37.827  30.983  29.186  1.00  0.00     0.031 C 
ATOM     44  C   UNL A   1      37.261  33.999  33.166  1.00  0.00     0.029 A 
ATOM     45  N   UNL A   1      38.896  32.478  33.258  1.00  0.00    -0.354 N 
ATOM     46  C   UNL A   1      39.489  29.657  30.026  1.00  0.00     0.074 A 
ATOM     47  C   UNL A   1      38.559  29.906  28.946  1.00  0.00     0.031 C 
ATOM     48  C   UNL A   1      37.878  34.143  34.349  1.00  0.00     0.029 A 
ATOM     49  C   UNL A   1      38.929  33.136  34.463  1.00  0.00     0.049 A 
ATOM     50  H   UNL A   1      39.526  31.759  33.020  1.00  0.00     0.167 HD
ATOM     51  C   UNL A   1      40.434  28.688  30.017  1.00  0.00     0.037 A 
ATOM     52  C   UNL A   1      39.705  32.936  35.545  1.00  0.00     0.037 A 
ATOM     53  C   UNL A   1      41.372  28.464  31.084  1.00  0.00     0.049 A 
ATOM     54  C   UNL A   1      40.741  31.844  35.513  1.00  0.00     0.074 A 
ATOM     55  C   UNL A   1      42.402  27.542  31.151  1.00  0.00     0.029 A 
ATOM     56  N   UNL A   1      41.394  29.173  32.277  1.00  0.00    -0.354 N 
ATOM     57  N   UNL A   1      41.016  30.993  34.554  1.00  0.00    -0.248 NA
ATOM     58  C   UNL A   1      41.576  31.687  36.712  1.00  0.00     0.031 C 
ATOM     59  C   UNL A   1      43.018  27.663  32.401  1.00  0.00     0.029 A 
ATOM     60  C   UNL A   1      42.409  28.698  33.091  1.00  0.00     0.049 A 
ATOM     61  H   UNL A   1      40.779  29.906  32.509  1.00  0.00     0.167 HD
ATOM     62  C   UNL A   1      42.079  30.228  35.017  1.00  0.00     0.074 A 
ATOM     63  C   UNL A   1      42.401  30.717  36.340  1.00  0.00     0.031 C 
ATOM     64  C   UNL A   1      42.729  29.213  34.398  1.00  0.00     0.037 A 
BRANCH  51  65
ATOM     65  C   UNL A   1      40.499  27.790  28.813  1.00  0.00     0.064 A 
ATOM     66  C   UNL A   1      39.762  26.598  28.741  1.00  0.00     0.173 A 
ATOM     67  C   UNL A   1      41.279  28.146  27.703  1.00  0.00     0.173 A 
ATOM     68  F   UNL A   1      39.009  26.207  29.780  1.00  0.00    -0.203 F 
ATOM     69  C   UNL A   1      39.829  25.780  27.616  1.00  0.00     0.198 A 
ATOM     70  C   UNL A   1      41.317  27.341  26.566  1.00  0.00     0.198 A 
ATOM     71  F   UNL A   1      41.998  29.278  27.713  1.00  0.00    -0.203 F 
ATOM     72  F   UNL A   1      39.157  24.621  27.593  1.00  0.00    -0.200 F 
ATOM     73  C   UNL A   1      40.600  26.156  26.527  1.00  0.00     0.200 A 
ATOM     74  F   UNL A   1      42.051  27.714  25.508  1.00  0.00    -0.200 F 
ATOM     75  F   UNL A   1      40.657  25.371  25.442  1.00  0.00    -0.200 F 
ENDBRANCH  51  65
BRANCH  52  76
ATOM     76  C   UNL A   1      39.544  33.799  36.745  1.00  0.00     0.064 A 
ATOM     77  C   UNL A   1      38.744  33.390  37.821  1.00  0.00     0.173 A 
ATOM     78  C   UNL A   1      40.184  35.043  36.843  1.00  0.00     0.173 A 
ATOM     79  F   UNL A   1      38.096  32.216  37.765  1.00  0.00    -0.203 F 
ATOM     80  C   UNL A   1      38.572  34.201  38.940  1.00  0.00     0.198 A 
ATOM     81  C   UNL A   1      40.034  35.841  37.976  1.00  0.00     0.198 A 
ATOM     82  F   UNL A   1      40.966  35.477  35.846  1.00  0.00    -0.203 F 
ATOM     83  F   UNL A   1      37.764  33.806  39.933  1.00  0.00    -0.200 F 
ATOM     84  C   UNL A   1      39.222  35.424  39.020  1.00  0.00     0.200 A 
ATOM     85  F   UNL A   1      40.677  37.014  38.056  1.00  0.00    -0.200 F 
ATOM     86  F   UNL A   1      39.060  36.202  40.098  1.00  0.00    -0.200 F 
ENDBRANCH  52  76
BRANCH  64  87
ATOM     87  C   UNL A   1      43.895  28.600  35.116  1.00  0.00     0.064 A 
ATOM     88  C   UNL A   1      43.748  27.478  35.944  1.00  0.00     0.173 A 
ATOM     89  C   UNL A   1      45.188  29.111  34.925  1.00  0.00     0.173 A 
ATOM     90  F   UNL A   1      42.531  26.961  36.171  1.00  0.00    -0.203 F 
ATOM     91  C   UNL A   1      44.850  26.902  36.570  1.00  0.00     0.198 A 
ATOM     92  C   UNL A   1      46.292  28.515  35.529  1.00  0.00     0.198 A 
ATOM     93  F   UNL A   1      45.384  30.179  34.138  1.00  0.00    -0.203 F 
ATOM     94  F   UNL A   1      44.682  25.854  37.389  1.00  0.00    -0.200 F 
ATOM     95  C   UNL A   1      46.122  27.414  36.354  1.00  0.00     0.200 A 
ATOM     96  F   UNL A   1      47.521  29.002  35.307  1.00  0.00    -0.200 F 
ATOM     97  F   UNL A   1      47.183  26.850  36.948  1.00  0.00    -0.200 F 
ENDBRANCH  64  87
ENDBRANCH  38  39
ENDBRANCH  30  33
ENDBRANCH  28  29
ENDBRANCH   1  28
TORSDOF 14
ENDMDL
