MODEL 1
REMARK VINA RESULT:     -12.4      0.000      0.000
REMARK SMILES C[C@@H](C(=O)NCCCNC(=O)c1ccc(-c2c3nc(c(-c4c(F)c(F)c(F)c(F)c4F)c4ccc([nH]4)c(-c4c(F)c(F)c(F)c(F)c4F)c4nc(c(-c5c(F)c(F)c(F)c(F)c5F)c5ccc2[nH]5)C=C4)C=C3)cc1)c1ccc(C[C@H]2CCC[C@H]2O)cc1
REMARK SMILES IDX 6 1 5 2 3 3 4 4 2 6 1 7 75 8 76 9 87 10 77 11 86 12 78 13
REMARK SMILES IDX 79 14 80 15 81 16 84 17 82 18 83 19 85 20 7 22 8 23 9 24
REMARK SMILES IDX 10 25 11 27 12 28 13 29 74 30 14 31 73 32 15 33 16 34 17 35
REMARK SMILES IDX 67 36 18 37 72 38 66 39 68 40 19 41 71 42 65 43 64 44 20 46
REMARK SMILES IDX 52 47 32 48 51 49 33 50 36 51 50 52 69 53 34 54 35 55 49 57
REMARK SMILES IDX 70 58 37 59 21 60 22 61 30 62 23 63 24 64 28 65 31 66 25 67
REMARK SMILES IDX 26 68 29 69 27 70 53 71 54 72 62 73 55 74 56 75 60 76 63 77
REMARK SMILES IDX 57 78 58 79 61 80 59 81 38 82 39 83 47 84 40 85 41 86 45 87
REMARK SMILES IDX 48 88 42 89 43 90 46 91 44 92
REMARK H PARENT 5 5 85 21 9 26 68 45 36 56
REMARK Flexibility Score: inf
ROOT
ATOM      1  C   UNL A   1      33.686  26.642  25.743  1.00  0.00     0.117 C 
ENDROOT
BRANCH   1   2
ATOM      2  N   UNL A   1      34.054  26.259  24.395  1.00  0.00    -0.356 N 
ATOM      3  C   UNL A   1      33.418  25.452  23.495  1.00  0.00     0.227 C 
ATOM      4  O   UNL A   1      34.023  25.220  22.446  1.00  0.00    -0.274 OA
ATOM      5  H   UNL A   1      34.903  26.643  24.075  1.00  0.00     0.163 HD
BRANCH   3   6
ATOM      6  C   UNL A   1      32.026  24.900  23.820  1.00  0.00     0.105 C 
ATOM      7  C   UNL A   1      31.767  23.558  23.126  1.00  0.00     0.023 C 
BRANCH   6   8
ATOM      8  C   UNL A   1      30.888  25.850  23.470  1.00  0.00    -0.036 A 
ATOM      9  C   UNL A   1      31.126  26.947  22.634  1.00  0.00     0.005 A 
ATOM     10  C   UNL A   1      29.620  25.715  24.054  1.00  0.00     0.005 A 
ATOM     11  C   UNL A   1      30.148  27.926  22.453  1.00  0.00     0.004 A 
ATOM     12  C   UNL A   1      28.646  26.697  23.877  1.00  0.00     0.004 A 
ATOM     13  C   UNL A   1      28.924  27.843  23.125  1.00  0.00    -0.048 A 
BRANCH  13  14
ATOM     14  C   UNL A   1      27.948  28.992  23.096  1.00  0.00     0.041 C 
BRANCH  14  15
ATOM     15  C   UNL A   1      28.480  30.345  22.582  1.00  0.00     0.022 C 
ATOM     16  C   UNL A   1      28.028  30.772  21.173  1.00  0.00     0.007 C 
ATOM     17  C   UNL A   1      28.243  31.589  23.454  1.00  0.00     0.117 C 
ATOM     18  C   UNL A   1      28.030  32.303  21.170  1.00  0.00     0.003 C 
ATOM     19  C   UNL A   1      28.617  32.728  22.512  1.00  0.00     0.032 C 
BRANCH  17  20
ATOM     20  O   UNL A   1      26.903  31.771  23.876  1.00  0.00    -0.393 OA
ATOM     21  H   UNL A   1      26.764  32.701  24.118  1.00  0.00     0.210 HD
ENDBRANCH  17  20
ENDBRANCH  14  15
ENDBRANCH  13  14
ENDBRANCH   6   8
ENDBRANCH   3   6
ENDBRANCH   1   2
BRANCH   1  22
ATOM     22  C   UNL A   1      32.842  27.917  25.762  1.00  0.00     0.042 C 
BRANCH  22  23
ATOM     23  C   UNL A   1      33.567  29.168  25.274  1.00  0.00     0.118 C 
BRANCH  23  24
ATOM     24  N   UNL A   1      32.996  30.394  25.802  1.00  0.00    -0.352 N 
ATOM     25  C   UNL A   1      33.359  31.152  26.885  1.00  0.00     0.251 C 
ATOM     26  H   UNL A   1      32.222  30.738  25.299  1.00  0.00     0.163 HD
ATOM     27  O   UNL A   1      32.628  32.072  27.243  1.00  0.00    -0.269 OA
BRANCH  25  28
ATOM     28  C   UNL A   1      34.598  30.868  27.644  1.00  0.00     0.039 A 
ATOM     29  C   UNL A   1      34.702  29.635  28.296  1.00  0.00     0.014 A 
ATOM     30  C   UNL A   1      35.625  31.808  27.773  1.00  0.00     0.014 A 
ATOM     31  C   UNL A   1      35.848  29.329  29.033  1.00  0.00     0.010 A 
ATOM     32  C   UNL A   1      36.799  31.474  28.450  1.00  0.00     0.010 A 
ATOM     33  C   UNL A   1      36.918  30.234  29.094  1.00  0.00    -0.014 A 
BRANCH  33  34
ATOM     34  C   UNL A   1      38.161  29.877  29.826  1.00  0.00     0.031 A 
ATOM     35  C   UNL A   1      38.424  30.416  31.204  1.00  0.00     0.074 A 
ATOM     36  C   UNL A   1      39.067  29.078  29.232  1.00  0.00     0.049 A 
ATOM     37  N   UNL A   1      39.438  30.187  32.001  1.00  0.00    -0.248 NA
ATOM     38  C   UNL A   1      37.432  31.354  31.751  1.00  0.00     0.031 C 
ATOM     39  C   UNL A   1      38.957  28.539  27.875  1.00  0.00     0.029 A 
ATOM     40  N   UNL A   1      40.258  28.575  29.694  1.00  0.00    -0.354 N 
ATOM     41  C   UNL A   1      39.208  30.952  33.137  1.00  0.00     0.074 A 
ATOM     42  C   UNL A   1      37.987  31.694  32.905  1.00  0.00     0.031 C 
ATOM     43  C   UNL A   1      40.018  27.755  27.626  1.00  0.00     0.029 A 
ATOM     44  C   UNL A   1      40.893  27.754  28.794  1.00  0.00     0.049 A 
ATOM     45  H   UNL A   1      40.621  28.782  30.585  1.00  0.00     0.167 HD
ATOM     46  C   UNL A   1      39.935  31.011  34.279  1.00  0.00     0.037 A 
ATOM     47  C   UNL A   1      42.046  27.069  28.904  1.00  0.00     0.037 A 
ATOM     48  C   UNL A   1      41.137  30.256  34.518  1.00  0.00     0.049 A 
ATOM     49  C   UNL A   1      42.822  27.133  30.190  1.00  0.00     0.074 A 
ATOM     50  C   UNL A   1      41.912  30.202  35.665  1.00  0.00     0.029 A 
ATOM     51  N   UNL A   1      41.742  29.421  33.589  1.00  0.00    -0.354 N 
ATOM     52  N   UNL A   1      42.552  27.798  31.287  1.00  0.00    -0.248 NA
ATOM     53  C   UNL A   1      44.054  26.338  30.258  1.00  0.00     0.031 C 
ATOM     54  C   UNL A   1      43.006  29.365  35.416  1.00  0.00     0.029 A 
ATOM     55  C   UNL A   1      42.889  28.862  34.130  1.00  0.00     0.049 A 
ATOM     56  H   UNL A   1      41.405  29.250  32.680  1.00  0.00     0.167 HD
ATOM     57  C   UNL A   1      43.568  27.489  32.180  1.00  0.00     0.074 A 
ATOM     58  C   UNL A   1      44.446  26.557  31.505  1.00  0.00     0.031 C 
ATOM     59  C   UNL A   1      43.757  27.939  33.444  1.00  0.00     0.037 A 
BRANCH  46  60
ATOM     60  C   UNL A   1      39.442  31.920  35.367  1.00  0.00     0.064 A 
ATOM     61  C   UNL A   1      38.587  31.458  36.380  1.00  0.00     0.173 A 
ATOM     62  C   UNL A   1      39.858  33.259  35.422  1.00  0.00     0.173 A 
ATOM     63  F   UNL A   1      38.151  30.189  36.366  1.00  0.00    -0.203 F 
ATOM     64  C   UNL A   1      38.146  32.307  37.390  1.00  0.00     0.198 A 
ATOM     65  C   UNL A   1      39.438  34.099  36.451  1.00  0.00     0.198 A 
ATOM     66  F   UNL A   1      40.681  33.751  34.484  1.00  0.00    -0.203 F 
ATOM     67  F   UNL A   1      37.293  31.855  38.319  1.00  0.00    -0.200 F 
ATOM     68  C   UNL A   1      38.577  33.625  37.429  1.00  0.00     0.200 A 
ATOM     69  F   UNL A   1      39.864  35.369  36.494  1.00  0.00    -0.200 F 
ATOM     70  F   UNL A   1      38.156  34.440  38.406  1.00  0.00    -0.200 F 
ENDBRANCH  46  60
BRANCH  47  71
ATOM     71  C   UNL A   1      42.515  26.227  27.773  1.00  0.00     0.064 A 
ATOM     72  C   UNL A   1      43.454  26.716  26.854  1.00  0.00     0.173 A 
ATOM     73  C   UNL A   1      42.038  24.921  27.590  1.00  0.00     0.173 A 
ATOM     74  F   UNL A   1      43.923  27.967  26.977  1.00  0.00    -0.203 F 
ATOM     75  C   UNL A   1      43.885  25.936  25.783  1.00  0.00     0.198 A 
ATOM     76  C   UNL A   1      42.491  24.134  26.534  1.00  0.00     0.198 A 
ATOM     77  F   UNL A   1      41.144  24.406  28.447  1.00  0.00    -0.203 F 
ATOM     78  F   UNL A   1      44.752  26.442  24.895  1.00  0.00    -0.200 F 
ATOM     79  C   UNL A   1      43.408  24.643  25.628  1.00  0.00     0.200 A 
ATOM     80  F   UNL A   1      42.038  22.880  26.395  1.00  0.00    -0.200 F 
ATOM     81  F   UNL A   1      43.826  23.892  24.600  1.00  0.00    -0.200 F 
ENDBRANCH  47  71
BRANCH  59  82
ATOM     82  C   UNL A   1      44.953  27.413  34.182  1.00  0.00     0.064 A 
ATOM     83  C   UNL A   1      46.186  28.082  34.151  1.00  0.00     0.173 A 
ATOM     84  C   UNL A   1      44.861  26.237  34.941  1.00  0.00     0.173 A 
ATOM     85  F   UNL A   1      46.328  29.202  33.428  1.00  0.00    -0.203 F 
ATOM     86  C   UNL A   1      47.292  27.573  34.826  1.00  0.00     0.198 A 
ATOM     87  C   UNL A   1      45.962  25.746  35.637  1.00  0.00     0.198 A 
ATOM     88  F   UNL A   1      43.703  25.563  35.008  1.00  0.00    -0.203 F 
ATOM     89  F   UNL A   1      48.474  28.198  34.738  1.00  0.00    -0.200 F 
ATOM     90  C   UNL A   1      47.178  26.409  35.572  1.00  0.00     0.200 A 
ATOM     91  F   UNL A   1      45.848  24.628  36.366  1.00  0.00    -0.200 F 
ATOM     92  F   UNL A   1      48.245  25.920  36.219  1.00  0.00    -0.200 F 
ENDBRANCH  59  82
ENDBRANCH  33  34
ENDBRANCH  25  28
ENDBRANCH  23  24
ENDBRANCH  22  23
ENDBRANCH   1  22
TORSDOF 14
ENDMDL
MODEL 2
REMARK VINA RESULT:     -12.2      2.141      4.849
REMARK SMILES C[C@@H](C(=O)NCCCNC(=O)c1ccc(-c2c3nc(c(-c4c(F)c(F)c(F)c(F)c4F)c4ccc([nH]4)c(-c4c(F)c(F)c(F)c(F)c4F)c4nc(c(-c5c(F)c(F)c(F)c(F)c5F)c5ccc2[nH]5)C=C4)C=C3)cc1)c1ccc(C[C@H]2CCC[C@H]2O)cc1
REMARK SMILES IDX 6 1 5 2 3 3 4 4 2 6 1 7 75 8 76 9 87 10 77 11 86 12 78 13
REMARK SMILES IDX 79 14 80 15 81 16 84 17 82 18 83 19 85 20 7 22 8 23 9 24
REMARK SMILES IDX 10 25 11 27 12 28 13 29 74 30 14 31 73 32 15 33 16 34 17 35
REMARK SMILES IDX 67 36 18 37 72 38 66 39 68 40 19 41 71 42 65 43 64 44 20 46
REMARK SMILES IDX 52 47 32 48 51 49 33 50 36 51 50 52 69 53 34 54 35 55 49 57
REMARK SMILES IDX 70 58 37 59 21 60 22 61 30 62 23 63 24 64 28 65 31 66 25 67
REMARK SMILES IDX 26 68 29 69 27 70 53 71 54 72 62 73 55 74 56 75 60 76 63 77
REMARK SMILES IDX 57 78 58 79 61 80 59 81 38 82 39 83 47 84 40 85 41 86 45 87
REMARK SMILES IDX 48 88 42 89 43 90 46 91 44 92
REMARK H PARENT 5 5 85 21 9 26 68 45 36 56
REMARK Flexibility Score: inf
ROOT
ATOM      1  C   UNL A   1      31.865  27.625  27.099  1.00  0.00     0.117 C 
ENDROOT
BRANCH   1   2
ATOM      2  N   UNL A   1      31.349  26.362  26.611  1.00  0.00    -0.356 N 
ATOM      3  C   UNL A   1      31.950  25.382  25.872  1.00  0.00     0.227 C 
ATOM      4  O   UNL A   1      31.229  24.451  25.509  1.00  0.00    -0.274 OA
ATOM      5  H   UNL A   1      30.412  26.179  26.852  1.00  0.00     0.163 HD
BRANCH   3   6
ATOM      6  C   UNL A   1      33.445  25.485  25.546  1.00  0.00     0.105 C 
ATOM      7  C   UNL A   1      33.694  26.247  24.240  1.00  0.00     0.023 C 
BRANCH   6   8
ATOM      8  C   UNL A   1      34.151  24.138  25.459  1.00  0.00    -0.036 A 
ATOM      9  C   UNL A   1      34.483  23.602  24.209  1.00  0.00     0.005 A 
ATOM     10  C   UNL A   1      34.385  23.363  26.604  1.00  0.00     0.005 A 
ATOM     11  C   UNL A   1      34.959  22.294  24.102  1.00  0.00     0.004 A 
ATOM     12  C   UNL A   1      34.856  22.055  26.495  1.00  0.00     0.004 A 
ATOM     13  C   UNL A   1      35.086  21.488  25.237  1.00  0.00    -0.048 A 
BRANCH  13  14
ATOM     14  C   UNL A   1      35.402  20.019  25.110  1.00  0.00     0.041 C 
BRANCH  14  15
ATOM     15  C   UNL A   1      34.305  19.121  24.502  1.00  0.00     0.022 C 
ATOM     16  C   UNL A   1      34.682  17.651  24.244  1.00  0.00     0.007 C 
ATOM     17  C   UNL A   1      32.953  19.048  25.229  1.00  0.00     0.117 C 
ATOM     18  C   UNL A   1      33.383  16.850  24.360  1.00  0.00     0.003 C 
ATOM     19  C   UNL A   1      32.268  17.876  24.536  1.00  0.00     0.032 C 
BRANCH  17  20
ATOM     20  O   UNL A   1      33.038  18.766  26.616  1.00  0.00    -0.393 OA
ATOM     21  H   UNL A   1      33.970  18.754  26.887  1.00  0.00     0.210 HD
ENDBRANCH  17  20
ENDBRANCH  14  15
ENDBRANCH  13  14
ENDBRANCH   6   8
ENDBRANCH   3   6
ENDBRANCH   1   2
BRANCH   1  22
ATOM     22  C   UNL A   1      31.700  28.742  26.069  1.00  0.00     0.042 C 
BRANCH  22  23
ATOM     23  C   UNL A   1      32.935  29.619  25.877  1.00  0.00     0.118 C 
BRANCH  23  24
ATOM     24  N   UNL A   1      32.712  31.001  26.265  1.00  0.00    -0.352 N 
ATOM     25  C   UNL A   1      33.356  31.782  27.189  1.00  0.00     0.251 C 
ATOM     26  H   UNL A   1      31.979  31.450  25.785  1.00  0.00     0.163 HD
ATOM     27  O   UNL A   1      32.892  32.884  27.468  1.00  0.00    -0.269 OA
BRANCH  25  28
ATOM     28  C   UNL A   1      34.584  31.313  27.872  1.00  0.00     0.039 A 
ATOM     29  C   UNL A   1      35.649  32.210  27.998  1.00  0.00     0.014 A 
ATOM     30  C   UNL A   1      34.725  30.001  28.334  1.00  0.00     0.014 A 
ATOM     31  C   UNL A   1      36.830  31.809  28.625  1.00  0.00     0.010 A 
ATOM     32  C   UNL A   1      35.878  29.621  29.022  1.00  0.00     0.010 A 
ATOM     33  C   UNL A   1      36.946  30.519  29.167  1.00  0.00    -0.014 A 
BRANCH  33  34
ATOM     34  C   UNL A   1      38.180  30.118  29.889  1.00  0.00     0.031 A 
ATOM     35  C   UNL A   1      38.447  30.603  31.286  1.00  0.00     0.074 A 
ATOM     36  C   UNL A   1      39.077  29.326  29.269  1.00  0.00     0.049 A 
ATOM     37  N   UNL A   1      39.455  30.330  32.078  1.00  0.00    -0.248 NA
ATOM     38  C   UNL A   1      37.467  31.536  31.864  1.00  0.00     0.031 C 
ATOM     39  C   UNL A   1      38.963  28.838  27.894  1.00  0.00     0.029 A 
ATOM     40  N   UNL A   1      40.258  28.789  29.717  1.00  0.00    -0.354 N 
ATOM     41  C   UNL A   1      39.233  31.057  33.240  1.00  0.00     0.074 A 
ATOM     42  C   UNL A   1      38.024  31.826  33.031  1.00  0.00     0.031 C 
ATOM     43  C   UNL A   1      40.012  28.047  27.620  1.00  0.00     0.029 A 
ATOM     44  C   UNL A   1      40.883  27.991  28.790  1.00  0.00     0.049 A 
ATOM     45  H   UNL A   1      40.622  28.959  30.615  1.00  0.00     0.167 HD
ATOM     46  C   UNL A   1      39.957  31.064  34.385  1.00  0.00     0.037 A 
ATOM     47  C   UNL A   1      42.026  27.285  28.878  1.00  0.00     0.037 A 
ATOM     48  C   UNL A   1      41.146  30.283  34.600  1.00  0.00     0.049 A 
ATOM     49  C   UNL A   1      42.798  27.291  30.168  1.00  0.00     0.074 A 
ATOM     50  C   UNL A   1      41.916  30.176  35.746  1.00  0.00     0.029 A 
ATOM     51  N   UNL A   1      41.741  29.473  33.644  1.00  0.00    -0.354 N 
ATOM     52  N   UNL A   1      42.534  27.921  31.287  1.00  0.00    -0.248 NA
ATOM     53  C   UNL A   1      44.018  26.475  30.211  1.00  0.00     0.031 C 
ATOM     54  C   UNL A   1      42.998  29.332  35.471  1.00  0.00     0.029 A 
ATOM     55  C   UNL A   1      42.879  28.877  34.167  1.00  0.00     0.049 A 
ATOM     56  H   UNL A   1      41.405  29.339  32.728  1.00  0.00     0.167 HD
ATOM     57  C   UNL A   1      43.542  27.564  32.172  1.00  0.00     0.074 A 
ATOM     58  C   UNL A   1      44.409  26.644  31.467  1.00  0.00     0.031 C 
ATOM     59  C   UNL A   1      43.734  27.966  33.452  1.00  0.00     0.037 A 
BRANCH  46  60
ATOM     60  C   UNL A   1      39.473  31.942  35.504  1.00  0.00     0.064 A 
ATOM     61  C   UNL A   1      38.560  31.474  36.462  1.00  0.00     0.173 A 
ATOM     62  C   UNL A   1      39.957  33.251  35.644  1.00  0.00     0.173 A 
ATOM     63  F   UNL A   1      38.059  30.233  36.366  1.00  0.00    -0.203 F 
ATOM     64  C   UNL A   1      38.129  32.293  37.501  1.00  0.00     0.198 A 
ATOM     65  C   UNL A   1      39.545  34.058  36.702  1.00  0.00     0.198 A 
ATOM     66  F   UNL A   1      40.837  33.746  34.760  1.00  0.00    -0.203 F 
ATOM     67  F   UNL A   1      37.221  31.840  38.377  1.00  0.00    -0.200 F 
ATOM     68  C   UNL A   1      38.627  33.581  37.624  1.00  0.00     0.200 A 
ATOM     69  F   UNL A   1      40.035  35.299  36.827  1.00  0.00    -0.200 F 
ATOM     70  F   UNL A   1      38.215  34.366  38.630  1.00  0.00    -0.200 F 
ENDBRANCH  46  60
BRANCH  47  71
ATOM     71  C   UNL A   1      42.486  26.477  27.719  1.00  0.00     0.064 A 
ATOM     72  C   UNL A   1      41.986  25.186  27.500  1.00  0.00     0.173 A 
ATOM     73  C   UNL A   1      43.429  26.977  26.810  1.00  0.00     0.173 A 
ATOM     74  F   UNL A   1      41.097  24.658  28.355  1.00  0.00    -0.203 F 
ATOM     75  C   UNL A   1      42.425  24.417  26.424  1.00  0.00     0.198 A 
ATOM     76  C   UNL A   1      43.847  26.217  25.720  1.00  0.00     0.198 A 
ATOM     77  F   UNL A   1      43.932  28.209  26.974  1.00  0.00    -0.203 F 
ATOM     78  F   UNL A   1      41.962  23.171  26.261  1.00  0.00    -0.200 F 
ATOM     79  C   UNL A   1      43.351  24.936  25.531  1.00  0.00     0.200 A 
ATOM     80  F   UNL A   1      44.732  26.727  24.851  1.00  0.00    -0.200 F 
ATOM     81  F   UNL A   1      43.770  24.199  24.494  1.00  0.00    -0.200 F 
ENDBRANCH  47  71
BRANCH  59  82
ATOM     82  C   UNL A   1      44.919  27.396  34.174  1.00  0.00     0.064 A 
ATOM     83  C   UNL A   1      44.835  26.186  34.879  1.00  0.00     0.173 A 
ATOM     84  C   UNL A   1      46.156  28.058  34.148  1.00  0.00     0.173 A 
ATOM     85  F   UNL A   1      43.671  25.523  34.946  1.00  0.00    -0.203 F 
ATOM     86  C   UNL A   1      45.938  25.677  35.560  1.00  0.00     0.198 A 
ATOM     87  C   UNL A   1      47.264  27.531  34.806  1.00  0.00     0.198 A 
ATOM     88  F   UNL A   1      46.290  29.215  33.483  1.00  0.00    -0.203 F 
ATOM     89  F   UNL A   1      45.821  24.548  36.273  1.00  0.00    -0.200 F 
ATOM     90  C   UNL A   1      47.152  26.347  35.519  1.00  0.00     0.200 A 
ATOM     91  F   UNL A   1      48.438  28.175  34.757  1.00  0.00    -0.200 F 
ATOM     92  F   UNL A   1      48.212  25.857  36.177  1.00  0.00    -0.200 F 
ENDBRANCH  59  82
ENDBRANCH  33  34
ENDBRANCH  25  28
ENDBRANCH  23  24
ENDBRANCH  22  23
ENDBRANCH   1  22
TORSDOF 14
ENDMDL
MODEL 3
REMARK VINA RESULT:     -12.2      2.179      4.700
REMARK SMILES C[C@@H](C(=O)NCCCNC(=O)c1ccc(-c2c3nc(c(-c4c(F)c(F)c(F)c(F)c4F)c4ccc([nH]4)c(-c4c(F)c(F)c(F)c(F)c4F)c4nc(c(-c5c(F)c(F)c(F)c(F)c5F)c5ccc2[nH]5)C=C4)C=C3)cc1)c1ccc(C[C@H]2CCC[C@H]2O)cc1
REMARK SMILES IDX 6 1 5 2 3 3 4 4 2 6 1 7 75 8 76 9 87 10 77 11 86 12 78 13
REMARK SMILES IDX 79 14 80 15 81 16 84 17 82 18 83 19 85 20 7 22 8 23 9 24
REMARK SMILES IDX 10 25 11 27 12 28 13 29 74 30 14 31 73 32 15 33 16 34 17 35
REMARK SMILES IDX 67 36 18 37 72 38 66 39 68 40 19 41 71 42 65 43 64 44 20 46
REMARK SMILES IDX 52 47 32 48 51 49 33 50 36 51 50 52 69 53 34 54 35 55 49 57
REMARK SMILES IDX 70 58 37 59 21 60 22 61 30 62 23 63 24 64 28 65 31 66 25 67
REMARK SMILES IDX 26 68 29 69 27 70 53 71 54 72 62 73 55 74 56 75 60 76 63 77
REMARK SMILES IDX 57 78 58 79 61 80 59 81 38 82 39 83 47 84 40 85 41 86 45 87
REMARK SMILES IDX 48 88 42 89 43 90 46 91 44 92
REMARK H PARENT 5 5 85 21 9 26 68 45 36 56
REMARK Flexibility Score: inf
ROOT
ATOM      1  C   UNL A   1      32.134  27.648  27.287  1.00  0.00     0.117 C 
ENDROOT
BRANCH   1   2
ATOM      2  N   UNL A   1      31.521  26.443  26.766  1.00  0.00    -0.356 N 
ATOM      3  C   UNL A   1      32.009  25.495  25.913  1.00  0.00     0.227 C 
ATOM      4  O   UNL A   1      31.216  24.620  25.557  1.00  0.00    -0.274 OA
ATOM      5  H   UNL A   1      30.601  26.282  27.078  1.00  0.00     0.163 HD
BRANCH   3   6
ATOM      6  C   UNL A   1      33.472  25.559  25.461  1.00  0.00     0.105 C 
ATOM      7  C   UNL A   1      33.616  26.221  24.086  1.00  0.00     0.023 C 
BRANCH   6   8
ATOM      8  C   UNL A   1      34.165  24.203  25.418  1.00  0.00    -0.036 A 
ATOM      9  C   UNL A   1      34.588  23.673  24.192  1.00  0.00     0.005 A 
ATOM     10  C   UNL A   1      34.297  23.415  26.570  1.00  0.00     0.005 A 
ATOM     11  C   UNL A   1      35.054  22.360  24.111  1.00  0.00     0.004 A 
ATOM     12  C   UNL A   1      34.757  22.102  26.486  1.00  0.00     0.004 A 
ATOM     13  C   UNL A   1      35.080  21.542  25.245  1.00  0.00    -0.048 A 
BRANCH  13  14
ATOM     14  C   UNL A   1      35.385  20.070  25.129  1.00  0.00     0.041 C 
BRANCH  14  15
ATOM     15  C   UNL A   1      34.289  19.179  24.509  1.00  0.00     0.022 C 
ATOM     16  C   UNL A   1      34.675  17.718  24.215  1.00  0.00     0.007 C 
ATOM     17  C   UNL A   1      32.943  19.080  25.244  1.00  0.00     0.117 C 
ATOM     18  C   UNL A   1      33.382  16.905  24.322  1.00  0.00     0.003 C 
ATOM     19  C   UNL A   1      32.261  17.919  24.529  1.00  0.00     0.032 C 
BRANCH  17  20
ATOM     20  O   UNL A   1      33.041  18.767  26.623  1.00  0.00    -0.393 OA
ATOM     21  H   UNL A   1      33.862  19.140  26.982  1.00  0.00     0.210 HD
ENDBRANCH  17  20
ENDBRANCH  14  15
ENDBRANCH  13  14
ENDBRANCH   6   8
ENDBRANCH   3   6
ENDBRANCH   1   2
BRANCH   1  22
ATOM     22  C   UNL A   1      31.778  28.876  26.449  1.00  0.00     0.042 C 
BRANCH  22  23
ATOM     23  C   UNL A   1      32.970  29.734  26.036  1.00  0.00     0.118 C 
BRANCH  23  24
ATOM     24  N   UNL A   1      32.807  31.135  26.384  1.00  0.00    -0.352 N 
ATOM     25  C   UNL A   1      33.496  31.918  27.273  1.00  0.00     0.251 C 
ATOM     26  H   UNL A   1      32.084  31.597  25.902  1.00  0.00     0.163 HD
ATOM     27  O   UNL A   1      33.079  33.045  27.525  1.00  0.00    -0.269 OA
BRANCH  25  28
ATOM     28  C   UNL A   1      34.716  31.423  27.951  1.00  0.00     0.039 A 
ATOM     29  C   UNL A   1      35.799  32.299  28.076  1.00  0.00     0.014 A 
ATOM     30  C   UNL A   1      34.833  30.107  28.409  1.00  0.00     0.014 A 
ATOM     31  C   UNL A   1      36.974  31.872  28.699  1.00  0.00     0.010 A 
ATOM     32  C   UNL A   1      35.980  29.702  29.092  1.00  0.00     0.010 A 
ATOM     33  C   UNL A   1      37.066  30.579  29.237  1.00  0.00    -0.014 A 
BRANCH  33  34
ATOM     34  C   UNL A   1      38.294  30.151  29.954  1.00  0.00     0.031 A 
ATOM     35  C   UNL A   1      38.576  30.629  31.351  1.00  0.00     0.074 A 
ATOM     36  C   UNL A   1      39.172  29.341  29.330  1.00  0.00     0.049 A 
ATOM     37  N   UNL A   1      39.580  30.334  32.139  1.00  0.00    -0.248 NA
ATOM     38  C   UNL A   1      37.618  31.581  31.933  1.00  0.00     0.031 C 
ATOM     39  C   UNL A   1      39.043  28.857  27.955  1.00  0.00     0.029 A 
ATOM     40  N   UNL A   1      40.343  28.779  29.773  1.00  0.00    -0.354 N 
ATOM     41  C   UNL A   1      39.378  31.065  33.302  1.00  0.00     0.074 A 
ATOM     42  C   UNL A   1      38.185  31.858  33.098  1.00  0.00     0.031 C 
ATOM     43  C   UNL A   1      40.075  28.045  27.676  1.00  0.00     0.029 A 
ATOM     44  C   UNL A   1      40.949  27.969  28.843  1.00  0.00     0.049 A 
ATOM     45  H   UNL A   1      40.713  28.940  30.670  1.00  0.00     0.167 HD
ATOM     46  C   UNL A   1      40.106  31.055  34.445  1.00  0.00     0.037 A 
ATOM     47  C   UNL A   1      42.077  27.240  28.926  1.00  0.00     0.037 A 
ATOM     48  C   UNL A   1      41.279  30.249  34.655  1.00  0.00     0.049 A 
ATOM     49  C   UNL A   1      42.853  27.229  30.214  1.00  0.00     0.074 A 
ATOM     50  C   UNL A   1      42.051  30.124  35.798  1.00  0.00     0.029 A 
ATOM     51  N   UNL A   1      41.854  29.427  33.696  1.00  0.00    -0.354 N 
ATOM     52  N   UNL A   1      42.606  27.862  31.334  1.00  0.00    -0.248 NA
ATOM     53  C   UNL A   1      44.056  26.387  30.252  1.00  0.00     0.031 C 
ATOM     54  C   UNL A   1      43.114  29.258  35.518  1.00  0.00     0.029 A 
ATOM     55  C   UNL A   1      42.981  28.808  34.215  1.00  0.00     0.049 A 
ATOM     56  H   UNL A   1      41.512  29.302  32.781  1.00  0.00     0.167 HD
ATOM     57  C   UNL A   1      43.610  27.484  32.215  1.00  0.00     0.074 A 
ATOM     58  C   UNL A   1      44.455  26.546  31.506  1.00  0.00     0.031 C 
ATOM     59  C   UNL A   1      43.814  27.880  33.495  1.00  0.00     0.037 A 
BRANCH  46  60
ATOM     60  C   UNL A   1      39.645  31.941  35.566  1.00  0.00     0.064 A 
ATOM     61  C   UNL A   1      40.150  33.240  35.731  1.00  0.00     0.173 A 
ATOM     62  C   UNL A   1      38.658  31.503  36.462  1.00  0.00     0.173 A 
ATOM     63  F   UNL A   1      41.104  33.701  34.907  1.00  0.00    -0.203 F 
ATOM     64  C   UNL A   1      39.706  34.057  36.766  1.00  0.00     0.198 A 
ATOM     65  C   UNL A   1      38.194  32.334  37.480  1.00  0.00     0.198 A 
ATOM     66  F   UNL A   1      38.135  30.274  36.345  1.00  0.00    -0.203 F 
ATOM     67  F   UNL A   1      40.237  35.276  36.932  1.00  0.00    -0.200 F 
ATOM     68  C   UNL A   1      38.724  33.606  37.635  1.00  0.00     0.200 A 
ATOM     69  F   UNL A   1      37.237  31.902  38.312  1.00  0.00    -0.200 F 
ATOM     70  F   UNL A   1      38.292  34.396  38.628  1.00  0.00    -0.200 F 
ENDBRANCH  46  60
BRANCH  47  71
ATOM     71  C   UNL A   1      42.515  26.424  27.766  1.00  0.00     0.064 A 
ATOM     72  C   UNL A   1      43.464  26.916  26.858  1.00  0.00     0.173 A 
ATOM     73  C   UNL A   1      42.000  25.139  27.541  1.00  0.00     0.173 A 
ATOM     74  F   UNL A   1      43.970  28.148  27.021  1.00  0.00    -0.203 F 
ATOM     75  C   UNL A   1      43.867  26.161  25.759  1.00  0.00     0.198 A 
ATOM     76  C   UNL A   1      42.424  24.375  26.456  1.00  0.00     0.198 A 
ATOM     77  F   UNL A   1      41.096  24.622  28.385  1.00  0.00    -0.203 F 
ATOM     78  F   UNL A   1      44.744  26.672  24.884  1.00  0.00    -0.200 F 
ATOM     79  C   UNL A   1      43.352  24.889  25.563  1.00  0.00     0.200 A 
ATOM     80  F   UNL A   1      41.935  23.140  26.278  1.00  0.00    -0.200 F 
ATOM     81  F   UNL A   1      43.743  24.161  24.508  1.00  0.00    -0.200 F 
ENDBRANCH  47  71
BRANCH  59  82
ATOM     82  C   UNL A   1      44.990  27.284  34.212  1.00  0.00     0.064 A 
ATOM     83  C   UNL A   1      46.247  27.908  34.203  1.00  0.00     0.173 A 
ATOM     84  C   UNL A   1      44.855  26.086  34.929  1.00  0.00     0.173 A 
ATOM     85  F   UNL A   1      46.431  29.047  33.519  1.00  0.00    -0.203 F 
ATOM     86  C   UNL A   1      47.334  27.334  34.858  1.00  0.00     0.198 A 
ATOM     87  C   UNL A   1      45.937  25.531  35.606  1.00  0.00     0.198 A 
ATOM     88  F   UNL A   1      43.673  25.454  34.974  1.00  0.00    -0.203 F 
ATOM     89  F   UNL A   1      48.538  27.918  34.791  1.00  0.00    -0.200 F 
ATOM     90  C   UNL A   1      47.177  26.150  35.563  1.00  0.00     0.200 A 
ATOM     91  F   UNL A   1      45.782  24.392  36.295  1.00  0.00    -0.200 F 
ATOM     92  F   UNL A   1      48.225  25.599  36.191  1.00  0.00    -0.200 F 
ENDBRANCH  59  82
ENDBRANCH  33  34
ENDBRANCH  25  28
ENDBRANCH  23  24
ENDBRANCH  22  23
ENDBRANCH   1  22
TORSDOF 14
ENDMDL
