MODEL 1
REMARK VINA RESULT:     -12.5      0.000      0.000
REMARK SMILES Cc1cc(C)cc(C2(C(=O)NCCCNC(=O)c3ccc(-c4c5nc(c(-c6c(F)c(F)c(F)c(F)c6F)c6ccc([nH]6)c(-c6c(F)c(F)c(F)c(F)c6F)c6nc(c(-c7c(F)c(F)c(F)c(F)c7F)c7ccc4[nH]7)C=C6)C=C5)cc3)CCOCC2)c1
REMARK SMILES IDX 13 1 12 2 11 3 9 4 10 5 8 7 81 8 85 9 82 10 84 11 83 12 7 13
REMARK SMILES IDX 1 14 2 15 3 16 86 17 4 18 5 19 6 20 14 21 15 22 16 23 17 25
REMARK SMILES IDX 18 26 19 27 80 28 20 29 79 30 21 31 22 32 23 33 73 34 24 35
REMARK SMILES IDX 78 36 72 37 74 38 25 39 77 40 71 41 70 42 26 44 58 45 38 46
REMARK SMILES IDX 57 47 39 48 42 49 56 50 75 51 40 52 41 53 55 55 76 56 43 57
REMARK SMILES IDX 27 58 28 59 36 60 29 61 30 62 34 63 37 64 31 65 32 66 35 67
REMARK SMILES IDX 33 68 59 69 60 70 68 71 61 72 62 73 66 74 69 75 63 76 64 77
REMARK SMILES IDX 67 78 65 79 44 80 45 81 53 82 46 83 47 84 51 85 54 86 48 87
REMARK SMILES IDX 49 88 52 89 50 90
REMARK H PARENT 11 6 15 24 74 43 42 54
REMARK Flexibility Score: inf
ROOT
ATOM      1  C   UNL A   1      32.814  27.698  25.867  1.00  0.00     0.042 C 
ENDROOT
BRANCH   1   2
ATOM      2  C   UNL A   1      32.674  26.604  24.835  1.00  0.00     0.117 C 
BRANCH   2   3
ATOM      3  N   UNL A   1      33.948  26.107  24.369  1.00  0.00    -0.355 N 
ATOM      4  C   UNL A   1      34.149  24.822  23.955  1.00  0.00     0.230 C 
ATOM      5  O   UNL A   1      34.376  24.707  22.745  1.00  0.00    -0.274 OA
ATOM      6  H   UNL A   1      34.711  26.729  24.348  1.00  0.00     0.163 HD
BRANCH   4   7
ATOM      7  C   UNL A   1      34.094  23.593  24.931  1.00  0.00     0.078 C 
ATOM      8  C   UNL A   1      33.522  23.913  26.336  1.00  0.00     0.050 C 
ATOM      9  C   UNL A   1      33.274  22.502  24.194  1.00  0.00     0.050 C 
ATOM     10  C   UNL A   1      32.019  23.754  26.517  1.00  0.00     0.161 C 
ATOM     11  C   UNL A   1      31.778  22.571  24.432  1.00  0.00     0.161 C 
ATOM     12  O   UNL A   1      31.468  22.650  25.815  1.00  0.00    -0.381 OA
BRANCH   7  13
ATOM     13  C   UNL A   1      35.551  23.050  25.195  1.00  0.00    -0.032 A 
ATOM     14  C   UNL A   1      38.814  24.374  26.713  1.00  0.00     0.044 C 
ATOM     15  C   UNL A   1      37.819  23.456  26.069  1.00  0.00    -0.051 A 
ATOM     16  C   UNL A   1      38.187  22.153  25.728  1.00  0.00     0.006 A 
ATOM     17  C   UNL A   1      36.512  23.885  25.808  1.00  0.00     0.008 A 
ATOM     18  C   UNL A   1      37.276  21.304  25.094  1.00  0.00    -0.051 A 
ATOM     19  C   UNL A   1      37.682  19.898  24.755  1.00  0.00     0.044 C 
ATOM     20  C   UNL A   1      35.983  21.770  24.803  1.00  0.00     0.008 A 
ENDBRANCH   7  13
ENDBRANCH   4   7
ENDBRANCH   2   3
ENDBRANCH   1   2
BRANCH   1  21
ATOM     21  C   UNL A   1      33.674  28.834  25.356  1.00  0.00     0.118 C 
BRANCH  21  22
ATOM     22  N   UNL A   1      33.180  30.136  25.800  1.00  0.00    -0.352 N 
ATOM     23  C   UNL A   1      33.555  30.903  26.874  1.00  0.00     0.251 C 
ATOM     24  H   UNL A   1      32.465  30.523  25.244  1.00  0.00     0.163 HD
ATOM     25  O   UNL A   1      32.847  31.839  27.243  1.00  0.00    -0.269 OA
BRANCH  23  26
ATOM     26  C   UNL A   1      34.809  30.598  27.587  1.00  0.00     0.039 A 
ATOM     27  C   UNL A   1      35.812  31.563  27.676  1.00  0.00     0.014 A 
ATOM     28  C   UNL A   1      34.989  29.343  28.171  1.00  0.00     0.014 A 
ATOM     29  C   UNL A   1      36.974  31.275  28.394  1.00  0.00     0.010 A 
ATOM     30  C   UNL A   1      36.058  29.123  29.019  1.00  0.00     0.010 A 
ATOM     31  C   UNL A   1      37.092  30.063  29.095  1.00  0.00    -0.014 A 
BRANCH  31  32
ATOM     32  C   UNL A   1      38.320  29.713  29.845  1.00  0.00     0.031 A 
ATOM     33  C   UNL A   1      38.522  30.262  31.235  1.00  0.00     0.074 A 
ATOM     34  C   UNL A   1      39.262  28.948  29.264  1.00  0.00     0.049 A 
ATOM     35  N   UNL A   1      39.535  30.107  32.048  1.00  0.00    -0.248 NA
ATOM     36  C   UNL A   1      37.468  31.144  31.766  1.00  0.00     0.031 C 
ATOM     37  C   UNL A   1      39.208  28.426  27.897  1.00  0.00     0.029 A 
ATOM     38  N   UNL A   1      40.450  28.471  29.754  1.00  0.00    -0.354 N 
ATOM     39  C   UNL A   1      39.245  30.884  33.163  1.00  0.00     0.074 A 
ATOM     40  C   UNL A   1      38.014  31.585  32.887  1.00  0.00     0.031 C 
ATOM     41  C   UNL A   1      40.286  27.658  27.676  1.00  0.00     0.029 A 
ATOM     42  C   UNL A   1      41.124  27.664  28.870  1.00  0.00     0.049 A 
ATOM     43  H   UNL A   1      40.788  28.687  30.653  1.00  0.00     0.167 HD
ATOM     44  C   UNL A   1      39.918  30.971  34.334  1.00  0.00     0.037 A 
ATOM     45  C   UNL A   1      42.282  26.997  29.021  1.00  0.00     0.037 A 
ATOM     46  C   UNL A   1      41.120  30.235  34.613  1.00  0.00     0.049 A 
ATOM     47  C   UNL A   1      42.997  27.084  30.343  1.00  0.00     0.074 A 
ATOM     48  C   UNL A   1      41.860  30.198  35.781  1.00  0.00     0.029 A 
ATOM     49  N   UNL A   1      41.755  29.398  33.706  1.00  0.00    -0.354 N 
ATOM     50  N   UNL A   1      42.674  27.762  31.419  1.00  0.00    -0.248 NA
ATOM     51  C   UNL A   1      44.229  26.297  30.476  1.00  0.00     0.031 C 
ATOM     52  C   UNL A   1      42.972  29.376  35.563  1.00  0.00     0.029 A 
ATOM     53  C   UNL A   1      42.888  28.850  34.283  1.00  0.00     0.049 A 
ATOM     54  H   UNL A   1      41.446  29.221  32.789  1.00  0.00     0.167 HD
ATOM     55  C   UNL A   1      43.640  27.454  32.368  1.00  0.00     0.074 A 
ATOM     56  C   UNL A   1      44.548  26.513  31.744  1.00  0.00     0.031 C 
ATOM     57  C   UNL A   1      43.769  27.908  33.641  1.00  0.00     0.037 A 
BRANCH  44  58
ATOM     58  C   UNL A   1      39.358  31.881  35.392  1.00  0.00     0.064 A 
ATOM     59  C   UNL A   1      39.669  33.250  35.431  1.00  0.00     0.173 A 
ATOM     60  C   UNL A   1      38.490  31.382  36.374  1.00  0.00     0.173 A 
ATOM     61  F   UNL A   1      40.507  33.779  34.527  1.00  0.00    -0.203 F 
ATOM     62  C   UNL A   1      39.166  34.074  36.435  1.00  0.00     0.198 A 
ATOM     63  C   UNL A   1      37.959  32.216  37.355  1.00  0.00     0.198 A 
ATOM     64  F   UNL A   1      38.158  30.082  36.387  1.00  0.00    -0.203 F 
ATOM     65  F   UNL A   1      39.533  35.361  36.489  1.00  0.00    -0.200 F 
ATOM     66  C   UNL A   1      38.305  33.558  37.391  1.00  0.00     0.200 A 
ATOM     67  F   UNL A   1      37.116  31.719  38.271  1.00  0.00    -0.200 F 
ATOM     68  F   UNL A   1      37.816  34.353  38.353  1.00  0.00    -0.200 F 
ENDBRANCH  44  58
BRANCH  45  69
ATOM     69  C   UNL A   1      42.805  26.149  27.917  1.00  0.00     0.064 A 
ATOM     70  C   UNL A   1      43.704  26.667  26.973  1.00  0.00     0.173 A 
ATOM     71  C   UNL A   1      42.415  24.810  27.774  1.00  0.00     0.173 A 
ATOM     72  F   UNL A   1      44.099  27.946  27.057  1.00  0.00    -0.203 F 
ATOM     73  C   UNL A   1      44.167  25.890  25.914  1.00  0.00     0.198 A 
ATOM     74  C   UNL A   1      42.904  24.023  26.734  1.00  0.00     0.198 A 
ATOM     75  F   UNL A   1      41.567  24.261  28.656  1.00  0.00    -0.203 F 
ATOM     76  F   UNL A   1      44.982  26.428  24.996  1.00  0.00    -0.200 F 
ATOM     77  C   UNL A   1      43.770  24.566  25.797  1.00  0.00     0.200 A 
ATOM     78  F   UNL A   1      42.533  22.739  26.637  1.00  0.00    -0.200 F 
ATOM     79  F   UNL A   1      44.217  23.817  24.780  1.00  0.00    -0.200 F 
ENDBRANCH  45  69
BRANCH  57  80
ATOM     80  C   UNL A   1      44.902  27.348  34.452  1.00  0.00     0.064 A 
ATOM     81  C   UNL A   1      44.757  26.184  35.222  1.00  0.00     0.173 A 
ATOM     82  C   UNL A   1      46.153  27.983  34.449  1.00  0.00     0.173 A 
ATOM     83  F   UNL A   1      43.578  25.545  35.267  1.00  0.00    -0.203 F 
ATOM     84  C   UNL A   1      45.810  25.707  35.998  1.00  0.00     0.198 A 
ATOM     85  C   UNL A   1      47.214  27.478  35.193  1.00  0.00     0.198 A 
ATOM     86  F   UNL A   1      46.348  29.092  33.718  1.00  0.00    -0.203 F 
ATOM     87  F   UNL A   1      45.627  24.637  36.784  1.00  0.00    -0.200 F 
ATOM     88  C   UNL A   1      47.037  26.350  35.979  1.00  0.00     0.200 A 
ATOM     89  F   UNL A   1      48.406  28.091  35.157  1.00  0.00    -0.200 F 
ATOM     90  F   UNL A   1      48.048  25.890  36.727  1.00  0.00    -0.200 F 
ENDBRANCH  57  80
ENDBRANCH  31  32
ENDBRANCH  23  26
ENDBRANCH  21  22
ENDBRANCH   1  21
TORSDOF 11
ENDMDL
MODEL 2
REMARK VINA RESULT:     -12.5      0.181      1.629
REMARK SMILES Cc1cc(C)cc(C2(C(=O)NCCCNC(=O)c3ccc(-c4c5nc(c(-c6c(F)c(F)c(F)c(F)c6F)c6ccc([nH]6)c(-c6c(F)c(F)c(F)c(F)c6F)c6nc(c(-c7c(F)c(F)c(F)c(F)c7F)c7ccc4[nH]7)C=C6)C=C5)cc3)CCOCC2)c1
REMARK SMILES IDX 13 1 12 2 11 3 9 4 10 5 8 7 81 8 85 9 82 10 84 11 83 12 7 13
REMARK SMILES IDX 1 14 2 15 3 16 86 17 4 18 5 19 6 20 14 21 15 22 16 23 17 25
REMARK SMILES IDX 18 26 19 27 80 28 20 29 79 30 21 31 22 32 23 33 73 34 24 35
REMARK SMILES IDX 78 36 72 37 74 38 25 39 77 40 71 41 70 42 26 44 58 45 38 46
REMARK SMILES IDX 57 47 39 48 42 49 56 50 75 51 40 52 41 53 55 55 76 56 43 57
REMARK SMILES IDX 27 58 28 59 36 60 29 61 30 62 34 63 37 64 31 65 32 66 35 67
REMARK SMILES IDX 33 68 59 69 60 70 68 71 61 72 62 73 66 74 69 75 63 76 64 77
REMARK SMILES IDX 67 78 65 79 44 80 45 81 53 82 46 83 47 84 51 85 54 86 48 87
REMARK SMILES IDX 49 88 52 89 50 90
REMARK H PARENT 11 6 15 24 74 43 42 54
REMARK Flexibility Score: inf
ROOT
ATOM      1  C   UNL A   1      32.897  27.702  25.770  1.00  0.00     0.042 C 
ENDROOT
BRANCH   1   2
ATOM      2  C   UNL A   1      32.703  26.706  24.651  1.00  0.00     0.117 C 
BRANCH   2   3
ATOM      3  N   UNL A   1      33.949  26.151  24.173  1.00  0.00    -0.355 N 
ATOM      4  C   UNL A   1      34.106  24.841  23.826  1.00  0.00     0.230 C 
ATOM      5  O   UNL A   1      34.290  24.653  22.617  1.00  0.00    -0.274 OA
ATOM      6  H   UNL A   1      34.725  26.751  24.093  1.00  0.00     0.163 HD
BRANCH   4   7
ATOM      7  C   UNL A   1      34.055  23.670  24.870  1.00  0.00     0.078 C 
ATOM      8  C   UNL A   1      33.530  24.080  26.271  1.00  0.00     0.050 C 
ATOM      9  C   UNL A   1      33.193  22.557  24.220  1.00  0.00     0.050 C 
ATOM     10  C   UNL A   1      32.031  23.963  26.502  1.00  0.00     0.161 C 
ATOM     11  C   UNL A   1      31.706  22.671  24.495  1.00  0.00     0.161 C 
ATOM     12  O   UNL A   1      31.438  22.834  25.879  1.00  0.00    -0.381 OA
BRANCH   7  13
ATOM     13  C   UNL A   1      35.508  23.111  25.124  1.00  0.00    -0.032 A 
ATOM     14  C   UNL A   1      38.781  24.383  26.664  1.00  0.00     0.044 C 
ATOM     15  C   UNL A   1      37.780  23.484  26.004  1.00  0.00    -0.051 A 
ATOM     16  C   UNL A   1      38.137  22.184  25.639  1.00  0.00     0.006 A 
ATOM     17  C   UNL A   1      36.475  23.928  25.751  1.00  0.00     0.008 A 
ATOM     18  C   UNL A   1      37.220  21.354  24.991  1.00  0.00    -0.051 A 
ATOM     19  C   UNL A   1      37.615  19.951  24.626  1.00  0.00     0.044 C 
ATOM     20  C   UNL A   1      35.931  21.835  24.709  1.00  0.00     0.008 A 
ENDBRANCH   7  13
ENDBRANCH   4   7
ENDBRANCH   2   3
ENDBRANCH   1   2
BRANCH   1  21
ATOM     21  C   UNL A   1      33.761  28.864  25.332  1.00  0.00     0.118 C 
BRANCH  21  22
ATOM     22  N   UNL A   1      33.248  30.142  25.823  1.00  0.00    -0.352 N 
ATOM     23  C   UNL A   1      33.613  30.875  26.923  1.00  0.00     0.251 C 
ATOM     24  H   UNL A   1      32.527  30.538  25.281  1.00  0.00     0.163 HD
ATOM     25  O   UNL A   1      32.891  31.787  27.325  1.00  0.00    -0.269 OA
BRANCH  23  26
ATOM     26  C   UNL A   1      34.872  30.564  27.624  1.00  0.00     0.039 A 
ATOM     27  C   UNL A   1      35.902  31.504  27.658  1.00  0.00     0.014 A 
ATOM     28  C   UNL A   1      35.030  29.328  28.253  1.00  0.00     0.014 A 
ATOM     29  C   UNL A   1      37.069  31.213  28.365  1.00  0.00     0.010 A 
ATOM     30  C   UNL A   1      36.109  29.112  29.089  1.00  0.00     0.010 A 
ATOM     31  C   UNL A   1      37.169  30.025  29.109  1.00  0.00    -0.014 A 
BRANCH  31  32
ATOM     32  C   UNL A   1      38.402  29.671  29.850  1.00  0.00     0.031 A 
ATOM     33  C   UNL A   1      38.633  30.245  31.224  1.00  0.00     0.074 A 
ATOM     34  C   UNL A   1      39.323  28.878  29.272  1.00  0.00     0.049 A 
ATOM     35  N   UNL A   1      39.654  30.091  32.027  1.00  0.00    -0.248 NA
ATOM     36  C   UNL A   1      37.600  31.156  31.751  1.00  0.00     0.031 C 
ATOM     37  C   UNL A   1      39.241  28.328  27.918  1.00  0.00     0.029 A 
ATOM     38  N   UNL A   1      40.509  28.392  29.756  1.00  0.00    -0.354 N 
ATOM     39  C   UNL A   1      39.392  30.896  33.129  1.00  0.00     0.074 A 
ATOM     40  C   UNL A   1      38.169  31.611  32.855  1.00  0.00     0.031 C 
ATOM     41  C   UNL A   1      40.303  27.538  27.699  1.00  0.00     0.029 A 
ATOM     42  C   UNL A   1      41.157  27.555  28.881  1.00  0.00     0.049 A 
ATOM     43  H   UNL A   1      40.864  28.621  30.646  1.00  0.00     0.167 HD
ATOM     44  C   UNL A   1      40.083  30.997  34.288  1.00  0.00     0.037 A 
ATOM     45  C   UNL A   1      42.307  26.873  29.030  1.00  0.00     0.037 A 
ATOM     46  C   UNL A   1      41.277  30.247  34.567  1.00  0.00     0.049 A 
ATOM     47  C   UNL A   1      43.041  26.976  30.340  1.00  0.00     0.074 A 
ATOM     48  C   UNL A   1      42.033  30.222  35.725  1.00  0.00     0.029 A 
ATOM     49  N   UNL A   1      41.886  29.381  33.669  1.00  0.00    -0.354 N 
ATOM     50  N   UNL A   1      42.745  27.681  31.405  1.00  0.00    -0.248 NA
ATOM     51  C   UNL A   1      44.262  26.172  30.472  1.00  0.00     0.031 C 
ATOM     52  C   UNL A   1      43.128  29.378  35.509  1.00  0.00     0.029 A 
ATOM     53  C   UNL A   1      43.017  28.826  34.242  1.00  0.00     0.049 A 
ATOM     54  H   UNL A   1      41.560  29.189  32.760  1.00  0.00     0.167 HD
ATOM     55  C   UNL A   1      43.719  27.378  32.347  1.00  0.00     0.074 A 
ATOM     56  C   UNL A   1      44.603  26.409  31.730  1.00  0.00     0.031 C 
ATOM     57  C   UNL A   1      43.874  27.856  33.607  1.00  0.00     0.037 A 
BRANCH  44  58
ATOM     58  C   UNL A   1      39.553  31.938  35.334  1.00  0.00     0.064 A 
ATOM     59  C   UNL A   1      38.632  31.518  36.308  1.00  0.00     0.173 A 
ATOM     60  C   UNL A   1      39.977  33.274  35.372  1.00  0.00     0.173 A 
ATOM     61  F   UNL A   1      38.177  30.256  36.310  1.00  0.00    -0.203 F 
ATOM     62  C   UNL A   1      38.127  32.409  37.253  1.00  0.00     0.198 A 
ATOM     63  C   UNL A   1      39.498  34.153  36.341  1.00  0.00     0.198 A 
ATOM     64  F   UNL A   1      40.855  33.731  34.466  1.00  0.00    -0.203 F 
ATOM     65  F   UNL A   1      37.198  31.999  38.127  1.00  0.00    -0.200 F 
ATOM     66  C   UNL A   1      38.567  33.723  37.273  1.00  0.00     0.200 A 
ATOM     67  F   UNL A   1      39.935  35.420  36.368  1.00  0.00    -0.200 F 
ATOM     68  F   UNL A   1      38.085  34.578  38.186  1.00  0.00    -0.200 F 
ENDBRANCH  44  58
BRANCH  45  69
ATOM     69  C   UNL A   1      42.800  25.993  27.936  1.00  0.00     0.064 A 
ATOM     70  C   UNL A   1      43.707  26.472  26.979  1.00  0.00     0.173 A 
ATOM     71  C   UNL A   1      42.373  24.663  27.819  1.00  0.00     0.173 A 
ATOM     72  F   UNL A   1      44.137  27.740  27.040  1.00  0.00    -0.203 F 
ATOM     73  C   UNL A   1      44.142  25.664  25.931  1.00  0.00     0.198 A 
ATOM     74  C   UNL A   1      42.836  23.845  26.789  1.00  0.00     0.198 A 
ATOM     75  F   UNL A   1      41.517  24.151  28.714  1.00  0.00    -0.203 F 
ATOM     76  F   UNL A   1      44.966  26.166  24.999  1.00  0.00    -0.200 F 
ATOM     77  C   UNL A   1      43.710  24.350  25.838  1.00  0.00     0.200 A 
ATOM     78  F   UNL A   1      42.430  22.571  26.715  1.00  0.00    -0.200 F 
ATOM     79  F   UNL A   1      44.130  23.573  24.831  1.00  0.00    -0.200 F 
ENDBRANCH  45  69
BRANCH  57  80
ATOM     80  C   UNL A   1      45.008  27.295  34.415  1.00  0.00     0.064 A 
ATOM     81  C   UNL A   1      46.279  27.891  34.422  1.00  0.00     0.173 A 
ATOM     82  C   UNL A   1      44.816  26.148  35.199  1.00  0.00     0.173 A 
ATOM     83  F   UNL A   1      46.518  28.983  33.682  1.00  0.00    -0.203 F 
ATOM     84  C   UNL A   1      47.326  27.328  35.147  1.00  0.00     0.198 A 
ATOM     85  C   UNL A   1      45.855  25.613  35.954  1.00  0.00     0.198 A 
ATOM     86  F   UNL A   1      43.616  25.547  35.237  1.00  0.00    -0.203 F 
ATOM     87  F   UNL A   1      48.550  27.871  35.080  1.00  0.00    -0.200 F 
ATOM     88  C   UNL A   1      47.112  26.195  35.916  1.00  0.00     0.200 A 
ATOM     89  F   UNL A   1      45.640  24.528  36.712  1.00  0.00    -0.200 F 
ATOM     90  F   UNL A   1      48.122  25.655  36.611  1.00  0.00    -0.200 F 
ENDBRANCH  57  80
ENDBRANCH  31  32
ENDBRANCH  23  26
ENDBRANCH  21  22
ENDBRANCH   1  21
TORSDOF 11
ENDMDL
MODEL 3
REMARK VINA RESULT:     -12.5      0.179      1.629
REMARK SMILES Cc1cc(C)cc(C2(C(=O)NCCCNC(=O)c3ccc(-c4c5nc(c(-c6c(F)c(F)c(F)c(F)c6F)c6ccc([nH]6)c(-c6c(F)c(F)c(F)c(F)c6F)c6nc(c(-c7c(F)c(F)c(F)c(F)c7F)c7ccc4[nH]7)C=C6)C=C5)cc3)CCOCC2)c1
REMARK SMILES IDX 13 1 12 2 11 3 9 4 10 5 8 7 81 8 85 9 82 10 84 11 83 12 7 13
REMARK SMILES IDX 1 14 2 15 3 16 86 17 4 18 5 19 6 20 14 21 15 22 16 23 17 25
REMARK SMILES IDX 18 26 19 27 80 28 20 29 79 30 21 31 22 32 23 33 73 34 24 35
REMARK SMILES IDX 78 36 72 37 74 38 25 39 77 40 71 41 70 42 26 44 58 45 38 46
REMARK SMILES IDX 57 47 39 48 42 49 56 50 75 51 40 52 41 53 55 55 76 56 43 57
REMARK SMILES IDX 27 58 28 59 36 60 29 61 30 62 34 63 37 64 31 65 32 66 35 67
REMARK SMILES IDX 33 68 59 69 60 70 68 71 61 72 62 73 66 74 69 75 63 76 64 77
REMARK SMILES IDX 67 78 65 79 44 80 45 81 53 82 46 83 47 84 51 85 54 86 48 87
REMARK SMILES IDX 49 88 52 89 50 90
REMARK H PARENT 11 6 15 24 74 43 42 54
REMARK Flexibility Score: inf
ROOT
ATOM      1  C   UNL A   1      32.883  27.683  25.787  1.00  0.00     0.042 C 
ENDROOT
BRANCH   1   2
ATOM      2  C   UNL A   1      32.710  26.664  24.685  1.00  0.00     0.117 C 
BRANCH   2   3
ATOM      3  N   UNL A   1      33.967  26.130  24.212  1.00  0.00    -0.355 N 
ATOM      4  C   UNL A   1      34.138  24.830  23.834  1.00  0.00     0.230 C 
ATOM      5  O   UNL A   1      34.342  24.674  22.624  1.00  0.00    -0.274 OA
ATOM      6  H   UNL A   1      34.740  26.737  24.160  1.00  0.00     0.163 HD
BRANCH   4   7
ATOM      7  C   UNL A   1      34.079  23.632  24.847  1.00  0.00     0.078 C 
ATOM      8  C   UNL A   1      33.512  23.998  26.244  1.00  0.00     0.050 C 
ATOM      9  C   UNL A   1      33.252  22.523  24.147  1.00  0.00     0.050 C 
ATOM     10  C   UNL A   1      32.009  23.853  26.433  1.00  0.00     0.161 C 
ATOM     11  C   UNL A   1      31.757  22.607  24.386  1.00  0.00     0.161 C 
ATOM     12  O   UNL A   1      31.451  22.731  25.767  1.00  0.00    -0.381 OA
BRANCH   7  13
ATOM     13  C   UNL A   1      35.534  23.090  25.125  1.00  0.00    -0.032 A 
ATOM     14  C   UNL A   1      38.773  24.405  26.701  1.00  0.00     0.044 C 
ATOM     15  C   UNL A   1      37.790  23.491  26.033  1.00  0.00    -0.051 A 
ATOM     16  C   UNL A   1      38.165  22.193  25.682  1.00  0.00     0.006 A 
ATOM     17  C   UNL A   1      36.484  23.920  25.760  1.00  0.00     0.008 A 
ATOM     18  C   UNL A   1      37.265  21.350  25.027  1.00  0.00    -0.051 A 
ATOM     19  C   UNL A   1      37.679  19.948  24.677  1.00  0.00     0.044 C 
ATOM     20  C   UNL A   1      35.975  21.816  24.724  1.00  0.00     0.008 A 
ENDBRANCH   7  13
ENDBRANCH   4   7
ENDBRANCH   2   3
ENDBRANCH   1   2
BRANCH   1  21
ATOM     21  C   UNL A   1      33.726  28.854  25.329  1.00  0.00     0.118 C 
BRANCH  21  22
ATOM     22  N   UNL A   1      33.206  30.128  25.823  1.00  0.00    -0.352 N 
ATOM     23  C   UNL A   1      33.569  30.863  26.922  1.00  0.00     0.251 C 
ATOM     24  H   UNL A   1      32.480  30.518  25.284  1.00  0.00     0.163 HD
ATOM     25  O   UNL A   1      32.842  31.769  27.327  1.00  0.00    -0.269 OA
BRANCH  23  26
ATOM     26  C   UNL A   1      34.832  30.560  27.619  1.00  0.00     0.039 A 
ATOM     27  C   UNL A   1      35.860  31.504  27.640  1.00  0.00     0.014 A 
ATOM     28  C   UNL A   1      34.998  29.329  28.254  1.00  0.00     0.014 A 
ATOM     29  C   UNL A   1      37.032  31.221  28.343  1.00  0.00     0.010 A 
ATOM     30  C   UNL A   1      36.082  29.122  29.086  1.00  0.00     0.010 A 
ATOM     31  C   UNL A   1      37.139  30.039  29.095  1.00  0.00    -0.014 A 
BRANCH  31  32
ATOM     32  C   UNL A   1      38.377  29.694  29.832  1.00  0.00     0.031 A 
ATOM     33  C   UNL A   1      38.613  30.279  31.201  1.00  0.00     0.074 A 
ATOM     34  C   UNL A   1      39.297  28.900  29.254  1.00  0.00     0.049 A 
ATOM     35  N   UNL A   1      39.639  30.134  31.999  1.00  0.00    -0.248 NA
ATOM     36  C   UNL A   1      37.581  31.191  31.726  1.00  0.00     0.031 C 
ATOM     37  C   UNL A   1      39.210  28.340  27.904  1.00  0.00     0.029 A 
ATOM     38  N   UNL A   1      40.488  28.421  29.735  1.00  0.00    -0.354 N 
ATOM     39  C   UNL A   1      39.381  30.946  33.097  1.00  0.00     0.074 A 
ATOM     40  C   UNL A   1      38.154  31.655  32.824  1.00  0.00     0.031 C 
ATOM     41  C   UNL A   1      40.273  27.552  27.685  1.00  0.00     0.029 A 
ATOM     42  C   UNL A   1      41.134  27.580  28.863  1.00  0.00     0.049 A 
ATOM     43  H   UNL A   1      40.846  28.658  30.622  1.00  0.00     0.167 HD
ATOM     44  C   UNL A   1      40.078  31.057  34.251  1.00  0.00     0.037 A 
ATOM     45  C   UNL A   1      42.286  26.902  29.010  1.00  0.00     0.037 A 
ATOM     46  C   UNL A   1      41.276  30.313  34.529  1.00  0.00     0.049 A 
ATOM     47  C   UNL A   1      43.028  27.017  30.316  1.00  0.00     0.074 A 
ATOM     48  C   UNL A   1      42.037  30.299  35.682  1.00  0.00     0.029 A 
ATOM     49  N   UNL A   1      41.882  29.442  33.634  1.00  0.00    -0.354 N 
ATOM     50  N   UNL A   1      42.735  27.729  31.378  1.00  0.00    -0.248 NA
ATOM     51  C   UNL A   1      44.251  26.218  30.448  1.00  0.00     0.031 C 
ATOM     52  C   UNL A   1      43.134  29.457  35.467  1.00  0.00     0.029 A 
ATOM     53  C   UNL A   1      43.019  28.896  34.205  1.00  0.00     0.049 A 
ATOM     54  H   UNL A   1      41.552  29.243  32.728  1.00  0.00     0.167 HD
ATOM     55  C   UNL A   1      43.715  27.436  32.316  1.00  0.00     0.074 A 
ATOM     56  C   UNL A   1      44.598  26.465  31.702  1.00  0.00     0.031 C 
ATOM     57  C   UNL A   1      43.875  27.924  33.573  1.00  0.00     0.037 A 
BRANCH  44  58
ATOM     58  C   UNL A   1      39.550  32.004  35.293  1.00  0.00     0.064 A 
ATOM     59  C   UNL A   1      39.952  33.349  35.342  1.00  0.00     0.173 A 
ATOM     60  C   UNL A   1      38.623  31.566  36.250  1.00  0.00     0.173 A 
ATOM     61  F   UNL A   1      40.850  33.819  34.463  1.00  0.00    -0.203 F 
ATOM     62  C   UNL A   1      39.477  34.207  36.332  1.00  0.00     0.198 A 
ATOM     63  C   UNL A   1      38.121  32.436  37.215  1.00  0.00     0.198 A 
ATOM     64  F   UNL A   1      38.203  30.292  36.252  1.00  0.00    -0.203 F 
ATOM     65  F   UNL A   1      39.929  35.466  36.397  1.00  0.00    -0.200 F 
ATOM     66  C   UNL A   1      38.556  33.752  37.262  1.00  0.00     0.200 A 
ATOM     67  F   UNL A   1      37.220  31.998  38.106  1.00  0.00    -0.200 F 
ATOM     68  F   UNL A   1      38.095  34.578  38.211  1.00  0.00    -0.200 F 
ENDBRANCH  44  58
BRANCH  45  69
ATOM     69  C   UNL A   1      42.777  26.016  27.921  1.00  0.00     0.064 A 
ATOM     70  C   UNL A   1      42.362  24.679  27.837  1.00  0.00     0.173 A 
ATOM     71  C   UNL A   1      43.672  26.481  26.947  1.00  0.00     0.173 A 
ATOM     72  F   UNL A   1      41.516  24.181  28.751  1.00  0.00    -0.203 F 
ATOM     73  C   UNL A   1      42.848  23.834  26.841  1.00  0.00     0.198 A 
ATOM     74  C   UNL A   1      44.132  25.645  25.932  1.00  0.00     0.198 A 
ATOM     75  F   UNL A   1      44.090  27.755  26.973  1.00  0.00    -0.203 F 
ATOM     76  F   UNL A   1      42.478  22.546  26.819  1.00  0.00    -0.200 F 
ATOM     77  C   UNL A   1      43.730  24.319  25.887  1.00  0.00     0.200 A 
ATOM     78  F   UNL A   1      44.968  26.123  25.001  1.00  0.00    -0.200 F 
ATOM     79  F   UNL A   1      44.196  23.507  24.928  1.00  0.00    -0.200 F 
ENDBRANCH  45  69
BRANCH  57  80
ATOM     80  C   UNL A   1      45.015  27.372  34.378  1.00  0.00     0.064 A 
ATOM     81  C   UNL A   1      46.283  27.973  34.376  1.00  0.00     0.173 A 
ATOM     82  C   UNL A   1      44.831  26.228  35.169  1.00  0.00     0.173 A 
ATOM     83  F   UNL A   1      46.514  29.062  33.628  1.00  0.00    -0.203 F 
ATOM     84  C   UNL A   1      47.336  27.419  35.099  1.00  0.00     0.198 A 
ATOM     85  C   UNL A   1      45.875  25.702  35.923  1.00  0.00     0.198 A 
ATOM     86  F   UNL A   1      43.634  25.622  35.217  1.00  0.00    -0.203 F 
ATOM     87  F   UNL A   1      48.557  27.966  35.023  1.00  0.00    -0.200 F 
ATOM     88  C   UNL A   1      47.131  26.289  35.875  1.00  0.00     0.200 A 
ATOM     89  F   UNL A   1      45.669  24.621  36.688  1.00  0.00    -0.200 F 
ATOM     90  F   UNL A   1      48.146  25.757  36.568  1.00  0.00    -0.200 F 
ENDBRANCH  57  80
ENDBRANCH  31  32
ENDBRANCH  23  26
ENDBRANCH  21  22
ENDBRANCH   1  21
TORSDOF 11
ENDMDL
