MODEL 1
REMARK VINA RESULT:     -14.3      0.000      0.000
REMARK SMILES Cc1ccc(Nc2c(Cl)cc(Cl)cc2Cl)c(CC(=O)NCCCNC(=O)c2ccc(-c3c4nc(c(-c5c(F)c(F)c(F)c(F)c5F)c5ccc([nH]5)c(-c5c(F)c(F)c(F)c(F)c5F)c5nc(c(-c6c(F)c(F)c(F)c(F)c6F)c6ccc3[nH]6)C=C5)C=C4)cc2)c1
REMARK SMILES IDX 21 1 20 2 18 3 19 4 17 6 16 7 1 8 2 9 3 10 90 11 4 12 5 13
REMARK SMILES IDX 6 14 7 16 8 17 14 18 9 19 10 20 13 21 15 22 11 23 12 24
REMARK SMILES IDX 22 25 23 26 24 27 25 28 26 30 27 31 28 32 89 33 29 34 88 35
REMARK SMILES IDX 30 36 31 37 32 38 82 39 33 40 87 41 81 42 83 43 34 44 86 45
REMARK SMILES IDX 80 46 79 47 35 49 67 50 47 51 66 52 48 53 51 54 65 55 84 56
REMARK SMILES IDX 49 57 50 58 64 60 85 61 52 62 36 63 37 64 45 65 38 66 39 67
REMARK SMILES IDX 43 68 46 69 40 70 41 71 44 72 42 73 68 74 69 75 77 76 70 77
REMARK SMILES IDX 71 78 75 79 78 80 72 81 73 82 76 83 74 84 53 85 54 86 62 87
REMARK SMILES IDX 55 88 56 89 60 90 63 91 57 92 58 93 61 94 59 95
REMARK H PARENT 20 5 6 15 24 29 83 48 51 59
REMARK Flexibility Score: inf
ROOT
ATOM      1  C   UNL A   1      36.847  21.465  25.041  1.00  0.00     0.117 C 
ENDROOT
BRANCH   1   2
ATOM      2  N   UNL A   1      36.013  21.195  26.201  1.00  0.00    -0.356 N 
ATOM      3  C   UNL A   1      34.858  21.812  26.594  1.00  0.00     0.224 C 
ATOM      4  O   UNL A   1      34.362  21.498  27.679  1.00  0.00    -0.275 OA
ATOM      5  H   UNL A   1      36.322  20.466  26.786  1.00  0.00     0.163 HD
BRANCH   3   6
ATOM      6  C   UNL A   1      34.213  22.893  25.740  1.00  0.00     0.137 C 
BRANCH   6   7
ATOM      7  C   UNL A   1      33.379  22.333  24.607  1.00  0.00    -0.015 A 
ATOM      8  C   UNL A   1      32.346  18.828  23.470  1.00  0.00     0.044 C 
ATOM      9  C   UNL A   1      32.506  20.318  23.520  1.00  0.00    -0.051 A 
ATOM     10  C   UNL A   1      32.059  21.104  22.462  1.00  0.00     0.005 A 
ATOM     11  C   UNL A   1      33.130  20.942  24.604  1.00  0.00     0.009 A 
ATOM     12  C   UNL A   1      32.245  22.489  22.482  1.00  0.00     0.026 A 
ATOM     13  C   UNL A   1      32.915  23.131  23.537  1.00  0.00     0.042 A 
BRANCH  13  14
ATOM     14  N   UNL A   1      33.079  24.535  23.547  1.00  0.00    -0.353 N 
ATOM     15  H   UNL A   1      34.004  24.852  23.663  1.00  0.00     0.167 HD
BRANCH  14  16
ATOM     16  C   UNL A   1      32.100  25.551  23.414  1.00  0.00     0.076 A 
ATOM     17  C   UNL A   1      31.823  26.194  22.190  1.00  0.00     0.067 A 
ATOM     18  C   UNL A   1      31.421  26.017  24.561  1.00  0.00     0.067 A 
ATOM     19  Cl  UNL A   1      32.506  25.656  20.691  1.00  0.00    -0.082 Cl
ATOM     20  C   UNL A   1      30.928  27.269  22.123  1.00  0.00     0.043 A 
ATOM     21  C   UNL A   1      30.521  27.083  24.495  1.00  0.00     0.043 A 
ATOM     22  Cl  UNL A   1      31.710  25.312  26.117  1.00  0.00    -0.082 Cl
ATOM     23  C   UNL A   1      30.289  27.709  23.277  1.00  0.00     0.044 A 
ATOM     24  Cl  UNL A   1      29.204  29.041  23.195  1.00  0.00    -0.084 Cl
ENDBRANCH  14  16
ENDBRANCH  13  14
ENDBRANCH   6   7
ENDBRANCH   3   6
ENDBRANCH   1   2
BRANCH   1  25
ATOM     25  C   UNL A   1      38.333  21.524  25.391  1.00  0.00     0.042 C 
BRANCH  25  26
ATOM     26  C   UNL A   1      38.763  22.789  26.114  1.00  0.00     0.118 C 
BRANCH  26  27
ATOM     27  N   UNL A   1      40.201  22.875  26.353  1.00  0.00    -0.352 N 
ATOM     28  C   UNL A   1      40.955  23.983  26.707  1.00  0.00     0.251 C 
ATOM     29  H   UNL A   1      40.702  22.033  26.248  1.00  0.00     0.163 HD
ATOM     30  O   UNL A   1      42.152  23.894  26.901  1.00  0.00    -0.269 OA
BRANCH  28  31
ATOM     31  C   UNL A   1      40.242  25.256  26.969  1.00  0.00     0.039 A 
ATOM     32  C   UNL A   1      40.680  26.401  26.296  1.00  0.00     0.014 A 
ATOM     33  C   UNL A   1      39.347  25.352  28.028  1.00  0.00     0.014 A 
ATOM     34  C   UNL A   1      40.426  27.650  26.857  1.00  0.00     0.010 A 
ATOM     35  C   UNL A   1      39.182  26.577  28.641  1.00  0.00     0.010 A 
ATOM     36  C   UNL A   1      39.790  27.714  28.096  1.00  0.00    -0.014 A 
BRANCH  36  37
ATOM     37  C   UNL A   1      39.830  28.894  28.952  1.00  0.00     0.031 A 
ATOM     38  C   UNL A   1      38.818  29.959  28.826  1.00  0.00     0.074 A 
ATOM     39  C   UNL A   1      40.749  28.959  29.942  1.00  0.00     0.049 A 
ATOM     40  N   UNL A   1      38.953  31.153  29.293  1.00  0.00    -0.248 NA
ATOM     41  C   UNL A   1      37.567  29.761  28.109  1.00  0.00     0.031 C 
ATOM     42  C   UNL A   1      40.782  29.888  31.069  1.00  0.00     0.029 A 
ATOM     43  N   UNL A   1      41.993  28.306  29.998  1.00  0.00    -0.354 N 
ATOM     44  C   UNL A   1      37.737  31.790  29.193  1.00  0.00     0.074 A 
ATOM     45  C   UNL A   1      36.930  30.903  28.385  1.00  0.00     0.031 C 
ATOM     46  C   UNL A   1      42.048  29.998  31.497  1.00  0.00     0.029 A 
ATOM     47  C   UNL A   1      42.878  29.256  30.567  1.00  0.00     0.049 A 
ATOM     48  H   UNL A   1      42.203  27.389  29.706  1.00  0.00     0.167 HD
ATOM     49  C   UNL A   1      37.530  32.935  29.909  1.00  0.00     0.037 A 
ATOM     50  C   UNL A   1      43.911  29.774  29.840  1.00  0.00     0.037 A 
ATOM     51  C   UNL A   1      38.763  33.391  30.558  1.00  0.00     0.049 A 
ATOM     52  C   UNL A   1      43.873  31.278  29.661  1.00  0.00     0.074 A 
ATOM     53  C   UNL A   1      39.272  33.331  31.844  1.00  0.00     0.029 A 
ATOM     54  N   UNL A   1      39.816  33.789  29.754  1.00  0.00    -0.354 N 
ATOM     55  N   UNL A   1      42.893  32.043  30.055  1.00  0.00    -0.248 NA
ATOM     56  C   UNL A   1      44.892  32.022  28.917  1.00  0.00     0.031 C 
ATOM     57  C   UNL A   1      40.649  33.698  31.798  1.00  0.00     0.029 A 
ATOM     58  C   UNL A   1      40.973  33.974  30.483  1.00  0.00     0.049 A 
ATOM     59  H   UNL A   1      39.749  33.926  28.781  1.00  0.00     0.167 HD
ATOM     60  C   UNL A   1      43.098  33.315  29.594  1.00  0.00     0.074 A 
ATOM     61  C   UNL A   1      44.363  33.256  28.889  1.00  0.00     0.031 C 
ATOM     62  C   UNL A   1      42.196  34.319  29.780  1.00  0.00     0.037 A 
BRANCH  49  63
ATOM     63  C   UNL A   1      36.167  33.524  30.216  1.00  0.00     0.064 A 
ATOM     64  C   UNL A   1      35.379  34.090  29.187  1.00  0.00     0.173 A 
ATOM     65  C   UNL A   1      35.598  33.623  31.499  1.00  0.00     0.173 A 
ATOM     66  F   UNL A   1      35.717  33.969  27.897  1.00  0.00    -0.203 F 
ATOM     67  C   UNL A   1      34.204  34.804  29.441  1.00  0.00     0.198 A 
ATOM     68  C   UNL A   1      34.453  34.386  31.762  1.00  0.00     0.198 A 
ATOM     69  F   UNL A   1      36.077  32.928  32.534  1.00  0.00    -0.203 F 
ATOM     70  F   UNL A   1      33.509  35.324  28.420  1.00  0.00    -0.200 F 
ATOM     71  C   UNL A   1      33.764  34.989  30.734  1.00  0.00     0.200 A 
ATOM     72  F   UNL A   1      34.024  34.520  33.025  1.00  0.00    -0.200 F 
ATOM     73  F   UNL A   1      32.665  35.713  30.983  1.00  0.00    -0.200 F 
ENDBRANCH  49  63
BRANCH  50  74
ATOM     74  C   UNL A   1      44.448  28.813  28.838  1.00  0.00     0.064 A 
ATOM     75  C   UNL A   1      45.193  27.707  29.296  1.00  0.00     0.173 A 
ATOM     76  C   UNL A   1      43.950  28.760  27.531  1.00  0.00     0.173 A 
ATOM     77  F   UNL A   1      45.691  27.704  30.543  1.00  0.00    -0.203 F 
ATOM     78  C   UNL A   1      45.319  26.552  28.530  1.00  0.00     0.198 A 
ATOM     79  C   UNL A   1      44.102  27.610  26.757  1.00  0.00     0.198 A 
ATOM     80  F   UNL A   1      43.214  29.768  27.042  1.00  0.00    -0.203 F 
ATOM     81  F   UNL A   1      45.917  25.469  29.047  1.00  0.00    -0.200 F 
ATOM     82  C   UNL A   1      44.751  26.496  27.270  1.00  0.00     0.200 A 
ATOM     83  F   UNL A   1      43.527  27.544  25.548  1.00  0.00    -0.200 F 
ATOM     84  F   UNL A   1      44.787  25.356  26.567  1.00  0.00    -0.200 F 
ENDBRANCH  50  74
BRANCH  62  85
ATOM     85  C   UNL A   1      42.406  35.720  29.292  1.00  0.00     0.064 A 
ATOM     86  C   UNL A   1      41.852  36.183  28.089  1.00  0.00     0.173 A 
ATOM     87  C   UNL A   1      43.273  36.605  29.963  1.00  0.00     0.173 A 
ATOM     88  F   UNL A   1      41.052  35.395  27.356  1.00  0.00    -0.203 F 
ATOM     89  C   UNL A   1      42.124  37.464  27.604  1.00  0.00     0.198 A 
ATOM     90  C   UNL A   1      43.584  37.864  29.451  1.00  0.00     0.198 A 
ATOM     91  F   UNL A   1      43.823  36.284  31.143  1.00  0.00    -0.203 F 
ATOM     92  F   UNL A   1      41.538  37.887  26.477  1.00  0.00    -0.200 F 
ATOM     93  C   UNL A   1      43.001  38.297  28.278  1.00  0.00     0.200 A 
ATOM     94  F   UNL A   1      44.448  38.653  30.107  1.00  0.00    -0.200 F 
ATOM     95  F   UNL A   1      43.279  39.518  27.799  1.00  0.00    -0.200 F 
ENDBRANCH  62  85
ENDBRANCH  36  37
ENDBRANCH  28  31
ENDBRANCH  26  27
ENDBRANCH  25  26
ENDBRANCH   1  25
TORSDOF 13
ENDMDL
MODEL 2
REMARK VINA RESULT:     -14.2      1.462      2.850
REMARK SMILES Cc1ccc(Nc2c(Cl)cc(Cl)cc2Cl)c(CC(=O)NCCCNC(=O)c2ccc(-c3c4nc(c(-c5c(F)c(F)c(F)c(F)c5F)c5ccc([nH]5)c(-c5c(F)c(F)c(F)c(F)c5F)c5nc(c(-c6c(F)c(F)c(F)c(F)c6F)c6ccc3[nH]6)C=C5)C=C4)cc2)c1
REMARK SMILES IDX 21 1 20 2 18 3 19 4 17 6 16 7 1 8 2 9 3 10 90 11 4 12 5 13
REMARK SMILES IDX 6 14 7 16 8 17 14 18 9 19 10 20 13 21 15 22 11 23 12 24
REMARK SMILES IDX 22 25 23 26 24 27 25 28 26 30 27 31 28 32 89 33 29 34 88 35
REMARK SMILES IDX 30 36 31 37 32 38 82 39 33 40 87 41 81 42 83 43 34 44 86 45
REMARK SMILES IDX 80 46 79 47 35 49 67 50 47 51 66 52 48 53 51 54 65 55 84 56
REMARK SMILES IDX 49 57 50 58 64 60 85 61 52 62 36 63 37 64 45 65 38 66 39 67
REMARK SMILES IDX 43 68 46 69 40 70 41 71 44 72 42 73 68 74 69 75 77 76 70 77
REMARK SMILES IDX 71 78 75 79 78 80 72 81 73 82 76 83 74 84 53 85 54 86 62 87
REMARK SMILES IDX 55 88 56 89 60 90 63 91 57 92 58 93 61 94 59 95
REMARK H PARENT 20 5 6 15 24 29 83 48 51 59
REMARK Flexibility Score: inf
ROOT
ATOM      1  C   UNL A   1      36.660  21.441  25.201  1.00  0.00     0.117 C 
ENDROOT
BRANCH   1   2
ATOM      2  N   UNL A   1      36.158  22.232  24.089  1.00  0.00    -0.356 N 
ATOM      3  C   UNL A   1      35.450  23.400  24.113  1.00  0.00     0.224 C 
ATOM      4  O   UNL A   1      35.025  23.853  23.047  1.00  0.00    -0.275 OA
ATOM      5  H   UNL A   1      36.355  21.876  23.192  1.00  0.00     0.163 HD
BRANCH   3   6
ATOM      6  C   UNL A   1      35.152  24.113  25.423  1.00  0.00     0.137 C 
BRANCH   6   7
ATOM      7  C   UNL A   1      33.962  25.045  25.332  1.00  0.00    -0.015 A 
ATOM      8  C   UNL A   1      33.478  28.765  24.576  1.00  0.00     0.044 C 
ATOM      9  C   UNL A   1      33.193  27.337  24.931  1.00  0.00    -0.051 A 
ATOM     10  C   UNL A   1      31.916  26.960  25.336  1.00  0.00     0.005 A 
ATOM     11  C   UNL A   1      34.200  26.368  24.896  1.00  0.00     0.009 A 
ATOM     12  C   UNL A   1      31.655  25.639  25.713  1.00  0.00     0.026 A 
ATOM     13  C   UNL A   1      32.663  24.661  25.733  1.00  0.00     0.042 A 
BRANCH  13  14
ATOM     14  N   UNL A   1      32.375  23.328  26.102  1.00  0.00    -0.353 N 
ATOM     15  H   UNL A   1      32.001  23.209  27.004  1.00  0.00     0.167 HD
BRANCH  14  16
ATOM     16  C   UNL A   1      32.550  22.136  25.355  1.00  0.00     0.076 A 
ATOM     17  C   UNL A   1      32.042  21.966  24.050  1.00  0.00     0.067 A 
ATOM     18  C   UNL A   1      33.183  21.025  25.955  1.00  0.00     0.067 A 
ATOM     19  Cl  UNL A   1      31.337  23.274  23.158  1.00  0.00    -0.082 Cl
ATOM     20  C   UNL A   1      32.140  20.735  23.389  1.00  0.00     0.043 A 
ATOM     21  C   UNL A   1      33.290  19.799  25.295  1.00  0.00     0.043 A 
ATOM     22  Cl  UNL A   1      33.817  21.122  27.565  1.00  0.00    -0.082 Cl
ATOM     23  C   UNL A   1      32.757  19.660  24.019  1.00  0.00     0.044 A 
ATOM     24  Cl  UNL A   1      32.860  18.144  23.212  1.00  0.00    -0.084 Cl
ENDBRANCH  14  16
ENDBRANCH  13  14
ENDBRANCH   6   7
ENDBRANCH   3   6
ENDBRANCH   1   2
BRANCH   1  25
ATOM     25  C   UNL A   1      38.174  21.561  25.367  1.00  0.00     0.042 C 
BRANCH  25  26
ATOM     26  C   UNL A   1      38.632  22.802  26.113  1.00  0.00     0.118 C 
BRANCH  26  27
ATOM     27  N   UNL A   1      40.073  22.853  26.349  1.00  0.00    -0.352 N 
ATOM     28  C   UNL A   1      40.856  23.944  26.695  1.00  0.00     0.251 C 
ATOM     29  H   UNL A   1      40.552  21.998  26.249  1.00  0.00     0.163 HD
ATOM     30  O   UNL A   1      42.050  23.826  26.887  1.00  0.00    -0.269 OA
BRANCH  28  31
ATOM     31  C   UNL A   1      40.176  25.236  26.949  1.00  0.00     0.039 A 
ATOM     32  C   UNL A   1      40.661  26.371  26.292  1.00  0.00     0.014 A 
ATOM     33  C   UNL A   1      39.262  25.353  27.991  1.00  0.00     0.014 A 
ATOM     34  C   UNL A   1      40.432  27.624  26.853  1.00  0.00     0.010 A 
ATOM     35  C   UNL A   1      39.122  26.580  28.607  1.00  0.00     0.010 A 
ATOM     36  C   UNL A   1      39.774  27.701  28.080  1.00  0.00    -0.014 A 
BRANCH  36  37
ATOM     37  C   UNL A   1      39.832  28.876  28.944  1.00  0.00     0.031 A 
ATOM     38  C   UNL A   1      38.820  29.943  28.842  1.00  0.00     0.074 A 
ATOM     39  C   UNL A   1      40.768  28.931  29.918  1.00  0.00     0.049 A 
ATOM     40  N   UNL A   1      38.967  31.134  29.315  1.00  0.00    -0.248 NA
ATOM     41  C   UNL A   1      37.557  29.754  28.146  1.00  0.00     0.031 C 
ATOM     42  C   UNL A   1      40.823  29.853  31.050  1.00  0.00     0.029 A 
ATOM     43  N   UNL A   1      42.011  28.275  29.947  1.00  0.00    -0.354 N 
ATOM     44  C   UNL A   1      37.751  31.774  29.240  1.00  0.00     0.074 A 
ATOM     45  C   UNL A   1      36.928  30.895  28.441  1.00  0.00     0.031 C 
ATOM     46  C   UNL A   1      42.097  29.957  31.457  1.00  0.00     0.029 A 
ATOM     47  C   UNL A   1      42.909  29.219  30.508  1.00  0.00     0.049 A 
ATOM     48  H   UNL A   1      42.214  27.360  29.645  1.00  0.00     0.167 HD
ATOM     49  C   UNL A   1      37.559  32.915  29.968  1.00  0.00     0.037 A 
ATOM     50  C   UNL A   1      43.930  29.739  29.766  1.00  0.00     0.037 A 
ATOM     51  C   UNL A   1      38.804  33.364  30.598  1.00  0.00     0.049 A 
ATOM     52  C   UNL A   1      43.893  31.245  29.598  1.00  0.00     0.074 A 
ATOM     53  C   UNL A   1      39.335  33.294  31.875  1.00  0.00     0.029 A 
ATOM     54  N   UNL A   1      39.843  33.765  29.779  1.00  0.00    -0.354 N 
ATOM     55  N   UNL A   1      42.922  32.009  30.014  1.00  0.00    -0.248 NA
ATOM     56  C   UNL A   1      44.900  31.992  28.841  1.00  0.00     0.031 C 
ATOM     57  C   UNL A   1      40.712  33.658  31.807  1.00  0.00     0.029 A 
ATOM     58  C   UNL A   1      41.014  33.942  30.489  1.00  0.00     0.049 A 
ATOM     59  H   UNL A   1      39.760  33.908  28.808  1.00  0.00     0.167 HD
ATOM     60  C   UNL A   1      43.122  33.284  29.558  1.00  0.00     0.074 A 
ATOM     61  C   UNL A   1      44.374  33.227  28.830  1.00  0.00     0.031 C 
ATOM     62  C   UNL A   1      42.225  34.289  29.767  1.00  0.00     0.037 A 
BRANCH  49  63
ATOM     63  C   UNL A   1      36.203  33.505  30.302  1.00  0.00     0.064 A 
ATOM     64  C   UNL A   1      35.400  34.083  29.291  1.00  0.00     0.173 A 
ATOM     65  C   UNL A   1      35.655  33.594  31.595  1.00  0.00     0.173 A 
ATOM     66  F   UNL A   1      35.717  33.972  27.995  1.00  0.00    -0.203 F 
ATOM     67  C   UNL A   1      34.231  34.798  29.571  1.00  0.00     0.198 A 
ATOM     68  C   UNL A   1      34.517  34.357  31.884  1.00  0.00     0.198 A 
ATOM     69  F   UNL A   1      36.149  32.888  32.616  1.00  0.00    -0.203 F 
ATOM     70  F   UNL A   1      33.521  35.329  28.566  1.00  0.00    -0.200 F 
ATOM     71  C   UNL A   1      33.813  34.972  30.873  1.00  0.00     0.200 A 
ATOM     72  F   UNL A   1      34.109  34.482  33.155  1.00  0.00    -0.200 F 
ATOM     73  F   UNL A   1      32.720  35.697  31.147  1.00  0.00    -0.200 F 
ENDBRANCH  49  63
BRANCH  50  74
ATOM     74  C   UNL A   1      44.447  28.785  28.748  1.00  0.00     0.064 A 
ATOM     75  C   UNL A   1      45.180  27.663  29.187  1.00  0.00     0.173 A 
ATOM     76  C   UNL A   1      43.939  28.754  27.445  1.00  0.00     0.173 A 
ATOM     77  F   UNL A   1      45.688  27.638  30.430  1.00  0.00    -0.203 F 
ATOM     78  C   UNL A   1      45.286  26.516  28.406  1.00  0.00     0.198 A 
ATOM     79  C   UNL A   1      44.070  27.612  26.655  1.00  0.00     0.198 A 
ATOM     80  F   UNL A   1      43.212  29.777  26.973  1.00  0.00    -0.203 F 
ATOM     81  F   UNL A   1      45.873  25.419  28.905  1.00  0.00    -0.200 F 
ATOM     82  C   UNL A   1      44.708  26.483  27.149  1.00  0.00     0.200 A 
ATOM     83  F   UNL A   1      43.485  27.568  25.449  1.00  0.00    -0.200 F 
ATOM     84  F   UNL A   1      44.724  25.351  26.432  1.00  0.00    -0.200 F 
ENDBRANCH  50  74
BRANCH  62  85
ATOM     85  C   UNL A   1      42.430  35.693  29.284  1.00  0.00     0.064 A 
ATOM     86  C   UNL A   1      41.883  36.156  28.078  1.00  0.00     0.173 A 
ATOM     87  C   UNL A   1      43.286  36.582  29.965  1.00  0.00     0.173 A 
ATOM     88  F   UNL A   1      41.094  35.365  27.336  1.00  0.00    -0.203 F 
ATOM     89  C   UNL A   1      42.151  37.440  27.600  1.00  0.00     0.198 A 
ATOM     90  C   UNL A   1      43.593  37.844  29.460  1.00  0.00     0.198 A 
ATOM     91  F   UNL A   1      43.828  36.260  31.148  1.00  0.00    -0.203 F 
ATOM     92  F   UNL A   1      41.571  37.863  26.469  1.00  0.00    -0.200 F 
ATOM     93  C   UNL A   1      43.017  38.277  28.283  1.00  0.00     0.200 A 
ATOM     94  F   UNL A   1      44.446  38.636  30.125  1.00  0.00    -0.200 F 
ATOM     95  F   UNL A   1      43.291  39.501  27.810  1.00  0.00    -0.200 F 
ENDBRANCH  62  85
ENDBRANCH  36  37
ENDBRANCH  28  31
ENDBRANCH  26  27
ENDBRANCH  25  26
ENDBRANCH   1  25
TORSDOF 13
ENDMDL
MODEL 3
REMARK VINA RESULT:     -14.1      3.927      9.764
REMARK SMILES Cc1ccc(Nc2c(Cl)cc(Cl)cc2Cl)c(CC(=O)NCCCNC(=O)c2ccc(-c3c4nc(c(-c5c(F)c(F)c(F)c(F)c5F)c5ccc([nH]5)c(-c5c(F)c(F)c(F)c(F)c5F)c5nc(c(-c6c(F)c(F)c(F)c(F)c6F)c6ccc3[nH]6)C=C5)C=C4)cc2)c1
REMARK SMILES IDX 21 1 20 2 18 3 19 4 17 6 16 7 1 8 2 9 3 10 90 11 4 12 5 13
REMARK SMILES IDX 6 14 7 16 8 17 14 18 9 19 10 20 13 21 15 22 11 23 12 24
REMARK SMILES IDX 22 25 23 26 24 27 25 28 26 30 27 31 28 32 89 33 29 34 88 35
REMARK SMILES IDX 30 36 31 37 32 38 82 39 33 40 87 41 81 42 83 43 34 44 86 45
REMARK SMILES IDX 80 46 79 47 35 49 67 50 47 51 66 52 48 53 51 54 65 55 84 56
REMARK SMILES IDX 49 57 50 58 64 60 85 61 52 62 36 63 37 64 45 65 38 66 39 67
REMARK SMILES IDX 43 68 46 69 40 70 41 71 44 72 42 73 68 74 69 75 77 76 70 77
REMARK SMILES IDX 71 78 75 79 78 80 72 81 73 82 76 83 74 84 53 85 54 86 62 87
REMARK SMILES IDX 55 88 56 89 60 90 63 91 57 92 58 93 61 94 59 95
REMARK H PARENT 20 5 6 15 24 29 83 48 51 59
REMARK Flexibility Score: inf
ROOT
ATOM      1  C   UNL A   1      32.209  29.008  26.710  1.00  0.00     0.117 C 
ENDROOT
BRANCH   1   2
ATOM      2  N   UNL A   1      31.648  27.675  26.867  1.00  0.00    -0.356 N 
ATOM      3  C   UNL A   1      32.172  26.470  26.494  1.00  0.00     0.224 C 
ATOM      4  O   UNL A   1      31.477  25.459  26.624  1.00  0.00    -0.275 OA
ATOM      5  H   UNL A   1      30.766  27.635  27.304  1.00  0.00     0.163 HD
BRANCH   3   6
ATOM      6  C   UNL A   1      33.566  26.370  25.891  1.00  0.00     0.137 C 
BRANCH   6   7
ATOM      7  C   UNL A   1      33.816  25.049  25.194  1.00  0.00    -0.015 A 
ATOM      8  C   UNL A   1      35.103  21.611  26.272  1.00  0.00     0.044 C 
ATOM      9  C   UNL A   1      34.595  22.737  25.425  1.00  0.00    -0.051 A 
ATOM     10  C   UNL A   1      34.545  22.602  24.040  1.00  0.00     0.005 A 
ATOM     11  C   UNL A   1      34.193  23.948  25.995  1.00  0.00     0.009 A 
ATOM     12  C   UNL A   1      34.115  23.665  23.240  1.00  0.00     0.026 A 
ATOM     13  C   UNL A   1      33.756  24.907  23.790  1.00  0.00     0.042 A 
BRANCH  13  14
ATOM     14  N   UNL A   1      33.309  25.964  22.966  1.00  0.00    -0.353 N 
ATOM     15  H   UNL A   1      33.881  26.169  22.192  1.00  0.00     0.167 HD
BRANCH  14  16
ATOM     16  C   UNL A   1      32.152  26.773  23.097  1.00  0.00     0.076 A 
ATOM     17  C   UNL A   1      30.847  26.241  23.169  1.00  0.00     0.067 A 
ATOM     18  C   UNL A   1      32.279  28.179  23.070  1.00  0.00     0.067 A 
ATOM     19  Cl  UNL A   1      30.553  24.539  23.314  1.00  0.00    -0.082 Cl
ATOM     20  C   UNL A   1      29.725  27.077  23.187  1.00  0.00     0.043 A 
ATOM     21  C   UNL A   1      31.160  29.015  23.096  1.00  0.00     0.043 A 
ATOM     22  Cl  UNL A   1      33.835  28.932  22.955  1.00  0.00    -0.082 Cl
ATOM     23  C   UNL A   1      29.889  28.456  23.144  1.00  0.00     0.044 A 
ATOM     24  Cl  UNL A   1      28.507  29.481  23.147  1.00  0.00    -0.084 Cl
ENDBRANCH  14  16
ENDBRANCH  13  14
ENDBRANCH   6   7
ENDBRANCH   3   6
ENDBRANCH   1   2
BRANCH   1  25
ATOM     25  C   UNL A   1      33.288  29.314  27.747  1.00  0.00     0.042 C 
BRANCH  25  26
ATOM     26  C   UNL A   1      34.269  30.399  27.340  1.00  0.00     0.118 C 
BRANCH  26  27
ATOM     27  N   UNL A   1      34.725  31.232  28.449  1.00  0.00    -0.352 N 
ATOM     28  C   UNL A   1      35.816  31.041  29.285  1.00  0.00     0.251 C 
ATOM     29  H   UNL A   1      34.187  32.038  28.626  1.00  0.00     0.163 HD
ATOM     30  O   UNL A   1      36.089  31.843  30.156  1.00  0.00    -0.269 OA
BRANCH  28  31
ATOM     31  C   UNL A   1      36.714  29.896  29.006  1.00  0.00     0.039 A 
ATOM     32  C   UNL A   1      36.988  29.009  30.052  1.00  0.00     0.014 A 
ATOM     33  C   UNL A   1      37.452  29.856  27.827  1.00  0.00     0.014 A 
ATOM     34  C   UNL A   1      38.165  28.267  30.016  1.00  0.00     0.010 A 
ATOM     35  C   UNL A   1      38.668  29.204  27.836  1.00  0.00     0.010 A 
ATOM     36  C   UNL A   1      39.058  28.474  28.964  1.00  0.00    -0.014 A 
BRANCH  36  37
ATOM     37  C   UNL A   1      40.461  28.079  29.022  1.00  0.00     0.031 A 
ATOM     38  C   UNL A   1      40.904  26.772  28.500  1.00  0.00     0.074 A 
ATOM     39  C   UNL A   1      41.378  28.968  29.464  1.00  0.00     0.049 A 
ATOM     40  N   UNL A   1      42.028  26.213  28.794  1.00  0.00    -0.248 NA
ATOM     41  C   UNL A   1      40.071  25.963  27.624  1.00  0.00     0.031 C 
ATOM     42  C   UNL A   1      42.832  28.888  29.336  1.00  0.00     0.029 A 
ATOM     43  N   UNL A   1      41.168  30.050  30.337  1.00  0.00    -0.354 N 
ATOM     44  C   UNL A   1      42.197  25.133  27.958  1.00  0.00     0.074 A 
ATOM     45  C   UNL A   1      40.919  24.982  27.300  1.00  0.00     0.031 C 
ATOM     46  C   UNL A   1      43.389  29.622  30.312  1.00  0.00     0.029 A 
ATOM     47  C   UNL A   1      42.312  30.071  31.174  1.00  0.00     0.049 A 
ATOM     48  H   UNL A   1      40.396  30.661  30.361  1.00  0.00     0.167 HD
ATOM     49  C   UNL A   1      43.440  24.576  27.842  1.00  0.00     0.037 A 
ATOM     50  C   UNL A   1      42.206  29.810  32.510  1.00  0.00     0.037 A 
ATOM     51  C   UNL A   1      44.379  25.156  28.806  1.00  0.00     0.049 A 
ATOM     52  C   UNL A   1      43.005  28.617  32.992  1.00  0.00     0.074 A 
ATOM     53  C   UNL A   1      45.395  26.094  28.740  1.00  0.00     0.029 A 
ATOM     54  N   UNL A   1      44.142  24.952  30.154  1.00  0.00    -0.354 N 
ATOM     55  N   UNL A   1      43.665  27.807  32.211  1.00  0.00    -0.248 NA
ATOM     56  C   UNL A   1      43.026  28.178  34.390  1.00  0.00     0.031 C 
ATOM     57  C   UNL A   1      45.762  26.452  30.071  1.00  0.00     0.029 A 
ATOM     58  C   UNL A   1      44.963  25.734  30.941  1.00  0.00     0.049 A 
ATOM     59  H   UNL A   1      43.469  24.326  30.509  1.00  0.00     0.167 HD
ATOM     60  C   UNL A   1      44.132  26.751  32.945  1.00  0.00     0.074 A 
ATOM     61  C   UNL A   1      43.711  27.026  34.304  1.00  0.00     0.031 C 
ATOM     62  C   UNL A   1      44.791  25.699  32.382  1.00  0.00     0.037 A 
BRANCH  49  63
ATOM     63  C   UNL A   1      43.874  23.669  26.707  1.00  0.00     0.064 A 
ATOM     64  C   UNL A   1      43.411  22.334  26.635  1.00  0.00     0.173 A 
ATOM     65  C   UNL A   1      44.785  24.019  25.694  1.00  0.00     0.173 A 
ATOM     66  F   UNL A   1      42.448  21.881  27.447  1.00  0.00    -0.203 F 
ATOM     67  C   UNL A   1      43.919  21.407  25.719  1.00  0.00     0.198 A 
ATOM     68  C   UNL A   1      45.336  23.080  24.814  1.00  0.00     0.198 A 
ATOM     69  F   UNL A   1      45.122  25.291  25.463  1.00  0.00    -0.203 F 
ATOM     70  F   UNL A   1      43.443  20.155  25.710  1.00  0.00    -0.200 F 
ATOM     71  C   UNL A   1      44.914  21.769  24.836  1.00  0.00     0.200 A 
ATOM     72  F   UNL A   1      46.277  23.464  23.939  1.00  0.00    -0.200 F 
ATOM     73  F   UNL A   1      45.434  20.871  23.991  1.00  0.00    -0.200 F 
ENDBRANCH  49  63
BRANCH  50  74
ATOM     74  C   UNL A   1      40.901  30.243  33.080  1.00  0.00     0.064 A 
ATOM     75  C   UNL A   1      40.637  31.624  33.188  1.00  0.00     0.173 A 
ATOM     76  C   UNL A   1      39.811  29.369  33.166  1.00  0.00     0.173 A 
ATOM     77  F   UNL A   1      41.645  32.508  33.109  1.00  0.00    -0.203 F 
ATOM     78  C   UNL A   1      39.335  32.110  33.248  1.00  0.00     0.198 A 
ATOM     79  C   UNL A   1      38.509  29.860  33.253  1.00  0.00     0.198 A 
ATOM     80  F   UNL A   1      39.989  28.046  33.046  1.00  0.00    -0.203 F 
ATOM     81  F   UNL A   1      39.112  33.432  33.214  1.00  0.00    -0.200 F 
ATOM     82  C   UNL A   1      38.270  31.227  33.255  1.00  0.00     0.200 A 
ATOM     83  F   UNL A   1      37.475  29.006  33.230  1.00  0.00    -0.200 F 
ATOM     84  F   UNL A   1      37.013  31.690  33.215  1.00  0.00    -0.200 F 
ENDBRANCH  50  74
BRANCH  62  85
ATOM     85  C   UNL A   1      45.319  24.538  33.169  1.00  0.00     0.064 A 
ATOM     86  C   UNL A   1      44.527  23.421  33.475  1.00  0.00     0.173 A 
ATOM     87  C   UNL A   1      46.606  24.569  33.743  1.00  0.00     0.173 A 
ATOM     88  F   UNL A   1      43.272  23.324  33.013  1.00  0.00    -0.203 F 
ATOM     89  C   UNL A   1      45.005  22.385  34.280  1.00  0.00     0.198 A 
ATOM     90  C   UNL A   1      47.062  23.558  34.587  1.00  0.00     0.198 A 
ATOM     91  F   UNL A   1      47.463  25.567  33.482  1.00  0.00    -0.203 F 
ATOM     92  F   UNL A   1      44.237  21.312  34.509  1.00  0.00    -0.200 F 
ATOM     93  C   UNL A   1      46.266  22.461  34.846  1.00  0.00     0.200 A 
ATOM     94  F   UNL A   1      48.279  23.655  35.142  1.00  0.00    -0.200 F 
ATOM     95  F   UNL A   1      46.715  21.476  35.637  1.00  0.00    -0.200 F 
ENDBRANCH  62  85
ENDBRANCH  36  37
ENDBRANCH  28  31
ENDBRANCH  26  27
ENDBRANCH  25  26
ENDBRANCH   1  25
TORSDOF 13
ENDMDL
