MODEL 1
REMARK VINA RESULT:     -12.7      0.000      0.000
REMARK SMILES CC[C@@H]1CC[C@@](Cc2ccc(O)cc2)(C(=O)NCCCNC(=O)c2ccc(-c3c4nc(c(-c5c(F)c(F)c(F)c(F)c5F)c5ccc([nH]5)c(-c5c(F)c(F)c(F)c(F)c5F)c5nc(c(-c6c(F)c(F)c(F)c(F)c6F)c6ccc3[nH]6)C=C5)C=C4)cc2)C1
REMARK SMILES IDX 18 1 17 2 15 3 16 4 6 6 3 7 4 8 87 9 5 10 2 11 1 12 7 13
REMARK SMILES IDX 8 14 9 15 14 16 10 17 13 18 11 19 12 20 19 22 20 23 21 24
REMARK SMILES IDX 22 25 23 27 24 28 25 29 86 30 26 31 85 32 27 33 28 34 29 35
REMARK SMILES IDX 79 36 30 37 84 38 78 39 80 40 31 41 83 42 77 43 76 44 32 46
REMARK SMILES IDX 64 47 44 48 63 49 45 50 48 51 62 52 81 53 46 54 47 55 61 57
REMARK SMILES IDX 82 58 49 59 33 60 34 61 42 62 35 63 36 64 40 65 43 66 37 67
REMARK SMILES IDX 38 68 41 69 39 70 65 71 66 72 74 73 67 74 68 75 72 76 75 77
REMARK SMILES IDX 69 78 70 79 73 80 71 81 50 82 51 83 59 84 52 85 53 86 57 87
REMARK SMILES IDX 60 88 54 89 55 90 58 91 56 92
REMARK H PARENT 17 5 12 21 21 26 80 45 48 56
REMARK Flexibility Score: inf
ROOT
ATOM      1  C   UNL A   1      31.622  31.058  26.123  1.00  0.00     0.117 C 
ENDROOT
BRANCH   1   2
ATOM      2  N   UNL A   1      32.847  30.340  26.413  1.00  0.00    -0.356 N 
ATOM      3  C   UNL A   1      33.310  29.155  25.930  1.00  0.00     0.226 C 
ATOM      4  O   UNL A   1      34.511  28.938  26.122  1.00  0.00    -0.274 OA
ATOM      5  H   UNL A   1      33.439  30.779  27.066  1.00  0.00     0.163 HD
BRANCH   3   6
ATOM      6  C   UNL A   1      32.410  28.148  25.176  1.00  0.00     0.053 C 
ATOM      7  C   UNL A   1      33.263  26.049  26.095  1.00  0.00    -0.010 C 
ATOM      8  C   UNL A   1      31.798  26.122  26.501  1.00  0.00     0.005 C 
ATOM      9  C   UNL A   1      33.276  26.894  24.823  1.00  0.00     0.020 C 
ATOM     10  C   UNL A   1      31.330  27.523  26.099  1.00  0.00     0.017 C 
BRANCH   7  11
ATOM     11  C   UNL A   1      33.734  24.606  25.921  1.00  0.00     0.000 C 
ATOM     12  C   UNL A   1      34.623  24.410  24.703  1.00  0.00     0.004 C 
ENDBRANCH   7  11
BRANCH   6  13
ATOM     13  C   UNL A   1      31.910  28.738  23.819  1.00  0.00     0.052 C 
BRANCH  13  14
ATOM     14  C   UNL A   1      30.439  28.679  23.469  1.00  0.00    -0.047 A 
ATOM     15  C   UNL A   1      29.732  29.853  23.143  1.00  0.00     0.007 A 
ATOM     16  C   UNL A   1      29.740  27.463  23.501  1.00  0.00     0.007 A 
ATOM     17  C   UNL A   1      28.340  29.828  22.982  1.00  0.00     0.046 A 
ATOM     18  C   UNL A   1      28.351  27.439  23.339  1.00  0.00     0.046 A 
ATOM     19  C   UNL A   1      27.658  28.626  23.130  1.00  0.00     0.115 A 
BRANCH  19  20
ATOM     20  O   UNL A   1      26.295  28.578  23.126  1.00  0.00    -0.508 OA
ATOM     21  H   UNL A   1      25.799  29.356  23.283  1.00  0.00     0.293 HD
ENDBRANCH  19  20
ENDBRANCH  13  14
ENDBRANCH   6  13
ENDBRANCH   3   6
ENDBRANCH   1   2
BRANCH   1  22
ATOM     22  C   UNL A   1      31.403  32.277  26.989  1.00  0.00     0.042 C 
BRANCH  22  23
ATOM     23  C   UNL A   1      32.717  32.941  27.373  1.00  0.00     0.118 C 
BRANCH  23  24
ATOM     24  N   UNL A   1      32.569  34.377  27.636  1.00  0.00    -0.352 N 
ATOM     25  C   UNL A   1      33.031  35.145  28.680  1.00  0.00     0.251 C 
ATOM     26  H   UNL A   1      32.058  34.870  26.956  1.00  0.00     0.163 HD
ATOM     27  O   UNL A   1      32.533  36.249  28.891  1.00  0.00    -0.269 OA
BRANCH  25  28
ATOM     28  C   UNL A   1      34.100  34.606  29.552  1.00  0.00     0.039 A 
ATOM     29  C   UNL A   1      33.784  34.014  30.776  1.00  0.00     0.014 A 
ATOM     30  C   UNL A   1      35.422  34.627  29.110  1.00  0.00     0.014 A 
ATOM     31  C   UNL A   1      34.776  33.325  31.484  1.00  0.00     0.010 A 
ATOM     32  C   UNL A   1      36.363  33.824  29.734  1.00  0.00     0.010 A 
ATOM     33  C   UNL A   1      36.055  33.158  30.929  1.00  0.00    -0.014 A 
BRANCH  33  34
ATOM     34  C   UNL A   1      37.109  32.303  31.542  1.00  0.00     0.031 A 
ATOM     35  C   UNL A   1      37.594  32.617  32.933  1.00  0.00     0.074 A 
ATOM     36  C   UNL A   1      37.737  31.363  30.808  1.00  0.00     0.049 A 
ATOM     37  N   UNL A   1      38.672  32.208  33.553  1.00  0.00    -0.248 NA
ATOM     38  C   UNL A   1      36.788  33.578  33.705  1.00  0.00     0.031 C 
ATOM     39  C   UNL A   1      37.412  30.996  29.428  1.00  0.00     0.029 A 
ATOM     40  N   UNL A   1      38.810  30.561  31.116  1.00  0.00    -0.354 N 
ATOM     41  C   UNL A   1      38.704  32.911  34.750  1.00  0.00     0.074 A 
ATOM     42  C   UNL A   1      37.569  33.806  34.750  1.00  0.00     0.031 C 
ATOM     43  C   UNL A   1      38.248  30.029  29.019  1.00  0.00     0.029 A 
ATOM     44  C   UNL A   1      39.203  29.744  30.084  1.00  0.00     0.049 A 
ATOM     45  H   UNL A   1      39.255  30.570  31.995  1.00  0.00     0.167 HD
ATOM     46  C   UNL A   1      39.589  32.802  35.771  1.00  0.00     0.037 A 
ATOM     47  C   UNL A   1      40.230  28.876  30.000  1.00  0.00     0.037 A 
ATOM     48  C   UNL A   1      40.665  31.849  35.802  1.00  0.00     0.049 A 
ATOM     49  C   UNL A   1      41.156  28.718  31.176  1.00  0.00     0.074 A 
ATOM     50  C   UNL A   1      41.566  31.596  36.821  1.00  0.00     0.029 A 
ATOM     51  N   UNL A   1      40.969  30.973  34.771  1.00  0.00    -0.354 N 
ATOM     52  N   UNL A   1      41.156  29.359  32.320  1.00  0.00    -0.248 NA
ATOM     53  C   UNL A   1      42.223  27.716  31.051  1.00  0.00     0.031 C 
ATOM     54  C   UNL A   1      42.429  30.582  36.398  1.00  0.00     0.029 A 
ATOM     55  C   UNL A   1      42.042  30.176  35.131  1.00  0.00     0.049 A 
ATOM     56  H   UNL A   1      40.493  30.926  33.910  1.00  0.00     0.167 HD
ATOM     57  C   UNL A   1      42.195  28.815  33.062  1.00  0.00     0.074 A 
ATOM     58  C   UNL A   1      42.802  27.788  32.242  1.00  0.00     0.031 C 
ATOM     59  C   UNL A   1      42.608  29.136  34.312  1.00  0.00     0.037 A 
BRANCH  46  60
ATOM     60  C   UNL A   1      39.413  33.724  36.943  1.00  0.00     0.064 A 
ATOM     61  C   UNL A   1      38.697  33.337  38.086  1.00  0.00     0.173 A 
ATOM     62  C   UNL A   1      39.985  35.006  36.931  1.00  0.00     0.173 A 
ATOM     63  F   UNL A   1      38.119  32.128  38.142  1.00  0.00    -0.203 F 
ATOM     64  C   UNL A   1      38.525  34.213  39.155  1.00  0.00     0.198 A 
ATOM     65  C   UNL A   1      39.840  35.866  38.017  1.00  0.00     0.198 A 
ATOM     66  F   UNL A   1      40.687  35.425  35.867  1.00  0.00    -0.203 F 
ATOM     67  F   UNL A   1      37.782  33.842  40.207  1.00  0.00    -0.200 F 
ATOM     68  C   UNL A   1      39.101  35.473  39.122  1.00  0.00     0.200 A 
ATOM     69  F   UNL A   1      40.410  37.079  37.990  1.00  0.00    -0.200 F 
ATOM     70  F   UNL A   1      38.937  36.312  40.154  1.00  0.00    -0.200 F 
ENDBRANCH  46  60
BRANCH  47  71
ATOM     71  C   UNL A   1      40.417  28.060  28.772  1.00  0.00     0.064 A 
ATOM     72  C   UNL A   1      39.803  26.806  28.650  1.00  0.00     0.173 A 
ATOM     73  C   UNL A   1      41.206  28.507  27.703  1.00  0.00     0.173 A 
ATOM     74  F   UNL A   1      39.055  26.327  29.656  1.00  0.00    -0.203 F 
ATOM     75  C   UNL A   1      39.987  26.020  27.514  1.00  0.00     0.198 A 
ATOM     76  C   UNL A   1      41.368  27.731  26.556  1.00  0.00     0.198 A 
ATOM     77  F   UNL A   1      41.809  29.703  27.767  1.00  0.00    -0.203 F 
ATOM     78  F   UNL A   1      39.425  24.806  27.444  1.00  0.00    -0.200 F 
ATOM     79  C   UNL A   1      40.766  26.485  26.467  1.00  0.00     0.200 A 
ATOM     80  F   UNL A   1      42.111  28.190  25.539  1.00  0.00    -0.200 F 
ATOM     81  F   UNL A   1      40.941  25.730  25.373  1.00  0.00    -0.200 F 
ENDBRANCH  47  71
BRANCH  59  82
ATOM     82  C   UNL A   1      43.727  28.331  34.898  1.00  0.00     0.064 A 
ATOM     83  C   UNL A   1      45.064  28.733  34.783  1.00  0.00     0.173 A 
ATOM     84  C   UNL A   1      43.445  27.175  35.642  1.00  0.00     0.173 A 
ATOM     85  F   UNL A   1      45.382  29.823  34.070  1.00  0.00    -0.203 F 
ATOM     86  C   UNL A   1      46.084  27.997  35.381  1.00  0.00     0.198 A 
ATOM     87  C   UNL A   1      44.464  26.455  36.259  1.00  0.00     0.198 A 
ATOM     88  F   UNL A   1      42.180  26.755  35.785  1.00  0.00    -0.203 F 
ATOM     89  F   UNL A   1      47.360  28.380  35.232  1.00  0.00    -0.200 F 
ATOM     90  C   UNL A   1      45.783  26.865  36.125  1.00  0.00     0.200 A 
ATOM     91  F   UNL A   1      44.171  25.370  36.987  1.00  0.00    -0.200 F 
ATOM     92  F   UNL A   1      46.765  26.166  36.710  1.00  0.00    -0.200 F 
ENDBRANCH  59  82
ENDBRANCH  33  34
ENDBRANCH  25  28
ENDBRANCH  23  24
ENDBRANCH  22  23
ENDBRANCH   1  22
TORSDOF 14
ENDMDL
MODEL 2
REMARK VINA RESULT:     -12.7      1.540      2.417
REMARK SMILES CC[C@@H]1CC[C@@](Cc2ccc(O)cc2)(C(=O)NCCCNC(=O)c2ccc(-c3c4nc(c(-c5c(F)c(F)c(F)c(F)c5F)c5ccc([nH]5)c(-c5c(F)c(F)c(F)c(F)c5F)c5nc(c(-c6c(F)c(F)c(F)c(F)c6F)c6ccc3[nH]6)C=C5)C=C4)cc2)C1
REMARK SMILES IDX 18 1 17 2 15 3 16 4 6 6 3 7 4 8 87 9 5 10 2 11 1 12 7 13
REMARK SMILES IDX 8 14 9 15 14 16 10 17 13 18 11 19 12 20 19 22 20 23 21 24
REMARK SMILES IDX 22 25 23 27 24 28 25 29 86 30 26 31 85 32 27 33 28 34 29 35
REMARK SMILES IDX 79 36 30 37 84 38 78 39 80 40 31 41 83 42 77 43 76 44 32 46
REMARK SMILES IDX 64 47 44 48 63 49 45 50 48 51 62 52 81 53 46 54 47 55 61 57
REMARK SMILES IDX 82 58 49 59 33 60 34 61 42 62 35 63 36 64 40 65 43 66 37 67
REMARK SMILES IDX 38 68 41 69 39 70 65 71 66 72 74 73 67 74 68 75 72 76 75 77
REMARK SMILES IDX 69 78 70 79 73 80 71 81 50 82 51 83 59 84 52 85 53 86 57 87
REMARK SMILES IDX 60 88 54 89 55 90 58 91 56 92
REMARK H PARENT 17 5 12 21 21 26 80 45 48 56
REMARK Flexibility Score: inf
ROOT
ATOM      1  C   UNL A   1      31.941  29.513  25.612  1.00  0.00     0.117 C 
ENDROOT
BRANCH   1   2
ATOM      2  N   UNL A   1      33.128  29.319  24.802  1.00  0.00    -0.356 N 
ATOM      3  C   UNL A   1      33.469  28.296  23.972  1.00  0.00     0.226 C 
ATOM      4  O   UNL A   1      34.391  28.538  23.187  1.00  0.00    -0.274 OA
ATOM      5  H   UNL A   1      33.794  30.040  24.865  1.00  0.00     0.163 HD
BRANCH   3   6
ATOM      6  C   UNL A   1      32.751  26.926  23.988  1.00  0.00     0.053 C 
ATOM      7  C   UNL A   1      34.472  25.558  25.056  1.00  0.00    -0.010 C 
ATOM      8  C   UNL A   1      33.266  25.516  25.982  1.00  0.00     0.005 C 
ATOM      9  C   UNL A   1      33.816  25.817  23.702  1.00  0.00     0.020 C 
ATOM     10  C   UNL A   1      32.273  26.532  25.411  1.00  0.00     0.017 C 
BRANCH   7  11
ATOM     11  C   UNL A   1      35.300  24.277  25.142  1.00  0.00     0.000 C 
ATOM     12  C   UNL A   1      34.909  23.388  26.312  1.00  0.00     0.004 C 
ENDBRANCH   7  11
BRANCH   6  13
ATOM     13  C   UNL A   1      31.690  26.828  22.845  1.00  0.00     0.052 C 
BRANCH  13  14
ATOM     14  C   UNL A   1      30.346  27.504  23.006  1.00  0.00    -0.047 A 
ATOM     15  C   UNL A   1      29.283  26.842  23.648  1.00  0.00     0.007 A 
ATOM     16  C   UNL A   1      30.119  28.786  22.483  1.00  0.00     0.007 A 
ATOM     17  C   UNL A   1      27.995  27.395  23.654  1.00  0.00     0.046 A 
ATOM     18  C   UNL A   1      28.834  29.337  22.490  1.00  0.00     0.046 A 
ATOM     19  C   UNL A   1      27.774  28.617  23.030  1.00  0.00     0.115 A 
BRANCH  19  20
ATOM     20  O   UNL A   1      26.516  29.123  22.882  1.00  0.00    -0.508 OA
ATOM     21  H   UNL A   1      25.824  28.823  23.437  1.00  0.00     0.293 HD
ENDBRANCH  19  20
ENDBRANCH  13  14
ENDBRANCH   6  13
ENDBRANCH   3   6
ENDBRANCH   1   2
BRANCH   1  22
ATOM     22  C   UNL A   1      31.616  30.963  25.888  1.00  0.00     0.042 C 
BRANCH  22  23
ATOM     23  C   UNL A   1      32.176  31.423  27.226  1.00  0.00     0.118 C 
BRANCH  23  24
ATOM     24  N   UNL A   1      32.525  32.848  27.233  1.00  0.00    -0.352 N 
ATOM     25  C   UNL A   1      33.611  33.499  27.771  1.00  0.00     0.251 C 
ATOM     26  H   UNL A   1      31.878  33.433  26.779  1.00  0.00     0.163 HD
ATOM     27  O   UNL A   1      33.563  34.712  27.959  1.00  0.00    -0.269 OA
BRANCH  25  28
ATOM     28  C   UNL A   1      34.809  32.711  28.144  1.00  0.00     0.039 A 
ATOM     29  C   UNL A   1      36.050  33.335  28.289  1.00  0.00     0.014 A 
ATOM     30  C   UNL A   1      34.679  31.352  28.422  1.00  0.00     0.014 A 
ATOM     31  C   UNL A   1      37.119  32.622  28.845  1.00  0.00     0.010 A 
ATOM     32  C   UNL A   1      35.689  30.694  29.104  1.00  0.00     0.010 A 
ATOM     33  C   UNL A   1      36.924  31.319  29.330  1.00  0.00    -0.014 A 
BRANCH  33  34
ATOM     34  C   UNL A   1      37.962  30.559  30.079  1.00  0.00     0.031 A 
ATOM     35  C   UNL A   1      38.186  30.863  31.538  1.00  0.00     0.074 A 
ATOM     36  C   UNL A   1      38.801  29.728  29.429  1.00  0.00     0.049 A 
ATOM     37  N   UNL A   1      39.196  30.548  32.310  1.00  0.00    -0.248 NA
ATOM     38  C   UNL A   1      37.165  31.694  32.197  1.00  0.00     0.031 C 
ATOM     39  C   UNL A   1      38.739  29.389  28.007  1.00  0.00     0.029 A 
ATOM     40  N   UNL A   1      39.899  29.036  29.883  1.00  0.00    -0.354 N 
ATOM     41  C   UNL A   1      38.961  31.196  33.515  1.00  0.00     0.074 A 
ATOM     42  C   UNL A   1      37.743  31.960  33.358  1.00  0.00     0.031 C 
ATOM     43  C   UNL A   1      39.734  28.539  27.710  1.00  0.00     0.029 A 
ATOM     44  C   UNL A   1      40.539  28.314  28.905  1.00  0.00     0.049 A 
ATOM     45  H   UNL A   1      40.198  29.055  30.821  1.00  0.00     0.167 HD
ATOM     46  C   UNL A   1      39.683  31.140  34.660  1.00  0.00     0.037 A 
ATOM     47  C   UNL A   1      41.660  27.569  28.963  1.00  0.00     0.037 A 
ATOM     48  C   UNL A   1      40.844  30.311  34.837  1.00  0.00     0.049 A 
ATOM     49  C   UNL A   1      42.405  27.462  30.266  1.00  0.00     0.074 A 
ATOM     50  C   UNL A   1      41.600  30.114  35.979  1.00  0.00     0.029 A 
ATOM     51  N   UNL A   1      41.404  29.521  33.844  1.00  0.00    -0.354 N 
ATOM     52  N   UNL A   1      42.153  28.048  31.412  1.00  0.00    -0.248 NA
ATOM     53  C   UNL A   1      43.588  26.591  30.286  1.00  0.00     0.031 C 
ATOM     54  C   UNL A   1      42.630  29.221  35.672  1.00  0.00     0.029 A 
ATOM     55  C   UNL A   1      42.493  28.831  34.348  1.00  0.00     0.049 A 
ATOM     56  H   UNL A   1      41.076  29.460  32.918  1.00  0.00     0.167 HD
ATOM     57  C   UNL A   1      43.121  27.589  32.295  1.00  0.00     0.074 A 
ATOM     58  C   UNL A   1      43.963  26.673  31.555  1.00  0.00     0.031 C 
ATOM     59  C   UNL A   1      43.295  27.898  33.602  1.00  0.00     0.037 A 
BRANCH  46  60
ATOM     60  C   UNL A   1      39.223  31.984  35.814  1.00  0.00     0.064 A 
ATOM     61  C   UNL A   1      39.663  33.306  35.984  1.00  0.00     0.173 A 
ATOM     62  C   UNL A   1      38.315  31.471  36.753  1.00  0.00     0.173 A 
ATOM     63  F   UNL A   1      40.542  33.839  35.122  1.00  0.00    -0.203 F 
ATOM     64  C   UNL A   1      39.244  34.067  37.071  1.00  0.00     0.198 A 
ATOM     65  C   UNL A   1      37.871  32.248  37.820  1.00  0.00     0.198 A 
ATOM     66  F   UNL A   1      37.855  30.216  36.635  1.00  0.00    -0.203 F 
ATOM     67  F   UNL A   1      39.729  35.304  37.245  1.00  0.00    -0.200 F 
ATOM     68  C   UNL A   1      38.344  33.540  37.984  1.00  0.00     0.200 A 
ATOM     69  F   UNL A   1      36.989  31.742  38.695  1.00  0.00    -0.200 F 
ATOM     70  F   UNL A   1      37.939  34.277  39.029  1.00  0.00    -0.200 F 
ENDBRANCH  46  60
BRANCH  47  71
ATOM     71  C   UNL A   1      42.129  26.834  27.758  1.00  0.00     0.064 A 
ATOM     72  C   UNL A   1      41.622  25.562  27.459  1.00  0.00     0.173 A 
ATOM     73  C   UNL A   1      43.083  27.378  26.888  1.00  0.00     0.173 A 
ATOM     74  F   UNL A   1      40.721  24.992  28.274  1.00  0.00    -0.203 F 
ATOM     75  C   UNL A   1      42.068  24.852  26.346  1.00  0.00     0.198 A 
ATOM     76  C   UNL A   1      43.509  26.677  25.760  1.00  0.00     0.198 A 
ATOM     77  F   UNL A   1      43.594  28.595  27.125  1.00  0.00    -0.203 F 
ATOM     78  F   UNL A   1      41.600  23.619  26.110  1.00  0.00    -0.200 F 
ATOM     79  C   UNL A   1      43.007  25.412  25.496  1.00  0.00     0.200 A 
ATOM     80  F   UNL A   1      44.408  27.228  24.932  1.00  0.00    -0.200 F 
ATOM     81  F   UNL A   1      43.434  24.730  24.424  1.00  0.00    -0.200 F 
ENDBRANCH  47  71
BRANCH  59  82
ATOM     82  C   UNL A   1      44.396  27.196  34.338  1.00  0.00     0.064 A 
ATOM     83  C   UNL A   1      45.679  27.748  34.449  1.00  0.00     0.173 A 
ATOM     84  C   UNL A   1      44.139  25.983  34.995  1.00  0.00     0.173 A 
ATOM     85  F   UNL A   1      45.975  28.898  33.825  1.00  0.00    -0.203 F 
ATOM     86  C   UNL A   1      46.672  27.102  35.181  1.00  0.00     0.198 A 
ATOM     87  C   UNL A   1      45.126  25.353  35.747  1.00  0.00     0.198 A 
ATOM     88  F   UNL A   1      42.924  25.419  34.923  1.00  0.00    -0.203 F 
ATOM     89  F   UNL A   1      47.902  27.631  35.248  1.00  0.00    -0.200 F 
ATOM     90  C   UNL A   1      46.393  25.912  35.836  1.00  0.00     0.200 A 
ATOM     91  F   UNL A   1      44.852  24.210  36.389  1.00  0.00    -0.200 F 
ATOM     92  F   UNL A   1      47.346  25.300  36.551  1.00  0.00    -0.200 F 
ENDBRANCH  59  82
ENDBRANCH  33  34
ENDBRANCH  25  28
ENDBRANCH  23  24
ENDBRANCH  22  23
ENDBRANCH   1  22
TORSDOF 14
ENDMDL
MODEL 3
REMARK VINA RESULT:     -12.6      2.736      8.529
REMARK SMILES CC[C@@H]1CC[C@@](Cc2ccc(O)cc2)(C(=O)NCCCNC(=O)c2ccc(-c3c4nc(c(-c5c(F)c(F)c(F)c(F)c5F)c5ccc([nH]5)c(-c5c(F)c(F)c(F)c(F)c5F)c5nc(c(-c6c(F)c(F)c(F)c(F)c6F)c6ccc3[nH]6)C=C5)C=C4)cc2)C1
REMARK SMILES IDX 18 1 17 2 15 3 16 4 6 6 3 7 4 8 87 9 5 10 2 11 1 12 7 13
REMARK SMILES IDX 8 14 9 15 14 16 10 17 13 18 11 19 12 20 19 22 20 23 21 24
REMARK SMILES IDX 22 25 23 27 24 28 25 29 86 30 26 31 85 32 27 33 28 34 29 35
REMARK SMILES IDX 79 36 30 37 84 38 78 39 80 40 31 41 83 42 77 43 76 44 32 46
REMARK SMILES IDX 64 47 44 48 63 49 45 50 48 51 62 52 81 53 46 54 47 55 61 57
REMARK SMILES IDX 82 58 49 59 33 60 34 61 42 62 35 63 36 64 40 65 43 66 37 67
REMARK SMILES IDX 38 68 41 69 39 70 65 71 66 72 74 73 67 74 68 75 72 76 75 77
REMARK SMILES IDX 69 78 70 79 73 80 71 81 50 82 51 83 59 84 52 85 53 86 57 87
REMARK SMILES IDX 60 88 54 89 55 90 58 91 56 92
REMARK H PARENT 17 5 12 21 21 26 80 45 48 56
REMARK Flexibility Score: inf
ROOT
ATOM      1  C   UNL A   1      33.335  26.429  25.640  1.00  0.00     0.117 C 
ENDROOT
BRANCH   1   2
ATOM      2  N   UNL A   1      33.800  26.043  24.323  1.00  0.00    -0.356 N 
ATOM      3  C   UNL A   1      33.921  24.811  23.759  1.00  0.00     0.226 C 
ATOM      4  O   UNL A   1      34.054  24.802  22.531  1.00  0.00    -0.274 OA
ATOM      5  H   UNL A   1      34.073  26.791  23.744  1.00  0.00     0.163 HD
BRANCH   3   6
ATOM      6  C   UNL A   1      33.881  23.502  24.583  1.00  0.00     0.053 C 
ATOM      7  C   UNL A   1      36.240  22.870  24.490  1.00  0.00    -0.010 C 
ATOM      8  C   UNL A   1      35.921  23.089  25.961  1.00  0.00     0.005 C 
ATOM      9  C   UNL A   1      34.873  22.486  23.928  1.00  0.00     0.020 C 
ATOM     10  C   UNL A   1      34.508  23.678  25.992  1.00  0.00     0.017 C 
BRANCH   7  11
ATOM     11  C   UNL A   1      37.339  21.826  24.295  1.00  0.00     0.000 C 
ATOM     12  C   UNL A   1      36.993  20.475  24.901  1.00  0.00     0.004 C 
ENDBRANCH   7  11
BRANCH   6  13
ATOM     13  C   UNL A   1      32.466  22.840  24.528  1.00  0.00     0.052 C 
BRANCH  13  14
ATOM     14  C   UNL A   1      32.322  21.414  24.043  1.00  0.00    -0.047 A 
ATOM     15  C   UNL A   1      32.479  20.335  24.934  1.00  0.00     0.007 A 
ATOM     16  C   UNL A   1      32.071  21.135  22.691  1.00  0.00     0.007 A 
ATOM     17  C   UNL A   1      32.511  19.016  24.462  1.00  0.00     0.046 A 
ATOM     18  C   UNL A   1      32.102  19.819  22.221  1.00  0.00     0.046 A 
ATOM     19  C   UNL A   1      32.371  18.776  23.100  1.00  0.00     0.115 A 
BRANCH  19  20
ATOM     20  O   UNL A   1      32.540  17.527  22.578  1.00  0.00    -0.508 OA
ATOM     21  H   UNL A   1      31.844  16.903  22.623  1.00  0.00     0.293 HD
ENDBRANCH  19  20
ENDBRANCH  13  14
ENDBRANCH   6  13
ENDBRANCH   3   6
ENDBRANCH   1   2
BRANCH   1  22
ATOM     22  C   UNL A   1      32.480  27.676  25.650  1.00  0.00     0.042 C 
BRANCH  22  23
ATOM     23  C   UNL A   1      33.294  28.921  25.327  1.00  0.00     0.118 C 
BRANCH  23  24
ATOM     24  N   UNL A   1      32.736  30.134  25.935  1.00  0.00    -0.352 N 
ATOM     25  C   UNL A   1      33.192  30.897  26.985  1.00  0.00     0.251 C 
ATOM     26  H   UNL A   1      31.901  30.454  25.525  1.00  0.00     0.163 HD
ATOM     27  O   UNL A   1      32.426  31.674  27.552  1.00  0.00    -0.269 OA
BRANCH  25  28
ATOM     28  C   UNL A   1      34.594  30.739  27.433  1.00  0.00     0.039 A 
ATOM     29  C   UNL A   1      35.399  31.860  27.651  1.00  0.00     0.014 A 
ATOM     30  C   UNL A   1      35.089  29.466  27.708  1.00  0.00     0.014 A 
ATOM     31  C   UNL A   1      36.643  31.705  28.273  1.00  0.00     0.010 A 
ATOM     32  C   UNL A   1      36.249  29.329  28.453  1.00  0.00     0.010 A 
ATOM     33  C   UNL A   1      37.043  30.446  28.750  1.00  0.00    -0.014 A 
BRANCH  33  34
ATOM     34  C   UNL A   1      38.271  30.231  29.564  1.00  0.00     0.031 A 
ATOM     35  C   UNL A   1      39.342  29.305  29.047  1.00  0.00     0.074 A 
ATOM     36  C   UNL A   1      38.357  30.725  30.815  1.00  0.00     0.049 A 
ATOM     37  N   UNL A   1      40.342  28.749  29.684  1.00  0.00    -0.248 NA
ATOM     38  C   UNL A   1      39.229  28.896  27.638  1.00  0.00     0.031 C 
ATOM     39  C   UNL A   1      37.367  31.585  31.464  1.00  0.00     0.029 A 
ATOM     40  N   UNL A   1      39.319  30.546  31.780  1.00  0.00    -0.354 N 
ATOM     41  C   UNL A   1      40.929  27.880  28.773  1.00  0.00     0.074 A 
ATOM     42  C   UNL A   1      40.146  27.944  27.558  1.00  0.00     0.031 C 
ATOM     43  C   UNL A   1      37.782  31.878  32.707  1.00  0.00     0.029 A 
ATOM     44  C   UNL A   1      39.038  31.183  32.965  1.00  0.00     0.049 A 
ATOM     45  H   UNL A   1      40.133  30.011  31.636  1.00  0.00     0.167 HD
ATOM     46  C   UNL A   1      42.036  27.115  28.926  1.00  0.00     0.037 A 
ATOM     47  C   UNL A   1      39.710  31.191  34.132  1.00  0.00     0.037 A 
ATOM     48  C   UNL A   1      42.858  27.121  30.106  1.00  0.00     0.049 A 
ATOM     49  C   UNL A   1      40.979  30.391  34.255  1.00  0.00     0.074 A 
ATOM     50  C   UNL A   1      44.047  26.450  30.333  1.00  0.00     0.029 A 
ATOM     51  N   UNL A   1      42.587  27.856  31.249  1.00  0.00    -0.354 N 
ATOM     52  N   UNL A   1      41.547  29.603  33.375  1.00  0.00    -0.248 NA
ATOM     53  C   UNL A   1      41.701  30.482  35.531  1.00  0.00     0.031 C 
ATOM     54  C   UNL A   1      44.483  26.763  31.624  1.00  0.00     0.029 A 
ATOM     55  C   UNL A   1      43.587  27.659  32.185  1.00  0.00     0.049 A 
ATOM     56  H   UNL A   1      41.799  28.433  31.377  1.00  0.00     0.167 HD
ATOM     57  C   UNL A   1      42.708  29.135  33.975  1.00  0.00     0.074 A 
ATOM     58  C   UNL A   1      42.766  29.730  35.294  1.00  0.00     0.031 C 
ATOM     59  C   UNL A   1      43.642  28.289  33.478  1.00  0.00     0.037 A 
BRANCH  46  60
ATOM     60  C   UNL A   1      42.429  26.225  27.783  1.00  0.00     0.064 A 
ATOM     61  C   UNL A   1      41.910  24.929  27.643  1.00  0.00     0.173 A 
ATOM     62  C   UNL A   1      43.325  26.680  26.802  1.00  0.00     0.173 A 
ATOM     63  F   UNL A   1      41.061  24.440  28.560  1.00  0.00    -0.203 F 
ATOM     64  C   UNL A   1      42.302  24.109  26.589  1.00  0.00     0.198 A 
ATOM     65  C   UNL A   1      43.688  25.869  25.730  1.00  0.00     0.198 A 
ATOM     66  F   UNL A   1      43.847  27.914  26.881  1.00  0.00    -0.203 F 
ATOM     67  F   UNL A   1      41.840  22.853  26.514  1.00  0.00    -0.200 F 
ATOM     68  C   UNL A   1      43.185  24.581  25.630  1.00  0.00     0.200 A 
ATOM     69  F   UNL A   1      44.530  26.332  24.796  1.00  0.00    -0.200 F 
ATOM     70  F   UNL A   1      43.558  23.791  24.614  1.00  0.00    -0.200 F 
ENDBRANCH  46  60
BRANCH  47  71
ATOM     71  C   UNL A   1      39.218  32.012  35.269  1.00  0.00     0.064 A 
ATOM     72  C   UNL A   1      39.527  33.377  35.347  1.00  0.00     0.173 A 
ATOM     73  C   UNL A   1      38.437  31.460  36.294  1.00  0.00     0.173 A 
ATOM     74  F   UNL A   1      40.288  33.946  34.400  1.00  0.00    -0.203 F 
ATOM     75  C   UNL A   1      39.091  34.155  36.418  1.00  0.00     0.198 A 
ATOM     76  C   UNL A   1      37.979  32.245  37.351  1.00  0.00     0.198 A 
ATOM     77  F   UNL A   1      38.107  30.161  36.262  1.00  0.00    -0.203 F 
ATOM     78  F   UNL A   1      39.440  35.447  36.490  1.00  0.00    -0.200 F 
ATOM     79  C   UNL A   1      38.314  33.590  37.416  1.00  0.00     0.200 A 
ATOM     80  F   UNL A   1      37.216  31.698  38.308  1.00  0.00    -0.200 F 
ATOM     81  F   UNL A   1      37.893  34.338  38.445  1.00  0.00    -0.200 F 
ENDBRANCH  47  71
BRANCH  59  82
ATOM     82  C   UNL A   1      44.840  28.004  34.332  1.00  0.00     0.064 A 
ATOM     83  C   UNL A   1      44.858  26.945  35.249  1.00  0.00     0.173 A 
ATOM     84  C   UNL A   1      46.009  28.765  34.178  1.00  0.00     0.173 A 
ATOM     85  F   UNL A   1      43.759  26.199  35.441  1.00  0.00    -0.203 F 
ATOM     86  C   UNL A   1      46.000  26.666  35.994  1.00  0.00     0.198 A 
ATOM     87  C   UNL A   1      47.157  28.468  34.906  1.00  0.00     0.198 A 
ATOM     88  F   UNL A   1      46.042  29.784  33.307  1.00  0.00    -0.203 F 
ATOM     89  F   UNL A   1      45.986  25.669  36.890  1.00  0.00    -0.200 F 
ATOM     90  C   UNL A   1      47.150  27.421  35.816  1.00  0.00     0.200 A 
ATOM     91  F   UNL A   1      48.271  29.189  34.724  1.00  0.00    -0.200 F 
ATOM     92  F   UNL A   1      48.253  27.142  36.525  1.00  0.00    -0.200 F 
ENDBRANCH  59  82
ENDBRANCH  33  34
ENDBRANCH  25  28
ENDBRANCH  23  24
ENDBRANCH  22  23
ENDBRANCH   1  22
TORSDOF 14
ENDMDL
