MODEL 1
REMARK VINA RESULT:     -13.2      0.000      0.000
REMARK SMILES NC(=O)[C@@H]1CCC[N@@H+]1[C@@H](C(=O)NCCCNC(=O)c1ccc(-c2c3nc(c(-c4c(F)c(F)c(F)c(F)c4F)c4ccc([nH]4)c(-c4c(F)c(F)c(F)c(F)c4F)c4nc(c(-c5c(F)c(F)c(F)c(F)c5F)c5ccc2[nH]5)C=C4)C=C3)cc1)c1c[nH]c2cc(OCc3ccccc3)ccc12
REMARK SMILES IDX 13 1 12 2 10 3 11 4 9 6 8 7 4 8 5 9 6 10 7 11 2 13 1 14 3 17
REMARK SMILES IDX 82 18 83 19 98 20 84 21 85 22 97 23 86 25 96 26 87 27 88 28
REMARK SMILES IDX 89 29 90 30 91 31 95 32 92 33 94 34 93 35 14 36 15 37 16 38
REMARK SMILES IDX 17 39 18 41 19 42 20 43 81 44 21 45 80 46 22 47 23 48 24 49
REMARK SMILES IDX 74 50 25 51 79 52 73 53 75 54 26 55 78 56 72 57 71 58 27 60
REMARK SMILES IDX 59 61 39 62 58 63 40 64 43 65 57 66 76 67 41 68 42 69 56 71
REMARK SMILES IDX 77 72 44 73 28 74 29 75 37 76 30 77 31 78 35 79 38 80 32 81
REMARK SMILES IDX 33 82 36 83 34 84 60 85 61 86 69 87 62 88 63 89 67 90 70 91
REMARK SMILES IDX 64 92 65 93 68 94 66 95 45 96 46 97 54 98 47 99 48 100
REMARK SMILES IDX 52 101 55 102 49 103 50 104 53 105 51 106
REMARK H PARENT 12 5 8 12 1 15 1 16 84 24 16 40 75 59 43 70
REMARK Flexibility Score: inf
ROOT
ATOM      1  C   UNL A   1      33.308  26.317  25.420  1.00  0.00     0.118 C 
ENDROOT
BRANCH   1   2
ATOM      2  N   UNL A   1      32.484  25.565  26.349  1.00  0.00    -0.351 N 
ATOM      3  C   UNL A   1      31.863  24.353  26.368  1.00  0.00     0.283 C 
ATOM      4  O   UNL A   1      31.058  24.280  27.305  1.00  0.00    -0.268 OA
ATOM      5  H   UNL A   1      32.336  26.062  27.185  1.00  0.00     0.163 HD
BRANCH   3   6
ATOM      6  C   UNL A   1      32.094  23.209  25.330  1.00  0.00     0.308 C 
BRANCH   6   7
ATOM      7  N   UNL A   1      33.527  22.743  25.228  1.00  0.00    -0.311 N 
ATOM      8  C   UNL A   1      33.928  21.391  25.634  1.00  0.00     0.275 C 
ATOM      9  C   UNL A   1      34.233  21.523  27.122  1.00  0.00     0.081 C 
ATOM     10  C   UNL A   1      34.747  22.945  27.280  1.00  0.00     0.068 C 
ATOM     11  C   UNL A   1      34.517  23.583  25.924  1.00  0.00     0.264 C 
ATOM     12  H   UNL A   1      33.531  22.795  24.209  1.00  0.00     0.349 HD
BRANCH   8  13
ATOM     13  C   UNL A   1      33.086  20.224  25.131  1.00  0.00     0.275 C 
ATOM     14  N   UNL A   1      32.805  19.267  26.066  1.00  0.00    -0.365 N 
ATOM     15  H   UNL A   1      32.267  18.480  25.820  1.00  0.00     0.159 HD
ATOM     16  H   UNL A   1      33.141  19.365  26.987  1.00  0.00     0.159 HD
ATOM     17  O   UNL A   1      32.721  20.044  23.966  1.00  0.00    -0.268 OA
ENDBRANCH   8  13
ENDBRANCH   6   7
BRANCH   6  18
ATOM     18  C   UNL A   1      31.746  23.574  23.839  1.00  0.00     0.044 A 
ATOM     19  C   UNL A   1      32.571  23.219  22.771  1.00  0.00     0.094 A 
ATOM     20  C   UNL A   1      30.953  24.672  23.324  1.00  0.00     0.009 A 
ATOM     21  N   UNL A   1      32.690  24.345  21.985  1.00  0.00    -0.361 N 
ATOM     22  C   UNL A   1      31.815  25.309  22.428  1.00  0.00     0.050 A 
ATOM     23  C   UNL A   1      29.812  25.387  23.741  1.00  0.00     0.015 A 
ATOM     24  H   UNL A   1      33.305  24.445  21.224  1.00  0.00     0.166 HD
ATOM     25  C   UNL A   1      31.784  26.696  22.227  1.00  0.00     0.073 A 
ATOM     26  C   UNL A   1      29.736  26.769  23.517  1.00  0.00     0.047 A 
ATOM     27  C   UNL A   1      30.772  27.425  22.866  1.00  0.00     0.121 A 
BRANCH  27  28
ATOM     28  O   UNL A   1      30.999  28.770  22.946  1.00  0.00    -0.489 OA
BRANCH  28  29
ATOM     29  C   UNL A   1      30.293  29.523  23.927  1.00  0.00     0.265 C 
BRANCH  29  30
ATOM     30  C   UNL A   1      29.438  30.499  23.164  1.00  0.00    -0.011 A 
ATOM     31  C   UNL A   1      29.117  31.742  23.731  1.00  0.00     0.007 A 
ATOM     32  C   UNL A   1      29.055  30.226  21.847  1.00  0.00     0.007 A 
ATOM     33  C   UNL A   1      28.437  32.701  22.984  1.00  0.00     0.000 A 
ATOM     34  C   UNL A   1      28.371  31.185  21.103  1.00  0.00     0.000 A 
ATOM     35  C   UNL A   1      28.068  32.424  21.669  1.00  0.00     0.000 A 
ENDBRANCH  29  30
ENDBRANCH  28  29
ENDBRANCH  27  28
ENDBRANCH   6  18
ENDBRANCH   3   6
ENDBRANCH   1   2
BRANCH   1  36
ATOM     36  C   UNL A   1      33.383  27.827  25.737  1.00  0.00     0.042 C 
BRANCH  36  37
ATOM     37  C   UNL A   1      33.232  28.232  27.213  1.00  0.00     0.118 C 
BRANCH  37  38
ATOM     38  N   UNL A   1      33.289  29.673  27.376  1.00  0.00    -0.352 N 
ATOM     39  C   UNL A   1      34.282  30.467  27.880  1.00  0.00     0.251 C 
ATOM     40  H   UNL A   1      32.485  30.156  27.076  1.00  0.00     0.163 HD
ATOM     41  O   UNL A   1      34.014  31.644  28.157  1.00  0.00    -0.269 OA
BRANCH  39  42
ATOM     42  C   UNL A   1      35.667  29.981  28.099  1.00  0.00     0.039 A 
ATOM     43  C   UNL A   1      36.000  29.486  29.368  1.00  0.00     0.014 A 
ATOM     44  C   UNL A   1      36.673  30.130  27.139  1.00  0.00     0.014 A 
ATOM     45  C   UNL A   1      37.323  29.151  29.676  1.00  0.00     0.010 A 
ATOM     46  C   UNL A   1      37.992  29.756  27.436  1.00  0.00     0.010 A 
ATOM     47  C   UNL A   1      38.335  29.287  28.715  1.00  0.00    -0.014 A 
BRANCH  47  48
ATOM     48  C   UNL A   1      39.753  28.988  29.058  1.00  0.00     0.031 A 
ATOM     49  C   UNL A   1      40.569  29.973  29.853  1.00  0.00     0.074 A 
ATOM     50  C   UNL A   1      40.321  27.839  28.644  1.00  0.00     0.049 A 
ATOM     51  N   UNL A   1      41.826  29.909  30.220  1.00  0.00    -0.248 NA
ATOM     52  C   UNL A   1      39.885  31.203  30.281  1.00  0.00     0.031 C 
ATOM     53  C   UNL A   1      39.652  26.807  27.854  1.00  0.00     0.029 A 
ATOM     54  N   UNL A   1      41.594  27.351  28.823  1.00  0.00    -0.354 N 
ATOM     55  C   UNL A   1      42.085  31.089  30.905  1.00  0.00     0.074 A 
ATOM     56  C   UNL A   1      40.867  31.871  30.870  1.00  0.00     0.031 C 
ATOM     57  C   UNL A   1      40.514  25.802  27.624  1.00  0.00     0.029 A 
ATOM     58  C   UNL A   1      41.805  26.133  28.224  1.00  0.00     0.049 A 
ATOM     59  H   UNL A   1      42.286  27.829  29.332  1.00  0.00     0.167 HD
ATOM     60  C   UNL A   1      43.228  31.481  31.521  1.00  0.00     0.037 A 
ATOM     61  C   UNL A   1      42.914  25.372  28.158  1.00  0.00     0.037 A 
ATOM     62  C   UNL A   1      44.434  30.696  31.582  1.00  0.00     0.049 A 
ATOM     63  C   UNL A   1      44.173  25.833  28.844  1.00  0.00     0.074 A 
ATOM     64  C   UNL A   1      45.623  30.986  32.229  1.00  0.00     0.029 A 
ATOM     65  N   UNL A   1      44.605  29.465  30.968  1.00  0.00    -0.354 N 
ATOM     66  N   UNL A   1      44.387  26.925  29.534  1.00  0.00    -0.248 NA
ATOM     67  C   UNL A   1      45.344  24.949  28.744  1.00  0.00     0.031 C 
ATOM     68  C   UNL A   1      46.527  29.950  31.973  1.00  0.00     0.029 A 
ATOM     69  C   UNL A   1      45.887  28.993  31.203  1.00  0.00     0.049 A 
ATOM     70  H   UNL A   1      43.919  28.995  30.440  1.00  0.00     0.167 HD
ATOM     71  C   UNL A   1      45.702  26.849  29.973  1.00  0.00     0.074 A 
ATOM     72  C   UNL A   1      46.235  25.596  29.483  1.00  0.00     0.031 C 
ATOM     73  C   UNL A   1      46.404  27.739  30.716  1.00  0.00     0.037 A 
BRANCH  60  74
ATOM     74  C   UNL A   1      43.232  32.829  32.187  1.00  0.00     0.064 A 
ATOM     75  C   UNL A   1      42.900  32.981  33.541  1.00  0.00     0.173 A 
ATOM     76  C   UNL A   1      43.618  33.973  31.474  1.00  0.00     0.173 A 
ATOM     77  F   UNL A   1      42.517  31.919  34.265  1.00  0.00    -0.203 F 
ATOM     78  C   UNL A   1      42.925  34.234  34.149  1.00  0.00     0.198 A 
ATOM     79  C   UNL A   1      43.670  35.220  32.091  1.00  0.00     0.198 A 
ATOM     80  F   UNL A   1      43.957  33.882  30.179  1.00  0.00    -0.203 F 
ATOM     81  F   UNL A   1      42.559  34.362  35.431  1.00  0.00    -0.200 F 
ATOM     82  C   UNL A   1      43.316  35.351  33.426  1.00  0.00     0.200 A 
ATOM     83  F   UNL A   1      44.062  36.297  31.396  1.00  0.00    -0.200 F 
ATOM     84  F   UNL A   1      43.346  36.555  34.014  1.00  0.00    -0.200 F 
ENDBRANCH  60  74
BRANCH  61  85
ATOM     85  C   UNL A   1      42.881  24.077  27.430  1.00  0.00     0.064 A 
ATOM     86  C   UNL A   1      43.244  24.001  26.078  1.00  0.00     0.173 A 
ATOM     87  C   UNL A   1      42.485  22.893  28.069  1.00  0.00     0.173 A 
ATOM     88  F   UNL A   1      43.607  25.111  25.420  1.00  0.00    -0.203 F 
ATOM     89  C   UNL A   1      43.198  22.792  25.388  1.00  0.00     0.198 A 
ATOM     90  C   UNL A   1      42.465  21.679  27.384  1.00  0.00     0.198 A 
ATOM     91  F   UNL A   1      42.132  22.912  29.362  1.00  0.00    -0.203 F 
ATOM     92  F   UNL A   1      43.511  22.754  24.086  1.00  0.00    -0.200 F 
ATOM     93  C   UNL A   1      42.815  21.631  26.042  1.00  0.00     0.200 A 
ATOM     94  F   UNL A   1      42.108  20.558  28.023  1.00  0.00    -0.200 F 
ATOM     95  F   UNL A   1      42.777  20.468  25.380  1.00  0.00    -0.200 F 
ENDBRANCH  61  85
BRANCH  73  96
ATOM     96  C   UNL A   1      47.817  27.377  31.074  1.00  0.00     0.064 A 
ATOM     97  C   UNL A   1      48.906  27.834  30.319  1.00  0.00     0.173 A 
ATOM     98  C   UNL A   1      48.083  26.595  32.207  1.00  0.00     0.173 A 
ATOM     99  F   UNL A   1      48.702  28.572  29.217  1.00  0.00    -0.203 F 
ATOM    100  C   UNL A   1      50.211  27.500  30.673  1.00  0.00     0.198 A 
ATOM    101  C   UNL A   1      49.390  26.286  32.574  1.00  0.00     0.198 A 
ATOM    102  F   UNL A   1      47.076  26.137  32.967  1.00  0.00    -0.203 F 
ATOM    103  F   UNL A   1      51.235  27.911  29.911  1.00  0.00    -0.200 F 
ATOM    104  C   UNL A   1      50.453  26.734  31.803  1.00  0.00     0.200 A 
ATOM    105  F   UNL A   1      49.623  25.555  33.673  1.00  0.00    -0.200 F 
ATOM    106  F   UNL A   1      51.710  26.419  32.144  1.00  0.00    -0.200 F 
ENDBRANCH  73  96
ENDBRANCH  47  48
ENDBRANCH  39  42
ENDBRANCH  37  38
ENDBRANCH  36  37
ENDBRANCH   1  36
TORSDOF 16
ENDMDL
MODEL 2
REMARK VINA RESULT:     -12.9      2.487      3.352
REMARK SMILES NC(=O)[C@@H]1CCC[N@@H+]1[C@@H](C(=O)NCCCNC(=O)c1ccc(-c2c3nc(c(-c4c(F)c(F)c(F)c(F)c4F)c4ccc([nH]4)c(-c4c(F)c(F)c(F)c(F)c4F)c4nc(c(-c5c(F)c(F)c(F)c(F)c5F)c5ccc2[nH]5)C=C4)C=C3)cc1)c1c[nH]c2cc(OCc3ccccc3)ccc12
REMARK SMILES IDX 13 1 12 2 10 3 11 4 9 6 8 7 4 8 5 9 6 10 7 11 2 13 1 14 3 17
REMARK SMILES IDX 82 18 83 19 98 20 84 21 85 22 97 23 86 25 96 26 87 27 88 28
REMARK SMILES IDX 89 29 90 30 91 31 95 32 92 33 94 34 93 35 14 36 15 37 16 38
REMARK SMILES IDX 17 39 18 41 19 42 20 43 81 44 21 45 80 46 22 47 23 48 24 49
REMARK SMILES IDX 74 50 25 51 79 52 73 53 75 54 26 55 78 56 72 57 71 58 27 60
REMARK SMILES IDX 59 61 39 62 58 63 40 64 43 65 57 66 76 67 41 68 42 69 56 71
REMARK SMILES IDX 77 72 44 73 28 74 29 75 37 76 30 77 31 78 35 79 38 80 32 81
REMARK SMILES IDX 33 82 36 83 34 84 60 85 61 86 69 87 62 88 63 89 67 90 70 91
REMARK SMILES IDX 64 92 65 93 68 94 66 95 45 96 46 97 54 98 47 99 48 100
REMARK SMILES IDX 52 101 55 102 49 103 50 104 53 105 51 106
REMARK H PARENT 12 5 8 12 1 15 1 16 84 24 16 40 75 59 43 70
REMARK Flexibility Score: inf
ROOT
ATOM      1  C   UNL A   1      32.878  26.244  25.668  1.00  0.00     0.118 C 
ENDROOT
BRANCH   1   2
ATOM      2  N   UNL A   1      32.034  25.388  26.483  1.00  0.00    -0.351 N 
ATOM      3  C   UNL A   1      31.499  24.139  26.386  1.00  0.00     0.283 C 
ATOM      4  O   UNL A   1      30.627  23.961  27.244  1.00  0.00    -0.268 OA
ATOM      5  H   UNL A   1      31.782  25.827  27.327  1.00  0.00     0.163 HD
BRANCH   3   6
ATOM      6  C   UNL A   1      31.896  23.073  25.315  1.00  0.00     0.308 C 
BRANCH   6   7
ATOM      7  N   UNL A   1      33.364  22.716  25.308  1.00  0.00    -0.311 N 
ATOM      8  C   UNL A   1      33.834  21.386  25.713  1.00  0.00     0.275 C 
ATOM      9  C   UNL A   1      34.021  21.499  27.221  1.00  0.00     0.081 C 
ATOM     10  C   UNL A   1      34.415  22.950  27.448  1.00  0.00     0.068 C 
ATOM     11  C   UNL A   1      34.236  23.607  26.094  1.00  0.00     0.264 C 
ATOM     12  H   UNL A   1      33.437  22.796  24.294  1.00  0.00     0.349 HD
BRANCH   8  13
ATOM     13  C   UNL A   1      33.120  20.175  25.123  1.00  0.00     0.275 C 
ATOM     14  N   UNL A   1      32.905  19.148  25.998  1.00  0.00    -0.365 N 
ATOM     15  H   UNL A   1      32.450  18.329  25.695  1.00  0.00     0.159 HD
ATOM     16  H   UNL A   1      33.205  19.226  26.933  1.00  0.00     0.159 HD
ATOM     17  O   UNL A   1      32.806  20.025  23.939  1.00  0.00    -0.268 OA
ENDBRANCH   8  13
ENDBRANCH   6   7
BRANCH   6  18
ATOM     18  C   UNL A   1      31.640  23.495  23.820  1.00  0.00     0.044 A 
ATOM     19  C   UNL A   1      32.524  23.169  22.791  1.00  0.00     0.094 A 
ATOM     20  C   UNL A   1      30.888  24.619  23.299  1.00  0.00     0.009 A 
ATOM     21  N   UNL A   1      32.698  24.322  22.054  1.00  0.00    -0.361 N 
ATOM     22  C   UNL A   1      31.806  25.278  22.479  1.00  0.00     0.050 A 
ATOM     23  C   UNL A   1      29.730  25.329  23.674  1.00  0.00     0.015 A 
ATOM     24  H   UNL A   1      33.358  24.442  21.334  1.00  0.00     0.166 HD
ATOM     25  C   UNL A   1      31.799  26.671  22.327  1.00  0.00     0.073 A 
ATOM     26  C   UNL A   1      29.678  26.720  23.496  1.00  0.00     0.047 A 
ATOM     27  C   UNL A   1      30.757  27.388  22.932  1.00  0.00     0.121 A 
BRANCH  27  28
ATOM     28  O   UNL A   1      30.990  28.727  23.073  1.00  0.00    -0.489 OA
BRANCH  28  29
ATOM     29  C   UNL A   1      30.201  29.461  24.005  1.00  0.00     0.265 C 
BRANCH  29  30
ATOM     30  C   UNL A   1      29.380  30.421  23.188  1.00  0.00    -0.011 A 
ATOM     31  C   UNL A   1      29.152  31.724  23.656  1.00  0.00     0.007 A 
ATOM     32  C   UNL A   1      28.936  30.064  21.910  1.00  0.00     0.007 A 
ATOM     33  C   UNL A   1      28.505  32.658  22.852  1.00  0.00     0.000 A 
ATOM     34  C   UNL A   1      28.285  30.999  21.109  1.00  0.00     0.000 A 
ATOM     35  C   UNL A   1      28.075  32.296  21.576  1.00  0.00     0.000 A 
ENDBRANCH  29  30
ENDBRANCH  28  29
ENDBRANCH  27  28
ENDBRANCH   6  18
ENDBRANCH   3   6
ENDBRANCH   1   2
BRANCH   1  36
ATOM     36  C   UNL A   1      33.116  27.644  26.277  1.00  0.00     0.042 C 
BRANCH  36  37
ATOM     37  C   UNL A   1      33.738  28.704  25.352  1.00  0.00     0.118 C 
BRANCH  37  38
ATOM     38  N   UNL A   1      33.273  30.037  25.687  1.00  0.00    -0.352 N 
ATOM     39  C   UNL A   1      33.562  30.830  26.764  1.00  0.00     0.251 C 
ATOM     40  H   UNL A   1      32.652  30.435  25.035  1.00  0.00     0.163 HD
ATOM     41  O   UNL A   1      32.855  31.826  26.970  1.00  0.00    -0.269 OA
BRANCH  39  42
ATOM     42  C   UNL A   1      34.689  30.552  27.688  1.00  0.00     0.039 A 
ATOM     43  C   UNL A   1      35.816  31.382  27.623  1.00  0.00     0.014 A 
ATOM     44  C   UNL A   1      34.721  29.420  28.510  1.00  0.00     0.014 A 
ATOM     45  C   UNL A   1      36.965  31.083  28.364  1.00  0.00     0.010 A 
ATOM     46  C   UNL A   1      35.858  29.143  29.283  1.00  0.00     0.010 A 
ATOM     47  C   UNL A   1      37.000  29.957  29.199  1.00  0.00    -0.014 A 
BRANCH  47  48
ATOM     48  C   UNL A   1      38.241  29.601  29.943  1.00  0.00     0.031 A 
ATOM     49  C   UNL A   1      38.495  30.166  31.316  1.00  0.00     0.074 A 
ATOM     50  C   UNL A   1      39.153  28.783  29.384  1.00  0.00     0.049 A 
ATOM     51  N   UNL A   1      39.529  30.002  32.105  1.00  0.00    -0.248 NA
ATOM     52  C   UNL A   1      37.454  31.045  31.871  1.00  0.00     0.031 C 
ATOM     53  C   UNL A   1      39.040  28.181  28.056  1.00  0.00     0.029 A 
ATOM     54  N   UNL A   1      40.358  28.324  29.858  1.00  0.00    -0.354 N 
ATOM     55  C   UNL A   1      39.271  30.765  33.237  1.00  0.00     0.074 A 
ATOM     56  C   UNL A   1      38.001  31.424  33.017  1.00  0.00     0.031 C 
ATOM     57  C   UNL A   1      40.125  27.423  27.825  1.00  0.00     0.029 A 
ATOM     58  C   UNL A   1      41.023  27.510  28.975  1.00  0.00     0.049 A 
ATOM     59  H   UNL A   1      40.710  28.556  30.747  1.00  0.00     0.167 HD
ATOM     60  C   UNL A   1      40.015  30.893  34.363  1.00  0.00     0.037 A 
ATOM     61  C   UNL A   1      42.224  26.908  29.074  1.00  0.00     0.037 A 
ATOM     62  C   UNL A   1      41.266  30.218  34.597  1.00  0.00     0.049 A 
ATOM     63  C   UNL A   1      43.036  27.073  30.332  1.00  0.00     0.074 A 
ATOM     64  C   UNL A   1      42.064  30.243  35.729  1.00  0.00     0.029 A 
ATOM     65  N   UNL A   1      41.903  29.397  33.679  1.00  0.00    -0.354 N 
ATOM     66  N   UNL A   1      42.754  27.753  31.415  1.00  0.00    -0.248 NA
ATOM     67  C   UNL A   1      44.331  26.379  30.381  1.00  0.00     0.031 C 
ATOM     68  C   UNL A   1      43.203  29.471  35.480  1.00  0.00     0.029 A 
ATOM     69  C   UNL A   1      43.094  28.928  34.211  1.00  0.00     0.049 A 
ATOM     70  H   UNL A   1      41.561  29.180  32.781  1.00  0.00     0.167 HD
ATOM     71  C   UNL A   1      43.819  27.549  32.283  1.00  0.00     0.074 A 
ATOM     72  C   UNL A   1      44.747  26.670  31.605  1.00  0.00     0.031 C 
ATOM     73  C   UNL A   1      44.008  28.046  33.529  1.00  0.00     0.037 A 
BRANCH  60  74
ATOM     74  C   UNL A   1      39.495  31.803  35.441  1.00  0.00     0.064 A 
ATOM     75  C   UNL A   1      38.603  31.346  36.422  1.00  0.00     0.173 A 
ATOM     76  C   UNL A   1      39.930  33.134  35.519  1.00  0.00     0.173 A 
ATOM     77  F   UNL A   1      38.151  30.084  36.387  1.00  0.00    -0.203 F 
ATOM     78  C   UNL A   1      38.143  32.197  37.424  1.00  0.00     0.198 A 
ATOM     79  C   UNL A   1      39.491  33.974  36.539  1.00  0.00     0.198 A 
ATOM     80  F   UNL A   1      40.792  33.619  34.612  1.00  0.00    -0.203 F 
ATOM     81  F   UNL A   1      37.256  31.750  38.324  1.00  0.00    -0.200 F 
ATOM     82  C   UNL A   1      38.592  33.507  37.486  1.00  0.00     0.200 A 
ATOM     83  F   UNL A   1      39.936  35.237  36.606  1.00  0.00    -0.200 F 
ATOM     84  F   UNL A   1      38.153  34.322  38.455  1.00  0.00    -0.200 F 
ENDBRANCH  60  74
BRANCH  61  85
ATOM     85  C   UNL A   1      42.728  26.072  27.954  1.00  0.00     0.064 A 
ATOM     86  C   UNL A   1      42.366  24.723  27.842  1.00  0.00     0.173 A 
ATOM     87  C   UNL A   1      43.580  26.604  26.975  1.00  0.00     0.173 A 
ATOM     88  F   UNL A   1      41.571  24.165  28.767  1.00  0.00    -0.203 F 
ATOM     89  C   UNL A   1      42.849  23.931  26.802  1.00  0.00     0.198 A 
ATOM     90  C   UNL A   1      44.042  25.818  25.920  1.00  0.00     0.198 A 
ATOM     91  F   UNL A   1      43.954  27.890  27.035  1.00  0.00    -0.203 F 
ATOM     92  F   UNL A   1      42.519  22.634  26.741  1.00  0.00    -0.200 F 
ATOM     93  C   UNL A   1      43.681  24.481  25.839  1.00  0.00     0.200 A 
ATOM     94  F   UNL A   1      44.835  26.356  24.984  1.00  0.00    -0.200 F 
ATOM     95  F   UNL A   1      44.141  23.722  24.836  1.00  0.00    -0.200 F 
ENDBRANCH  61  85
BRANCH  73  96
ATOM     96  C   UNL A   1      45.252  27.627  34.258  1.00  0.00     0.064 A 
ATOM     97  C   UNL A   1      46.435  28.376  34.182  1.00  0.00     0.173 A 
ATOM     98  C   UNL A   1      45.247  26.483  35.070  1.00  0.00     0.173 A 
ATOM     99  F   UNL A   1      46.495  29.469  33.406  1.00  0.00    -0.203 F 
ATOM    100  C   UNL A   1      47.576  27.980  34.876  1.00  0.00     0.198 A 
ATOM    101  C   UNL A   1      46.382  26.107  35.784  1.00  0.00     0.198 A 
ATOM    102  F   UNL A   1      44.139  25.736  35.180  1.00  0.00    -0.203 F 
ATOM    103  F   UNL A   1      48.710  28.686  34.755  1.00  0.00    -0.200 F 
ATOM    104  C   UNL A   1      47.547  26.851  35.681  1.00  0.00     0.200 A 
ATOM    105  F   UNL A   1      46.348  25.021  36.570  1.00  0.00    -0.200 F 
ATOM    106  F   UNL A   1      48.645  26.477  36.352  1.00  0.00    -0.200 F 
ENDBRANCH  73  96
ENDBRANCH  47  48
ENDBRANCH  39  42
ENDBRANCH  37  38
ENDBRANCH  36  37
ENDBRANCH   1  36
TORSDOF 16
ENDMDL
MODEL 3
REMARK VINA RESULT:     -12.7      2.338      7.165
REMARK SMILES NC(=O)[C@@H]1CCC[N@@H+]1[C@@H](C(=O)NCCCNC(=O)c1ccc(-c2c3nc(c(-c4c(F)c(F)c(F)c(F)c4F)c4ccc([nH]4)c(-c4c(F)c(F)c(F)c(F)c4F)c4nc(c(-c5c(F)c(F)c(F)c(F)c5F)c5ccc2[nH]5)C=C4)C=C3)cc1)c1c[nH]c2cc(OCc3ccccc3)ccc12
REMARK SMILES IDX 13 1 12 2 10 3 11 4 9 6 8 7 4 8 5 9 6 10 7 11 2 13 1 14 3 17
REMARK SMILES IDX 82 18 83 19 98 20 84 21 85 22 97 23 86 25 96 26 87 27 88 28
REMARK SMILES IDX 89 29 90 30 91 31 95 32 92 33 94 34 93 35 14 36 15 37 16 38
REMARK SMILES IDX 17 39 18 41 19 42 20 43 81 44 21 45 80 46 22 47 23 48 24 49
REMARK SMILES IDX 74 50 25 51 79 52 73 53 75 54 26 55 78 56 72 57 71 58 27 60
REMARK SMILES IDX 59 61 39 62 58 63 40 64 43 65 57 66 76 67 41 68 42 69 56 71
REMARK SMILES IDX 77 72 44 73 28 74 29 75 37 76 30 77 31 78 35 79 38 80 32 81
REMARK SMILES IDX 33 82 36 83 34 84 60 85 61 86 69 87 62 88 63 89 67 90 70 91
REMARK SMILES IDX 64 92 65 93 68 94 66 95 45 96 46 97 54 98 47 99 48 100
REMARK SMILES IDX 52 101 55 102 49 103 50 104 53 105 51 106
REMARK H PARENT 12 5 8 12 1 15 1 16 84 24 16 40 75 59 43 70
REMARK Flexibility Score: inf
ROOT
ATOM      1  C   UNL A   1      32.934  26.326  25.483  1.00  0.00     0.118 C 
ENDROOT
BRANCH   1   2
ATOM      2  N   UNL A   1      32.156  25.476  26.367  1.00  0.00    -0.351 N 
ATOM      3  C   UNL A   1      31.635  24.218  26.330  1.00  0.00     0.283 C 
ATOM      4  O   UNL A   1      30.820  24.047  27.246  1.00  0.00    -0.268 OA
ATOM      5  H   UNL A   1      31.950  25.930  27.216  1.00  0.00     0.163 HD
BRANCH   3   6
ATOM      6  C   UNL A   1      31.981  23.134  25.260  1.00  0.00     0.308 C 
BRANCH   6   7
ATOM      7  N   UNL A   1      33.442  22.757  25.207  1.00  0.00    -0.311 N 
ATOM      8  C   UNL A   1      33.910  21.427  25.612  1.00  0.00     0.275 C 
ATOM      9  C   UNL A   1      34.150  21.555  27.112  1.00  0.00     0.081 C 
ATOM     10  C   UNL A   1      34.570  23.004  27.307  1.00  0.00     0.068 C 
ATOM     11  C   UNL A   1      34.353  23.646  25.950  1.00  0.00     0.264 C 
ATOM     12  H   UNL A   1      33.481  22.824  24.190  1.00  0.00     0.349 HD
BRANCH   8  13
ATOM     13  C   UNL A   1      33.160  20.217  25.064  1.00  0.00     0.275 C 
ATOM     14  N   UNL A   1      32.842  19.265  25.991  1.00  0.00    -0.365 N 
ATOM     15  H   UNL A   1      32.358  18.452  25.715  1.00  0.00     0.159 HD
ATOM     16  H   UNL A   1      33.097  19.390  26.934  1.00  0.00     0.159 HD
ATOM     17  O   UNL A   1      32.899  20.005  23.876  1.00  0.00    -0.268 OA
ENDBRANCH   8  13
ENDBRANCH   6   7
BRANCH   6  18
ATOM     18  C   UNL A   1      31.678  23.541  23.770  1.00  0.00     0.044 A 
ATOM     19  C   UNL A   1      32.550  23.239  22.723  1.00  0.00     0.094 A 
ATOM     20  C   UNL A   1      30.878  24.637  23.262  1.00  0.00     0.009 A 
ATOM     21  N   UNL A   1      32.669  24.394  21.978  1.00  0.00    -0.361 N 
ATOM     22  C   UNL A   1      31.757  25.323  22.419  1.00  0.00     0.050 A 
ATOM     23  C   UNL A   1      29.707  25.312  23.660  1.00  0.00     0.015 A 
ATOM     24  H   UNL A   1      33.310  24.532  21.243  1.00  0.00     0.166 HD
ATOM     25  C   UNL A   1      31.701  26.714  22.262  1.00  0.00     0.073 A 
ATOM     26  C   UNL A   1      29.606  26.699  23.478  1.00  0.00     0.047 A 
ATOM     27  C   UNL A   1      30.650  27.399  22.887  1.00  0.00     0.121 A 
BRANCH  27  28
ATOM     28  O   UNL A   1      30.842  28.746  23.018  1.00  0.00    -0.489 OA
BRANCH  28  29
ATOM     29  C   UNL A   1      30.049  29.458  23.963  1.00  0.00     0.265 C 
BRANCH  29  30
ATOM     30  C   UNL A   1      29.291  30.490  23.174  1.00  0.00    -0.011 A 
ATOM     31  C   UNL A   1      29.220  31.814  23.635  1.00  0.00     0.007 A 
ATOM     32  C   UNL A   1      28.751  30.170  21.924  1.00  0.00     0.007 A 
ATOM     33  C   UNL A   1      28.633  32.802  22.850  1.00  0.00     0.000 A 
ATOM     34  C   UNL A   1      28.159  31.160  21.142  1.00  0.00     0.000 A 
ATOM     35  C   UNL A   1      28.106  32.476  21.602  1.00  0.00     0.000 A 
ENDBRANCH  29  30
ENDBRANCH  28  29
ENDBRANCH  27  28
ENDBRANCH   6  18
ENDBRANCH   3   6
ENDBRANCH   1   2
BRANCH   1  36
ATOM     36  C   UNL A   1      33.730  27.426  26.219  1.00  0.00     0.042 C 
BRANCH  36  37
ATOM     37  C   UNL A   1      34.169  28.639  25.381  1.00  0.00     0.118 C 
BRANCH  37  38
ATOM     38  N   UNL A   1      33.434  29.834  25.756  1.00  0.00    -0.352 N 
ATOM     39  C   UNL A   1      33.582  30.660  26.836  1.00  0.00     0.251 C 
ATOM     40  H   UNL A   1      32.717  30.091  25.133  1.00  0.00     0.163 HD
ATOM     41  O   UNL A   1      32.681  31.474  27.085  1.00  0.00    -0.269 OA
BRANCH  39  42
ATOM     42  C   UNL A   1      34.776  30.629  27.716  1.00  0.00     0.039 A 
ATOM     43  C   UNL A   1      35.679  31.698  27.642  1.00  0.00     0.014 A 
ATOM     44  C   UNL A   1      35.098  29.517  28.501  1.00  0.00     0.014 A 
ATOM     45  C   UNL A   1      36.892  31.655  28.338  1.00  0.00     0.010 A 
ATOM     46  C   UNL A   1      36.295  29.492  29.230  1.00  0.00     0.010 A 
ATOM     47  C   UNL A   1      37.216  30.548  29.136  1.00  0.00    -0.014 A 
BRANCH  47  48
ATOM     48  C   UNL A   1      38.532  30.472  29.830  1.00  0.00     0.031 A 
ATOM     49  C   UNL A   1      39.668  29.688  29.227  1.00  0.00     0.074 A 
ATOM     50  C   UNL A   1      38.710  31.092  31.013  1.00  0.00     0.049 A 
ATOM     51  N   UNL A   1      40.874  29.476  29.695  1.00  0.00    -0.248 NA
ATOM     52  C   UNL A   1      39.409  29.043  27.930  1.00  0.00     0.031 C 
ATOM     53  C   UNL A   1      37.691  31.869  31.716  1.00  0.00     0.029 A 
ATOM     54  N   UNL A   1      39.808  31.158  31.836  1.00  0.00    -0.354 N 
ATOM     55  C   UNL A   1      41.509  28.665  28.762  1.00  0.00     0.074 A 
ATOM     56  C   UNL A   1      40.543  28.390  27.719  1.00  0.00     0.031 C 
ATOM     57  C   UNL A   1      38.213  32.345  32.859  1.00  0.00     0.029 A 
ATOM     58  C   UNL A   1      39.593  31.880  32.984  1.00  0.00     0.049 A 
ATOM     59  H   UNL A   1      40.668  30.730  31.621  1.00  0.00     0.167 HD
ATOM     60  C   UNL A   1      42.784  28.204  28.764  1.00  0.00     0.037 A 
ATOM     61  C   UNL A   1      40.411  32.133  34.024  1.00  0.00     0.037 A 
ATOM     62  C   UNL A   1      43.756  28.497  29.786  1.00  0.00     0.049 A 
ATOM     63  C   UNL A   1      41.820  31.602  34.007  1.00  0.00     0.074 A 
ATOM     64  C   UNL A   1      45.087  28.120  29.846  1.00  0.00     0.029 A 
ATOM     65  N   UNL A   1      43.500  29.237  30.930  1.00  0.00    -0.354 N 
ATOM     66  N   UNL A   1      42.423  30.885  33.093  1.00  0.00    -0.248 NA
ATOM     67  C   UNL A   1      42.664  31.926  35.167  1.00  0.00     0.031 C 
ATOM     68  C   UNL A   1      45.625  28.597  31.046  1.00  0.00     0.029 A 
ATOM     69  C   UNL A   1      44.642  29.310  31.713  1.00  0.00     0.049 A 
ATOM     70  H   UNL A   1      42.634  29.649  31.155  1.00  0.00     0.167 HD
ATOM     71  C   UNL A   1      43.719  30.692  33.551  1.00  0.00     0.074 A 
ATOM     72  C   UNL A   1      43.821  31.382  34.819  1.00  0.00     0.031 C 
ATOM     73  C   UNL A   1      44.734  30.006  32.971  1.00  0.00     0.037 A 
BRANCH  60  74
ATOM     74  C   UNL A   1      43.210  27.329  27.619  1.00  0.00     0.064 A 
ATOM     75  C   UNL A   1      43.976  27.828  26.557  1.00  0.00     0.173 A 
ATOM     76  C   UNL A   1      42.884  25.964  27.609  1.00  0.00     0.173 A 
ATOM     77  F   UNL A   1      44.308  29.127  26.516  1.00  0.00    -0.203 F 
ATOM     78  C   UNL A   1      44.378  27.000  25.511  1.00  0.00     0.198 A 
ATOM     79  C   UNL A   1      43.311  25.132  26.577  1.00  0.00     0.198 A 
ATOM     80  F   UNL A   1      42.162  25.432  28.607  1.00  0.00    -0.203 F 
ATOM     81  F   UNL A   1      45.071  27.509  24.484  1.00  0.00    -0.200 F 
ATOM     82  C   UNL A   1      44.051  25.652  25.525  1.00  0.00     0.200 A 
ATOM     83  F   UNL A   1      43.007  23.827  26.598  1.00  0.00    -0.200 F 
ATOM     84  F   UNL A   1      44.443  24.856  24.521  1.00  0.00    -0.200 F 
ENDBRANCH  60  74
BRANCH  61  85
ATOM     85  C   UNL A   1      39.923  32.948  35.167  1.00  0.00     0.064 A 
ATOM     86  C   UNL A   1      40.072  34.342  35.174  1.00  0.00     0.173 A 
ATOM     87  C   UNL A   1      39.300  32.352  36.273  1.00  0.00     0.173 A 
ATOM     88  F   UNL A   1      40.682  34.954  34.148  1.00  0.00    -0.203 F 
ATOM     89  C   UNL A   1      39.632  35.108  36.250  1.00  0.00     0.198 A 
ATOM     90  C   UNL A   1      38.836  33.122  37.338  1.00  0.00     0.198 A 
ATOM     91  F   UNL A   1      39.130  31.023  36.314  1.00  0.00    -0.203 F 
ATOM     92  F   UNL A   1      39.823  36.434  36.250  1.00  0.00    -0.200 F 
ATOM     93  C   UNL A   1      39.009  34.498  37.328  1.00  0.00     0.200 A 
ATOM     94  F   UNL A   1      38.222  32.531  38.371  1.00  0.00    -0.200 F 
ATOM     95  F   UNL A   1      38.579  35.236  38.361  1.00  0.00    -0.200 F 
ENDBRANCH  61  85
BRANCH  73  96
ATOM     96  C   UNL A   1      46.055  29.992  33.685  1.00  0.00     0.064 A 
ATOM     97  C   UNL A   1      47.019  30.986  33.464  1.00  0.00     0.173 A 
ATOM     98  C   UNL A   1      46.341  28.993  34.627  1.00  0.00     0.173 A 
ATOM     99  F   UNL A   1      46.799  31.953  32.561  1.00  0.00    -0.203 F 
ATOM    100  C   UNL A   1      48.234  30.966  34.145  1.00  0.00     0.198 A 
ATOM    101  C   UNL A   1      47.545  28.993  35.327  1.00  0.00     0.198 A 
ATOM    102  F   UNL A   1      45.450  28.023  34.879  1.00  0.00    -0.203 F 
ATOM    103  F   UNL A   1      49.159  31.901  33.887  1.00  0.00    -0.200 F 
ATOM    104  C   UNL A   1      48.493  29.975  35.081  1.00  0.00     0.200 A 
ATOM    105  F   UNL A   1      47.790  28.040  36.238  1.00  0.00    -0.200 F 
ATOM    106  F   UNL A   1      49.660  29.962  35.739  1.00  0.00    -0.200 F 
ENDBRANCH  73  96
ENDBRANCH  47  48
ENDBRANCH  39  42
ENDBRANCH  37  38
ENDBRANCH  36  37
ENDBRANCH   1  36
TORSDOF 16
ENDMDL
