MODEL 1
REMARK VINA RESULT:     -12.4      0.000      0.000
REMARK SMILES O=Cc1c(OCc2ccc(C(=O)NCCCNC(=O)c3ccc(-c4c5nc(c(-c6c(F)c(F)c(F)c(F)c6F)c6ccc([nH]6)c(-c6c(F)c(F)c(F)c(F)c6F)c6nc(c(-c7c(F)c(F)c(F)c(F)c7F)c7ccc4[nH]7)C=C6)C=C5)cc3)cc2)ccc2ccccc12
REMARK SMILES IDX 14 1 13 2 11 3 12 4 10 6 7 7 8 8 84 9 9 10 83 11 6 12 5 13
REMARK SMILES IDX 4 14 3 15 92 16 85 17 87 18 91 19 86 20 88 21 90 22 89 23
REMARK SMILES IDX 2 24 1 25 15 26 16 27 17 28 18 29 19 31 20 32 21 33 82 34
REMARK SMILES IDX 22 35 81 36 23 37 24 38 25 39 75 40 26 41 80 42 74 43 76 44
REMARK SMILES IDX 27 45 79 46 73 47 72 48 28 50 60 51 40 52 59 53 41 54 44 55
REMARK SMILES IDX 58 56 77 57 42 58 43 59 57 61 78 62 45 63 29 64 30 65 38 66
REMARK SMILES IDX 31 67 32 68 36 69 39 70 33 71 34 72 37 73 35 74 61 75 62 76
REMARK SMILES IDX 70 77 63 78 64 79 68 80 71 81 65 82 66 83 69 84 67 85 46 86
REMARK SMILES IDX 47 87 55 88 48 89 49 90 53 91 56 92 50 93 51 94 54 95 52 96
REMARK H PARENT 13 5 17 30 76 49 44 60
REMARK Flexibility Score: inf
ROOT
ATOM      1  C   UNL A   1      31.696  29.443  25.115  1.00  0.00     0.118 C 
ENDROOT
BRANCH   1   2
ATOM      2  N   UNL A   1      31.054  29.649  23.830  1.00  0.00    -0.352 N 
ATOM      3  C   UNL A   1      30.582  28.774  22.887  1.00  0.00     0.251 C 
ATOM      4  O   UNL A   1      30.006  29.254  21.910  1.00  0.00    -0.269 OA
ATOM      5  H   UNL A   1      30.934  30.596  23.591  1.00  0.00     0.163 HD
BRANCH   3   6
ATOM      6  C   UNL A   1      30.711  27.293  22.993  1.00  0.00     0.039 A 
ATOM      7  C   UNL A   1      31.206  24.515  23.188  1.00  0.00    -0.011 A 
ATOM      8  C   UNL A   1      31.904  25.296  22.260  1.00  0.00     0.008 A 
ATOM      9  C   UNL A   1      30.218  25.126  23.968  1.00  0.00     0.008 A 
ATOM     10  C   UNL A   1      31.656  26.670  22.164  1.00  0.00     0.014 A 
ATOM     11  C   UNL A   1      30.012  26.506  23.908  1.00  0.00     0.014 A 
BRANCH   7  12
ATOM     12  C   UNL A   1      31.565  23.050  23.362  1.00  0.00     0.265 C 
BRANCH  12  13
ATOM     13  O   UNL A   1      32.221  22.724  24.595  1.00  0.00    -0.488 OA
BRANCH  13  14
ATOM     14  C   UNL A   1      33.536  23.061  24.791  1.00  0.00     0.130 A 
ATOM     15  C   UNL A   1      34.475  22.010  24.786  1.00  0.00     0.064 A 
ATOM     16  C   UNL A   1      35.836  22.222  25.157  1.00  0.00    -0.004 A 
ATOM     17  C   UNL A   1      33.970  24.350  25.096  1.00  0.00     0.048 A 
ATOM     18  C   UNL A   1      36.222  23.530  25.534  1.00  0.00    -0.017 A 
ATOM     19  C   UNL A   1      36.839  21.219  25.176  1.00  0.00     0.009 A 
ATOM     20  C   UNL A   1      35.292  24.576  25.483  1.00  0.00     0.012 A 
ATOM     21  C   UNL A   1      37.538  23.788  25.953  1.00  0.00     0.009 A 
ATOM     22  C   UNL A   1      38.146  21.492  25.586  1.00  0.00     0.001 A 
ATOM     23  C   UNL A   1      38.492  22.775  25.986  1.00  0.00     0.001 A 
BRANCH  15  24
ATOM     24  C   UNL A   1      34.021  20.634  24.462  1.00  0.00     0.264 C 
ATOM     25  O   UNL A   1      33.299  19.967  25.191  1.00  0.00    -0.298 OA
ENDBRANCH  15  24
ENDBRANCH  13  14
ENDBRANCH  12  13
ENDBRANCH   7  12
ENDBRANCH   3   6
ENDBRANCH   1   2
BRANCH   1  26
ATOM     26  C   UNL A   1      32.932  28.553  24.982  1.00  0.00     0.042 C 
BRANCH  26  27
ATOM     27  C   UNL A   1      34.023  28.874  25.999  1.00  0.00     0.118 C 
BRANCH  27  28
ATOM     28  N   UNL A   1      33.795  30.157  26.649  1.00  0.00    -0.352 N 
ATOM     29  C   UNL A   1      34.488  30.770  27.661  1.00  0.00     0.251 C 
ATOM     30  H   UNL A   1      33.023  30.663  26.309  1.00  0.00     0.163 HD
ATOM     31  O   UNL A   1      34.003  31.753  28.213  1.00  0.00    -0.269 OA
BRANCH  29  32
ATOM     32  C   UNL A   1      35.807  30.262  28.098  1.00  0.00     0.039 A 
ATOM     33  C   UNL A   1      35.894  29.616  29.337  1.00  0.00     0.014 A 
ATOM     34  C   UNL A   1      36.962  30.477  27.341  1.00  0.00     0.014 A 
ATOM     35  C   UNL A   1      37.129  29.153  29.797  1.00  0.00     0.010 A 
ATOM     36  C   UNL A   1      38.184  29.963  27.774  1.00  0.00     0.010 A 
ATOM     37  C   UNL A   1      38.281  29.306  29.010  1.00  0.00    -0.014 A 
BRANCH  37  38
ATOM     38  C   UNL A   1      39.597  28.803  29.475  1.00  0.00     0.031 A 
ATOM     39  C   UNL A   1      40.410  29.606  30.452  1.00  0.00     0.074 A 
ATOM     40  C   UNL A   1      40.078  27.645  28.985  1.00  0.00     0.049 A 
ATOM     41  N   UNL A   1      41.612  29.377  30.918  1.00  0.00    -0.248 NA
ATOM     42  C   UNL A   1      39.798  30.845  30.957  1.00  0.00     0.031 C 
ATOM     43  C   UNL A   1      39.394  26.789  28.015  1.00  0.00     0.029 A 
ATOM     44  N   UNL A   1      41.260  26.992  29.230  1.00  0.00    -0.354 N 
ATOM     45  C   UNL A   1      41.901  30.441  31.761  1.00  0.00     0.074 A 
ATOM     46  C   UNL A   1      40.771  31.343  31.707  1.00  0.00     0.031 C 
ATOM     47  C   UNL A   1      40.159  25.714  27.762  1.00  0.00     0.029 A 
ATOM     48  C   UNL A   1      41.401  25.823  28.522  1.00  0.00     0.049 A 
ATOM     49  H   UNL A   1      41.943  27.329  29.854  1.00  0.00     0.167 HD
ATOM     50  C   UNL A   1      43.000  30.637  32.527  1.00  0.00     0.037 A 
ATOM     51  C   UNL A   1      42.421  24.945  28.486  1.00  0.00     0.037 A 
ATOM     52  C   UNL A   1      44.114  29.729  32.595  1.00  0.00     0.049 A 
ATOM     53  C   UNL A   1      43.637  25.198  29.335  1.00  0.00     0.074 A 
ATOM     54  C   UNL A   1      45.266  29.827  33.358  1.00  0.00     0.029 A 
ATOM     55  N   UNL A   1      44.212  28.548  31.875  1.00  0.00    -0.354 N 
ATOM     56  N   UNL A   1      43.883  26.191  30.155  1.00  0.00    -0.248 NA
ATOM     57  C   UNL A   1      44.716  24.203  29.257  1.00  0.00     0.031 C 
ATOM     58  C   UNL A   1      46.073  28.720  33.077  1.00  0.00     0.029 A 
ATOM     59  C   UNL A   1      45.408  27.912  32.170  1.00  0.00     0.049 A 
ATOM     60  H   UNL A   1      43.533  28.211  31.247  1.00  0.00     0.167 HD
ATOM     61  C   UNL A   1      45.125  25.924  30.713  1.00  0.00     0.074 A 
ATOM     62  C   UNL A   1      45.579  24.670  30.148  1.00  0.00     0.031 C 
ATOM     63  C   UNL A   1      45.830  26.654  31.612  1.00  0.00     0.037 A 
BRANCH  50  64
ATOM     64  C   UNL A   1      43.048  31.880  33.367  1.00  0.00     0.064 A 
ATOM     65  C   UNL A   1      43.544  33.088  32.853  1.00  0.00     0.173 A 
ATOM     66  C   UNL A   1      42.552  31.879  34.679  1.00  0.00     0.173 A 
ATOM     67  F   UNL A   1      44.039  33.139  31.608  1.00  0.00    -0.203 F 
ATOM     68  C   UNL A   1      43.562  34.244  33.630  1.00  0.00     0.198 A 
ATOM     69  C   UNL A   1      42.548  33.042  35.444  1.00  0.00     0.198 A 
ATOM     70  F   UNL A   1      42.063  30.751  35.216  1.00  0.00    -0.203 F 
ATOM     71  F   UNL A   1      44.077  35.376  33.132  1.00  0.00    -0.200 F 
ATOM     72  C   UNL A   1      43.057  34.221  34.922  1.00  0.00     0.200 A 
ATOM     73  F   UNL A   1      42.050  33.023  36.689  1.00  0.00    -0.200 F 
ATOM     74  F   UNL A   1      43.067  35.336  35.666  1.00  0.00    -0.200 F 
ENDBRANCH  50  64
BRANCH  51  75
ATOM     75  C   UNL A   1      42.331  23.731  27.636  1.00  0.00     0.064 A 
ATOM     76  C   UNL A   1      41.773  22.545  28.135  1.00  0.00     0.173 A 
ATOM     77  C   UNL A   1      42.816  23.721  26.320  1.00  0.00     0.173 A 
ATOM     78  F   UNL A   1      41.316  22.501  29.394  1.00  0.00    -0.203 F 
ATOM     79  C   UNL A   1      41.728  21.388  27.360  1.00  0.00     0.198 A 
ATOM     80  C   UNL A   1      42.745  22.571  25.537  1.00  0.00     0.198 A 
ATOM     81  F   UNL A   1      43.355  24.830  25.793  1.00  0.00    -0.203 F 
ATOM     82  F   UNL A   1      41.235  20.256  27.880  1.00  0.00    -0.200 F 
ATOM     83  C   UNL A   1      42.210  21.403  26.060  1.00  0.00     0.200 A 
ATOM     84  F   UNL A   1      43.200  22.592  24.276  1.00  0.00    -0.200 F 
ATOM     85  F   UNL A   1      42.167  20.290  25.315  1.00  0.00    -0.200 F 
ENDBRANCH  51  75
BRANCH  63  86
ATOM     86  C   UNL A   1      47.140  26.090  32.075  1.00  0.00     0.064 A 
ATOM     87  C   UNL A   1      48.330  26.320  31.371  1.00  0.00     0.173 A 
ATOM     88  C   UNL A   1      47.208  25.337  33.257  1.00  0.00     0.173 A 
ATOM     89  F   UNL A   1      48.312  27.020  30.227  1.00  0.00    -0.203 F 
ATOM     90  C   UNL A   1      49.538  25.794  31.819  1.00  0.00     0.198 A 
ATOM     91  C   UNL A   1      48.422  24.836  33.717  1.00  0.00     0.198 A 
ATOM     92  F   UNL A   1      46.097  25.094  33.970  1.00  0.00    -0.203 F 
ATOM     93  F   UNL A   1      50.656  25.987  31.107  1.00  0.00    -0.200 F 
ATOM     94  C   UNL A   1      49.584  25.059  32.995  1.00  0.00     0.200 A 
ATOM     95  F   UNL A   1      48.467  24.134  34.858  1.00  0.00    -0.200 F 
ATOM     96  F   UNL A   1      50.749  24.558  33.427  1.00  0.00    -0.200 F 
ENDBRANCH  63  86
ENDBRANCH  37  38
ENDBRANCH  29  32
ENDBRANCH  27  28
ENDBRANCH  26  27
ENDBRANCH   1  26
TORSDOF 14
ENDMDL
MODEL 2
REMARK VINA RESULT:     -12.3      3.818      7.016
REMARK SMILES O=Cc1c(OCc2ccc(C(=O)NCCCNC(=O)c3ccc(-c4c5nc(c(-c6c(F)c(F)c(F)c(F)c6F)c6ccc([nH]6)c(-c6c(F)c(F)c(F)c(F)c6F)c6nc(c(-c7c(F)c(F)c(F)c(F)c7F)c7ccc4[nH]7)C=C6)C=C5)cc3)cc2)ccc2ccccc12
REMARK SMILES IDX 14 1 13 2 11 3 12 4 10 6 7 7 8 8 84 9 9 10 83 11 6 12 5 13
REMARK SMILES IDX 4 14 3 15 92 16 85 17 87 18 91 19 86 20 88 21 90 22 89 23
REMARK SMILES IDX 2 24 1 25 15 26 16 27 17 28 18 29 19 31 20 32 21 33 82 34
REMARK SMILES IDX 22 35 81 36 23 37 24 38 25 39 75 40 26 41 80 42 74 43 76 44
REMARK SMILES IDX 27 45 79 46 73 47 72 48 28 50 60 51 40 52 59 53 41 54 44 55
REMARK SMILES IDX 58 56 77 57 42 58 43 59 57 61 78 62 45 63 29 64 30 65 38 66
REMARK SMILES IDX 31 67 32 68 36 69 39 70 33 71 34 72 37 73 35 74 61 75 62 76
REMARK SMILES IDX 70 77 63 78 64 79 68 80 71 81 65 82 66 83 69 84 67 85 46 86
REMARK SMILES IDX 47 87 55 88 48 89 49 90 53 91 56 92 50 93 51 94 54 95 52 96
REMARK H PARENT 13 5 17 30 76 49 44 60
REMARK Flexibility Score: inf
ROOT
ATOM      1  C   UNL A   1      35.971  32.471  31.524  1.00  0.00     0.118 C 
ENDROOT
BRANCH   1   2
ATOM      2  N   UNL A   1      35.827  32.871  32.911  1.00  0.00    -0.352 N 
ATOM      3  C   UNL A   1      36.597  32.638  34.021  1.00  0.00     0.251 C 
ATOM      4  O   UNL A   1      36.253  33.182  35.071  1.00  0.00    -0.269 OA
ATOM      5  H   UNL A   1      35.024  33.413  33.088  1.00  0.00     0.163 HD
BRANCH   3   6
ATOM      6  C   UNL A   1      37.822  31.790  34.015  1.00  0.00     0.039 A 
ATOM      7  C   UNL A   1      40.191  30.260  34.239  1.00  0.00    -0.011 A 
ATOM      8  C   UNL A   1      40.163  31.592  34.667  1.00  0.00     0.008 A 
ATOM      9  C   UNL A   1      39.043  29.726  33.643  1.00  0.00     0.008 A 
ATOM     10  C   UNL A   1      38.991  32.348  34.554  1.00  0.00     0.014 A 
ATOM     11  C   UNL A   1      37.860  30.465  33.581  1.00  0.00     0.014 A 
BRANCH   7  12
ATOM     12  C   UNL A   1      41.432  29.418  34.474  1.00  0.00     0.265 C 
BRANCH  12  13
ATOM     13  O   UNL A   1      41.188  28.026  34.718  1.00  0.00    -0.488 OA
BRANCH  13  14
ATOM     14  C   UNL A   1      42.063  27.077  34.255  1.00  0.00     0.130 A 
ATOM     15  C   UNL A   1      42.051  25.824  34.901  1.00  0.00     0.064 A 
ATOM     16  C   UNL A   1      43.036  24.831  34.623  1.00  0.00    -0.004 A 
ATOM     17  C   UNL A   1      43.018  27.316  33.269  1.00  0.00     0.048 A 
ATOM     18  C   UNL A   1      44.035  25.139  33.669  1.00  0.00    -0.017 A 
ATOM     19  C   UNL A   1      43.092  23.548  35.228  1.00  0.00     0.009 A 
ATOM     20  C   UNL A   1      44.003  26.367  32.995  1.00  0.00     0.012 A 
ATOM     21  C   UNL A   1      45.057  24.216  33.389  1.00  0.00     0.009 A 
ATOM     22  C   UNL A   1      44.108  22.637  34.933  1.00  0.00     0.001 A 
ATOM     23  C   UNL A   1      45.097  22.977  34.021  1.00  0.00     0.001 A 
BRANCH  15  24
ATOM     24  C   UNL A   1      41.037  25.561  35.953  1.00  0.00     0.264 C 
ATOM     25  O   UNL A   1      41.077  26.051  37.074  1.00  0.00    -0.298 OA
ENDBRANCH  15  24
ENDBRANCH  13  14
ENDBRANCH  12  13
ENDBRANCH   7  12
ENDBRANCH   3   6
ENDBRANCH   1   2
BRANCH   1  26
ATOM     26  C   UNL A   1      34.677  32.702  30.742  1.00  0.00     0.042 C 
BRANCH  26  27
ATOM     27  C   UNL A   1      34.868  32.657  29.228  1.00  0.00     0.118 C 
BRANCH  27  28
ATOM     28  N   UNL A   1      34.197  31.510  28.633  1.00  0.00    -0.352 N 
ATOM     29  C   UNL A   1      34.715  30.334  28.155  1.00  0.00     0.251 C 
ATOM     30  H   UNL A   1      33.219  31.592  28.562  1.00  0.00     0.163 HD
ATOM     31  O   UNL A   1      34.001  29.586  27.494  1.00  0.00    -0.269 OA
BRANCH  29  32
ATOM     32  C   UNL A   1      36.121  29.957  28.420  1.00  0.00     0.039 A 
ATOM     33  C   UNL A   1      36.443  29.427  29.675  1.00  0.00     0.014 A 
ATOM     34  C   UNL A   1      37.130  30.186  27.480  1.00  0.00     0.014 A 
ATOM     35  C   UNL A   1      37.766  29.090  29.972  1.00  0.00     0.010 A 
ATOM     36  C   UNL A   1      38.440  29.796  27.756  1.00  0.00     0.010 A 
ATOM     37  C   UNL A   1      38.772  29.255  29.007  1.00  0.00    -0.014 A 
BRANCH  37  38
ATOM     38  C   UNL A   1      40.179  28.886  29.299  1.00  0.00     0.031 A 
ATOM     39  C   UNL A   1      41.057  29.819  30.086  1.00  0.00     0.074 A 
ATOM     40  C   UNL A   1      40.678  27.731  28.820  1.00  0.00     0.049 A 
ATOM     41  N   UNL A   1      42.329  29.713  30.379  1.00  0.00    -0.248 NA
ATOM     42  C   UNL A   1      40.425  31.046  30.596  1.00  0.00     0.031 C 
ATOM     43  C   UNL A   1      39.932  26.755  28.024  1.00  0.00     0.029 A 
ATOM     44  N   UNL A   1      41.933  27.185  28.925  1.00  0.00    -0.354 N 
ATOM     45  C   UNL A   1      42.649  30.857  31.096  1.00  0.00     0.074 A 
ATOM     46  C   UNL A   1      41.452  31.669  31.155  1.00  0.00     0.031 C 
ATOM     47  C   UNL A   1      40.738  25.721  27.729  1.00  0.00     0.029 A 
ATOM     48  C   UNL A   1      42.064  25.978  28.282  1.00  0.00     0.049 A 
ATOM     49  H   UNL A   1      42.669  27.618  29.415  1.00  0.00     0.167 HD
ATOM     50  C   UNL A   1      43.828  31.191  31.672  1.00  0.00     0.037 A 
ATOM     51  C   UNL A   1      43.137  25.176  28.151  1.00  0.00     0.037 A 
ATOM     52  C   UNL A   1      45.012  30.373  31.630  1.00  0.00     0.049 A 
ATOM     53  C   UNL A   1      44.439  25.581  28.787  1.00  0.00     0.074 A 
ATOM     54  C   UNL A   1      46.250  30.613  32.201  1.00  0.00     0.029 A 
ATOM     55  N   UNL A   1      45.100  29.150  30.983  1.00  0.00    -0.354 N 
ATOM     56  N   UNL A   1      44.719  26.649  29.492  1.00  0.00    -0.248 NA
ATOM     57  C   UNL A   1      45.574  24.663  28.612  1.00  0.00     0.031 C 
ATOM     58  C   UNL A   1      47.096  29.548  31.875  1.00  0.00     0.029 A 
ATOM     59  C   UNL A   1      46.375  28.626  31.135  1.00  0.00     0.049 A 
ATOM     60  H   UNL A   1      44.367  28.717  30.489  1.00  0.00     0.167 HD
ATOM     61  C   UNL A   1      46.047  26.517  29.872  1.00  0.00     0.074 A 
ATOM     62  C   UNL A   1      46.516  25.258  29.329  1.00  0.00     0.031 C 
ATOM     63  C   UNL A   1      46.813  27.362  30.604  1.00  0.00     0.037 A 
BRANCH  50  64
ATOM     64  C   UNL A   1      43.895  32.495  32.411  1.00  0.00     0.064 A 
ATOM     65  C   UNL A   1      44.052  33.712  31.729  1.00  0.00     0.173 A 
ATOM     66  C   UNL A   1      43.755  32.538  33.806  1.00  0.00     0.173 A 
ATOM     67  F   UNL A   1      44.201  33.725  30.396  1.00  0.00    -0.203 F 
ATOM     68  C   UNL A   1      44.088  34.921  32.419  1.00  0.00     0.198 A 
ATOM     69  C   UNL A   1      43.766  33.751  34.490  1.00  0.00     0.198 A 
ATOM     70  F   UNL A   1      43.598  31.404  34.505  1.00  0.00    -0.203 F 
ATOM     71  F   UNL A   1      44.279  36.067  31.751  1.00  0.00    -0.200 F 
ATOM     72  C   UNL A   1      43.938  34.940  33.798  1.00  0.00     0.200 A 
ATOM     73  F   UNL A   1      43.609  33.769  35.822  1.00  0.00    -0.200 F 
ATOM     74  F   UNL A   1      43.964  36.105  34.460  1.00  0.00    -0.200 F 
ENDBRANCH  50  64
BRANCH  51  75
ATOM     75  C   UNL A   1      43.024  23.896  27.406  1.00  0.00     0.064 A 
ATOM     76  C   UNL A   1      42.574  22.732  28.045  1.00  0.00     0.173 A 
ATOM     77  C   UNL A   1      43.383  23.802  26.053  1.00  0.00     0.173 A 
ATOM     78  F   UNL A   1      42.241  22.768  29.343  1.00  0.00    -0.203 F 
ATOM     79  C   UNL A   1      42.511  21.517  27.366  1.00  0.00     0.198 A 
ATOM     80  C   UNL A   1      43.291  22.592  25.368  1.00  0.00     0.198 A 
ATOM     81  F   UNL A   1      43.815  24.887  25.395  1.00  0.00    -0.203 F 
ATOM     82  F   UNL A   1      42.124  20.410  28.014  1.00  0.00    -0.200 F 
ATOM     83  C   UNL A   1      42.865  21.449  26.027  1.00  0.00     0.200 A 
ATOM     84  F   UNL A   1      43.623  22.532  24.071  1.00  0.00    -0.200 F 
ATOM     85  F   UNL A   1      42.805  20.280  25.375  1.00  0.00    -0.200 F 
ENDBRANCH  51  75
BRANCH  63  86
ATOM     86  C   UNL A   1      48.219  26.932  30.899  1.00  0.00     0.064 A 
ATOM     87  C   UNL A   1      48.546  26.249  32.078  1.00  0.00     0.173 A 
ATOM     88  C   UNL A   1      49.244  27.178  29.972  1.00  0.00     0.173 A 
ATOM     89  F   UNL A   1      47.604  26.005  33.001  1.00  0.00    -0.203 F 
ATOM     90  C   UNL A   1      49.856  25.849  32.332  1.00  0.00     0.198 A 
ATOM     91  C   UNL A   1      50.547  26.754  30.218  1.00  0.00     0.198 A 
ATOM     92  F   UNL A   1      48.980  27.824  28.826  1.00  0.00    -0.203 F 
ATOM     93  F   UNL A   1      50.156  25.239  33.486  1.00  0.00    -0.200 F 
ATOM     94  C   UNL A   1      50.852  26.097  31.400  1.00  0.00     0.200 A 
ATOM     95  F   UNL A   1      51.507  26.985  29.311  1.00  0.00    -0.200 F 
ATOM     96  F   UNL A   1      52.111  25.708  31.644  1.00  0.00    -0.200 F 
ENDBRANCH  63  86
ENDBRANCH  37  38
ENDBRANCH  29  32
ENDBRANCH  27  28
ENDBRANCH  26  27
ENDBRANCH   1  26
TORSDOF 14
ENDMDL
MODEL 3
REMARK VINA RESULT:     -12.3      3.021      8.268
REMARK SMILES O=Cc1c(OCc2ccc(C(=O)NCCCNC(=O)c3ccc(-c4c5nc(c(-c6c(F)c(F)c(F)c(F)c6F)c6ccc([nH]6)c(-c6c(F)c(F)c(F)c(F)c6F)c6nc(c(-c7c(F)c(F)c(F)c(F)c7F)c7ccc4[nH]7)C=C6)C=C5)cc3)cc2)ccc2ccccc12
REMARK SMILES IDX 14 1 13 2 11 3 12 4 10 6 7 7 8 8 84 9 9 10 83 11 6 12 5 13
REMARK SMILES IDX 4 14 3 15 92 16 85 17 87 18 91 19 86 20 88 21 90 22 89 23
REMARK SMILES IDX 2 24 1 25 15 26 16 27 17 28 18 29 19 31 20 32 21 33 82 34
REMARK SMILES IDX 22 35 81 36 23 37 24 38 25 39 75 40 26 41 80 42 74 43 76 44
REMARK SMILES IDX 27 45 79 46 73 47 72 48 28 50 60 51 40 52 59 53 41 54 44 55
REMARK SMILES IDX 58 56 77 57 42 58 43 59 57 61 78 62 45 63 29 64 30 65 38 66
REMARK SMILES IDX 31 67 32 68 36 69 39 70 33 71 34 72 37 73 35 74 61 75 62 76
REMARK SMILES IDX 70 77 63 78 64 79 68 80 71 81 65 82 66 83 69 84 67 85 46 86
REMARK SMILES IDX 47 87 55 88 48 89 49 90 53 91 56 92 50 93 51 94 54 95 52 96
REMARK H PARENT 13 5 17 30 76 49 44 60
REMARK Flexibility Score: inf
ROOT
ATOM      1  C   UNL A   1      31.397  30.639  26.341  1.00  0.00     0.118 C 
ENDROOT
BRANCH   1   2
ATOM      2  N   UNL A   1      31.560  30.292  24.941  1.00  0.00    -0.352 N 
ATOM      3  C   UNL A   1      31.457  29.100  24.271  1.00  0.00     0.251 C 
ATOM      4  O   UNL A   1      31.577  29.131  23.045  1.00  0.00    -0.269 OA
ATOM      5  H   UNL A   1      31.785  31.057  24.364  1.00  0.00     0.163 HD
BRANCH   3   6
ATOM      6  C   UNL A   1      31.192  27.795  24.938  1.00  0.00     0.039 A 
ATOM      7  C   UNL A   1      30.644  25.221  25.977  1.00  0.00    -0.011 A 
ATOM      8  C   UNL A   1      29.815  25.783  24.998  1.00  0.00     0.008 A 
ATOM      9  C   UNL A   1      31.707  25.986  26.471  1.00  0.00     0.008 A 
ATOM     10  C   UNL A   1      30.087  27.057  24.487  1.00  0.00     0.014 A 
ATOM     11  C   UNL A   1      32.007  27.233  25.920  1.00  0.00     0.014 A 
BRANCH   7  12
ATOM     12  C   UNL A   1      30.407  23.795  26.438  1.00  0.00     0.265 C 
BRANCH  12  13
ATOM     13  O   UNL A   1      31.089  22.786  25.682  1.00  0.00    -0.488 OA
BRANCH  13  14
ATOM     14  C   UNL A   1      32.450  22.650  25.775  1.00  0.00     0.130 A 
ATOM     15  C   UNL A   1      33.205  22.935  24.619  1.00  0.00     0.064 A 
ATOM     16  C   UNL A   1      34.601  22.655  24.550  1.00  0.00    -0.004 A 
ATOM     17  C   UNL A   1      33.105  22.152  26.900  1.00  0.00     0.048 A 
ATOM     18  C   UNL A   1      35.217  22.079  25.688  1.00  0.00    -0.017 A 
ATOM     19  C   UNL A   1      35.428  22.912  23.426  1.00  0.00     0.009 A 
ATOM     20  C   UNL A   1      34.467  21.852  26.848  1.00  0.00     0.012 A 
ATOM     21  C   UNL A   1      36.580  21.740  25.660  1.00  0.00     0.009 A 
ATOM     22  C   UNL A   1      36.784  22.578  23.417  1.00  0.00     0.001 A 
ATOM     23  C   UNL A   1      37.357  21.981  24.531  1.00  0.00     0.001 A 
BRANCH  15  24
ATOM     24  C   UNL A   1      32.515  23.465  23.416  1.00  0.00     0.264 C 
ATOM     25  O   UNL A   1      32.488  24.651  23.115  1.00  0.00    -0.298 OA
ENDBRANCH  15  24
ENDBRANCH  13  14
ENDBRANCH  12  13
ENDBRANCH   7  12
ENDBRANCH   3   6
ENDBRANCH   1   2
BRANCH   1  26
ATOM     26  C   UNL A   1      31.351  32.156  26.534  1.00  0.00     0.042 C 
BRANCH  26  27
ATOM     27  C   UNL A   1      32.662  32.740  27.053  1.00  0.00     0.118 C 
BRANCH  27  28
ATOM     28  N   UNL A   1      32.487  34.093  27.560  1.00  0.00    -0.352 N 
ATOM     29  C   UNL A   1      33.077  34.720  28.627  1.00  0.00     0.251 C 
ATOM     30  H   UNL A   1      31.843  34.644  27.059  1.00  0.00     0.163 HD
ATOM     31  O   UNL A   1      32.630  35.794  29.018  1.00  0.00    -0.269 OA
BRANCH  29  32
ATOM     32  C   UNL A   1      34.240  34.118  29.317  1.00  0.00     0.039 A 
ATOM     33  C   UNL A   1      35.524  34.466  28.883  1.00  0.00     0.014 A 
ATOM     34  C   UNL A   1      34.079  33.168  30.328  1.00  0.00     0.014 A 
ATOM     35  C   UNL A   1      36.644  33.892  29.488  1.00  0.00     0.010 A 
ATOM     36  C   UNL A   1      35.198  32.639  30.971  1.00  0.00     0.010 A 
ATOM     37  C   UNL A   1      36.490  32.988  30.550  1.00  0.00    -0.014 A 
BRANCH  37  38
ATOM     38  C   UNL A   1      37.670  32.384  31.217  1.00  0.00     0.031 A 
ATOM     39  C   UNL A   1      38.438  31.283  30.540  1.00  0.00     0.074 A 
ATOM     40  C   UNL A   1      38.023  32.796  32.449  1.00  0.00     0.049 A 
ATOM     41  N   UNL A   1      39.446  30.577  30.988  1.00  0.00    -0.248 NA
ATOM     42  C   UNL A   1      38.002  30.912  29.184  1.00  0.00     0.031 C 
ATOM     43  C   UNL A   1      37.342  33.839  33.218  1.00  0.00     0.029 A 
ATOM     44  N   UNL A   1      39.038  32.383  33.275  1.00  0.00    -0.354 N 
ATOM     45  C   UNL A   1      39.757  29.677  29.977  1.00  0.00     0.074 A 
ATOM     46  C   UNL A   1      38.803  29.892  28.911  1.00  0.00     0.031 C 
ATOM     47  C   UNL A   1      37.969  33.997  34.395  1.00  0.00     0.029 A 
ATOM     48  C   UNL A   1      39.072  33.044  34.479  1.00  0.00     0.049 A 
ATOM     49  H   UNL A   1      39.681  31.679  33.028  1.00  0.00     0.167 HD
ATOM     50  C   UNL A   1      40.762  28.770  29.934  1.00  0.00     0.037 A 
ATOM     51  C   UNL A   1      39.896  32.890  35.532  1.00  0.00     0.037 A 
ATOM     52  C   UNL A   1      41.722  28.572  30.988  1.00  0.00     0.049 A 
ATOM     53  C   UNL A   1      40.992  31.862  35.462  1.00  0.00     0.074 A 
ATOM     54  C   UNL A   1      42.790  27.693  31.030  1.00  0.00     0.029 A 
ATOM     55  N   UNL A   1      41.733  29.272  32.184  1.00  0.00    -0.354 N 
ATOM     56  N   UNL A   1      41.297  31.042  34.487  1.00  0.00    -0.248 NA
ATOM     57  C   UNL A   1      41.863  31.743  36.641  1.00  0.00     0.031 C 
ATOM     58  C   UNL A   1      43.431  27.841  32.265  1.00  0.00     0.029 A 
ATOM     59  C   UNL A   1      42.786  28.839  32.976  1.00  0.00     0.049 A 
ATOM     60  H   UNL A   1      41.088  29.973  32.436  1.00  0.00     0.167 HD
ATOM     61  C   UNL A   1      42.411  30.335  34.919  1.00  0.00     0.074 A 
ATOM     62  C   UNL A   1      42.736  30.830  36.240  1.00  0.00     0.031 C 
ATOM     63  C   UNL A   1      43.103  29.360  34.279  1.00  0.00     0.037 A 
BRANCH  50  64
ATOM     64  C   UNL A   1      40.882  27.926  28.699  1.00  0.00     0.064 A 
ATOM     65  C   UNL A   1      40.166  26.727  28.563  1.00  0.00     0.173 A 
ATOM     66  C   UNL A   1      41.680  28.340  27.623  1.00  0.00     0.173 A 
ATOM     67  F   UNL A   1      39.397  26.282  29.568  1.00  0.00    -0.203 F 
ATOM     68  C   UNL A   1      40.263  25.961  27.404  1.00  0.00     0.198 A 
ATOM     69  C   UNL A   1      41.755  27.585  26.455  1.00  0.00     0.198 A 
ATOM     70  F   UNL A   1      42.381  29.481  27.700  1.00  0.00    -0.203 F 
ATOM     71  F   UNL A   1      39.602  24.799  27.312  1.00  0.00    -0.200 F 
ATOM     72  C   UNL A   1      41.052  26.395  26.348  1.00  0.00     0.200 A 
ATOM     73  F   UNL A   1      42.508  28.011  25.430  1.00  0.00    -0.200 F 
ATOM     74  F   UNL A   1      41.137  25.663  25.229  1.00  0.00    -0.200 F 
ENDBRANCH  50  64
BRANCH  51  75
ATOM     75  C   UNL A   1      39.736  33.745  36.736  1.00  0.00     0.064 A 
ATOM     76  C   UNL A   1      38.942  33.325  37.813  1.00  0.00     0.173 A 
ATOM     77  C   UNL A   1      40.350  35.002  36.829  1.00  0.00     0.173 A 
ATOM     78  F   UNL A   1      38.317  32.140  37.760  1.00  0.00    -0.203 F 
ATOM     79  C   UNL A   1      38.747  34.140  38.926  1.00  0.00     0.198 A 
ATOM     80  C   UNL A   1      40.178  35.804  37.955  1.00  0.00     0.198 A 
ATOM     81  F   UNL A   1      41.123  35.448  35.829  1.00  0.00    -0.203 F 
ATOM     82  F   UNL A   1      37.944  33.735  39.918  1.00  0.00    -0.200 F 
ATOM     83  C   UNL A   1      39.369  35.378  38.998  1.00  0.00     0.200 A 
ATOM     84  F   UNL A   1      40.790  36.994  38.027  1.00  0.00    -0.200 F 
ATOM     85  F   UNL A   1      39.182  36.163  40.068  1.00  0.00    -0.200 F 
ENDBRANCH  51  75
BRANCH  63  86
ATOM     86  C   UNL A   1      44.305  28.802  34.980  1.00  0.00     0.064 A 
ATOM     87  C   UNL A   1      44.215  27.676  35.811  1.00  0.00     0.173 A 
ATOM     88  C   UNL A   1      45.568  29.383  34.790  1.00  0.00     0.173 A 
ATOM     89  F   UNL A   1      43.027  27.097  36.035  1.00  0.00    -0.203 F 
ATOM     90  C   UNL A   1      45.344  27.166  36.447  1.00  0.00     0.198 A 
ATOM     91  C   UNL A   1      46.699  28.855  35.408  1.00  0.00     0.198 A 
ATOM     92  F   UNL A   1      45.707  30.458  34.000  1.00  0.00    -0.203 F 
ATOM     93  F   UNL A   1      45.228  26.118  37.273  1.00  0.00    -0.200 F 
ATOM     94  C   UNL A   1      46.584  27.752  36.240  1.00  0.00     0.200 A 
ATOM     95  F   UNL A   1      47.898  29.415  35.199  1.00  0.00    -0.200 F 
ATOM     96  F   UNL A   1      47.670  27.257  36.850  1.00  0.00    -0.200 F 
ENDBRANCH  63  86
ENDBRANCH  37  38
ENDBRANCH  29  32
ENDBRANCH  27  28
ENDBRANCH  26  27
ENDBRANCH   1  26
TORSDOF 14
ENDMDL
