MODEL 1
REMARK VINA RESULT:     -10.7      0.000      0.000
REMARK SMILES Cc1csc(CSCC[C@H]([NH3+])C(=O)NCCCNC(=O)c2ccc(-c3c4nc(c(-c5c(F)c(F)c(F)c(F)c5F)c5ccc([nH]5)c(-c5c(F)c(F)c(F)c(F)c5F)c5nc(c(-c6c(F)c(F)c(F)c(F)c6F)c6ccc3[nH]6)C=C5)C=C4)cc2)n1
REMARK SMILES IDX 12 1 13 2 14 3 10 5 9 6 8 7 7 8 6 9 5 10 1 11 2 12 3 13
REMARK SMILES IDX 84 14 4 15 11 16 15 20 16 21 17 22 18 23 19 24 20 26 21 27
REMARK SMILES IDX 22 28 83 29 23 30 82 31 24 32 25 33 26 34 76 35 27 36 81 37
REMARK SMILES IDX 75 38 77 39 28 40 80 41 74 42 73 43 29 45 61 46 41 47 60 48
REMARK SMILES IDX 42 49 45 50 59 51 78 52 43 53 44 54 58 56 79 57 46 58 30 59
REMARK SMILES IDX 31 60 39 61 32 62 33 63 37 64 40 65 34 66 35 67 38 68 36 69
REMARK SMILES IDX 62 70 63 71 71 72 64 73 65 74 69 75 72 76 66 77 67 78 70 79
REMARK SMILES IDX 68 80 47 81 48 82 56 83 49 84 50 85 54 86 57 87 51 88 52 89
REMARK SMILES IDX 55 90 53 91
REMARK H PARENT 14 4 11 17 11 18 11 19 18 25 77 44 45 55
REMARK Flexibility Score: inf
ROOT
ATOM      1  C   UNL A   1      33.236  29.049  26.791  1.00  0.00     0.278 C 
ATOM      2  O   UNL A   1      34.458  28.872  26.827  1.00  0.00    -0.268 OA
ATOM      3  N   UNL A   1      32.810  30.321  26.559  1.00  0.00    -0.351 N 
ATOM      4  H   UNL A   1      33.516  31.004  26.625  1.00  0.00     0.163 HD
ENDROOT
BRANCH   1   5
ATOM      5  C   UNL A   1      32.278  27.862  27.018  1.00  0.00     0.271 C 
BRANCH   5   6
ATOM      6  C   UNL A   1      31.586  27.240  25.788  1.00  0.00     0.086 C 
BRANCH   6   7
ATOM      7  C   UNL A   1      32.405  26.603  24.664  1.00  0.00     0.076 C 
BRANCH   7   8
ATOM      8  S   UNL A   1      31.696  26.747  22.987  1.00  0.00    -0.154 SA
BRANCH   8   9
ATOM      9  C   UNL A   1      31.556  28.553  22.776  1.00  0.00     0.137 C 
BRANCH   9  10
ATOM     10  C   UNL A   1      30.202  29.080  22.376  1.00  0.00     0.103 A 
ATOM     11  C   UNL A   1      28.129  31.624  20.866  1.00  0.00     0.067 C 
ATOM     12  C   UNL A   1      28.600  30.419  21.598  1.00  0.00     0.049 A 
ATOM     13  C   UNL A   1      27.821  29.583  22.371  1.00  0.00     0.090 A 
ATOM     14  N   UNL A   1      29.948  30.085  21.560  1.00  0.00    -0.246 NA
ATOM     15  S   UNL A   1      28.799  28.412  23.138  1.00  0.00    -0.126 S 
ENDBRANCH   9  10
ENDBRANCH   8   9
ENDBRANCH   7   8
ENDBRANCH   6   7
ENDBRANCH   5   6
BRANCH   5  16
ATOM     16  N   UNL A   1      31.379  28.095  28.167  1.00  0.00    -0.347 N 
ATOM     17  H   UNL A   1      30.705  28.821  27.929  1.00  0.00     0.345 HD
ATOM     18  H   UNL A   1      31.928  28.391  28.974  1.00  0.00     0.345 HD
ATOM     19  H   UNL A   1      30.884  27.231  28.391  1.00  0.00     0.345 HD
ENDBRANCH   5  16
ENDBRANCH   1   5
BRANCH   3  20
ATOM     20  C   UNL A   1      31.499  30.844  26.231  1.00  0.00     0.118 C 
BRANCH  20  21
ATOM     21  C   UNL A   1      31.281  32.268  26.707  1.00  0.00     0.042 C 
BRANCH  21  22
ATOM     22  C   UNL A   1      32.571  33.075  26.750  1.00  0.00     0.118 C 
BRANCH  22  23
ATOM     23  N   UNL A   1      32.562  34.145  27.746  1.00  0.00    -0.352 N 
ATOM     24  C   UNL A   1      33.442  34.374  28.777  1.00  0.00     0.251 C 
ATOM     25  H   UNL A   1      31.822  34.790  27.669  1.00  0.00     0.163 HD
ATOM     26  O   UNL A   1      33.240  35.267  29.594  1.00  0.00    -0.269 OA
BRANCH  24  27
ATOM     27  C   UNL A   1      34.616  33.498  28.925  1.00  0.00     0.039 A 
ATOM     28  C   UNL A   1      35.883  34.083  28.916  1.00  0.00     0.014 A 
ATOM     29  C   UNL A   1      34.455  32.136  29.187  1.00  0.00     0.014 A 
ATOM     30  C   UNL A   1      36.981  33.331  29.325  1.00  0.00     0.010 A 
ATOM     31  C   UNL A   1      35.532  31.412  29.674  1.00  0.00     0.010 A 
ATOM     32  C   UNL A   1      36.791  32.020  29.788  1.00  0.00    -0.014 A 
BRANCH  32  33
ATOM     33  C   UNL A   1      37.867  31.300  30.503  1.00  0.00     0.031 A 
ATOM     34  C   UNL A   1      38.204  31.662  31.915  1.00  0.00     0.074 A 
ATOM     35  C   UNL A   1      38.610  30.410  29.816  1.00  0.00     0.049 A 
ATOM     36  N   UNL A   1      39.186  31.233  32.662  1.00  0.00    -0.248 NA
ATOM     37  C   UNL A   1      37.345  32.666  32.561  1.00  0.00     0.031 C 
ATOM     38  C   UNL A   1      38.406  30.041  28.413  1.00  0.00     0.029 A 
ATOM     39  N   UNL A   1      39.699  29.669  30.197  1.00  0.00    -0.354 N 
ATOM     40  C   UNL A   1      39.073  31.923  33.860  1.00  0.00     0.074 A 
ATOM     41  C   UNL A   1      37.956  32.832  33.724  1.00  0.00     0.031 C 
ATOM     42  C   UNL A   1      39.325  29.130  28.057  1.00  0.00     0.029 A 
ATOM     43  C   UNL A   1      40.205  28.880  29.192  1.00  0.00     0.049 A 
ATOM     44  H   UNL A   1      40.081  29.698  31.104  1.00  0.00     0.167 HD
ATOM     45  C   UNL A   1      39.827  31.791  34.975  1.00  0.00     0.037 A 
ATOM     46  C   UNL A   1      41.269  28.055  29.188  1.00  0.00     0.037 A 
ATOM     47  C   UNL A   1      40.923  30.867  35.099  1.00  0.00     0.049 A 
ATOM     48  C   UNL A   1      42.074  27.909  30.448  1.00  0.00     0.074 A 
ATOM     49  C   UNL A   1      41.722  30.617  36.198  1.00  0.00     0.029 A 
ATOM     50  N   UNL A   1      41.371  30.040  34.077  1.00  0.00    -0.354 N 
ATOM     51  N   UNL A   1      41.916  28.516  31.600  1.00  0.00    -0.248 NA
ATOM     52  C   UNL A   1      43.197  26.964  30.414  1.00  0.00     0.031 C 
ATOM     53  C   UNL A   1      42.674  29.658  35.834  1.00  0.00     0.029 A 
ATOM     54  C   UNL A   1      42.443  29.283  34.520  1.00  0.00     0.049 A 
ATOM     55  H   UNL A   1      40.984  29.997  33.174  1.00  0.00     0.167 HD
ATOM     56  C   UNL A   1      42.895  28.005  32.437  1.00  0.00     0.074 A 
ATOM     57  C   UNL A   1      43.643  27.036  31.661  1.00  0.00     0.031 C 
ATOM     58  C   UNL A   1      43.150  28.308  33.732  1.00  0.00     0.037 A 
BRANCH  45  59
ATOM     59  C   UNL A   1      39.487  32.664  36.146  1.00  0.00     0.064 A 
ATOM     60  C   UNL A   1      38.534  32.272  37.098  1.00  0.00     0.173 A 
ATOM     61  C   UNL A   1      40.133  33.895  36.329  1.00  0.00     0.173 A 
ATOM     62  F   UNL A   1      37.878  31.111  36.957  1.00  0.00    -0.203 F 
ATOM     63  C   UNL A   1      38.220  33.094  38.177  1.00  0.00     0.198 A 
ATOM     64  C   UNL A   1      39.835  34.703  37.424  1.00  0.00     0.198 A 
ATOM     65  F   UNL A   1      41.052  34.316  35.448  1.00  0.00    -0.203 F 
ATOM     66  F   UNL A   1      37.271  32.721  39.046  1.00  0.00    -0.200 F 
ATOM     67  C   UNL A   1      38.874  34.305  38.343  1.00  0.00     0.200 A 
ATOM     68  F   UNL A   1      40.474  35.870  37.588  1.00  0.00    -0.200 F 
ATOM     69  F   UNL A   1      38.572  35.095  39.382  1.00  0.00    -0.200 F 
ENDBRANCH  45  59
BRANCH  46  70
ATOM     70  C   UNL A   1      41.601  27.282  27.964  1.00  0.00     0.064 A 
ATOM     71  C   UNL A   1      42.474  27.807  27.001  1.00  0.00     0.173 A 
ATOM     72  C   UNL A   1      41.078  26.000  27.742  1.00  0.00     0.173 A 
ATOM     73  F   UNL A   1      42.989  29.034  27.163  1.00  0.00    -0.203 F 
ATOM     74  C   UNL A   1      42.799  27.085  25.854  1.00  0.00     0.198 A 
ATOM     75  C   UNL A   1      41.422  25.269  26.606  1.00  0.00     0.198 A 
ATOM     76  F   UNL A   1      40.248  25.448  28.640  1.00  0.00    -0.203 F 
ATOM     77  F   UNL A   1      43.608  27.624  24.934  1.00  0.00    -0.200 F 
ATOM     78  C   UNL A   1      42.276  25.815  25.660  1.00  0.00     0.200 A 
ATOM     79  F   UNL A   1      40.929  24.035  26.431  1.00  0.00    -0.200 F 
ATOM     80  F   UNL A   1      42.596  25.119  24.561  1.00  0.00    -0.200 F 
ENDBRANCH  46  70
BRANCH  58  81
ATOM     81  C   UNL A   1      44.251  27.551  34.409  1.00  0.00     0.064 A 
ATOM     82  C   UNL A   1      44.024  26.298  34.997  1.00  0.00     0.173 A 
ATOM     83  C   UNL A   1      45.560  28.054  34.401  1.00  0.00     0.173 A 
ATOM     84  F   UNL A   1      42.785  25.786  35.039  1.00  0.00    -0.203 F 
ATOM     85  C   UNL A   1      45.074  25.579  35.561  1.00  0.00     0.198 A 
ATOM     86  C   UNL A   1      46.608  27.321  34.946  1.00  0.00     0.198 A 
ATOM     87  F   UNL A   1      45.820  29.247  33.845  1.00  0.00    -0.203 F 
ATOM     88  F   UNL A   1      44.835  24.394  36.141  1.00  0.00    -0.200 F 
ATOM     89  C   UNL A   1      46.365  26.086  35.527  1.00  0.00     0.200 A 
ATOM     90  F   UNL A   1      47.857  27.809  34.904  1.00  0.00    -0.200 F 
ATOM     91  F   UNL A   1      47.375  25.384  36.058  1.00  0.00    -0.200 F 
ENDBRANCH  58  81
ENDBRANCH  32  33
ENDBRANCH  24  27
ENDBRANCH  22  23
ENDBRANCH  21  22
ENDBRANCH  20  21
ENDBRANCH   3  20
TORSDOF 16
ENDMDL
MODEL 2
REMARK VINA RESULT:     -10.5      1.527      7.902
REMARK SMILES Cc1csc(CSCC[C@H]([NH3+])C(=O)NCCCNC(=O)c2ccc(-c3c4nc(c(-c5c(F)c(F)c(F)c(F)c5F)c5ccc([nH]5)c(-c5c(F)c(F)c(F)c(F)c5F)c5nc(c(-c6c(F)c(F)c(F)c(F)c6F)c6ccc3[nH]6)C=C5)C=C4)cc2)n1
REMARK SMILES IDX 12 1 13 2 14 3 10 5 9 6 8 7 7 8 6 9 5 10 1 11 2 12 3 13
REMARK SMILES IDX 84 14 4 15 11 16 15 20 16 21 17 22 18 23 19 24 20 26 21 27
REMARK SMILES IDX 22 28 83 29 23 30 82 31 24 32 25 33 26 34 76 35 27 36 81 37
REMARK SMILES IDX 75 38 77 39 28 40 80 41 74 42 73 43 29 45 61 46 41 47 60 48
REMARK SMILES IDX 42 49 45 50 59 51 78 52 43 53 44 54 58 56 79 57 46 58 30 59
REMARK SMILES IDX 31 60 39 61 32 62 33 63 37 64 40 65 34 66 35 67 38 68 36 69
REMARK SMILES IDX 62 70 63 71 71 72 64 73 65 74 69 75 72 76 66 77 67 78 70 79
REMARK SMILES IDX 68 80 47 81 48 82 56 83 49 84 50 85 54 86 57 87 51 88 52 89
REMARK SMILES IDX 55 90 53 91
REMARK H PARENT 14 4 11 17 11 18 11 19 18 25 77 44 45 55
REMARK Flexibility Score: inf
ROOT
ATOM      1  C   UNL A   1      33.619  28.374  24.456  1.00  0.00     0.278 C 
ATOM      2  O   UNL A   1      34.066  28.599  23.326  1.00  0.00    -0.268 OA
ATOM      3  N   UNL A   1      33.784  29.357  25.383  1.00  0.00    -0.351 N 
ATOM      4  H   UNL A   1      34.404  30.071  25.113  1.00  0.00     0.163 HD
ENDROOT
BRANCH   1   5
ATOM      5  C   UNL A   1      32.927  27.029  24.758  1.00  0.00     0.271 C 
BRANCH   5   6
ATOM      6  C   UNL A   1      31.424  27.045  25.105  1.00  0.00     0.086 C 
BRANCH   6   7
ATOM      7  C   UNL A   1      30.418  26.253  24.267  1.00  0.00     0.076 C 
BRANCH   7   8
ATOM      8  S   UNL A   1      29.080  27.235  23.501  1.00  0.00    -0.154 SA
BRANCH   8   9
ATOM      9  C   UNL A   1      30.005  28.531  22.614  1.00  0.00     0.137 C 
BRANCH   9  10
ATOM     10  C   UNL A   1      29.281  29.830  22.373  1.00  0.00     0.103 A 
ATOM     11  C   UNL A   1      27.949  32.329  20.131  1.00  0.00     0.067 C 
ATOM     12  C   UNL A   1      28.387  31.593  21.346  1.00  0.00     0.049 A 
ATOM     13  C   UNL A   1      28.468  32.110  22.623  1.00  0.00     0.090 A 
ATOM     14  N   UNL A   1      28.795  30.271  21.228  1.00  0.00    -0.246 NA
ATOM     15  S   UNL A   1      29.153  30.957  23.680  1.00  0.00    -0.126 S 
ENDBRANCH   9  10
ENDBRANCH   8   9
ENDBRANCH   7   8
ENDBRANCH   6   7
ENDBRANCH   5   6
BRANCH   5  16
ATOM     16  N   UNL A   1      33.746  26.180  25.648  1.00  0.00    -0.347 N 
ATOM     17  H   UNL A   1      33.416  26.277  26.608  1.00  0.00     0.345 HD
ATOM     18  H   UNL A   1      34.722  26.471  25.593  1.00  0.00     0.345 HD
ATOM     19  H   UNL A   1      33.664  25.205  25.357  1.00  0.00     0.345 HD
ENDBRANCH   5  16
ENDBRANCH   1   5
BRANCH   3  20
ATOM     20  C   UNL A   1      33.204  29.533  26.700  1.00  0.00     0.118 C 
BRANCH  20  21
ATOM     21  C   UNL A   1      32.507  30.869  26.878  1.00  0.00     0.042 C 
BRANCH  21  22
ATOM     22  C   UNL A   1      33.392  31.905  27.558  1.00  0.00     0.118 C 
BRANCH  22  23
ATOM     23  N   UNL A   1      32.803  33.243  27.602  1.00  0.00    -0.352 N 
ATOM     24  C   UNL A   1      33.152  34.316  28.387  1.00  0.00     0.251 C 
ATOM     25  H   UNL A   1      32.052  33.396  26.984  1.00  0.00     0.163 HD
ATOM     26  O   UNL A   1      32.490  35.349  28.376  1.00  0.00    -0.269 OA
BRANCH  24  27
ATOM     27  C   UNL A   1      34.308  34.196  29.291  1.00  0.00     0.039 A 
ATOM     28  C   UNL A   1      34.095  33.688  30.573  1.00  0.00     0.014 A 
ATOM     29  C   UNL A   1      35.597  34.474  28.834  1.00  0.00     0.014 A 
ATOM     30  C   UNL A   1      35.190  33.309  31.344  1.00  0.00     0.010 A 
ATOM     31  C   UNL A   1      36.684  34.021  29.565  1.00  0.00     0.010 A 
ATOM     32  C   UNL A   1      36.483  33.394  30.804  1.00  0.00    -0.014 A 
BRANCH  32  33
ATOM     33  C   UNL A   1      37.629  32.732  31.461  1.00  0.00     0.031 A 
ATOM     34  C   UNL A   1      38.305  31.570  30.805  1.00  0.00     0.074 A 
ATOM     35  C   UNL A   1      37.964  33.118  32.709  1.00  0.00     0.049 A 
ATOM     36  N   UNL A   1      39.240  30.789  31.276  1.00  0.00    -0.248 NA
ATOM     37  C   UNL A   1      37.843  31.217  29.454  1.00  0.00     0.031 C 
ATOM     38  C   UNL A   1      37.317  34.194  33.464  1.00  0.00     0.029 A 
ATOM     39  N   UNL A   1      38.915  32.636  33.571  1.00  0.00    -0.354 N 
ATOM     40  C   UNL A   1      39.470  29.843  30.287  1.00  0.00     0.074 A 
ATOM     41  C   UNL A   1      38.545  30.120  29.210  1.00  0.00     0.031 C 
ATOM     42  C   UNL A   1      37.902  34.305  34.667  1.00  0.00     0.029 A 
ATOM     43  C   UNL A   1      38.936  33.283  34.783  1.00  0.00     0.049 A 
ATOM     44  H   UNL A   1      39.525  31.897  33.344  1.00  0.00     0.167 HD
ATOM     45  C   UNL A   1      40.385  28.847  30.280  1.00  0.00     0.037 A 
ATOM     46  C   UNL A   1      39.701  33.067  35.870  1.00  0.00     0.037 A 
ATOM     47  C   UNL A   1      41.311  28.599  31.353  1.00  0.00     0.049 A 
ATOM     48  C   UNL A   1      40.726  31.970  35.824  1.00  0.00     0.074 A 
ATOM     49  C   UNL A   1      42.312  27.649  31.428  1.00  0.00     0.029 A 
ATOM     50  N   UNL A   1      41.343  29.314  32.543  1.00  0.00    -0.354 N 
ATOM     51  N   UNL A   1      40.983  31.125  34.855  1.00  0.00    -0.248 NA
ATOM     52  C   UNL A   1      41.571  31.799  37.013  1.00  0.00     0.031 C 
ATOM     53  C   UNL A   1      42.933  27.769  32.676  1.00  0.00     0.029 A 
ATOM     54  C   UNL A   1      42.343  28.819  33.362  1.00  0.00     0.049 A 
ATOM     55  H   UNL A   1      40.745  30.062  32.769  1.00  0.00     0.167 HD
ATOM     56  C   UNL A   1      42.038  30.344  35.302  1.00  0.00     0.074 A 
ATOM     57  C   UNL A   1      42.375  30.817  36.629  1.00  0.00     0.031 C 
ATOM     58  C   UNL A   1      42.672  29.328  34.668  1.00  0.00     0.037 A 
BRANCH  45  59
ATOM     59  C   UNL A   1      40.428  27.959  29.072  1.00  0.00     0.064 A 
ATOM     60  C   UNL A   1      41.226  28.273  27.962  1.00  0.00     0.173 A 
ATOM     61  C   UNL A   1      39.681  26.774  29.032  1.00  0.00     0.173 A 
ATOM     62  F   UNL A   1      41.947  29.404  27.946  1.00  0.00    -0.203 F 
ATOM     63  C   UNL A   1      41.253  27.445  26.843  1.00  0.00     0.198 A 
ATOM     64  C   UNL A   1      39.730  25.934  27.922  1.00  0.00     0.198 A 
ATOM     65  F   UNL A   1      38.903  26.427  30.068  1.00  0.00    -0.203 F 
ATOM     66  F   UNL A   1      41.984  27.790  25.774  1.00  0.00    -0.200 F 
ATOM     67  C   UNL A   1      40.510  26.274  26.825  1.00  0.00     0.200 A 
ATOM     68  F   UNL A   1      39.019  24.799  27.908  1.00  0.00    -0.200 F 
ATOM     69  F   UNL A   1      40.538  25.478  25.748  1.00  0.00    -0.200 F 
ENDBRANCH  45  59
BRANCH  46  70
ATOM     70  C   UNL A   1      39.547  33.932  37.067  1.00  0.00     0.064 A 
ATOM     71  C   UNL A   1      38.762  33.519  38.153  1.00  0.00     0.173 A 
ATOM     72  C   UNL A   1      40.195  35.173  37.164  1.00  0.00     0.173 A 
ATOM     73  F   UNL A   1      38.114  32.347  38.101  1.00  0.00    -0.203 F 
ATOM     74  C   UNL A   1      38.620  34.320  39.284  1.00  0.00     0.198 A 
ATOM     75  C   UNL A   1      40.070  35.963  38.305  1.00  0.00     0.198 A 
ATOM     76  F   UNL A   1      40.966  35.608  36.156  1.00  0.00    -0.203 F 
ATOM     77  F   UNL A   1      37.838  33.916  40.293  1.00  0.00    -0.200 F 
ATOM     78  C   UNL A   1      39.278  35.539  39.361  1.00  0.00     0.200 A 
ATOM     79  F   UNL A   1      40.721  37.132  38.383  1.00  0.00    -0.200 F 
ATOM     80  F   UNL A   1      39.146  36.305  40.453  1.00  0.00    -0.200 F 
ENDBRANCH  46  70
BRANCH  58  81
ATOM     81  C   UNL A   1      43.826  28.692  35.379  1.00  0.00     0.064 A 
ATOM     82  C   UNL A   1      45.138  29.156  35.207  1.00  0.00     0.173 A 
ATOM     83  C   UNL A   1      43.603  27.656  36.298  1.00  0.00     0.173 A 
ATOM     84  F   UNL A   1      45.399  30.135  34.329  1.00  0.00    -0.203 F 
ATOM     85  C   UNL A   1      46.189  28.596  35.928  1.00  0.00     0.198 A 
ATOM     86  C   UNL A   1      44.653  27.115  37.032  1.00  0.00     0.198 A 
ATOM     87  F   UNL A   1      42.362  27.185  36.494  1.00  0.00    -0.203 F 
ATOM     88  F   UNL A   1      47.440  29.035  35.733  1.00  0.00    -0.200 F 
ATOM     89  C   UNL A   1      45.944  27.584  36.846  1.00  0.00     0.200 A 
ATOM     90  F   UNL A   1      44.413  26.144  37.924  1.00  0.00    -0.200 F 
ATOM     91  F   UNL A   1      46.956  27.058  37.549  1.00  0.00    -0.200 F 
ENDBRANCH  58  81
ENDBRANCH  32  33
ENDBRANCH  24  27
ENDBRANCH  22  23
ENDBRANCH  21  22
ENDBRANCH  20  21
ENDBRANCH   3  20
TORSDOF 16
ENDMDL
MODEL 3
REMARK VINA RESULT:     -10.5      1.397      2.073
REMARK SMILES Cc1csc(CSCC[C@H]([NH3+])C(=O)NCCCNC(=O)c2ccc(-c3c4nc(c(-c5c(F)c(F)c(F)c(F)c5F)c5ccc([nH]5)c(-c5c(F)c(F)c(F)c(F)c5F)c5nc(c(-c6c(F)c(F)c(F)c(F)c6F)c6ccc3[nH]6)C=C5)C=C4)cc2)n1
REMARK SMILES IDX 12 1 13 2 14 3 10 5 9 6 8 7 7 8 6 9 5 10 1 11 2 12 3 13
REMARK SMILES IDX 84 14 4 15 11 16 15 20 16 21 17 22 18 23 19 24 20 26 21 27
REMARK SMILES IDX 22 28 83 29 23 30 82 31 24 32 25 33 26 34 76 35 27 36 81 37
REMARK SMILES IDX 75 38 77 39 28 40 80 41 74 42 73 43 29 45 61 46 41 47 60 48
REMARK SMILES IDX 42 49 45 50 59 51 78 52 43 53 44 54 58 56 79 57 46 58 30 59
REMARK SMILES IDX 31 60 39 61 32 62 33 63 37 64 40 65 34 66 35 67 38 68 36 69
REMARK SMILES IDX 62 70 63 71 71 72 64 73 65 74 69 75 72 76 66 77 67 78 70 79
REMARK SMILES IDX 68 80 47 81 48 82 56 83 49 84 50 85 54 86 57 87 51 88 52 89
REMARK SMILES IDX 55 90 53 91
REMARK H PARENT 14 4 11 17 11 18 11 19 18 25 77 44 45 55
REMARK Flexibility Score: inf
ROOT
ATOM      1  C   UNL A   1      31.797  27.774  26.641  1.00  0.00     0.278 C 
ATOM      2  O   UNL A   1      31.004  27.033  27.233  1.00  0.00    -0.268 OA
ATOM      3  N   UNL A   1      31.799  29.084  27.013  1.00  0.00    -0.351 N 
ATOM      4  H   UNL A   1      31.042  29.346  27.584  1.00  0.00     0.163 HD
ENDROOT
BRANCH   1   5
ATOM      5  C   UNL A   1      32.709  27.203  25.537  1.00  0.00     0.271 C 
BRANCH   5   6
ATOM      6  C   UNL A   1      32.103  26.977  24.136  1.00  0.00     0.086 C 
BRANCH   6   7
ATOM      7  C   UNL A   1      30.760  26.265  23.968  1.00  0.00     0.076 C 
BRANCH   7   8
ATOM      8  S   UNL A   1      29.351  27.331  23.504  1.00  0.00    -0.154 SA
BRANCH   8   9
ATOM      9  C   UNL A   1      30.166  28.683  22.593  1.00  0.00     0.137 C 
BRANCH   9  10
ATOM     10  C   UNL A   1      29.343  29.921  22.347  1.00  0.00     0.103 A 
ATOM     11  C   UNL A   1      27.848  32.319  20.098  1.00  0.00     0.067 C 
ATOM     12  C   UNL A   1      28.326  31.613  21.315  1.00  0.00     0.049 A 
ATOM     13  C   UNL A   1      28.347  32.127  22.596  1.00  0.00     0.090 A 
ATOM     14  N   UNL A   1      28.841  30.328  21.197  1.00  0.00    -0.246 NA
ATOM     15  S   UNL A   1      29.107  31.027  23.658  1.00  0.00    -0.126 S 
ENDBRANCH   9  10
ENDBRANCH   8   9
ENDBRANCH   7   8
ENDBRANCH   6   7
ENDBRANCH   5   6
BRANCH   5  16
ATOM     16  N   UNL A   1      33.530  26.078  26.031  1.00  0.00    -0.347 N 
ATOM     17  H   UNL A   1      33.781  26.243  27.005  1.00  0.00     0.345 HD
ATOM     18  H   UNL A   1      34.377  26.002  25.469  1.00  0.00     0.345 HD
ATOM     19  H   UNL A   1      32.995  25.211  25.960  1.00  0.00     0.345 HD
ENDBRANCH   5  16
ENDBRANCH   1   5
BRANCH   3  20
ATOM     20  C   UNL A   1      32.723  30.159  26.712  1.00  0.00     0.118 C 
BRANCH  20  21
ATOM     21  C   UNL A   1      32.141  31.540  26.954  1.00  0.00     0.042 C 
BRANCH  21  22
ATOM     22  C   UNL A   1      33.166  32.517  27.515  1.00  0.00     0.118 C 
BRANCH  22  23
ATOM     23  N   UNL A   1      32.636  33.862  27.734  1.00  0.00    -0.352 N 
ATOM     24  C   UNL A   1      33.051  34.818  28.630  1.00  0.00     0.251 C 
ATOM     25  H   UNL A   1      31.877  34.117  27.162  1.00  0.00     0.163 HD
ATOM     26  O   UNL A   1      32.433  35.871  28.761  1.00  0.00    -0.269 OA
BRANCH  24  27
ATOM     27  C   UNL A   1      34.222  34.546  29.479  1.00  0.00     0.039 A 
ATOM     28  C   UNL A   1      34.004  34.134  30.795  1.00  0.00     0.014 A 
ATOM     29  C   UNL A   1      35.511  34.585  28.943  1.00  0.00     0.014 A 
ATOM     30  C   UNL A   1      35.066  33.611  31.527  1.00  0.00     0.010 A 
ATOM     31  C   UNL A   1      36.549  33.988  29.640  1.00  0.00     0.010 A 
ATOM     32  C   UNL A   1      36.321  33.456  30.918  1.00  0.00    -0.014 A 
BRANCH  32  33
ATOM     33  C   UNL A   1      37.380  32.641  31.550  1.00  0.00     0.031 A 
ATOM     34  C   UNL A   1      37.889  32.993  32.911  1.00  0.00     0.074 A 
ATOM     35  C   UNL A   1      37.955  31.662  30.824  1.00  0.00     0.049 A 
ATOM     36  N   UNL A   1      38.889  32.477  33.575  1.00  0.00    -0.248 NA
ATOM     37  C   UNL A   1      37.207  34.096  33.605  1.00  0.00     0.031 C 
ATOM     38  C   UNL A   1      37.578  31.288  29.458  1.00  0.00     0.029 A 
ATOM     39  N   UNL A   1      38.993  30.816  31.122  1.00  0.00    -0.354 N 
ATOM     40  C   UNL A   1      38.967  33.200  34.756  1.00  0.00     0.074 A 
ATOM     41  C   UNL A   1      37.942  34.221  34.699  1.00  0.00     0.031 C 
ATOM     42  C   UNL A   1      38.357  30.276  29.044  1.00  0.00     0.029 A 
ATOM     43  C   UNL A   1      39.313  29.958  30.098  1.00  0.00     0.049 A 
ATOM     44  H   UNL A   1      39.463  30.823  31.987  1.00  0.00     0.167 HD
ATOM     45  C   UNL A   1      39.808  33.012  35.798  1.00  0.00     0.037 A 
ATOM     46  C   UNL A   1      40.280  29.023  30.018  1.00  0.00     0.037 A 
ATOM     47  C   UNL A   1      40.808  31.978  35.846  1.00  0.00     0.049 A 
ATOM     48  C   UNL A   1      41.184  28.819  31.200  1.00  0.00     0.074 A 
ATOM     49  C   UNL A   1      41.681  31.666  36.872  1.00  0.00     0.029 A 
ATOM     50  N   UNL A   1      41.066  31.087  34.812  1.00  0.00    -0.354 N 
ATOM     51  N   UNL A   1      41.203  29.462  32.343  1.00  0.00    -0.248 NA
ATOM     52  C   UNL A   1      42.194  27.758  31.090  1.00  0.00     0.031 C 
ATOM     53  C   UNL A   1      42.487  30.604  36.449  1.00  0.00     0.029 A 
ATOM     54  C   UNL A   1      42.090  30.229  35.174  1.00  0.00     0.049 A 
ATOM     55  H   UNL A   1      40.590  31.067  33.952  1.00  0.00     0.167 HD
ATOM     56  C   UNL A   1      42.201  28.867  33.098  1.00  0.00     0.074 A 
ATOM     57  C   UNL A   1      42.764  27.807  32.285  1.00  0.00     0.031 C 
ATOM     58  C   UNL A   1      42.612  29.167  34.354  1.00  0.00     0.037 A 
BRANCH  45  59
ATOM     59  C   UNL A   1      39.677  33.940  36.968  1.00  0.00     0.064 A 
ATOM     60  C   UNL A   1      40.313  35.190  36.986  1.00  0.00     0.173 A 
ATOM     61  C   UNL A   1      38.892  33.585  38.075  1.00  0.00     0.173 A 
ATOM     62  F   UNL A   1      41.088  35.567  35.958  1.00  0.00    -0.203 F 
ATOM     63  C   UNL A   1      40.191  36.040  38.081  1.00  0.00     0.198 A 
ATOM     64  C   UNL A   1      38.750  34.449  39.158  1.00  0.00     0.198 A 
ATOM     65  F   UNL A   1      38.261  32.402  38.107  1.00  0.00    -0.203 F 
ATOM     66  F   UNL A   1      40.849  37.208  38.097  1.00  0.00    -0.200 F 
ATOM     67  C   UNL A   1      39.405  35.673  39.163  1.00  0.00     0.200 A 
ATOM     68  F   UNL A   1      37.984  34.097  40.199  1.00  0.00    -0.200 F 
ATOM     69  F   UNL A   1      39.287  36.493  40.216  1.00  0.00    -0.200 F 
ENDBRANCH  45  59
BRANCH  46  70
ATOM     70  C   UNL A   1      40.408  28.195  28.793  1.00  0.00     0.064 A 
ATOM     71  C   UNL A   1      41.213  28.615  27.726  1.00  0.00     0.173 A 
ATOM     72  C   UNL A   1      39.754  26.959  28.671  1.00  0.00     0.173 A 
ATOM     73  F   UNL A   1      41.848  29.794  27.791  1.00  0.00    -0.203 F 
ATOM     74  C   UNL A   1      41.347  27.839  26.576  1.00  0.00     0.198 A 
ATOM     75  C   UNL A   1      39.907  26.174  27.531  1.00  0.00     0.198 A 
ATOM     76  F   UNL A   1      38.981  26.507  29.671  1.00  0.00    -0.203 F 
ATOM     77  F   UNL A   1      42.096  28.280  25.557  1.00  0.00    -0.200 F 
ATOM     78  C   UNL A   1      40.698  26.617  26.482  1.00  0.00     0.200 A 
ATOM     79  F   UNL A   1      39.292  24.985  27.450  1.00  0.00    -0.200 F 
ATOM     80  F   UNL A   1      40.834  25.868  25.379  1.00  0.00    -0.200 F 
ENDBRANCH  46  70
BRANCH  58  81
ATOM     81  C   UNL A   1      43.688  28.311  34.946  1.00  0.00     0.064 A 
ATOM     82  C   UNL A   1      43.390  27.103  35.592  1.00  0.00     0.173 A 
ATOM     83  C   UNL A   1      45.035  28.670  34.797  1.00  0.00     0.173 A 
ATOM     84  F   UNL A   1      42.114  26.728  35.769  1.00  0.00    -0.203 F 
ATOM     85  C   UNL A   1      44.409  26.288  36.077  1.00  0.00     0.198 A 
ATOM     86  C   UNL A   1      46.050  27.841  35.263  1.00  0.00     0.198 A 
ATOM     87  F   UNL A   1      45.364  29.816  34.181  1.00  0.00    -0.203 F 
ATOM     88  F   UNL A   1      44.105  25.148  36.714  1.00  0.00    -0.200 F 
ATOM     89  C   UNL A   1      45.736  26.652  35.903  1.00  0.00     0.200 A 
ATOM     90  F   UNL A   1      47.332  28.191  35.086  1.00  0.00    -0.200 F 
ATOM     91  F   UNL A   1      46.714  25.857  36.357  1.00  0.00    -0.200 F 
ENDBRANCH  58  81
ENDBRANCH  32  33
ENDBRANCH  24  27
ENDBRANCH  22  23
ENDBRANCH  21  22
ENDBRANCH  20  21
ENDBRANCH   3  20
TORSDOF 16
ENDMDL
