MODEL 1
REMARK VINA RESULT:     -11.0      0.000      0.000
REMARK SMILES CCC[NH2+][C@@](C)(C[N@H+]1CCC(C)(C)C1)C(=O)NCCCNC(=O)c1ccc(-c2c3nc(c(-c4c(F)c(F)c(F)c(F)c4F)c4ccc([nH]4)c(-c4c(F)c(F)c(F)c(F)c4F)c4nc(c(-c5c(F)c(F)c(F)c(F)c5F)c5ccc2[nH]5)C=C4)C=C3)cc1
REMARK SMILES IDX 18 1 17 2 15 3 16 4 5 6 6 7 4 8 3 11 2 12 1 13 7 14 8 15
REMARK SMILES IDX 9 16 14 17 10 19 11 20 12 21 13 22 19 23 20 24 21 25 22 26
REMARK SMILES IDX 23 28 24 29 25 30 86 31 26 32 85 33 27 34 28 35 29 36 79 37
REMARK SMILES IDX 30 38 84 39 78 40 80 41 31 42 83 43 77 44 76 45 32 47 64 48
REMARK SMILES IDX 44 49 63 50 45 51 48 52 62 53 81 54 46 55 47 56 61 58 82 59
REMARK SMILES IDX 49 60 33 61 34 62 42 63 35 64 36 65 40 66 43 67 37 68 38 69
REMARK SMILES IDX 41 70 39 71 65 72 66 73 74 74 67 75 68 76 72 77 75 78 69 79
REMARK SMILES IDX 70 80 73 81 71 82 50 83 51 84 59 85 52 86 53 87 57 88 60 89
REMARK SMILES IDX 54 90 55 91 58 92 56 93
REMARK H PARENT 17 5 4 9 4 10 8 18 21 27 80 46 48 57
REMARK Flexibility Score: inf
ROOT
ATOM      1  C   UNL A   1      31.287  30.738  26.393  1.00  0.00     0.118 C 
ENDROOT
BRANCH   1   2
ATOM      2  N   UNL A   1      32.538  30.144  25.964  1.00  0.00    -0.350 N 
ATOM      3  C   UNL A   1      32.881  29.214  25.030  1.00  0.00     0.287 C 
ATOM      4  O   UNL A   1      34.092  28.954  25.019  1.00  0.00    -0.268 OA
ATOM      5  H   UNL A   1      33.314  30.491  26.460  1.00  0.00     0.163 HD
BRANCH   3   6
ATOM      6  C   UNL A   1      31.853  28.543  24.055  1.00  0.00     0.221 C 
ATOM      7  C   UNL A   1      30.772  27.769  24.841  1.00  0.00     0.097 C 
BRANCH   6   8
ATOM      8  N   UNL A   1      31.176  29.587  23.217  1.00  0.00    -0.329 N 
ATOM      9  H   UNL A   1      31.471  30.499  23.567  1.00  0.00     0.347 HD
ATOM     10  H   UNL A   1      31.458  29.379  22.260  1.00  0.00     0.347 HD
BRANCH   8  11
ATOM     11  C   UNL A   1      29.719  29.579  23.191  1.00  0.00     0.261 C 
BRANCH  11  12
ATOM     12  C   UNL A   1      29.149  30.980  23.448  1.00  0.00     0.058 C 
ATOM     13  C   UNL A   1      27.629  31.001  23.557  1.00  0.00     0.010 C 
ENDBRANCH  11  12
ENDBRANCH   8  11
ENDBRANCH   6   8
BRANCH   6  14
ATOM     14  C   UNL A   1      32.567  27.544  23.071  1.00  0.00     0.341 C 
BRANCH  14  15
ATOM     15  N   UNL A   1      32.501  26.109  23.412  1.00  0.00    -0.329 N 
ATOM     16  C   UNL A   1      32.051  25.250  22.308  1.00  0.00     0.263 C 
ATOM     17  C   UNL A   1      33.776  25.578  23.912  1.00  0.00     0.269 C 
ATOM     18  H   UNL A   1      31.801  26.081  24.153  1.00  0.00     0.348 HD
ATOM     19  C   UNL A   1      33.121  24.174  22.142  1.00  0.00     0.073 C 
ATOM     20  C   UNL A   1      33.772  24.096  23.521  1.00  0.00     0.019 C 
ATOM     21  C   UNL A   1      32.918  23.240  24.473  1.00  0.00     0.017 C 
ATOM     22  C   UNL A   1      35.190  23.524  23.463  1.00  0.00     0.017 C 
ENDBRANCH  14  15
ENDBRANCH   6  14
ENDBRANCH   3   6
ENDBRANCH   1   2
BRANCH   1  23
ATOM     23  C   UNL A   1      31.341  32.262  26.461  1.00  0.00     0.042 C 
BRANCH  23  24
ATOM     24  C   UNL A   1      32.580  32.828  27.148  1.00  0.00     0.118 C 
BRANCH  24  25
ATOM     25  N   UNL A   1      32.394  34.205  27.581  1.00  0.00    -0.352 N 
ATOM     26  C   UNL A   1      33.005  34.896  28.595  1.00  0.00     0.251 C 
ATOM     27  H   UNL A   1      31.730  34.719  27.067  1.00  0.00     0.163 HD
ATOM     28  O   UNL A   1      32.560  35.995  28.938  1.00  0.00    -0.269 OA
BRANCH  26  29
ATOM     29  C   UNL A   1      34.179  34.336  29.296  1.00  0.00     0.039 A 
ATOM     30  C   UNL A   1      33.976  33.565  30.446  1.00  0.00     0.014 A 
ATOM     31  C   UNL A   1      35.479  34.602  28.857  1.00  0.00     0.014 A 
ATOM     32  C   UNL A   1      35.070  33.015  31.119  1.00  0.00     0.010 A 
ATOM     33  C   UNL A   1      36.564  33.998  29.490  1.00  0.00     0.010 A 
ATOM     34  C   UNL A   1      36.372  33.205  30.631  1.00  0.00    -0.014 A 
BRANCH  34  35
ATOM     35  C   UNL A   1      37.545  32.596  31.308  1.00  0.00     0.031 A 
ATOM     36  C   UNL A   1      38.275  31.446  30.668  1.00  0.00     0.074 A 
ATOM     37  C   UNL A   1      37.907  33.023  32.534  1.00  0.00     0.049 A 
ATOM     38  N   UNL A   1      39.260  30.724  31.139  1.00  0.00    -0.248 NA
ATOM     39  C   UNL A   1      37.816  31.033  29.332  1.00  0.00     0.031 C 
ATOM     40  C   UNL A   1      37.245  34.089  33.288  1.00  0.00     0.029 A 
ATOM     41  N   UNL A   1      38.910  32.598  33.370  1.00  0.00    -0.354 N 
ATOM     42  C   UNL A   1      39.516  29.757  30.176  1.00  0.00     0.074 A 
ATOM     43  C   UNL A   1      38.562  29.961  29.107  1.00  0.00     0.031 C 
ATOM     44  C   UNL A   1      37.862  34.239  34.471  1.00  0.00     0.029 A 
ATOM     45  C   UNL A   1      38.944  33.263  34.572  1.00  0.00     0.049 A 
ATOM     46  H   UNL A   1      39.545  31.886  33.131  1.00  0.00     0.167 HD
ATOM     47  C   UNL A   1      40.470  28.797  30.176  1.00  0.00     0.037 A 
ATOM     48  C   UNL A   1      39.749  33.097  35.638  1.00  0.00     0.037 A 
ATOM     49  C   UNL A   1      41.456  28.631  31.212  1.00  0.00     0.049 A 
ATOM     50  C   UNL A   1      40.833  32.055  35.589  1.00  0.00     0.074 A 
ATOM     51  C   UNL A   1      42.525  27.753  31.252  1.00  0.00     0.029 A 
ATOM     52  N   UNL A   1      41.492  29.362  32.389  1.00  0.00    -0.354 N 
ATOM     53  N   UNL A   1      41.118  31.204  34.634  1.00  0.00    -0.248 NA
ATOM     54  C   UNL A   1      41.714  31.957  36.761  1.00  0.00     0.031 C 
ATOM     55  C   UNL A   1      43.189  27.928  32.470  1.00  0.00     0.029 A 
ATOM     56  C   UNL A   1      42.555  28.942  33.171  1.00  0.00     0.049 A 
ATOM     57  H   UNL A   1      40.858  30.074  32.632  1.00  0.00     0.167 HD
ATOM     58  C   UNL A   1      42.223  30.490  35.077  1.00  0.00     0.074 A 
ATOM     59  C   UNL A   1      42.567  31.016  36.381  1.00  0.00     0.031 C 
ATOM     60  C   UNL A   1      42.892  29.486  34.460  1.00  0.00     0.037 A 
BRANCH  47  61
ATOM     61  C   UNL A   1      40.508  27.846  29.016  1.00  0.00     0.064 A 
ATOM     62  C   UNL A   1      39.717  26.688  28.986  1.00  0.00     0.173 A 
ATOM     63  C   UNL A   1      41.297  28.133  27.892  1.00  0.00     0.173 A 
ATOM     64  F   UNL A   1      38.954  26.366  30.040  1.00  0.00    -0.203 F 
ATOM     65  C   UNL A   1      39.731  25.841  27.882  1.00  0.00     0.198 A 
ATOM     66  C   UNL A   1      41.288  27.298  26.778  1.00  0.00     0.198 A 
ATOM     67  F   UNL A   1      42.066  29.233  27.867  1.00  0.00    -0.203 F 
ATOM     68  F   UNL A   1      38.995  24.722  27.889  1.00  0.00    -0.200 F 
ATOM     69  C   UNL A   1      40.509  26.151  26.776  1.00  0.00     0.200 A 
ATOM     70  F   UNL A   1      42.030  27.604  25.706  1.00  0.00    -0.200 F 
ATOM     71  F   UNL A   1      40.510  25.341  25.708  1.00  0.00    -0.200 F 
ENDBRANCH  47  61
BRANCH  48  72
ATOM     72  C   UNL A   1      39.573  33.949  36.843  1.00  0.00     0.064 A 
ATOM     73  C   UNL A   1      40.188  35.205  36.932  1.00  0.00     0.173 A 
ATOM     74  C   UNL A   1      38.804  33.519  37.934  1.00  0.00     0.173 A 
ATOM     75  F   UNL A   1      40.951  35.649  35.923  1.00  0.00    -0.203 F 
ATOM     76  C   UNL A   1      40.061  35.988  38.077  1.00  0.00     0.198 A 
ATOM     77  C   UNL A   1      38.655  34.315  39.067  1.00  0.00     0.198 A 
ATOM     78  F   UNL A   1      38.190  32.327  37.894  1.00  0.00    -0.203 F 
ATOM     79  F   UNL A   1      40.700  37.164  38.157  1.00  0.00    -0.200 F 
ATOM     80  C   UNL A   1      39.292  35.545  39.143  1.00  0.00     0.200 A 
ATOM     81  F   UNL A   1      37.900  33.888  40.089  1.00  0.00    -0.200 F 
ATOM     82  F   UNL A   1      39.170  36.298  40.243  1.00  0.00    -0.200 F 
ENDBRANCH  48  72
BRANCH  60  83
ATOM     83  C   UNL A   1      44.083  28.915  35.170  1.00  0.00     0.064 A 
ATOM     84  C   UNL A   1      43.963  27.821  36.039  1.00  0.00     0.173 A 
ATOM     85  C   UNL A   1      45.362  29.443  34.946  1.00  0.00     0.173 A 
ATOM     86  F   UNL A   1      42.758  27.293  36.297  1.00  0.00    -0.203 F 
ATOM     87  C   UNL A   1      45.081  27.290  36.676  1.00  0.00     0.198 A 
ATOM     88  C   UNL A   1      46.482  28.893  35.564  1.00  0.00     0.198 A 
ATOM     89  F   UNL A   1      45.529  30.485  34.118  1.00  0.00    -0.203 F 
ATOM     90  F   UNL A   1      44.939  26.271  37.536  1.00  0.00    -0.200 F 
ATOM     91  C   UNL A   1      46.339  27.821  36.434  1.00  0.00     0.200 A 
ATOM     92  F   UNL A   1      47.698  29.399  35.320  1.00  0.00    -0.200 F 
ATOM     93  F   UNL A   1      47.415  27.304  37.044  1.00  0.00    -0.200 F 
ENDBRANCH  60  83
ENDBRANCH  34  35
ENDBRANCH  26  29
ENDBRANCH  24  25
ENDBRANCH  23  24
ENDBRANCH   1  23
TORSDOF 15
ENDMDL
MODEL 2
REMARK VINA RESULT:     -10.9      5.717     11.322
REMARK SMILES CCC[NH2+][C@@](C)(C[N@H+]1CCC(C)(C)C1)C(=O)NCCCNC(=O)c1ccc(-c2c3nc(c(-c4c(F)c(F)c(F)c(F)c4F)c4ccc([nH]4)c(-c4c(F)c(F)c(F)c(F)c4F)c4nc(c(-c5c(F)c(F)c(F)c(F)c5F)c5ccc2[nH]5)C=C4)C=C3)cc1
REMARK SMILES IDX 18 1 17 2 15 3 16 4 5 6 6 7 4 8 3 11 2 12 1 13 7 14 8 15
REMARK SMILES IDX 9 16 14 17 10 19 11 20 12 21 13 22 19 23 20 24 21 25 22 26
REMARK SMILES IDX 23 28 24 29 25 30 86 31 26 32 85 33 27 34 28 35 29 36 79 37
REMARK SMILES IDX 30 38 84 39 78 40 80 41 31 42 83 43 77 44 76 45 32 47 64 48
REMARK SMILES IDX 44 49 63 50 45 51 48 52 62 53 81 54 46 55 47 56 61 58 82 59
REMARK SMILES IDX 49 60 33 61 34 62 42 63 35 64 36 65 40 66 43 67 37 68 38 69
REMARK SMILES IDX 41 70 39 71 65 72 66 73 74 74 67 75 68 76 72 77 75 78 69 79
REMARK SMILES IDX 70 80 73 81 71 82 50 83 51 84 59 85 52 86 53 87 57 88 60 89
REMARK SMILES IDX 54 90 55 91 58 92 56 93
REMARK H PARENT 17 5 4 9 4 10 8 18 21 27 80 46 48 57
REMARK Flexibility Score: inf
ROOT
ATOM      1  C   UNL A   1      36.619  20.322  25.001  1.00  0.00     0.118 C 
ENDROOT
BRANCH   1   2
ATOM      2  N   UNL A   1      36.820  21.655  25.537  1.00  0.00    -0.350 N 
ATOM      3  C   UNL A   1      36.012  22.732  25.744  1.00  0.00     0.287 C 
ATOM      4  O   UNL A   1      36.613  23.717  26.193  1.00  0.00    -0.268 OA
ATOM      5  H   UNL A   1      37.751  21.818  25.813  1.00  0.00     0.163 HD
BRANCH   3   6
ATOM      6  C   UNL A   1      34.471  22.729  25.453  1.00  0.00     0.221 C 
ATOM      7  C   UNL A   1      34.193  22.960  23.951  1.00  0.00     0.097 C 
BRANCH   6   8
ATOM      8  N   UNL A   1      33.872  21.413  25.851  1.00  0.00    -0.329 N 
ATOM      9  H   UNL A   1      34.619  20.718  25.834  1.00  0.00     0.347 HD
ATOM     10  H   UNL A   1      33.457  21.580  26.768  1.00  0.00     0.347 HD
BRANCH   8  11
ATOM     11  C   UNL A   1      32.780  20.902  25.031  1.00  0.00     0.261 C 
BRANCH  11  12
ATOM     12  C   UNL A   1      32.794  19.368  24.976  1.00  0.00     0.058 C 
ATOM     13  C   UNL A   1      32.529  18.813  23.582  1.00  0.00     0.010 C 
ENDBRANCH  11  12
ENDBRANCH   8  11
ENDBRANCH   6   8
BRANCH   6  14
ATOM     14  C   UNL A   1      33.732  23.848  26.277  1.00  0.00     0.341 C 
BRANCH  14  15
ATOM     15  N   UNL A   1      32.989  24.864  25.506  1.00  0.00    -0.329 N 
ATOM     16  C   UNL A   1      31.536  24.836  25.722  1.00  0.00     0.263 C 
ATOM     17  C   UNL A   1      33.461  26.232  25.754  1.00  0.00     0.269 C 
ATOM     18  H   UNL A   1      33.179  24.603  24.539  1.00  0.00     0.348 HD
ATOM     19  C   UNL A   1      31.140  26.252  26.133  1.00  0.00     0.073 C 
ATOM     20  C   UNL A   1      32.236  27.125  25.525  1.00  0.00     0.019 C 
ATOM     21  C   UNL A   1      31.962  27.375  24.032  1.00  0.00     0.017 C 
ATOM     22  C   UNL A   1      32.375  28.468  26.244  1.00  0.00     0.017 C 
ENDBRANCH  14  15
ENDBRANCH   6  14
ENDBRANCH   3   6
ENDBRANCH   1   2
BRANCH   1  23
ATOM     23  C   UNL A   1      37.907  19.507  24.927  1.00  0.00     0.042 C 
BRANCH  23  24
ATOM     24  C   UNL A   1      39.067  20.069  25.743  1.00  0.00     0.118 C 
BRANCH  24  25
ATOM     25  N   UNL A   1      40.142  19.103  25.919  1.00  0.00    -0.352 N 
ATOM     26  C   UNL A   1      41.481  19.308  26.127  1.00  0.00     0.251 C 
ATOM     27  H   UNL A   1      39.864  18.159  25.884  1.00  0.00     0.163 HD
ATOM     28  O   UNL A   1      42.263  18.357  26.043  1.00  0.00    -0.269 OA
BRANCH  26  29
ATOM     29  C   UNL A   1      42.005  20.656  26.433  1.00  0.00     0.039 A 
ATOM     30  C   UNL A   1      42.273  21.533  25.377  1.00  0.00     0.014 A 
ATOM     31  C   UNL A   1      42.276  21.045  27.747  1.00  0.00     0.014 A 
ATOM     32  C   UNL A   1      42.757  22.816  25.642  1.00  0.00     0.010 A 
ATOM     33  C   UNL A   1      42.696  22.347  28.015  1.00  0.00     0.010 A 
ATOM     34  C   UNL A   1      42.947  23.244  26.965  1.00  0.00    -0.014 A 
BRANCH  34  35
ATOM     35  C   UNL A   1      43.422  24.617  27.270  1.00  0.00     0.031 A 
ATOM     36  C   UNL A   1      42.466  25.646  27.811  1.00  0.00     0.074 A 
ATOM     37  C   UNL A   1      44.694  24.964  26.990  1.00  0.00     0.049 A 
ATOM     38  N   UNL A   1      42.666  26.916  28.054  1.00  0.00    -0.248 NA
ATOM     39  C   UNL A   1      41.093  25.192  28.085  1.00  0.00     0.031 C 
ATOM     40  C   UNL A   1      45.704  24.077  26.410  1.00  0.00     0.029 A 
ATOM     41  N   UNL A   1      45.350  26.162  27.137  1.00  0.00    -0.354 N 
ATOM     42  C   UNL A   1      41.442  27.418  28.477  1.00  0.00     0.074 A 
ATOM     43  C   UNL A   1      40.496  26.325  28.427  1.00  0.00     0.031 C 
ATOM     44  C   UNL A   1      46.851  24.758  26.255  1.00  0.00     0.029 A 
ATOM     45  C   UNL A   1      46.651  26.135  26.698  1.00  0.00     0.049 A 
ATOM     46  H   UNL A   1      44.927  26.963  27.520  1.00  0.00     0.167 HD
ATOM     47  C   UNL A   1      41.140  28.673  28.886  1.00  0.00     0.037 A 
ATOM     48  C   UNL A   1      47.575  27.113  26.649  1.00  0.00     0.037 A 
ATOM     49  C   UNL A   1      42.094  29.745  28.991  1.00  0.00     0.049 A 
ATOM     50  C   UNL A   1      47.224  28.485  27.158  1.00  0.00     0.074 A 
ATOM     51  C   UNL A   1      41.905  31.022  29.492  1.00  0.00     0.029 A 
ATOM     52  N   UNL A   1      43.419  29.663  28.591  1.00  0.00    -0.354 N 
ATOM     53  N   UNL A   1      46.086  28.923  27.637  1.00  0.00    -0.248 NA
ATOM     54  C   UNL A   1      48.290  29.497  27.129  1.00  0.00     0.031 C 
ATOM     55  C   UNL A   1      43.107  31.725  29.361  1.00  0.00     0.029 A 
ATOM     56  C   UNL A   1      44.054  30.873  28.816  1.00  0.00     0.049 A 
ATOM     57  H   UNL A   1      43.844  28.864  28.205  1.00  0.00     0.167 HD
ATOM     58  C   UNL A   1      46.305  30.247  27.990  1.00  0.00     0.074 A 
ATOM     59  C   UNL A   1      47.689  30.540  27.683  1.00  0.00     0.031 C 
ATOM     60  C   UNL A   1      45.436  31.143  28.517  1.00  0.00     0.037 A 
BRANCH  47  61
ATOM     61  C   UNL A   1      39.717  28.964  29.262  1.00  0.00     0.064 A 
ATOM     62  C   UNL A   1      38.785  29.423  28.319  1.00  0.00     0.173 A 
ATOM     63  C   UNL A   1      39.265  28.718  30.568  1.00  0.00     0.173 A 
ATOM     64  F   UNL A   1      39.170  29.682  27.061  1.00  0.00    -0.203 F 
ATOM     65  C   UNL A   1      37.458  29.644  28.676  1.00  0.00     0.198 A 
ATOM     66  C   UNL A   1      37.932  28.915  30.913  1.00  0.00     0.198 A 
ATOM     67  F   UNL A   1      40.116  28.271  31.505  1.00  0.00    -0.203 F 
ATOM     68  F   UNL A   1      36.592  30.116  27.768  1.00  0.00    -0.200 F 
ATOM     69  C   UNL A   1      37.030  29.382  29.969  1.00  0.00     0.200 A 
ATOM     70  F   UNL A   1      37.517  28.650  32.160  1.00  0.00    -0.200 F 
ATOM     71  F   UNL A   1      35.748  29.583  30.305  1.00  0.00    -0.200 F 
ENDBRANCH  47  61
BRANCH  48  72
ATOM     72  C   UNL A   1      48.931  26.829  26.112  1.00  0.00     0.064 A 
ATOM     73  C   UNL A   1      49.230  27.051  24.761  1.00  0.00     0.173 A 
ATOM     74  C   UNL A   1      49.947  26.315  26.930  1.00  0.00     0.173 A 
ATOM     75  F   UNL A   1      48.285  27.522  23.934  1.00  0.00    -0.203 F 
ATOM     76  C   UNL A   1      50.488  26.747  24.243  1.00  0.00     0.198 A 
ATOM     77  C   UNL A   1      51.211  26.036  26.417  1.00  0.00     0.198 A 
ATOM     78  F   UNL A   1      49.711  26.090  28.232  1.00  0.00    -0.203 F 
ATOM     79  F   UNL A   1      50.733  26.923  22.937  1.00  0.00    -0.200 F 
ATOM     80  C   UNL A   1      51.478  26.243  25.072  1.00  0.00     0.200 A 
ATOM     81  F   UNL A   1      52.170  25.561  27.226  1.00  0.00    -0.200 F 
ATOM     82  F   UNL A   1      52.687  25.950  24.575  1.00  0.00    -0.200 F 
ENDBRANCH  48  72
BRANCH  60  83
ATOM     83  C   UNL A   1      45.964  32.511  28.831  1.00  0.00     0.064 A 
ATOM     84  C   UNL A   1      45.895  33.555  27.896  1.00  0.00     0.173 A 
ATOM     85  C   UNL A   1      46.507  32.790  30.093  1.00  0.00     0.173 A 
ATOM     86  F   UNL A   1      45.398  33.332  26.671  1.00  0.00    -0.203 F 
ATOM     87  C   UNL A   1      46.372  34.825  28.209  1.00  0.00     0.198 A 
ATOM     88  C   UNL A   1      46.959  34.068  30.410  1.00  0.00     0.198 A 
ATOM     89  F   UNL A   1      46.589  31.827  31.022  1.00  0.00    -0.203 F 
ATOM     90  F   UNL A   1      46.335  35.797  27.286  1.00  0.00    -0.200 F 
ATOM     91  C   UNL A   1      46.897  35.082  29.466  1.00  0.00     0.200 A 
ATOM     92  F   UNL A   1      47.456  34.318  31.630  1.00  0.00    -0.200 F 
ATOM     93  F   UNL A   1      47.351  36.307  29.766  1.00  0.00    -0.200 F 
ENDBRANCH  60  83
ENDBRANCH  34  35
ENDBRANCH  26  29
ENDBRANCH  24  25
ENDBRANCH  23  24
ENDBRANCH   1  23
TORSDOF 15
ENDMDL
MODEL 3
REMARK VINA RESULT:     -10.8      4.164      8.127
REMARK SMILES CCC[NH2+][C@@](C)(C[N@H+]1CCC(C)(C)C1)C(=O)NCCCNC(=O)c1ccc(-c2c3nc(c(-c4c(F)c(F)c(F)c(F)c4F)c4ccc([nH]4)c(-c4c(F)c(F)c(F)c(F)c4F)c4nc(c(-c5c(F)c(F)c(F)c(F)c5F)c5ccc2[nH]5)C=C4)C=C3)cc1
REMARK SMILES IDX 18 1 17 2 15 3 16 4 5 6 6 7 4 8 3 11 2 12 1 13 7 14 8 15
REMARK SMILES IDX 9 16 14 17 10 19 11 20 12 21 13 22 19 23 20 24 21 25 22 26
REMARK SMILES IDX 23 28 24 29 25 30 86 31 26 32 85 33 27 34 28 35 29 36 79 37
REMARK SMILES IDX 30 38 84 39 78 40 80 41 31 42 83 43 77 44 76 45 32 47 64 48
REMARK SMILES IDX 44 49 63 50 45 51 48 52 62 53 81 54 46 55 47 56 61 58 82 59
REMARK SMILES IDX 49 60 33 61 34 62 42 63 35 64 36 65 40 66 43 67 37 68 38 69
REMARK SMILES IDX 41 70 39 71 65 72 66 73 74 74 67 75 68 76 72 77 75 78 69 79
REMARK SMILES IDX 70 80 73 81 71 82 50 83 51 84 59 85 52 86 53 87 57 88 60 89
REMARK SMILES IDX 54 90 55 91 58 92 56 93
REMARK H PARENT 17 5 4 9 4 10 8 18 21 27 80 46 48 57
REMARK Flexibility Score: inf
ROOT
ATOM      1  C   UNL A   1      34.607  23.982  24.353  1.00  0.00     0.118 C 
ENDROOT
BRANCH   1   2
ATOM      2  N   UNL A   1      34.333  24.721  23.135  1.00  0.00    -0.350 N 
ATOM      3  C   UNL A   1      33.620  25.844  22.842  1.00  0.00     0.287 C 
ATOM      4  O   UNL A   1      33.608  26.114  21.633  1.00  0.00    -0.268 OA
ATOM      5  H   UNL A   1      34.758  24.320  22.343  1.00  0.00     0.163 HD
BRANCH   3   6
ATOM      6  C   UNL A   1      32.895  26.719  23.922  1.00  0.00     0.221 C 
ATOM      7  C   UNL A   1      31.746  25.930  24.588  1.00  0.00     0.097 C 
BRANCH   6   8
ATOM      8  N   UNL A   1      33.866  27.137  24.986  1.00  0.00    -0.329 N 
ATOM      9  H   UNL A   1      33.865  26.412  25.705  1.00  0.00     0.347 HD
ATOM     10  H   UNL A   1      34.752  27.262  24.499  1.00  0.00     0.347 HD
BRANCH   8  11
ATOM     11  C   UNL A   1      33.618  28.411  25.650  1.00  0.00     0.261 C 
BRANCH  11  12
ATOM     12  C   UNL A   1      33.368  28.218  27.152  1.00  0.00     0.058 C 
ATOM     13  C   UNL A   1      31.891  28.242  27.524  1.00  0.00     0.010 C 
ENDBRANCH  11  12
ENDBRANCH   8  11
ENDBRANCH   6   8
BRANCH   6  14
ATOM     14  C   UNL A   1      32.300  28.031  23.289  1.00  0.00     0.341 C 
BRANCH  14  15
ATOM     15  N   UNL A   1      30.856  28.268  23.478  1.00  0.00    -0.329 N 
ATOM     16  C   UNL A   1      30.544  29.393  24.370  1.00  0.00     0.263 C 
ATOM     17  C   UNL A   1      30.138  28.476  22.214  1.00  0.00     0.269 C 
ATOM     18  H   UNL A   1      30.537  27.406  23.918  1.00  0.00     0.348 HD
ATOM     19  C   UNL A   1      29.612  30.313  23.586  1.00  0.00     0.073 C 
ATOM     20  C   UNL A   1      28.953  29.381  22.572  1.00  0.00     0.019 C 
ATOM     21  C   UNL A   1      27.797  28.603  23.226  1.00  0.00     0.017 C 
ATOM     22  C   UNL A   1      28.426  30.132  21.348  1.00  0.00     0.017 C 
ENDBRANCH  14  15
ENDBRANCH   6  14
ENDBRANCH   3   6
ENDBRANCH   1   2
BRANCH   1  23
ATOM     23  C   UNL A   1      36.096  23.731  24.577  1.00  0.00     0.042 C 
BRANCH  23  24
ATOM     24  C   UNL A   1      36.479  23.400  26.016  1.00  0.00     0.118 C 
BRANCH  24  25
ATOM     25  N   UNL A   1      37.623  22.503  26.094  1.00  0.00    -0.352 N 
ATOM     26  C   UNL A   1      38.936  22.778  26.378  1.00  0.00     0.251 C 
ATOM     27  H   UNL A   1      37.424  21.556  25.917  1.00  0.00     0.163 HD
ATOM     28  O   UNL A   1      39.794  21.912  26.190  1.00  0.00    -0.269 OA
BRANCH  26  29
ATOM     29  C   UNL A   1      39.340  24.105  26.890  1.00  0.00     0.039 A 
ATOM     30  C   UNL A   1      39.078  24.422  28.227  1.00  0.00     0.014 A 
ATOM     31  C   UNL A   1      39.933  25.053  26.052  1.00  0.00     0.014 A 
ATOM     32  C   UNL A   1      39.461  25.666  28.737  1.00  0.00     0.010 A 
ATOM     33  C   UNL A   1      40.375  26.266  26.578  1.00  0.00     0.010 A 
ATOM     34  C   UNL A   1      40.137  26.588  27.923  1.00  0.00    -0.014 A 
BRANCH  34  35
ATOM     35  C   UNL A   1      40.590  27.898  28.456  1.00  0.00     0.031 A 
ATOM     36  C   UNL A   1      42.031  28.102  28.839  1.00  0.00     0.074 A 
ATOM     37  C   UNL A   1      39.693  28.881  28.668  1.00  0.00     0.049 A 
ATOM     38  N   UNL A   1      42.600  29.138  29.402  1.00  0.00    -0.248 NA
ATOM     39  C   UNL A   1      42.948  26.981  28.581  1.00  0.00     0.031 C 
ATOM     40  C   UNL A   1      38.257  28.789  28.394  1.00  0.00     0.029 A 
ATOM     41  N   UNL A   1      39.852  30.144  29.183  1.00  0.00    -0.354 N 
ATOM     42  C   UNL A   1      43.928  28.782  29.595  1.00  0.00     0.074 A 
ATOM     43  C   UNL A   1      44.076  27.423  29.120  1.00  0.00     0.031 C 
ATOM     44  C   UNL A   1      37.669  29.946  28.738  1.00  0.00     0.029 A 
ATOM     45  C   UNL A   1      38.678  30.851  29.283  1.00  0.00     0.049 A 
ATOM     46  H   UNL A   1      40.724  30.508  29.455  1.00  0.00     0.167 HD
ATOM     47  C   UNL A   1      44.937  29.526  30.108  1.00  0.00     0.037 A 
ATOM     48  C   UNL A   1      38.441  32.084  29.766  1.00  0.00     0.037 A 
ATOM     49  C   UNL A   1      44.802  30.897  30.526  1.00  0.00     0.049 A 
ATOM     50  C   UNL A   1      39.590  32.907  30.283  1.00  0.00     0.074 A 
ATOM     51  C   UNL A   1      45.788  31.765  30.962  1.00  0.00     0.029 A 
ATOM     52  N   UNL A   1      43.607  31.598  30.557  1.00  0.00    -0.354 N 
ATOM     53  N   UNL A   1      40.858  32.588  30.379  1.00  0.00    -0.248 NA
ATOM     54  C   UNL A   1      39.278  34.266  30.748  1.00  0.00     0.031 C 
ATOM     55  C   UNL A   1      45.183  32.982  31.292  1.00  0.00     0.029 A 
ATOM     56  C   UNL A   1      43.827  32.883  31.024  1.00  0.00     0.049 A 
ATOM     57  H   UNL A   1      42.732  31.236  30.288  1.00  0.00     0.167 HD
ATOM     58  C   UNL A   1      41.495  33.711  30.888  1.00  0.00     0.074 A 
ATOM     59  C   UNL A   1      40.479  34.725  31.069  1.00  0.00     0.031 C 
ATOM     60  C   UNL A   1      42.806  33.885  31.184  1.00  0.00     0.037 A 
BRANCH  47  61
ATOM     61  C   UNL A   1      46.285  28.883  30.240  1.00  0.00     0.064 A 
ATOM     62  C   UNL A   1      46.663  28.199  31.406  1.00  0.00     0.173 A 
ATOM     63  C   UNL A   1      47.185  28.896  29.164  1.00  0.00     0.173 A 
ATOM     64  F   UNL A   1      45.842  28.166  32.465  1.00  0.00    -0.203 F 
ATOM     65  C   UNL A   1      47.901  27.569  31.494  1.00  0.00     0.198 A 
ATOM     66  C   UNL A   1      48.411  28.242  29.248  1.00  0.00     0.198 A 
ATOM     67  F   UNL A   1      46.868  29.530  28.025  1.00  0.00    -0.203 F 
ATOM     68  F   UNL A   1      48.256  26.951  32.629  1.00  0.00    -0.200 F 
ATOM     69  C   UNL A   1      48.770  27.583  30.413  1.00  0.00     0.200 A 
ATOM     70  F   UNL A   1      49.244  28.247  28.198  1.00  0.00    -0.200 F 
ATOM     71  F   UNL A   1      49.956  26.964  30.497  1.00  0.00    -0.200 F 
ENDBRANCH  47  61
BRANCH  48  72
ATOM     72  C   UNL A   1      37.058  32.628  29.773  1.00  0.00     0.064 A 
ATOM     73  C   UNL A   1      36.223  32.457  30.885  1.00  0.00     0.173 A 
ATOM     74  C   UNL A   1      36.538  33.312  28.665  1.00  0.00     0.173 A 
ATOM     75  F   UNL A   1      36.669  31.791  31.961  1.00  0.00    -0.203 F 
ATOM     76  C   UNL A   1      34.912  32.928  30.880  1.00  0.00     0.198 A 
ATOM     77  C   UNL A   1      35.236  33.806  28.670  1.00  0.00     0.198 A 
ATOM     78  F   UNL A   1      37.301  33.506  27.578  1.00  0.00    -0.203 F 
ATOM     79  F   UNL A   1      34.119  32.708  31.937  1.00  0.00    -0.200 F 
ATOM     80  C   UNL A   1      34.420  33.605  29.774  1.00  0.00     0.200 A 
ATOM     81  F   UNL A   1      34.770  34.472  27.604  1.00  0.00    -0.200 F 
ATOM     82  F   UNL A   1      33.160  34.058  29.768  1.00  0.00    -0.200 F 
ENDBRANCH  48  72
BRANCH  60  83
ATOM     83  C   UNL A   1      43.223  35.230  31.698  1.00  0.00     0.064 A 
ATOM     84  C   UNL A   1      43.652  36.246  30.831  1.00  0.00     0.173 A 
ATOM     85  C   UNL A   1      43.152  35.519  33.068  1.00  0.00     0.173 A 
ATOM     86  F   UNL A   1      43.750  36.011  29.514  1.00  0.00    -0.203 F 
ATOM     87  C   UNL A   1      44.017  37.496  31.321  1.00  0.00     0.198 A 
ATOM     88  C   UNL A   1      43.493  36.779  33.552  1.00  0.00     0.198 A 
ATOM     89  F   UNL A   1      42.742  34.584  33.937  1.00  0.00    -0.203 F 
ATOM     90  F   UNL A   1      44.464  38.439  30.479  1.00  0.00    -0.200 F 
ATOM     91  C   UNL A   1      43.932  37.764  32.679  1.00  0.00     0.200 A 
ATOM     92  F   UNL A   1      43.399  37.041  34.863  1.00  0.00    -0.200 F 
ATOM     93  F   UNL A   1      44.278  38.971  33.148  1.00  0.00    -0.200 F 
ENDBRANCH  60  83
ENDBRANCH  34  35
ENDBRANCH  26  29
ENDBRANCH  24  25
ENDBRANCH  23  24
ENDBRANCH   1  23
TORSDOF 15
ENDMDL
