MODEL 1
REMARK VINA RESULT:     -11.1      0.000      0.000
REMARK SMILES CC[N@@H+](C[C@@H](C)C(=O)NCCCNC(=O)c1ccc(-c2c3nc(c(-c4c(F)c(F)c(F)c(F)c4F)c4ccc([nH]4)c(-c4c(F)c(F)c(F)c(F)c4F)c4nc(c(-c5c(F)c(F)c(F)c(F)c5F)c5ccc2[nH]5)C=C4)C=C3)cc1)[C@@H](C)c1ccoc1
REMARK SMILES IDX 10 1 9 2 7 3 8 4 5 6 6 7 4 8 3 9 2 11 1 12 79 13 80 14 81 15
REMARK SMILES IDX 82 16 85 17 83 18 84 19 11 20 12 21 13 22 14 23 15 25 16 26
REMARK SMILES IDX 17 27 78 28 18 29 77 30 19 31 20 32 21 33 71 34 22 35 76 36
REMARK SMILES IDX 70 37 72 38 23 39 75 40 69 41 68 42 24 44 56 45 36 46 55 47
REMARK SMILES IDX 37 48 40 49 54 50 73 51 38 52 39 53 53 55 74 56 41 57 25 58
REMARK SMILES IDX 26 59 34 60 27 61 28 62 32 63 35 64 29 65 30 66 33 67 31 68
REMARK SMILES IDX 57 69 58 70 66 71 59 72 60 73 64 74 67 75 61 76 62 77 65 78
REMARK SMILES IDX 63 79 42 80 43 81 51 82 44 83 45 84 49 85 52 86 46 87 47 88
REMARK SMILES IDX 50 89 48 90
REMARK H PARENT 9 5 3 10 13 24 72 43 40 54
REMARK Flexibility Score: inf
ROOT
ATOM      1  C   UNL A   1      31.606  30.644  26.573  1.00  0.00     0.117 C 
ENDROOT
BRANCH   1   2
ATOM      2  N   UNL A   1      32.227  30.318  25.301  1.00  0.00    -0.356 N 
ATOM      3  C   UNL A   1      32.993  29.248  24.955  1.00  0.00     0.228 C 
ATOM      4  O   UNL A   1      33.432  29.194  23.807  1.00  0.00    -0.275 OA
ATOM      5  H   UNL A   1      32.070  30.971  24.580  1.00  0.00     0.163 HD
BRANCH   3   6
ATOM      6  C   UNL A   1      33.260  28.140  25.961  1.00  0.00     0.130 C 
ATOM      7  C   UNL A   1      34.458  28.561  26.831  1.00  0.00     0.024 C 
BRANCH   6   8
ATOM      8  C   UNL A   1      33.320  26.763  25.241  1.00  0.00     0.275 C 
BRANCH   8   9
ATOM      9  N   UNL A   1      32.177  25.822  25.326  1.00  0.00    -0.328 N 
ATOM     10  H   UNL A   1      31.382  26.320  25.728  1.00  0.00     0.348 HD
BRANCH   9  11
ATOM     11  C   UNL A   1      32.436  24.747  26.293  1.00  0.00     0.259 C 
ATOM     12  C   UNL A   1      33.791  24.070  26.140  1.00  0.00     0.071 C 
ENDBRANCH   9  11
BRANCH   9  13
ATOM     13  C   UNL A   1      31.610  25.445  24.017  1.00  0.00     0.215 C 
ATOM     14  C   UNL A   1      30.787  24.148  24.013  1.00  0.00     0.081 C 
BRANCH  13  15
ATOM     15  C   UNL A   1      30.848  26.601  23.404  1.00  0.00     0.047 A 
ATOM     16  C   UNL A   1      29.626  27.190  23.857  1.00  0.00     0.052 A 
ATOM     17  C   UNL A   1      31.151  27.285  22.241  1.00  0.00     0.204 A 
ATOM     18  C   UNL A   1      29.299  28.179  22.964  1.00  0.00     0.195 A 
ATOM     19  O   UNL A   1      30.220  28.237  21.974  1.00  0.00    -0.472 OA
ENDBRANCH  13  15
ENDBRANCH   9  13
ENDBRANCH   8   9
ENDBRANCH   6   8
ENDBRANCH   3   6
ENDBRANCH   1   2
BRANCH   1  20
ATOM     20  C   UNL A   1      31.435  32.140  26.726  1.00  0.00     0.042 C 
BRANCH  20  21
ATOM     21  C   UNL A   1      32.659  32.780  27.351  1.00  0.00     0.118 C 
BRANCH  21  22
ATOM     22  N   UNL A   1      32.452  34.198  27.632  1.00  0.00    -0.352 N 
ATOM     23  C   UNL A   1      32.995  34.968  28.627  1.00  0.00     0.251 C 
ATOM     24  H   UNL A   1      31.836  34.665  27.023  1.00  0.00     0.163 HD
ATOM     25  O   UNL A   1      32.539  36.078  28.880  1.00  0.00    -0.269 OA
BRANCH  23  26
ATOM     26  C   UNL A   1      34.132  34.431  29.392  1.00  0.00     0.039 A 
ATOM     27  C   UNL A   1      33.895  33.719  30.566  1.00  0.00     0.014 A 
ATOM     28  C   UNL A   1      35.432  34.607  28.910  1.00  0.00     0.014 A 
ATOM     29  C   UNL A   1      34.969  33.134  31.233  1.00  0.00     0.010 A 
ATOM     30  C   UNL A   1      36.478  33.923  29.503  1.00  0.00     0.010 A 
ATOM     31  C   UNL A   1      36.262  33.205  30.687  1.00  0.00    -0.014 A 
BRANCH  31  32
ATOM     32  C   UNL A   1      37.424  32.580  31.360  1.00  0.00     0.031 A 
ATOM     33  C   UNL A   1      38.145  31.447  30.686  1.00  0.00     0.074 A 
ATOM     34  C   UNL A   1      37.778  32.986  32.594  1.00  0.00     0.049 A 
ATOM     35  N   UNL A   1      39.127  30.708  31.132  1.00  0.00    -0.248 NA
ATOM     36  C   UNL A   1      37.673  31.066  29.343  1.00  0.00     0.031 C 
ATOM     37  C   UNL A   1      37.114  34.037  33.366  1.00  0.00     0.029 A 
ATOM     38  N   UNL A   1      38.784  32.553  33.420  1.00  0.00    -0.354 N 
ATOM     39  C   UNL A   1      39.372  29.770  30.138  1.00  0.00     0.074 A 
ATOM     40  C   UNL A   1      38.391  29.982  29.100  1.00  0.00     0.031 C 
ATOM     41  C   UNL A   1      37.749  34.190  34.538  1.00  0.00     0.029 A 
ATOM     42  C   UNL A   1      38.836  33.219  34.620  1.00  0.00     0.049 A 
ATOM     43  H   UNL A   1      39.409  31.832  33.176  1.00  0.00     0.167 HD
ATOM     44  C   UNL A   1      40.351  28.838  30.081  1.00  0.00     0.037 A 
ATOM     45  C   UNL A   1      39.666  33.055  35.666  1.00  0.00     0.037 A 
ATOM     46  C   UNL A   1      41.342  28.658  31.106  1.00  0.00     0.049 A 
ATOM     47  C   UNL A   1      40.745  32.009  35.579  1.00  0.00     0.074 A 
ATOM     48  C   UNL A   1      42.414  27.785  31.126  1.00  0.00     0.029 A 
ATOM     49  N   UNL A   1      41.378  29.369  32.298  1.00  0.00    -0.354 N 
ATOM     50  N   UNL A   1      41.015  31.175  34.603  1.00  0.00    -0.248 NA
ATOM     51  C   UNL A   1      41.641  31.886  36.737  1.00  0.00     0.031 C 
ATOM     52  C   UNL A   1      43.067  27.928  32.354  1.00  0.00     0.029 A 
ATOM     53  C   UNL A   1      42.443  28.937  33.072  1.00  0.00     0.049 A 
ATOM     54  H   UNL A   1      40.742  30.074  32.556  1.00  0.00     0.167 HD
ATOM     55  C   UNL A   1      42.131  30.456  35.012  1.00  0.00     0.074 A 
ATOM     56  C   UNL A   1      42.494  30.962  36.319  1.00  0.00     0.031 C 
ATOM     57  C   UNL A   1      42.794  29.467  34.364  1.00  0.00     0.037 A 
BRANCH  44  58
ATOM     58  C   UNL A   1      40.397  27.951  28.870  1.00  0.00     0.064 A 
ATOM     59  C   UNL A   1      41.120  28.305  27.720  1.00  0.00     0.173 A 
ATOM     60  C   UNL A   1      39.727  26.718  28.866  1.00  0.00     0.173 A 
ATOM     61  F   UNL A   1      41.767  29.480  27.664  1.00  0.00    -0.203 F 
ATOM     62  C   UNL A   1      41.143  27.476  26.603  1.00  0.00     0.198 A 
ATOM     63  C   UNL A   1      39.783  25.874  27.760  1.00  0.00     0.198 A 
ATOM     64  F   UNL A   1      39.021  26.327  29.938  1.00  0.00    -0.203 F 
ATOM     65  F   UNL A   1      41.791  27.864  25.495  1.00  0.00    -0.200 F 
ATOM     66  C   UNL A   1      40.482  26.258  26.625  1.00  0.00     0.200 A 
ATOM     67  F   UNL A   1      39.155  24.691  27.790  1.00  0.00    -0.200 F 
ATOM     68  F   UNL A   1      40.513  25.456  25.552  1.00  0.00    -0.200 F 
ENDBRANCH  44  58
BRANCH  45  69
ATOM     69  C   UNL A   1      39.531  33.918  36.868  1.00  0.00     0.064 A 
ATOM     70  C   UNL A   1      38.789  33.494  37.980  1.00  0.00     0.173 A 
ATOM     71  C   UNL A   1      40.130  35.185  36.931  1.00  0.00     0.173 A 
ATOM     72  F   UNL A   1      38.184  32.296  37.963  1.00  0.00    -0.203 F 
ATOM     73  C   UNL A   1      38.627  34.314  39.094  1.00  0.00     0.198 A 
ATOM     74  C   UNL A   1      39.994  35.992  38.059  1.00  0.00     0.198 A 
ATOM     75  F   UNL A   1      40.859  35.636  35.899  1.00  0.00    -0.203 F 
ATOM     76  F   UNL A   1      37.868  33.904  40.120  1.00  0.00    -0.200 F 
ATOM     77  C   UNL A   1      39.234  35.560  39.135  1.00  0.00     0.200 A 
ATOM     78  F   UNL A   1      40.597  37.188  38.103  1.00  0.00    -0.200 F 
ATOM     79  F   UNL A   1      39.079  36.347  40.209  1.00  0.00    -0.200 F 
ENDBRANCH  45  69
BRANCH  57  80
ATOM     80  C   UNL A   1      44.014  28.902  35.036  1.00  0.00     0.064 A 
ATOM     81  C   UNL A   1      43.943  27.788  35.884  1.00  0.00     0.173 A 
ATOM     82  C   UNL A   1      45.278  29.461  34.788  1.00  0.00     0.173 A 
ATOM     83  F   UNL A   1      42.758  27.225  36.164  1.00  0.00    -0.203 F 
ATOM     84  C   UNL A   1      45.089  27.273  36.484  1.00  0.00     0.198 A 
ATOM     85  C   UNL A   1      46.425  28.921  35.359  1.00  0.00     0.198 A 
ATOM     86  F   UNL A   1      45.400  30.522  33.976  1.00  0.00    -0.203 F 
ATOM     87  F   UNL A   1      44.992  26.242  37.334  1.00  0.00    -0.200 F 
ATOM     88  C   UNL A   1      46.330  27.834  36.215  1.00  0.00     0.200 A 
ATOM     89  F   UNL A   1      47.624  29.453  35.082  1.00  0.00    -0.200 F 
ATOM     90  F   UNL A   1      47.432  27.330  36.783  1.00  0.00    -0.200 F 
ENDBRANCH  57  80
ENDBRANCH  31  32
ENDBRANCH  23  26
ENDBRANCH  21  22
ENDBRANCH  20  21
ENDBRANCH   1  20
TORSDOF 15
ENDMDL
MODEL 2
REMARK VINA RESULT:     -11.1      0.996      1.812
REMARK SMILES CC[N@@H+](C[C@@H](C)C(=O)NCCCNC(=O)c1ccc(-c2c3nc(c(-c4c(F)c(F)c(F)c(F)c4F)c4ccc([nH]4)c(-c4c(F)c(F)c(F)c(F)c4F)c4nc(c(-c5c(F)c(F)c(F)c(F)c5F)c5ccc2[nH]5)C=C4)C=C3)cc1)[C@@H](C)c1ccoc1
REMARK SMILES IDX 10 1 9 2 7 3 8 4 5 6 6 7 4 8 3 9 2 11 1 12 79 13 80 14 81 15
REMARK SMILES IDX 82 16 85 17 83 18 84 19 11 20 12 21 13 22 14 23 15 25 16 26
REMARK SMILES IDX 17 27 78 28 18 29 77 30 19 31 20 32 21 33 71 34 22 35 76 36
REMARK SMILES IDX 70 37 72 38 23 39 75 40 69 41 68 42 24 44 56 45 36 46 55 47
REMARK SMILES IDX 37 48 40 49 54 50 73 51 38 52 39 53 53 55 74 56 41 57 25 58
REMARK SMILES IDX 26 59 34 60 27 61 28 62 32 63 35 64 29 65 30 66 33 67 31 68
REMARK SMILES IDX 57 69 58 70 66 71 59 72 60 73 64 74 67 75 61 76 62 77 65 78
REMARK SMILES IDX 63 79 42 80 43 81 51 82 44 83 45 84 49 85 52 86 46 87 47 88
REMARK SMILES IDX 50 89 48 90
REMARK H PARENT 9 5 3 10 13 24 72 43 40 54
REMARK Flexibility Score: inf
ROOT
ATOM      1  C   UNL A   1      31.457  30.782  26.564  1.00  0.00     0.117 C 
ENDROOT
BRANCH   1   2
ATOM      2  N   UNL A   1      32.166  30.241  25.417  1.00  0.00    -0.356 N 
ATOM      3  C   UNL A   1      33.128  29.280  25.363  1.00  0.00     0.228 C 
ATOM      4  O   UNL A   1      33.604  28.996  24.264  1.00  0.00    -0.275 OA
ATOM      5  H   UNL A   1      31.912  30.629  24.548  1.00  0.00     0.163 HD
BRANCH   3   6
ATOM      6  C   UNL A   1      33.567  28.562  26.629  1.00  0.00     0.130 C 
ATOM      7  C   UNL A   1      34.966  29.076  27.010  1.00  0.00     0.024 C 
BRANCH   6   8
ATOM      8  C   UNL A   1      33.361  27.029  26.476  1.00  0.00     0.275 C 
BRANCH   8   9
ATOM      9  N   UNL A   1      32.390  26.497  25.489  1.00  0.00    -0.328 N 
ATOM     10  H   UNL A   1      32.463  27.052  24.637  1.00  0.00     0.348 HD
BRANCH   9  11
ATOM     11  C   UNL A   1      31.005  26.718  25.926  1.00  0.00     0.259 C 
ATOM     12  C   UNL A   1      29.946  26.257  24.933  1.00  0.00     0.071 C 
ENDBRANCH   9  11
BRANCH   9  13
ATOM     13  C   UNL A   1      32.738  25.164  24.960  1.00  0.00     0.215 C 
ATOM     14  C   UNL A   1      33.917  25.141  23.977  1.00  0.00     0.081 C 
BRANCH  13  15
ATOM     15  C   UNL A   1      32.918  24.166  26.084  1.00  0.00     0.047 A 
ATOM     16  C   UNL A   1      34.121  23.514  26.498  1.00  0.00     0.052 A 
ATOM     17  C   UNL A   1      31.937  23.636  26.903  1.00  0.00     0.204 A 
ATOM     18  C   UNL A   1      33.789  22.671  27.530  1.00  0.00     0.195 A 
ATOM     19  O   UNL A   1      32.459  22.735  27.775  1.00  0.00    -0.472 OA
ENDBRANCH  13  15
ENDBRANCH   9  13
ENDBRANCH   8   9
ENDBRANCH   6   8
ENDBRANCH   3   6
ENDBRANCH   1   2
BRANCH   1  20
ATOM     20  C   UNL A   1      31.470  32.295  26.545  1.00  0.00     0.042 C 
BRANCH  20  21
ATOM     21  C   UNL A   1      32.583  32.855  27.410  1.00  0.00     0.118 C 
BRANCH  21  22
ATOM     22  N   UNL A   1      32.423  34.287  27.647  1.00  0.00    -0.352 N 
ATOM     23  C   UNL A   1      33.004  35.071  28.610  1.00  0.00     0.251 C 
ATOM     24  H   UNL A   1      31.813  34.753  27.031  1.00  0.00     0.163 HD
ATOM     25  O   UNL A   1      32.585  36.202  28.832  1.00  0.00    -0.269 OA
BRANCH  23  26
ATOM     26  C   UNL A   1      34.134  34.523  29.377  1.00  0.00     0.039 A 
ATOM     27  C   UNL A   1      33.896  33.899  30.600  1.00  0.00     0.014 A 
ATOM     28  C   UNL A   1      35.427  34.600  28.850  1.00  0.00     0.014 A 
ATOM     29  C   UNL A   1      34.959  33.300  31.274  1.00  0.00     0.010 A 
ATOM     30  C   UNL A   1      36.454  33.900  29.458  1.00  0.00     0.010 A 
ATOM     31  C   UNL A   1      36.237  33.269  30.690  1.00  0.00    -0.014 A 
BRANCH  31  32
ATOM     32  C   UNL A   1      37.385  32.627  31.371  1.00  0.00     0.031 A 
ATOM     33  C   UNL A   1      38.093  31.483  30.701  1.00  0.00     0.074 A 
ATOM     34  C   UNL A   1      37.738  33.028  32.606  1.00  0.00     0.049 A 
ATOM     35  N   UNL A   1      39.060  30.729  31.154  1.00  0.00    -0.248 NA
ATOM     36  C   UNL A   1      37.623  31.108  29.356  1.00  0.00     0.031 C 
ATOM     37  C   UNL A   1      37.085  34.090  33.373  1.00  0.00     0.029 A 
ATOM     38  N   UNL A   1      38.732  32.580  33.438  1.00  0.00    -0.354 N 
ATOM     39  C   UNL A   1      39.296  29.786  30.162  1.00  0.00     0.074 A 
ATOM     40  C   UNL A   1      38.324  30.013  29.118  1.00  0.00     0.031 C 
ATOM     41  C   UNL A   1      37.716  34.234  34.550  1.00  0.00     0.029 A 
ATOM     42  C   UNL A   1      38.787  33.246  34.638  1.00  0.00     0.049 A 
ATOM     43  H   UNL A   1      39.347  31.850  33.199  1.00  0.00     0.167 HD
ATOM     44  C   UNL A   1      40.261  28.839  30.112  1.00  0.00     0.037 A 
ATOM     45  C   UNL A   1      39.609  33.071  35.689  1.00  0.00     0.037 A 
ATOM     46  C   UNL A   1      41.243  28.645  31.142  1.00  0.00     0.049 A 
ATOM     47  C   UNL A   1      40.672  32.008  35.609  1.00  0.00     0.074 A 
ATOM     48  C   UNL A   1      42.302  27.755  31.169  1.00  0.00     0.029 A 
ATOM     49  N   UNL A   1      41.283  29.356  32.334  1.00  0.00    -0.354 N 
ATOM     50  N   UNL A   1      40.934  31.169  34.636  1.00  0.00    -0.248 NA
ATOM     51  C   UNL A   1      41.559  31.873  36.772  1.00  0.00     0.031 C 
ATOM     52  C   UNL A   1      42.949  27.889  32.401  1.00  0.00     0.029 A 
ATOM     53  C   UNL A   1      42.337  28.908  33.115  1.00  0.00     0.049 A 
ATOM     54  H   UNL A   1      40.657  30.071  32.587  1.00  0.00     0.167 HD
ATOM     55  C   UNL A   1      42.036  30.433  35.052  1.00  0.00     0.074 A 
ATOM     56  C   UNL A   1      42.400  30.935  36.361  1.00  0.00     0.031 C 
ATOM     57  C   UNL A   1      42.689  29.433  34.408  1.00  0.00     0.037 A 
BRANCH  44  58
ATOM     58  C   UNL A   1      40.300  27.950  28.902  1.00  0.00     0.064 A 
ATOM     59  C   UNL A   1      41.028  28.297  27.752  1.00  0.00     0.173 A 
ATOM     60  C   UNL A   1      39.620  26.724  28.898  1.00  0.00     0.173 A 
ATOM     61  F   UNL A   1      41.685  29.466  27.695  1.00  0.00    -0.203 F 
ATOM     62  C   UNL A   1      41.045  27.467  26.635  1.00  0.00     0.198 A 
ATOM     63  C   UNL A   1      39.669  25.878  27.792  1.00  0.00     0.198 A 
ATOM     64  F   UNL A   1      38.909  26.340  29.969  1.00  0.00    -0.203 F 
ATOM     65  F   UNL A   1      41.697  27.848  25.528  1.00  0.00    -0.200 F 
ATOM     66  C   UNL A   1      40.373  26.255  26.658  1.00  0.00     0.200 A 
ATOM     67  F   UNL A   1      39.031  24.701  27.823  1.00  0.00    -0.200 F 
ATOM     68  F   UNL A   1      40.398  25.452  25.586  1.00  0.00    -0.200 F 
ENDBRANCH  44  58
BRANCH  45  69
ATOM     69  C   UNL A   1      39.479  33.937  36.890  1.00  0.00     0.064 A 
ATOM     70  C   UNL A   1      38.750  33.512  38.010  1.00  0.00     0.173 A 
ATOM     71  C   UNL A   1      40.072  35.207  36.944  1.00  0.00     0.173 A 
ATOM     72  F   UNL A   1      38.152  32.311  38.002  1.00  0.00    -0.203 F 
ATOM     73  C   UNL A   1      38.594  34.335  39.123  1.00  0.00     0.198 A 
ATOM     74  C   UNL A   1      39.942  36.016  38.071  1.00  0.00     0.198 A 
ATOM     75  F   UNL A   1      40.789  35.659  35.904  1.00  0.00    -0.203 F 
ATOM     76  F   UNL A   1      37.846  33.923  40.157  1.00  0.00    -0.200 F 
ATOM     77  C   UNL A   1      39.194  35.584  39.155  1.00  0.00     0.200 A 
ATOM     78  F   UNL A   1      40.539  37.216  38.105  1.00  0.00    -0.200 F 
ATOM     79  F   UNL A   1      39.045  36.373  40.228  1.00  0.00    -0.200 F 
ENDBRANCH  45  69
BRANCH  57  80
ATOM     80  C   UNL A   1      43.895  28.850  35.088  1.00  0.00     0.064 A 
ATOM     81  C   UNL A   1      43.801  27.742  35.941  1.00  0.00     0.173 A 
ATOM     82  C   UNL A   1      45.169  29.386  34.843  1.00  0.00     0.173 A 
ATOM     83  F   UNL A   1      42.606  27.201  36.218  1.00  0.00    -0.203 F 
ATOM     84  C   UNL A   1      44.936  27.210  36.547  1.00  0.00     0.198 A 
ATOM     85  C   UNL A   1      46.305  28.828  35.421  1.00  0.00     0.198 A 
ATOM     86  F   UNL A   1      45.314  30.441  34.027  1.00  0.00    -0.203 F 
ATOM     87  F   UNL A   1      44.817  26.184  37.402  1.00  0.00    -0.200 F 
ATOM     88  C   UNL A   1      46.187  27.747  36.281  1.00  0.00     0.200 A 
ATOM     89  F   UNL A   1      47.514  29.339  35.146  1.00  0.00    -0.200 F 
ATOM     90  F   UNL A   1      47.278  27.227  36.856  1.00  0.00    -0.200 F 
ENDBRANCH  57  80
ENDBRANCH  31  32
ENDBRANCH  23  26
ENDBRANCH  21  22
ENDBRANCH  20  21
ENDBRANCH   1  20
TORSDOF 15
ENDMDL
MODEL 3
REMARK VINA RESULT:     -11.1      0.212      1.644
REMARK SMILES CC[N@@H+](C[C@@H](C)C(=O)NCCCNC(=O)c1ccc(-c2c3nc(c(-c4c(F)c(F)c(F)c(F)c4F)c4ccc([nH]4)c(-c4c(F)c(F)c(F)c(F)c4F)c4nc(c(-c5c(F)c(F)c(F)c(F)c5F)c5ccc2[nH]5)C=C4)C=C3)cc1)[C@@H](C)c1ccoc1
REMARK SMILES IDX 10 1 9 2 7 3 8 4 5 6 6 7 4 8 3 9 2 11 1 12 79 13 80 14 81 15
REMARK SMILES IDX 82 16 85 17 83 18 84 19 11 20 12 21 13 22 14 23 15 25 16 26
REMARK SMILES IDX 17 27 78 28 18 29 77 30 19 31 20 32 21 33 71 34 22 35 76 36
REMARK SMILES IDX 70 37 72 38 23 39 75 40 69 41 68 42 24 44 56 45 36 46 55 47
REMARK SMILES IDX 37 48 40 49 54 50 73 51 38 52 39 53 53 55 74 56 41 57 25 58
REMARK SMILES IDX 26 59 34 60 27 61 28 62 32 63 35 64 29 65 30 66 33 67 31 68
REMARK SMILES IDX 57 69 58 70 66 71 59 72 60 73 64 74 67 75 61 76 62 77 65 78
REMARK SMILES IDX 63 79 42 80 43 81 51 82 44 83 45 84 49 85 52 86 46 87 47 88
REMARK SMILES IDX 50 89 48 90
REMARK H PARENT 9 5 3 10 13 24 72 43 40 54
REMARK Flexibility Score: inf
ROOT
ATOM      1  C   UNL A   1      31.655  30.517  26.438  1.00  0.00     0.117 C 
ENDROOT
BRANCH   1   2
ATOM      2  N   UNL A   1      32.257  30.244  25.145  1.00  0.00    -0.356 N 
ATOM      3  C   UNL A   1      33.018  29.190  24.745  1.00  0.00     0.228 C 
ATOM      4  O   UNL A   1      33.439  29.182  23.589  1.00  0.00    -0.275 OA
ATOM      5  H   UNL A   1      32.088  30.925  24.453  1.00  0.00     0.163 HD
BRANCH   3   6
ATOM      6  C   UNL A   1      33.302  28.042  25.701  1.00  0.00     0.130 C 
ATOM      7  C   UNL A   1      34.433  28.478  26.649  1.00  0.00     0.024 C 
BRANCH   6   8
ATOM      8  C   UNL A   1      33.472  26.714  24.912  1.00  0.00     0.275 C 
BRANCH   8   9
ATOM      9  N   UNL A   1      32.439  25.653  24.996  1.00  0.00    -0.328 N 
ATOM     10  H   UNL A   1      31.656  26.013  25.543  1.00  0.00     0.348 HD
BRANCH   9  11
ATOM     11  C   UNL A   1      32.910  24.505  25.781  1.00  0.00     0.259 C 
ATOM     12  C   UNL A   1      34.425  24.377  25.873  1.00  0.00     0.071 C 
ENDBRANCH   9  11
BRANCH   9  13
ATOM     13  C   UNL A   1      31.756  25.376  23.718  1.00  0.00     0.215 C 
ATOM     14  C   UNL A   1      30.942  24.075  23.683  1.00  0.00     0.081 C 
BRANCH  13  15
ATOM     15  C   UNL A   1      30.936  26.568  23.273  1.00  0.00     0.047 A 
ATOM     16  C   UNL A   1      29.864  27.210  23.969  1.00  0.00     0.052 A 
ATOM     17  C   UNL A   1      31.019  27.243  22.068  1.00  0.00     0.204 A 
ATOM     18  C   UNL A   1      29.403  28.218  23.160  1.00  0.00     0.195 A 
ATOM     19  O   UNL A   1      30.097  28.239  21.997  1.00  0.00    -0.472 OA
ENDBRANCH  13  15
ENDBRANCH   9  13
ENDBRANCH   8   9
ENDBRANCH   6   8
ENDBRANCH   3   6
ENDBRANCH   1   2
BRANCH   1  20
ATOM     20  C   UNL A   1      31.454  32.004  26.639  1.00  0.00     0.042 C 
BRANCH  20  21
ATOM     21  C   UNL A   1      32.666  32.650  27.282  1.00  0.00     0.118 C 
BRANCH  21  22
ATOM     22  N   UNL A   1      32.448  34.067  27.557  1.00  0.00    -0.352 N 
ATOM     23  C   UNL A   1      32.989  34.846  28.546  1.00  0.00     0.251 C 
ATOM     24  H   UNL A   1      31.827  34.527  26.947  1.00  0.00     0.163 HD
ATOM     25  O   UNL A   1      32.525  35.954  28.795  1.00  0.00    -0.269 OA
BRANCH  23  26
ATOM     26  C   UNL A   1      34.132  34.321  29.310  1.00  0.00     0.039 A 
ATOM     27  C   UNL A   1      33.902  33.550  30.448  1.00  0.00     0.014 A 
ATOM     28  C   UNL A   1      35.433  34.568  28.862  1.00  0.00     0.014 A 
ATOM     29  C   UNL A   1      34.986  32.979  31.111  1.00  0.00     0.010 A 
ATOM     30  C   UNL A   1      36.494  33.900  29.447  1.00  0.00     0.010 A 
ATOM     31  C   UNL A   1      36.285  33.124  30.594  1.00  0.00    -0.014 A 
BRANCH  31  32
ATOM     32  C   UNL A   1      37.458  32.517  31.264  1.00  0.00     0.031 A 
ATOM     33  C   UNL A   1      38.200  31.402  30.582  1.00  0.00     0.074 A 
ATOM     34  C   UNL A   1      37.805  32.920  32.500  1.00  0.00     0.049 A 
ATOM     35  N   UNL A   1      39.196  30.678  31.023  1.00  0.00    -0.248 NA
ATOM     36  C   UNL A   1      37.736  31.021  29.236  1.00  0.00     0.031 C 
ATOM     37  C   UNL A   1      37.121  33.954  33.279  1.00  0.00     0.029 A 
ATOM     38  N   UNL A   1      38.818  32.500  33.323  1.00  0.00    -0.354 N 
ATOM     39  C   UNL A   1      39.458  29.751  30.023  1.00  0.00     0.074 A 
ATOM     40  C   UNL A   1      38.473  29.952  28.986  1.00  0.00     0.031 C 
ATOM     41  C   UNL A   1      37.753  34.110  34.453  1.00  0.00     0.029 A 
ATOM     42  C   UNL A   1      38.857  33.159  34.528  1.00  0.00     0.049 A 
ATOM     43  H   UNL A   1      39.456  31.793  33.075  1.00  0.00     0.167 HD
ATOM     44  C   UNL A   1      40.454  28.837  29.960  1.00  0.00     0.037 A 
ATOM     45  C   UNL A   1      39.691  33.004  35.573  1.00  0.00     0.037 A 
ATOM     46  C   UNL A   1      41.448  28.669  30.984  1.00  0.00     0.049 A 
ATOM     47  C   UNL A   1      40.789  31.978  35.479  1.00  0.00     0.074 A 
ATOM     48  C   UNL A   1      42.536  27.816  30.998  1.00  0.00     0.029 A 
ATOM     49  N   UNL A   1      41.471  29.372  32.181  1.00  0.00    -0.354 N 
ATOM     50  N   UNL A   1      41.074  31.155  34.498  1.00  0.00    -0.248 NA
ATOM     51  C   UNL A   1      41.687  31.864  36.636  1.00  0.00     0.031 C 
ATOM     52  C   UNL A   1      43.186  27.963  32.227  1.00  0.00     0.029 A 
ATOM     53  C   UNL A   1      42.544  28.955  32.952  1.00  0.00     0.049 A 
ATOM     54  H   UNL A   1      40.822  30.064  32.443  1.00  0.00     0.167 HD
ATOM     55  C   UNL A   1      42.203  30.454  34.902  1.00  0.00     0.074 A 
ATOM     56  C   UNL A   1      42.557  30.959  36.213  1.00  0.00     0.031 C 
ATOM     57  C   UNL A   1      42.885  29.482  34.248  1.00  0.00     0.037 A 
BRANCH  44  58
ATOM     58  C   UNL A   1      40.516  27.960  28.743  1.00  0.00     0.064 A 
ATOM     59  C   UNL A   1      39.837  26.732  28.680  1.00  0.00     0.173 A 
ATOM     60  C   UNL A   1      41.246  28.360  27.614  1.00  0.00     0.173 A 
ATOM     61  F   UNL A   1      39.135  26.293  29.737  1.00  0.00    -0.203 F 
ATOM     62  C   UNL A   1      39.914  25.926  27.548  1.00  0.00     0.198 A 
ATOM     63  C   UNL A   1      41.291  27.568  26.470  1.00  0.00     0.198 A 
ATOM     64  F   UNL A   1      41.915  29.524  27.617  1.00  0.00    -0.203 F 
ATOM     65  F   UNL A   1      39.305  24.732  27.535  1.00  0.00    -0.200 F 
ATOM     66  C   UNL A   1      40.633  26.348  26.441  1.00  0.00     0.200 A 
ATOM     67  F   UNL A   1      41.976  27.984  25.396  1.00  0.00    -0.200 F 
ATOM     68  F   UNL A   1      40.699  25.575  25.348  1.00  0.00    -0.200 F 
ENDBRANCH  44  58
BRANCH  45  69
ATOM     69  C   UNL A   1      39.539  33.856  36.780  1.00  0.00     0.064 A 
ATOM     70  C   UNL A   1      38.785  33.420  37.880  1.00  0.00     0.173 A 
ATOM     71  C   UNL A   1      40.135  35.123  36.862  1.00  0.00     0.173 A 
ATOM     72  F   UNL A   1      38.182  32.222  37.845  1.00  0.00    -0.203 F 
ATOM     73  C   UNL A   1      38.608  34.230  39.000  1.00  0.00     0.198 A 
ATOM     74  C   UNL A   1      39.984  35.919  37.996  1.00  0.00     0.198 A 
ATOM     75  F   UNL A   1      40.875  35.585  35.844  1.00  0.00    -0.203 F 
ATOM     76  F   UNL A   1      37.837  33.809  40.012  1.00  0.00    -0.200 F 
ATOM     77  C   UNL A   1      39.212  35.477  39.059  1.00  0.00     0.200 A 
ATOM     78  F   UNL A   1      40.585  37.116  38.057  1.00  0.00    -0.200 F 
ATOM     79  F   UNL A   1      39.043  36.254  40.137  1.00  0.00    -0.200 F 
ENDBRANCH  45  69
BRANCH  57  80
ATOM     80  C   UNL A   1      44.115  28.936  34.915  1.00  0.00     0.064 A 
ATOM     81  C   UNL A   1      45.376  29.523  34.739  1.00  0.00     0.173 A 
ATOM     82  C   UNL A   1      44.017  27.833  35.778  1.00  0.00     0.173 A 
ATOM     83  F   UNL A   1      45.525  30.570  33.915  1.00  0.00    -0.203 F 
ATOM     84  C   UNL A   1      46.499  29.008  35.381  1.00  0.00     0.198 A 
ATOM     85  C   UNL A   1      45.135  27.345  36.447  1.00  0.00     0.198 A 
ATOM     86  F   UNL A   1      42.832  27.241  35.988  1.00  0.00    -0.203 F 
ATOM     87  F   UNL A   1      47.704  29.551  35.156  1.00  0.00    -0.200 F 
ATOM     88  C   UNL A   1      46.377  27.925  36.240  1.00  0.00     0.200 A 
ATOM     89  F   UNL A   1      45.010  26.310  37.290  1.00  0.00    -0.200 F 
ATOM     90  F   UNL A   1      47.457  27.438  36.864  1.00  0.00    -0.200 F 
ENDBRANCH  57  80
ENDBRANCH  31  32
ENDBRANCH  23  26
ENDBRANCH  21  22
ENDBRANCH  20  21
ENDBRANCH   1  20
TORSDOF 15
ENDMDL
