MODEL 1
REMARK VINA RESULT:     -13.0      0.000      0.000
REMARK SMILES O=C(COc1ccc(Br)cc1)NC(=S)Nc1ccc(Cl)cc1C(=O)NCCCNC(=O)c1ccc(-c2c3nc(c(-c4c(F)c(F)c(F)c(F)c4F)c4ccc([nH]4)c(-c4c(F)c(F)c(F)c(F)c4F)c4nc(c(-c5c(F)c(F)c(F)c(F)c5F)c5ccc2[nH]5)C=C4)C=C3)cc1
REMARK SMILES IDX 23 1 24 2 25 3 22 5 16 6 17 7 18 8 21 9 19 10 20 11 15 12
REMARK SMILES IDX 13 14 14 15 12 16 1 17 2 18 3 20 4 21 5 22 6 23 11 24 7 25
REMARK SMILES IDX 10 26 8 27 9 28 26 29 27 30 28 31 29 32 30 33 31 35 32 36
REMARK SMILES IDX 33 37 94 38 34 39 93 40 35 41 36 42 37 43 87 44 38 45 92 46
REMARK SMILES IDX 86 47 88 48 39 49 91 50 85 51 84 52 40 54 72 55 52 56 71 57
REMARK SMILES IDX 53 58 56 59 70 60 89 61 54 62 55 63 69 65 90 66 57 67 41 68
REMARK SMILES IDX 42 69 50 70 43 71 44 72 48 73 51 74 45 75 46 76 49 77 47 78
REMARK SMILES IDX 73 79 74 80 82 81 75 82 76 83 80 84 83 85 77 86 78 87 81 88
REMARK SMILES IDX 79 89 58 90 59 91 67 92 60 93 61 94 65 95 68 96 62 97 63 98
REMARK SMILES IDX 66 99 64 100
REMARK H PARENT 25 4 15 13 12 19 29 34 88 53 56 64
REMARK Flexibility Score: inf
ROOT
ATOM      1  C   UNL A   1      32.014  29.342  24.135  1.00  0.00     0.253 C 
ATOM      2  O   UNL A   1      32.945  29.073  23.369  1.00  0.00    -0.269 OA
ATOM      3  N   UNL A   1      32.361  29.986  25.295  1.00  0.00    -0.352 N 
ATOM      4  H   UNL A   1      33.329  30.131  25.401  1.00  0.00     0.163 HD
ENDROOT
BRANCH   1   5
ATOM      5  C   UNL A   1      30.643  28.897  23.744  1.00  0.00     0.064 A 
ATOM      6  C   UNL A   1      30.013  27.661  23.984  1.00  0.00     0.053 A 
ATOM      7  C   UNL A   1      28.673  27.462  23.588  1.00  0.00     0.028 A 
ATOM      8  C   UNL A   1      27.978  28.442  22.887  1.00  0.00     0.023 A 
ATOM      9  C   UNL A   1      29.918  29.875  23.024  1.00  0.00     0.036 A 
ATOM     10  C   UNL A   1      28.615  29.638  22.587  1.00  0.00     0.041 A 
ATOM     11  Cl  UNL A   1      27.786  30.830  21.665  1.00  0.00    -0.084 Cl
BRANCH   6  12
ATOM     12  N   UNL A   1      30.648  26.573  24.601  1.00  0.00    -0.332 N 
ATOM     13  H   UNL A   1      30.551  26.507  25.578  1.00  0.00     0.169 HD
BRANCH  12  14
ATOM     14  C   UNL A   1      31.383  25.594  23.999  1.00  0.00     0.177 C 
ATOM     15  S   UNL A   1      31.766  25.740  22.378  1.00  0.00    -0.040 S 
BRANCH  14  16
ATOM     16  N   UNL A   1      31.736  24.423  24.638  1.00  0.00    -0.300 N 
ATOM     17  O   UNL A   1      31.386  24.698  26.937  1.00  0.00    -0.271 OA
ATOM     18  C   UNL A   1      31.775  24.028  25.985  1.00  0.00     0.264 C 
ATOM     19  H   UNL A   1      32.021  23.713  24.018  1.00  0.00     0.172 HD
BRANCH  18  20
ATOM     20  C   UNL A   1      32.257  22.591  26.213  1.00  0.00     0.329 C 
BRANCH  20  21
ATOM     21  O   UNL A   1      33.539  22.326  25.637  1.00  0.00    -0.484 OA
BRANCH  21  22
ATOM     22  C   UNL A   1      33.630  21.034  25.184  1.00  0.00     0.120 A 
ATOM     23  C   UNL A   1      32.482  20.377  24.739  1.00  0.00     0.047 A 
ATOM     24  C   UNL A   1      34.872  20.406  25.109  1.00  0.00     0.047 A 
ATOM     25  C   UNL A   1      32.557  19.056  24.297  1.00  0.00     0.019 A 
ATOM     26  C   UNL A   1      34.953  19.090  24.641  1.00  0.00     0.019 A 
ATOM     27  C   UNL A   1      33.794  18.418  24.251  1.00  0.00     0.018 A 
ATOM     28  Br  UNL A   1      33.897  16.629  23.645  1.00  0.00    -0.051 Br
ENDBRANCH  21  22
ENDBRANCH  20  21
ENDBRANCH  18  20
ENDBRANCH  14  16
ENDBRANCH  12  14
ENDBRANCH   6  12
ENDBRANCH   1   5
BRANCH   3  29
ATOM     29  C   UNL A   1      31.568  30.491  26.392  1.00  0.00     0.118 C 
BRANCH  29  30
ATOM     30  C   UNL A   1      31.470  32.004  26.495  1.00  0.00     0.042 C 
BRANCH  30  31
ATOM     31  C   UNL A   1      32.630  32.683  27.208  1.00  0.00     0.118 C 
BRANCH  31  32
ATOM     32  N   UNL A   1      32.363  34.052  27.635  1.00  0.00    -0.352 N 
ATOM     33  C   UNL A   1      32.972  34.879  28.549  1.00  0.00     0.251 C 
ATOM     34  H   UNL A   1      31.594  34.465  27.180  1.00  0.00     0.163 HD
ATOM     35  O   UNL A   1      32.482  35.985  28.772  1.00  0.00    -0.269 OA
BRANCH  33  36
ATOM     36  C   UNL A   1      34.172  34.457  29.309  1.00  0.00     0.039 A 
ATOM     37  C   UNL A   1      34.008  33.929  30.596  1.00  0.00     0.014 A 
ATOM     38  C   UNL A   1      35.455  34.588  28.790  1.00  0.00     0.014 A 
ATOM     39  C   UNL A   1      35.114  33.440  31.303  1.00  0.00     0.010 A 
ATOM     40  C   UNL A   1      36.531  33.985  29.430  1.00  0.00     0.010 A 
ATOM     41  C   UNL A   1      36.379  33.406  30.698  1.00  0.00    -0.014 A 
BRANCH  41  42
ATOM     42  C   UNL A   1      37.569  32.804  31.359  1.00  0.00     0.031 A 
ATOM     43  C   UNL A   1      38.303  31.671  30.689  1.00  0.00     0.074 A 
ATOM     44  C   UNL A   1      37.922  33.190  32.601  1.00  0.00     0.049 A 
ATOM     45  N   UNL A   1      39.230  30.880  31.169  1.00  0.00    -0.248 NA
ATOM     46  C   UNL A   1      37.904  31.355  29.308  1.00  0.00     0.031 C 
ATOM     47  C   UNL A   1      37.272  34.244  33.382  1.00  0.00     0.029 A 
ATOM     48  N   UNL A   1      38.907  32.722  33.437  1.00  0.00    -0.354 N 
ATOM     49  C   UNL A   1      39.490  29.955  30.167  1.00  0.00     0.074 A 
ATOM     50  C   UNL A   1      38.583  30.242  29.077  1.00  0.00     0.031 C 
ATOM     51  C   UNL A   1      37.891  34.361  34.568  1.00  0.00     0.029 A 
ATOM     52  C   UNL A   1      38.945  33.356  34.655  1.00  0.00     0.049 A 
ATOM     53  H   UNL A   1      39.528  32.000  33.186  1.00  0.00     0.167 HD
ATOM     54  C   UNL A   1      40.421  28.970  30.141  1.00  0.00     0.037 A 
ATOM     55  C   UNL A   1      39.731  33.141  35.728  1.00  0.00     0.037 A 
ATOM     56  C   UNL A   1      41.357  28.720  31.204  1.00  0.00     0.049 A 
ATOM     57  C   UNL A   1      40.763  32.046  35.675  1.00  0.00     0.074 A 
ATOM     58  C   UNL A   1      42.382  27.791  31.252  1.00  0.00     0.029 A 
ATOM     59  N   UNL A   1      41.389  29.415  32.404  1.00  0.00    -0.354 N 
ATOM     60  N   UNL A   1      41.033  31.209  34.703  1.00  0.00    -0.248 NA
ATOM     61  C   UNL A   1      41.601  31.868  36.869  1.00  0.00     0.031 C 
ATOM     62  C   UNL A   1      43.008  27.897  32.497  1.00  0.00     0.029 A 
ATOM     63  C   UNL A   1      42.408  28.926  33.205  1.00  0.00     0.049 A 
ATOM     64  H   UNL A   1      40.778  30.146  32.651  1.00  0.00     0.167 HD
ATOM     65  C   UNL A   1      42.093  30.432  35.151  1.00  0.00     0.074 A 
ATOM     66  C   UNL A   1      42.421  30.901  36.480  1.00  0.00     0.031 C 
ATOM     67  C   UNL A   1      42.738  29.424  34.516  1.00  0.00     0.037 A 
BRANCH  54  68
ATOM     68  C   UNL A   1      40.476  28.099  28.918  1.00  0.00     0.064 A 
ATOM     69  C   UNL A   1      39.753  26.898  28.836  1.00  0.00     0.173 A 
ATOM     70  C   UNL A   1      41.246  28.476  27.807  1.00  0.00     0.173 A 
ATOM     71  F   UNL A   1      39.010  26.485  29.874  1.00  0.00    -0.203 F 
ATOM     72  C   UNL A   1      39.832  26.089  27.705  1.00  0.00     0.198 A 
ATOM     73  C   UNL A   1      41.293  27.682  26.664  1.00  0.00     0.198 A 
ATOM     74  F   UNL A   1      41.949  29.618  27.827  1.00  0.00    -0.203 F 
ATOM     75  F   UNL A   1      39.183  24.917  27.678  1.00  0.00    -0.200 F 
ATOM     76  C   UNL A   1      40.596  26.484  26.619  1.00  0.00     0.200 A 
ATOM     77  F   UNL A   1      42.021  28.072  25.608  1.00  0.00    -0.200 F 
ATOM     78  F   UNL A   1      40.668  25.705  25.530  1.00  0.00    -0.200 F 
ENDBRANCH  54  68
BRANCH  55  79
ATOM     79  C   UNL A   1      39.599  34.003  36.933  1.00  0.00     0.064 A 
ATOM     80  C   UNL A   1      38.818  33.591  38.022  1.00  0.00     0.173 A 
ATOM     81  C   UNL A   1      40.239  35.248  37.022  1.00  0.00     0.173 A 
ATOM     82  F   UNL A   1      38.169  32.418  37.974  1.00  0.00    -0.203 F 
ATOM     83  C   UNL A   1      38.664  34.400  39.146  1.00  0.00     0.198 A 
ATOM     84  C   UNL A   1      40.107  36.043  38.160  1.00  0.00     0.198 A 
ATOM     85  F   UNL A   1      41.002  35.686  36.012  1.00  0.00    -0.203 F 
ATOM     86  F   UNL A   1      37.875  34.000  40.153  1.00  0.00    -0.200 F 
ATOM     87  C   UNL A   1      39.313  35.622  39.216  1.00  0.00     0.200 A 
ATOM     88  F   UNL A   1      40.748  37.217  38.231  1.00  0.00    -0.200 F 
ATOM     89  F   UNL A   1      39.170  36.398  40.300  1.00  0.00    -0.200 F 
ENDBRANCH  55  79
BRANCH  67  90
ATOM     90  C   UNL A   1      43.904  28.795  35.220  1.00  0.00     0.064 A 
ATOM     91  C   UNL A   1      45.214  29.260  35.041  1.00  0.00     0.173 A 
ATOM     92  C   UNL A   1      43.694  27.749  36.133  1.00  0.00     0.173 A 
ATOM     93  F   UNL A   1      45.467  30.246  34.168  1.00  0.00    -0.203 F 
ATOM     94  C   UNL A   1      46.275  28.689  35.740  1.00  0.00     0.198 A 
ATOM     95  C   UNL A   1      44.753  27.202  36.851  1.00  0.00     0.198 A 
ATOM     96  F   UNL A   1      42.457  27.273  36.344  1.00  0.00    -0.203 F 
ATOM     97  F   UNL A   1      47.525  29.121  35.526  1.00  0.00    -0.200 F 
ATOM     98  C   UNL A   1      46.043  27.667  36.649  1.00  0.00     0.200 A 
ATOM     99  F   UNL A   1      44.524  26.224  37.740  1.00  0.00    -0.200 F 
ATOM    100  F   UNL A   1      47.064  27.129  37.330  1.00  0.00    -0.200 F 
ENDBRANCH  67  90
ENDBRANCH  41  42
ENDBRANCH  33  36
ENDBRANCH  31  32
ENDBRANCH  30  31
ENDBRANCH  29  30
ENDBRANCH   3  29
TORSDOF 16
ENDMDL
MODEL 2
REMARK VINA RESULT:     -13.0      4.727      9.557
REMARK SMILES O=C(COc1ccc(Br)cc1)NC(=S)Nc1ccc(Cl)cc1C(=O)NCCCNC(=O)c1ccc(-c2c3nc(c(-c4c(F)c(F)c(F)c(F)c4F)c4ccc([nH]4)c(-c4c(F)c(F)c(F)c(F)c4F)c4nc(c(-c5c(F)c(F)c(F)c(F)c5F)c5ccc2[nH]5)C=C4)C=C3)cc1
REMARK SMILES IDX 23 1 24 2 25 3 22 5 16 6 17 7 18 8 21 9 19 10 20 11 15 12
REMARK SMILES IDX 13 14 14 15 12 16 1 17 2 18 3 20 4 21 5 22 6 23 11 24 7 25
REMARK SMILES IDX 10 26 8 27 9 28 26 29 27 30 28 31 29 32 30 33 31 35 32 36
REMARK SMILES IDX 33 37 94 38 34 39 93 40 35 41 36 42 37 43 87 44 38 45 92 46
REMARK SMILES IDX 86 47 88 48 39 49 91 50 85 51 84 52 40 54 72 55 52 56 71 57
REMARK SMILES IDX 53 58 56 59 70 60 89 61 54 62 55 63 69 65 90 66 57 67 41 68
REMARK SMILES IDX 42 69 50 70 43 71 44 72 48 73 51 74 45 75 46 76 49 77 47 78
REMARK SMILES IDX 73 79 74 80 82 81 75 82 76 83 80 84 83 85 77 86 78 87 81 88
REMARK SMILES IDX 79 89 58 90 59 91 67 92 60 93 61 94 65 95 68 96 62 97 63 98
REMARK SMILES IDX 66 99 64 100
REMARK H PARENT 25 4 15 13 12 19 29 34 88 53 56 64
REMARK Flexibility Score: inf
ROOT
ATOM      1  C   UNL A   1      32.210  25.038  26.415  1.00  0.00     0.253 C 
ATOM      2  O   UNL A   1      31.420  24.569  27.239  1.00  0.00    -0.269 OA
ATOM      3  N   UNL A   1      33.393  24.359  26.266  1.00  0.00    -0.352 N 
ATOM      4  H   UNL A   1      33.490  23.584  26.867  1.00  0.00     0.163 HD
ENDROOT
BRANCH   1   5
ATOM      5  C   UNL A   1      31.821  26.302  25.720  1.00  0.00     0.064 A 
ATOM      6  C   UNL A   1      31.267  26.471  24.437  1.00  0.00     0.053 A 
ATOM      7  C   UNL A   1      30.905  27.759  23.988  1.00  0.00     0.028 A 
ATOM      8  C   UNL A   1      31.159  28.886  24.761  1.00  0.00     0.023 A 
ATOM      9  C   UNL A   1      32.076  27.465  26.484  1.00  0.00     0.036 A 
ATOM     10  C   UNL A   1      31.767  28.735  25.999  1.00  0.00     0.041 A 
ATOM     11  Cl  UNL A   1      32.144  30.128  26.933  1.00  0.00    -0.084 Cl
BRANCH   6  12
ATOM     12  N   UNL A   1      31.053  25.415  23.539  1.00  0.00    -0.332 N 
ATOM     13  H   UNL A   1      30.136  25.059  23.494  1.00  0.00     0.169 HD
BRANCH  12  14
ATOM     14  C   UNL A   1      31.970  24.825  22.720  1.00  0.00     0.177 C 
ATOM     15  S   UNL A   1      32.787  25.762  21.601  1.00  0.00    -0.040 S 
BRANCH  14  16
ATOM     16  N   UNL A   1      32.180  23.462  22.689  1.00  0.00    -0.300 N 
ATOM     17  O   UNL A   1      31.296  22.532  24.647  1.00  0.00    -0.271 OA
ATOM     18  C   UNL A   1      31.908  22.419  23.589  1.00  0.00     0.264 C 
ATOM     19  H   UNL A   1      32.613  23.154  21.859  1.00  0.00     0.172 HD
BRANCH  18  20
ATOM     20  C   UNL A   1      32.343  21.031  23.106  1.00  0.00     0.329 C 
BRANCH  20  21
ATOM     21  O   UNL A   1      33.471  20.513  23.816  1.00  0.00    -0.484 OA
BRANCH  21  22
ATOM     22  C   UNL A   1      33.261  19.218  24.219  1.00  0.00     0.120 A 
ATOM     23  C   UNL A   1      33.522  18.171  23.334  1.00  0.00     0.047 A 
ATOM     24  C   UNL A   1      32.851  18.950  25.523  1.00  0.00     0.047 A 
ATOM     25  C   UNL A   1      33.291  16.851  23.723  1.00  0.00     0.019 A 
ATOM     26  C   UNL A   1      32.645  17.625  25.924  1.00  0.00     0.019 A 
ATOM     27  C   UNL A   1      32.853  16.584  25.017  1.00  0.00     0.018 A 
ATOM     28  Br  UNL A   1      32.546  14.795  25.547  1.00  0.00    -0.051 Br
ENDBRANCH  21  22
ENDBRANCH  20  21
ENDBRANCH  18  20
ENDBRANCH  14  16
ENDBRANCH  12  14
ENDBRANCH   6  12
ENDBRANCH   1   5
BRANCH   3  29
ATOM     29  C   UNL A   1      34.522  24.568  25.391  1.00  0.00     0.118 C 
BRANCH  29  30
ATOM     30  C   UNL A   1      35.294  23.320  24.996  1.00  0.00     0.042 C 
BRANCH  30  31
ATOM     31  C   UNL A   1      35.830  22.494  26.156  1.00  0.00     0.118 C 
BRANCH  31  32
ATOM     32  N   UNL A   1      36.893  21.562  25.797  1.00  0.00    -0.352 N 
ATOM     33  C   UNL A   1      38.264  21.634  25.884  1.00  0.00     0.251 C 
ATOM     34  H   UNL A   1      36.565  20.716  25.417  1.00  0.00     0.163 HD
ATOM     35  O   UNL A   1      38.938  20.712  25.427  1.00  0.00    -0.269 OA
BRANCH  33  36
ATOM     36  C   UNL A   1      38.951  22.810  26.465  1.00  0.00     0.039 A 
ATOM     37  C   UNL A   1      40.035  22.604  27.329  1.00  0.00     0.014 A 
ATOM     38  C   UNL A   1      38.539  24.111  26.196  1.00  0.00     0.014 A 
ATOM     39  C   UNL A   1      40.758  23.697  27.824  1.00  0.00     0.010 A 
ATOM     40  C   UNL A   1      39.332  25.186  26.575  1.00  0.00     0.010 A 
ATOM     41  C   UNL A   1      40.451  24.997  27.399  1.00  0.00    -0.014 A 
BRANCH  41  42
ATOM     42  C   UNL A   1      41.249  26.184  27.808  1.00  0.00     0.031 A 
ATOM     43  C   UNL A   1      40.585  27.310  28.560  1.00  0.00     0.074 A 
ATOM     44  C   UNL A   1      42.532  26.309  27.412  1.00  0.00     0.049 A 
ATOM     45  N   UNL A   1      41.037  28.507  28.838  1.00  0.00    -0.248 NA
ATOM     46  C   UNL A   1      39.207  27.070  29.018  1.00  0.00     0.031 C 
ATOM     47  C   UNL A   1      43.284  25.316  26.644  1.00  0.00     0.029 A 
ATOM     48  N   UNL A   1      43.425  27.338  27.584  1.00  0.00    -0.354 N 
ATOM     49  C   UNL A   1      39.988  29.170  29.462  1.00  0.00     0.074 A 
ATOM     50  C   UNL A   1      38.859  28.266  29.468  1.00  0.00     0.031 C 
ATOM     51  C   UNL A   1      44.530  25.771  26.435  1.00  0.00     0.029 A 
ATOM     52  C   UNL A   1      44.650  27.108  27.005  1.00  0.00     0.049 A 
ATOM     53  H   UNL A   1      43.208  28.163  28.076  1.00  0.00     0.167 HD
ATOM     54  C   UNL A   1      39.973  30.409  30.009  1.00  0.00     0.037 A 
ATOM     55  C   UNL A   1      45.742  27.894  26.930  1.00  0.00     0.037 A 
ATOM     56  C   UNL A   1      41.113  31.285  30.049  1.00  0.00     0.049 A 
ATOM     57  C   UNL A   1      45.704  29.266  27.550  1.00  0.00     0.074 A 
ATOM     58  C   UNL A   1      41.222  32.534  30.635  1.00  0.00     0.029 A 
ATOM     59  N   UNL A   1      42.348  30.996  29.488  1.00  0.00    -0.354 N 
ATOM     60  N   UNL A   1      44.722  29.863  28.180  1.00  0.00    -0.248 NA
ATOM     61  C   UNL A   1      46.929  30.072  27.449  1.00  0.00     0.031 C 
ATOM     62  C   UNL A   1      42.512  33.017  30.394  1.00  0.00     0.029 A 
ATOM     63  C   UNL A   1      43.222  32.048  29.703  1.00  0.00     0.049 A 
ATOM     64  H   UNL A   1      42.570  30.166  29.007  1.00  0.00     0.167 HD
ATOM     65  C   UNL A   1      45.220  31.095  28.583  1.00  0.00     0.074 A 
ATOM     66  C   UNL A   1      46.593  31.158  28.131  1.00  0.00     0.031 C 
ATOM     67  C   UNL A   1      44.596  32.082  29.269  1.00  0.00     0.037 A 
BRANCH  54  68
ATOM     68  C   UNL A   1      38.683  30.884  30.617  1.00  0.00     0.064 A 
ATOM     69  C   UNL A   1      38.443  30.798  31.998  1.00  0.00     0.173 A 
ATOM     70  C   UNL A   1      37.681  31.448  29.813  1.00  0.00     0.173 A 
ATOM     71  F   UNL A   1      39.364  30.257  32.810  1.00  0.00    -0.203 F 
ATOM     72  C   UNL A   1      37.234  31.220  32.543  1.00  0.00     0.198 A 
ATOM     73  C   UNL A   1      36.487  31.903  30.368  1.00  0.00     0.198 A 
ATOM     74  F   UNL A   1      37.860  31.563  28.488  1.00  0.00    -0.203 F 
ATOM     75  F   UNL A   1      37.006  31.068  33.855  1.00  0.00    -0.200 F 
ATOM     76  C   UNL A   1      36.260  31.777  31.730  1.00  0.00     0.200 A 
ATOM     77  F   UNL A   1      35.552  32.455  29.582  1.00  0.00    -0.200 F 
ATOM     78  F   UNL A   1      35.098  32.186  32.258  1.00  0.00    -0.200 F 
ENDBRANCH  54  68
BRANCH  55  79
ATOM     79  C   UNL A   1      46.977  27.392  26.271  1.00  0.00     0.064 A 
ATOM     80  C   UNL A   1      47.187  27.595  24.900  1.00  0.00     0.173 A 
ATOM     81  C   UNL A   1      47.964  26.699  26.987  1.00  0.00     0.173 A 
ATOM     82  F   UNL A   1      46.261  28.234  24.169  1.00  0.00    -0.203 F 
ATOM     83  C   UNL A   1      48.327  27.107  24.265  1.00  0.00     0.198 A 
ATOM     84  C   UNL A   1      49.118  26.237  26.356  1.00  0.00     0.198 A 
ATOM     85  F   UNL A   1      47.815  26.483  28.301  1.00  0.00    -0.203 F 
ATOM     86  F   UNL A   1      48.480  27.277  22.945  1.00  0.00    -0.200 F 
ATOM     87  C   UNL A   1      49.294  26.434  24.994  1.00  0.00     0.200 A 
ATOM     88  F   UNL A   1      50.057  25.599  27.067  1.00  0.00    -0.200 F 
ATOM     89  F   UNL A   1      50.393  25.968  24.384  1.00  0.00    -0.200 F 
ENDBRANCH  55  79
BRANCH  67  90
ATOM     90  C   UNL A   1      45.404  33.294  29.629  1.00  0.00     0.064 A 
ATOM     91  C   UNL A   1      45.445  34.426  28.803  1.00  0.00     0.173 A 
ATOM     92  C   UNL A   1      46.097  33.341  30.849  1.00  0.00     0.173 A 
ATOM     93  F   UNL A   1      44.812  34.424  27.621  1.00  0.00    -0.203 F 
ATOM     94  C   UNL A   1      46.166  35.557  29.180  1.00  0.00     0.198 A 
ATOM     95  C   UNL A   1      46.792  34.484  31.234  1.00  0.00     0.198 A 
ATOM     96  F   UNL A   1      46.083  32.285  31.676  1.00  0.00    -0.203 F 
ATOM     97  F   UNL A   1      46.225  36.615  28.359  1.00  0.00    -0.200 F 
ATOM     98  C   UNL A   1      46.831  35.588  30.397  1.00  0.00     0.200 A 
ATOM     99  F   UNL A   1      47.421  34.516  32.417  1.00  0.00    -0.200 F 
ATOM    100  F   UNL A   1      47.512  36.682  30.763  1.00  0.00    -0.200 F 
ENDBRANCH  67  90
ENDBRANCH  41  42
ENDBRANCH  33  36
ENDBRANCH  31  32
ENDBRANCH  30  31
ENDBRANCH  29  30
ENDBRANCH   3  29
TORSDOF 16
ENDMDL
MODEL 3
REMARK VINA RESULT:     -12.9      0.932      1.506
REMARK SMILES O=C(COc1ccc(Br)cc1)NC(=S)Nc1ccc(Cl)cc1C(=O)NCCCNC(=O)c1ccc(-c2c3nc(c(-c4c(F)c(F)c(F)c(F)c4F)c4ccc([nH]4)c(-c4c(F)c(F)c(F)c(F)c4F)c4nc(c(-c5c(F)c(F)c(F)c(F)c5F)c5ccc2[nH]5)C=C4)C=C3)cc1
REMARK SMILES IDX 23 1 24 2 25 3 22 5 16 6 17 7 18 8 21 9 19 10 20 11 15 12
REMARK SMILES IDX 13 14 14 15 12 16 1 17 2 18 3 20 4 21 5 22 6 23 11 24 7 25
REMARK SMILES IDX 10 26 8 27 9 28 26 29 27 30 28 31 29 32 30 33 31 35 32 36
REMARK SMILES IDX 33 37 94 38 34 39 93 40 35 41 36 42 37 43 87 44 38 45 92 46
REMARK SMILES IDX 86 47 88 48 39 49 91 50 85 51 84 52 40 54 72 55 52 56 71 57
REMARK SMILES IDX 53 58 56 59 70 60 89 61 54 62 55 63 69 65 90 66 57 67 41 68
REMARK SMILES IDX 42 69 50 70 43 71 44 72 48 73 51 74 45 75 46 76 49 77 47 78
REMARK SMILES IDX 73 79 74 80 82 81 75 82 76 83 80 84 83 85 77 86 78 87 81 88
REMARK SMILES IDX 79 89 58 90 59 91 67 92 60 93 61 94 65 95 68 96 62 97 63 98
REMARK SMILES IDX 66 99 64 100
REMARK H PARENT 25 4 15 13 12 19 29 34 88 53 56 64
REMARK Flexibility Score: inf
ROOT
ATOM      1  C   UNL A   1      32.339  29.183  24.460  1.00  0.00     0.253 C 
ATOM      2  O   UNL A   1      33.305  28.962  23.724  1.00  0.00    -0.269 OA
ATOM      3  N   UNL A   1      32.623  29.804  25.650  1.00  0.00    -0.352 N 
ATOM      4  H   UNL A   1      33.582  29.974  25.796  1.00  0.00     0.163 HD
ENDROOT
BRANCH   1   5
ATOM      5  C   UNL A   1      30.997  28.710  24.006  1.00  0.00     0.064 A 
ATOM      6  C   UNL A   1      30.513  27.392  23.902  1.00  0.00     0.053 A 
ATOM      7  C   UNL A   1      29.177  27.158  23.512  1.00  0.00     0.028 A 
ATOM      8  C   UNL A   1      28.342  28.209  23.147  1.00  0.00     0.023 A 
ATOM      9  C   UNL A   1      30.131  29.760  23.623  1.00  0.00     0.036 A 
ATOM     10  C   UNL A   1      28.832  29.506  23.182  1.00  0.00     0.041 A 
ATOM     11  Cl  UNL A   1      27.828  30.805  22.671  1.00  0.00    -0.084 Cl
BRANCH   6  12
ATOM     12  N   UNL A   1      31.295  26.255  24.157  1.00  0.00    -0.332 N 
ATOM     13  H   UNL A   1      31.398  26.000  25.102  1.00  0.00     0.169 HD
BRANCH  12  14
ATOM     14  C   UNL A   1      31.927  25.464  23.244  1.00  0.00     0.177 C 
ATOM     15  S   UNL A   1      32.051  25.984  21.660  1.00  0.00    -0.040 S 
BRANCH  14  16
ATOM     16  N   UNL A   1      32.376  24.193  23.539  1.00  0.00    -0.300 N 
ATOM     17  O   UNL A   1      34.565  23.976  22.738  1.00  0.00    -0.271 OA
ATOM     18  C   UNL A   1      33.567  23.500  23.271  1.00  0.00     0.264 C 
ATOM     19  H   UNL A   1      31.721  23.657  24.044  1.00  0.00     0.172 HD
BRANCH  18  20
ATOM     20  C   UNL A   1      33.602  22.064  23.807  1.00  0.00     0.329 C 
BRANCH  20  21
ATOM     21  O   UNL A   1      32.411  21.325  23.523  1.00  0.00    -0.484 OA
BRANCH  21  22
ATOM     22  C   UNL A   1      32.528  20.013  23.909  1.00  0.00     0.120 A 
ATOM     23  C   UNL A   1      32.668  19.704  25.263  1.00  0.00     0.047 A 
ATOM     24  C   UNL A   1      32.441  18.995  22.961  1.00  0.00     0.047 A 
ATOM     25  C   UNL A   1      32.810  18.377  25.666  1.00  0.00     0.019 A 
ATOM     26  C   UNL A   1      32.557  17.661  23.368  1.00  0.00     0.019 A 
ATOM     27  C   UNL A   1      32.754  17.360  24.716  1.00  0.00     0.018 A 
ATOM     28  Br  UNL A   1      32.940  15.560  25.264  1.00  0.00    -0.051 Br
ENDBRANCH  21  22
ENDBRANCH  20  21
ENDBRANCH  18  20
ENDBRANCH  14  16
ENDBRANCH  12  14
ENDBRANCH   6  12
ENDBRANCH   1   5
BRANCH   3  29
ATOM     29  C   UNL A   1      31.775  30.256  26.729  1.00  0.00     0.118 C 
BRANCH  29  30
ATOM     30  C   UNL A   1      31.527  31.754  26.792  1.00  0.00     0.042 C 
BRANCH  30  31
ATOM     31  C   UNL A   1      32.753  32.603  27.090  1.00  0.00     0.118 C 
BRANCH  31  32
ATOM     32  N   UNL A   1      32.457  33.955  27.550  1.00  0.00    -0.352 N 
ATOM     33  C   UNL A   1      33.035  34.764  28.502  1.00  0.00     0.251 C 
ATOM     34  H   UNL A   1      31.693  34.371  27.091  1.00  0.00     0.163 HD
ATOM     35  O   UNL A   1      32.524  35.856  28.745  1.00  0.00    -0.269 OA
BRANCH  33  36
ATOM     36  C   UNL A   1      34.223  34.335  29.275  1.00  0.00     0.039 A 
ATOM     37  C   UNL A   1      34.037  33.598  30.452  1.00  0.00     0.014 A 
ATOM     38  C   UNL A   1      35.516  34.661  28.879  1.00  0.00     0.014 A 
ATOM     39  C   UNL A   1      35.142  33.105  31.157  1.00  0.00     0.010 A 
ATOM     40  C   UNL A   1      36.607  34.063  29.498  1.00  0.00     0.010 A 
ATOM     41  C   UNL A   1      36.438  33.280  30.650  1.00  0.00    -0.014 A 
BRANCH  41  42
ATOM     42  C   UNL A   1      37.640  32.689  31.298  1.00  0.00     0.031 A 
ATOM     43  C   UNL A   1      38.378  31.563  30.621  1.00  0.00     0.074 A 
ATOM     44  C   UNL A   1      38.003  33.079  32.536  1.00  0.00     0.049 A 
ATOM     45  N   UNL A   1      39.317  30.781  31.091  1.00  0.00    -0.248 NA
ATOM     46  C   UNL A   1      37.967  31.243  29.244  1.00  0.00     0.031 C 
ATOM     47  C   UNL A   1      37.351  34.127  33.324  1.00  0.00     0.029 A 
ATOM     48  N   UNL A   1      39.001  32.621  33.362  1.00  0.00    -0.354 N 
ATOM     49  C   UNL A   1      39.576  29.858  30.086  1.00  0.00     0.074 A 
ATOM     50  C   UNL A   1      38.654  30.137  29.006  1.00  0.00     0.031 C 
ATOM     51  C   UNL A   1      37.980  34.250  34.503  1.00  0.00     0.029 A 
ATOM     52  C   UNL A   1      39.045  33.256  34.580  1.00  0.00     0.049 A 
ATOM     53  H   UNL A   1      39.626  31.904  33.105  1.00  0.00     0.167 HD
ATOM     54  C   UNL A   1      40.516  28.882  30.051  1.00  0.00     0.037 A 
ATOM     55  C   UNL A   1      39.845  33.048  35.644  1.00  0.00     0.037 A 
ATOM     56  C   UNL A   1      41.466  28.642  31.104  1.00  0.00     0.049 A 
ATOM     57  C   UNL A   1      40.886  31.963  35.580  1.00  0.00     0.074 A 
ATOM     58  C   UNL A   1      42.500  27.723  31.142  1.00  0.00     0.029 A 
ATOM     59  N   UNL A   1      41.503  29.337  32.304  1.00  0.00    -0.354 N 
ATOM     60  N   UNL A   1      41.154  31.128  34.606  1.00  0.00    -0.248 NA
ATOM     61  C   UNL A   1      41.739  31.793  36.765  1.00  0.00     0.031 C 
ATOM     62  C   UNL A   1      43.138  27.836  32.380  1.00  0.00     0.029 A 
ATOM     63  C   UNL A   1      42.535  28.859  33.094  1.00  0.00     0.049 A 
ATOM     64  H   UNL A   1      40.888  30.062  32.557  1.00  0.00     0.167 HD
ATOM     65  C   UNL A   1      42.227  30.362  35.043  1.00  0.00     0.074 A 
ATOM     66  C   UNL A   1      42.564  30.835  36.369  1.00  0.00     0.031 C 
ATOM     67  C   UNL A   1      42.874  29.360  34.402  1.00  0.00     0.037 A 
BRANCH  54  68
ATOM     68  C   UNL A   1      40.567  28.012  28.828  1.00  0.00     0.064 A 
ATOM     69  C   UNL A   1      41.345  28.354  27.710  1.00  0.00     0.173 A 
ATOM     70  C   UNL A   1      39.844  26.810  28.777  1.00  0.00     0.173 A 
ATOM     71  F   UNL A   1      42.047  29.498  27.702  1.00  0.00    -0.203 F 
ATOM     72  C   UNL A   1      41.364  27.549  26.575  1.00  0.00     0.198 A 
ATOM     73  C   UNL A   1      39.894  25.989  27.653  1.00  0.00     0.198 A 
ATOM     74  F   UNL A   1      39.091  26.428  29.819  1.00  0.00    -0.203 F 
ATOM     75  F   UNL A   1      42.064  27.932  25.498  1.00  0.00    -0.200 F 
ATOM     76  C   UNL A   1      40.644  26.365  26.549  1.00  0.00     0.200 A 
ATOM     77  F   UNL A   1      39.210  24.837  27.635  1.00  0.00    -0.200 F 
ATOM     78  F   UNL A   1      40.666  25.589  25.456  1.00  0.00    -0.200 F 
ENDBRANCH  54  68
BRANCH  55  79
ATOM     79  C   UNL A   1      39.717  33.909  36.850  1.00  0.00     0.064 A 
ATOM     80  C   UNL A   1      38.913  33.512  37.927  1.00  0.00     0.173 A 
ATOM     81  C   UNL A   1      40.384  35.139  36.952  1.00  0.00     0.173 A 
ATOM     82  F   UNL A   1      38.238  32.354  37.868  1.00  0.00    -0.203 F 
ATOM     83  C   UNL A   1      38.763  34.320  39.053  1.00  0.00     0.198 A 
ATOM     84  C   UNL A   1      40.256  35.933  38.091  1.00  0.00     0.198 A 
ATOM     85  F   UNL A   1      41.170  35.562  35.953  1.00  0.00    -0.203 F 
ATOM     86  F   UNL A   1      37.952  33.936  40.048  1.00  0.00    -0.200 F 
ATOM     87  C   UNL A   1      39.439  35.527  39.136  1.00  0.00     0.200 A 
ATOM     88  F   UNL A   1      40.923  37.092  38.174  1.00  0.00    -0.200 F 
ATOM     89  F   UNL A   1      39.299  36.303  40.220  1.00  0.00    -0.200 F 
ENDBRANCH  55  79
BRANCH  67  90
ATOM     90  C   UNL A   1      44.054  28.742  35.094  1.00  0.00     0.064 A 
ATOM     91  C   UNL A   1      45.347  29.266  34.959  1.00  0.00     0.173 A 
ATOM     92  C   UNL A   1      43.871  27.645  35.951  1.00  0.00     0.173 A 
ATOM     93  F   UNL A   1      45.574  30.303  34.140  1.00  0.00    -0.203 F 
ATOM     94  C   UNL A   1      46.419  28.703  35.647  1.00  0.00     0.198 A 
ATOM     95  C   UNL A   1      44.940  27.104  36.658  1.00  0.00     0.198 A 
ATOM     96  F   UNL A   1      42.651  27.112  36.117  1.00  0.00    -0.203 F 
ATOM     97  F   UNL A   1      47.654  29.193  35.475  1.00  0.00    -0.200 F 
ATOM     98  C   UNL A   1      46.214  27.629  36.501  1.00  0.00     0.200 A 
ATOM     99  F   UNL A   1      44.737  26.076  37.494  1.00  0.00    -0.200 F 
ATOM    100  F   UNL A   1      47.245  27.098  37.172  1.00  0.00    -0.200 F 
ENDBRANCH  67  90
ENDBRANCH  41  42
ENDBRANCH  33  36
ENDBRANCH  31  32
ENDBRANCH  30  31
ENDBRANCH  29  30
ENDBRANCH   3  29
TORSDOF 16
ENDMDL
