MODEL 1
REMARK VINA RESULT:     -13.3      0.000      0.000
REMARK SMILES N#CCC[NH+]1CCN(c2cc(C(=O)NCCCNC(=O)c3ccc(-c4c5nc(c(-c6c(F)c(F)c(F)c(F)c6F)c6ccc([nH]6)c(-c6c(F)c(F)c(F)c(F)c6F)c6nc(c(-c7c(F)c(F)c(F)c(F)c7F)c7ccc4[nH]7)C=C6)C=C5)cc3)c3cc(NS(=O)(=O)c4ccccc4Cl)ccc3n2)CC1
REMARK SMILES IDX 15 1 14 2 12 3 13 4 11 6 9 7 10 8 101 9 100 10 84 11 99 12
REMARK SMILES IDX 85 13 98 14 86 15 8 16 5 17 6 18 103 19 7 21 102 22 4 23
REMARK SMILES IDX 3 24 2 25 1 26 87 27 88 29 89 30 90 31 91 32 92 33 96 34
REMARK SMILES IDX 93 35 95 36 97 37 94 38 16 39 17 40 18 41 19 42 20 44 21 45
REMARK SMILES IDX 22 46 83 47 23 48 82 49 24 50 25 51 26 52 76 53 27 54 81 55
REMARK SMILES IDX 75 56 77 57 28 58 80 59 74 60 73 61 29 63 61 64 41 65 60 66
REMARK SMILES IDX 42 67 45 68 59 69 78 70 43 71 44 72 58 74 79 75 46 76 30 77
REMARK SMILES IDX 31 78 39 79 32 80 33 81 37 82 40 83 34 84 35 85 38 86 36 87
REMARK SMILES IDX 62 88 63 89 71 90 64 91 65 92 69 93 72 94 66 95 67 96 70 97
REMARK SMILES IDX 68 98 47 99 48 100 56 101 49 102 50 103 54 104 57 105 51 106
REMARK SMILES IDX 52 107 55 108 53 109
REMARK H PARENT 14 5 5 20 87 28 18 43 77 62 45 73
REMARK Flexibility Score: inf
ROOT
ATOM      1  C   UNL A   1      32.324  26.184  26.312  1.00  0.00     0.118 C 
ENDROOT
BRANCH   1   2
ATOM      2  N   UNL A   1      31.441  25.089  26.727  1.00  0.00    -0.352 N 
ATOM      3  C   UNL A   1      30.928  23.929  26.154  1.00  0.00     0.252 C 
ATOM      4  O   UNL A   1      29.941  23.456  26.734  1.00  0.00    -0.269 OA
ATOM      5  H   UNL A   1      31.131  25.205  27.653  1.00  0.00     0.163 HD
BRANCH   3   6
ATOM      6  C   UNL A   1      31.436  23.138  24.976  1.00  0.00     0.052 A 
ATOM      7  C   UNL A   1      32.966  21.460  24.185  1.00  0.00     0.130 A 
ATOM      8  C   UNL A   1      32.240  22.040  25.229  1.00  0.00     0.061 A 
ATOM      9  N   UNL A   1      33.183  22.115  23.019  1.00  0.00    -0.231 NA
ATOM     10  C   UNL A   1      32.507  23.267  22.813  1.00  0.00     0.074 A 
ATOM     11  C   UNL A   1      31.473  23.596  23.667  1.00  0.00     0.015 A 
ATOM     12  C   UNL A   1      32.788  24.272  21.863  1.00  0.00     0.031 A 
ATOM     13  C   UNL A   1      30.633  24.547  23.216  1.00  0.00     0.038 A 
ATOM     14  C   UNL A   1      32.245  25.581  22.066  1.00  0.00     0.029 A 
ATOM     15  C   UNL A   1      31.242  25.718  23.006  1.00  0.00     0.050 A 
BRANCH   7  16
ATOM     16  N   UNL A   1      33.361  20.146  24.297  1.00  0.00    -0.345 N 
ATOM     17  N   UNL A   1      34.170  17.363  24.369  1.00  0.00    -0.331 N 
ATOM     18  C   UNL A   1      33.203  17.858  23.373  1.00  0.00     0.284 C 
ATOM     19  C   UNL A   1      35.149  18.453  24.601  1.00  0.00     0.284 C 
ATOM     20  H   UNL A   1      34.590  16.531  23.958  1.00  0.00     0.348 HD
ATOM     21  C   UNL A   1      32.444  19.124  23.793  1.00  0.00     0.179 C 
ATOM     22  C   UNL A   1      34.521  19.775  25.100  1.00  0.00     0.179 C 
BRANCH  17  23
ATOM     23  C   UNL A   1      33.667  16.762  25.625  1.00  0.00     0.277 C 
BRANCH  23  24
ATOM     24  C   UNL A   1      32.400  15.873  25.718  1.00  0.00     0.181 C 
BRANCH  24  25
ATOM     25  C   UNL A   1      32.819  14.413  25.676  1.00  0.00     0.068 C 
ATOM     26  N   UNL A   1      33.167  13.201  25.641  1.00  0.00    -0.198 NA
ENDBRANCH  24  25
ENDBRANCH  23  24
ENDBRANCH  17  23
ENDBRANCH   7  16
BRANCH  15  27
ATOM     27  N   UNL A   1      30.706  26.844  23.737  1.00  0.00    -0.280 N 
ATOM     28  H   UNL A   1      30.261  26.692  24.602  1.00  0.00     0.180 HD
BRANCH  27  29
ATOM     29  S   UNL A   1      30.837  28.443  23.121  1.00  0.00     0.263 S 
ATOM     30  O   UNL A   1      32.172  28.879  23.482  1.00  0.00    -0.201 OA
ATOM     31  O   UNL A   1      30.531  28.171  21.727  1.00  0.00    -0.201 OA
BRANCH  29  32
ATOM     32  C   UNL A   1      29.750  29.913  23.458  1.00  0.00     0.106 A 
ATOM     33  C   UNL A   1      28.497  29.645  22.846  1.00  0.00     0.024 A 
ATOM     34  C   UNL A   1      29.746  31.135  24.165  1.00  0.00     0.061 A 
ATOM     35  C   UNL A   1      27.428  30.556  22.779  1.00  0.00     0.002 A 
ATOM     36  C   UNL A   1      28.714  32.104  23.986  1.00  0.00     0.022 A 
ATOM     37  Cl  UNL A   1      30.658  31.758  25.480  1.00  0.00    -0.083 Cl
ATOM     38  C   UNL A   1      27.563  31.824  23.289  1.00  0.00     0.002 A 
ENDBRANCH  29  32
ENDBRANCH  27  29
ENDBRANCH  15  27
ENDBRANCH   3   6
ENDBRANCH   1   2
BRANCH   1  39
ATOM     39  C   UNL A   1      32.538  27.665  26.842  1.00  0.00     0.042 C 
BRANCH  39  40
ATOM     40  C   UNL A   1      33.658  28.722  26.779  1.00  0.00     0.118 C 
BRANCH  40  41
ATOM     41  N   UNL A   1      33.553  29.976  27.539  1.00  0.00    -0.352 N 
ATOM     42  C   UNL A   1      34.565  30.640  28.227  1.00  0.00     0.251 C 
ATOM     43  H   UNL A   1      32.663  30.395  27.564  1.00  0.00     0.163 HD
ATOM     44  O   UNL A   1      34.411  31.680  28.815  1.00  0.00    -0.269 OA
BRANCH  42  45
ATOM     45  C   UNL A   1      35.847  29.928  28.306  1.00  0.00     0.039 A 
ATOM     46  C   UNL A   1      36.745  30.100  27.249  1.00  0.00     0.014 A 
ATOM     47  C   UNL A   1      36.223  29.371  29.523  1.00  0.00     0.014 A 
ATOM     48  C   UNL A   1      38.083  29.797  27.458  1.00  0.00     0.010 A 
ATOM     49  C   UNL A   1      37.568  29.173  29.759  1.00  0.00     0.010 A 
ATOM     50  C   UNL A   1      38.502  29.386  28.730  1.00  0.00    -0.014 A 
BRANCH  50  51
ATOM     51  C   UNL A   1      39.922  29.107  29.009  1.00  0.00     0.031 A 
ATOM     52  C   UNL A   1      40.712  30.157  29.730  1.00  0.00     0.074 A 
ATOM     53  C   UNL A   1      40.484  27.975  28.547  1.00  0.00     0.049 A 
ATOM     54  N   UNL A   1      41.991  30.205  29.979  1.00  0.00    -0.248 NA
ATOM     55  C   UNL A   1      39.963  31.344  30.185  1.00  0.00     0.031 C 
ATOM     56  C   UNL A   1      39.791  26.931  27.787  1.00  0.00     0.029 A 
ATOM     57  N   UNL A   1      41.770  27.517  28.639  1.00  0.00    -0.354 N 
ATOM     58  C   UNL A   1      42.198  31.431  30.596  1.00  0.00     0.074 A 
ATOM     59  C   UNL A   1      40.937  32.131  30.611  1.00  0.00     0.031 C 
ATOM     60  C   UNL A   1      40.656  25.942  27.505  1.00  0.00     0.029 A 
ATOM     61  C   UNL A   1      41.967  26.299  28.034  1.00  0.00     0.049 A 
ATOM     62  H   UNL A   1      42.488  28.013  29.094  1.00  0.00     0.167 HD
ATOM     63  C   UNL A   1      43.342  31.907  31.137  1.00  0.00     0.037 A 
ATOM     64  C   UNL A   1      43.090  25.565  27.930  1.00  0.00     0.037 A 
ATOM     65  C   UNL A   1      44.570  31.164  31.143  1.00  0.00     0.049 A 
ATOM     66  C   UNL A   1      44.343  26.107  28.569  1.00  0.00     0.074 A 
ATOM     67  C   UNL A   1      45.787  31.507  31.697  1.00  0.00     0.029 A 
ATOM     68  N   UNL A   1      44.723  29.909  30.568  1.00  0.00    -0.354 N 
ATOM     69  N   UNL A   1      44.524  27.242  29.204  1.00  0.00    -0.248 NA
ATOM     70  C   UNL A   1      45.545  25.267  28.489  1.00  0.00     0.031 C 
ATOM     71  C   UNL A   1      46.688  30.472  31.427  1.00  0.00     0.029 A 
ATOM     72  C   UNL A   1      46.020  29.464  30.747  1.00  0.00     0.049 A 
ATOM     73  H   UNL A   1      44.014  29.409  30.102  1.00  0.00     0.167 HD
ATOM     74  C   UNL A   1      45.844  27.241  29.625  1.00  0.00     0.074 A 
ATOM     75  C   UNL A   1      46.415  25.981  29.189  1.00  0.00     0.031 C 
ATOM     76  C   UNL A   1      46.533  28.192  30.306  1.00  0.00     0.037 A 
BRANCH  63  77
ATOM     77  C   UNL A   1      43.297  33.268  31.768  1.00  0.00     0.064 A 
ATOM     78  C   UNL A   1      43.105  33.431  33.150  1.00  0.00     0.173 A 
ATOM     79  C   UNL A   1      43.446  34.422  30.988  1.00  0.00     0.173 A 
ATOM     80  F   UNL A   1      42.931  32.360  33.939  1.00  0.00    -0.203 F 
ATOM     81  C   UNL A   1      43.036  34.700  33.720  1.00  0.00     0.198 A 
ATOM     82  C   UNL A   1      43.411  35.688  31.566  1.00  0.00     0.198 A 
ATOM     83  F   UNL A   1      43.624  34.325  29.662  1.00  0.00    -0.203 F 
ATOM     84  F   UNL A   1      42.793  34.830  35.032  1.00  0.00    -0.200 F 
ATOM     85  C   UNL A   1      43.198  35.826  32.930  1.00  0.00     0.200 A 
ATOM     86  F   UNL A   1      43.575  36.777  30.802  1.00  0.00    -0.200 F 
ATOM     87  F   UNL A   1      43.138  37.047  33.480  1.00  0.00    -0.200 F 
ENDBRANCH  63  77
BRANCH  64  88
ATOM     88  C   UNL A   1      43.074  24.245  27.243  1.00  0.00     0.064 A 
ATOM     89  C   UNL A   1      42.661  23.086  27.918  1.00  0.00     0.173 A 
ATOM     90  C   UNL A   1      43.471  24.108  25.906  1.00  0.00     0.173 A 
ATOM     91  F   UNL A   1      42.281  23.158  29.201  1.00  0.00    -0.203 F 
ATOM     92  C   UNL A   1      42.674  21.841  27.290  1.00  0.00     0.198 A 
ATOM     93  C   UNL A   1      43.456  22.866  25.270  1.00  0.00     0.198 A 
ATOM     94  F   UNL A   1      43.864  25.183  25.207  1.00  0.00    -0.203 F 
ATOM     95  F   UNL A   1      42.320  20.744  27.976  1.00  0.00    -0.200 F 
ATOM     96  C   UNL A   1      43.067  21.731  25.966  1.00  0.00     0.200 A 
ATOM     97  F   UNL A   1      43.817  22.770  23.983  1.00  0.00    -0.200 F 
ATOM     98  F   UNL A   1      43.077  20.536  25.363  1.00  0.00    -0.200 F 
ENDBRANCH  64  88
BRANCH  76  99
ATOM     99  C   UNL A   1      47.958  27.880  30.646  1.00  0.00     0.064 A 
ATOM    100  C   UNL A   1      49.009  28.226  29.785  1.00  0.00     0.173 A 
ATOM    101  C   UNL A   1      48.275  27.277  31.872  1.00  0.00     0.173 A 
ATOM    102  F   UNL A   1      48.751  28.793  28.598  1.00  0.00    -0.203 F 
ATOM    103  C   UNL A   1      50.329  27.954  30.131  1.00  0.00     0.198 A 
ATOM    104  C   UNL A   1      49.598  27.038  32.228  1.00  0.00     0.198 A 
ATOM    105  F   UNL A   1      47.302  26.939  32.732  1.00  0.00    -0.203 F 
ATOM    106  F   UNL A   1      51.316  28.247  29.273  1.00  0.00    -0.200 F 
ATOM    107  C   UNL A   1      50.622  27.368  31.353  1.00  0.00     0.200 A 
ATOM    108  F   UNL A   1      49.880  26.488  33.416  1.00  0.00    -0.200 F 
ATOM    109  F   UNL A   1      51.895  27.117  31.688  1.00  0.00    -0.200 F 
ENDBRANCH  76  99
ENDBRANCH  50  51
ENDBRANCH  42  45
ENDBRANCH  40  41
ENDBRANCH  39  40
ENDBRANCH   1  39
TORSDOF 17
ENDMDL
MODEL 2
REMARK VINA RESULT:     -13.3      3.930      8.483
REMARK SMILES N#CCC[NH+]1CCN(c2cc(C(=O)NCCCNC(=O)c3ccc(-c4c5nc(c(-c6c(F)c(F)c(F)c(F)c6F)c6ccc([nH]6)c(-c6c(F)c(F)c(F)c(F)c6F)c6nc(c(-c7c(F)c(F)c(F)c(F)c7F)c7ccc4[nH]7)C=C6)C=C5)cc3)c3cc(NS(=O)(=O)c4ccccc4Cl)ccc3n2)CC1
REMARK SMILES IDX 15 1 14 2 12 3 13 4 11 6 9 7 10 8 101 9 100 10 84 11 99 12
REMARK SMILES IDX 85 13 98 14 86 15 8 16 5 17 6 18 103 19 7 21 102 22 4 23
REMARK SMILES IDX 3 24 2 25 1 26 87 27 88 29 89 30 90 31 91 32 92 33 96 34
REMARK SMILES IDX 93 35 95 36 97 37 94 38 16 39 17 40 18 41 19 42 20 44 21 45
REMARK SMILES IDX 22 46 83 47 23 48 82 49 24 50 25 51 26 52 76 53 27 54 81 55
REMARK SMILES IDX 75 56 77 57 28 58 80 59 74 60 73 61 29 63 61 64 41 65 60 66
REMARK SMILES IDX 42 67 45 68 59 69 78 70 43 71 44 72 58 74 79 75 46 76 30 77
REMARK SMILES IDX 31 78 39 79 32 80 33 81 37 82 40 83 34 84 35 85 38 86 36 87
REMARK SMILES IDX 62 88 63 89 71 90 64 91 65 92 69 93 72 94 66 95 67 96 70 97
REMARK SMILES IDX 68 98 47 99 48 100 56 101 49 102 50 103 54 104 57 105 51 106
REMARK SMILES IDX 52 107 55 108 53 109
REMARK H PARENT 14 5 5 20 87 28 18 43 77 62 45 73
REMARK Flexibility Score: inf
ROOT
ATOM      1  C   UNL A   1      33.508  29.615  26.551  1.00  0.00     0.118 C 
ENDROOT
BRANCH   1   2
ATOM      2  N   UNL A   1      33.656  29.232  25.143  1.00  0.00    -0.352 N 
ATOM      3  C   UNL A   1      33.868  28.055  24.431  1.00  0.00     0.252 C 
ATOM      4  O   UNL A   1      34.275  28.216  23.271  1.00  0.00    -0.269 OA
ATOM      5  H   UNL A   1      33.587  30.011  24.546  1.00  0.00     0.163 HD
BRANCH   3   6
ATOM      6  C   UNL A   1      33.615  26.627  24.843  1.00  0.00     0.052 A 
ATOM      7  C   UNL A   1      34.272  24.324  24.636  1.00  0.00     0.130 A 
ATOM      8  C   UNL A   1      34.581  25.683  24.544  1.00  0.00     0.061 A 
ATOM      9  N   UNL A   1      32.989  23.887  24.677  1.00  0.00    -0.231 NA
ATOM     10  C   UNL A   1      32.017  24.813  24.830  1.00  0.00     0.074 A 
ATOM     11  C   UNL A   1      32.372  26.104  25.170  1.00  0.00     0.015 A 
ATOM     12  C   UNL A   1      30.637  24.661  24.583  1.00  0.00     0.031 A 
ATOM     13  C   UNL A   1      31.372  26.871  25.642  1.00  0.00     0.038 A 
ATOM     14  C   UNL A   1      29.839  25.834  24.392  1.00  0.00     0.029 A 
ATOM     15  C   UNL A   1      30.390  27.048  24.752  1.00  0.00     0.050 A 
BRANCH   7  16
ATOM     16  N   UNL A   1      35.292  23.418  24.816  1.00  0.00    -0.345 N 
ATOM     17  N   UNL A   1      37.326  21.394  25.226  1.00  0.00    -0.331 N 
ATOM     18  C   UNL A   1      36.028  21.332  25.921  1.00  0.00     0.284 C 
ATOM     19  C   UNL A   1      37.071  21.962  23.881  1.00  0.00     0.284 C 
ATOM     20  H   UNL A   1      37.670  20.435  25.195  1.00  0.00     0.348 HD
ATOM     21  C   UNL A   1      35.325  22.687  26.082  1.00  0.00     0.179 C 
ATOM     22  C   UNL A   1      36.424  23.368  23.898  1.00  0.00     0.179 C 
BRANCH  17  23
ATOM     23  C   UNL A   1      38.480  22.022  25.909  1.00  0.00     0.277 C 
BRANCH  23  24
ATOM     24  C   UNL A   1      39.820  21.298  26.196  1.00  0.00     0.181 C 
BRANCH  24  25
ATOM     25  C   UNL A   1      40.606  22.103  27.218  1.00  0.00     0.068 C 
ATOM     26  N   UNL A   1      41.258  22.772  28.065  1.00  0.00    -0.198 NA
ENDBRANCH  24  25
ENDBRANCH  23  24
ENDBRANCH  17  23
ENDBRANCH   7  16
BRANCH  15  27
ATOM     27  N   UNL A   1      30.093  28.421  24.410  1.00  0.00    -0.280 N 
ATOM     28  H   UNL A   1      30.319  29.138  25.046  1.00  0.00     0.180 HD
BRANCH  27  29
ATOM     29  S   UNL A   1      29.353  28.819  22.911  1.00  0.00     0.263 S 
ATOM     30  O   UNL A   1      30.232  28.266  21.898  1.00  0.00    -0.201 OA
ATOM     31  O   UNL A   1      28.054  28.208  23.133  1.00  0.00    -0.201 OA
BRANCH  29  32
ATOM     32  C   UNL A   1      28.869  30.491  22.259  1.00  0.00     0.106 A 
ATOM     33  C   UNL A   1      28.105  30.267  21.084  1.00  0.00     0.024 A 
ATOM     34  C   UNL A   1      28.951  31.862  22.587  1.00  0.00     0.061 A 
ATOM     35  C   UNL A   1      27.636  31.280  20.229  1.00  0.00     0.002 A 
ATOM     36  C   UNL A   1      28.590  32.880  21.655  1.00  0.00     0.022 A 
ATOM     37  Cl  UNL A   1      29.223  32.729  24.045  1.00  0.00    -0.083 Cl
ATOM     38  C   UNL A   1      27.944  32.596  20.476  1.00  0.00     0.002 A 
ENDBRANCH  29  32
ENDBRANCH  27  29
ENDBRANCH  15  27
ENDBRANCH   3   6
ENDBRANCH   1   2
BRANCH   1  39
ATOM     39  C   UNL A   1      33.068  30.961  27.267  1.00  0.00     0.042 C 
BRANCH  39  40
ATOM     40  C   UNL A   1      33.741  32.296  27.643  1.00  0.00     0.118 C 
BRANCH  40  41
ATOM     41  N   UNL A   1      32.944  33.521  27.808  1.00  0.00    -0.352 N 
ATOM     42  C   UNL A   1      33.200  34.594  28.655  1.00  0.00     0.251 C 
ATOM     43  H   UNL A   1      32.133  33.588  27.254  1.00  0.00     0.163 HD
ATOM     44  O   UNL A   1      32.510  35.580  28.725  1.00  0.00    -0.269 OA
BRANCH  42  45
ATOM     45  C   UNL A   1      34.325  34.413  29.582  1.00  0.00     0.039 A 
ATOM     46  C   UNL A   1      34.059  33.788  30.804  1.00  0.00     0.014 A 
ATOM     47  C   UNL A   1      35.617  34.592  29.101  1.00  0.00     0.014 A 
ATOM     48  C   UNL A   1      35.116  33.239  31.514  1.00  0.00     0.010 A 
ATOM     49  C   UNL A   1      36.650  33.952  29.756  1.00  0.00     0.010 A 
ATOM     50  C   UNL A   1      36.404  33.273  30.962  1.00  0.00    -0.014 A 
BRANCH  50  51
ATOM     51  C   UNL A   1      37.546  32.653  31.657  1.00  0.00     0.031 A 
ATOM     52  C   UNL A   1      38.228  31.499  30.987  1.00  0.00     0.074 A 
ATOM     53  C   UNL A   1      37.888  33.074  32.888  1.00  0.00     0.049 A 
ATOM     54  N   UNL A   1      39.163  30.712  31.443  1.00  0.00    -0.248 NA
ATOM     55  C   UNL A   1      37.752  31.150  29.635  1.00  0.00     0.031 C 
ATOM     56  C   UNL A   1      37.232  34.156  33.629  1.00  0.00     0.029 A 
ATOM     57  N   UNL A   1      38.866  32.638  33.740  1.00  0.00    -0.354 N 
ATOM     58  C   UNL A   1      39.367  29.768  30.446  1.00  0.00     0.074 A 
ATOM     59  C   UNL A   1      38.408  30.026  29.399  1.00  0.00     0.031 C 
ATOM     60  C   UNL A   1      37.845  34.314  34.814  1.00  0.00     0.029 A 
ATOM     61  C   UNL A   1      38.911  33.326  34.928  1.00  0.00     0.049 A 
ATOM     62  H   UNL A   1      39.480  31.899  33.523  1.00  0.00     0.167 HD
ATOM     63  C   UNL A   1      40.304  28.797  30.400  1.00  0.00     0.037 A 
ATOM     64  C   UNL A   1      39.732  33.164  35.983  1.00  0.00     0.037 A 
ATOM     65  C   UNL A   1      41.272  28.596  31.441  1.00  0.00     0.049 A 
ATOM     66  C   UNL A   1      40.787  32.092  35.891  1.00  0.00     0.074 A 
ATOM     67  C   UNL A   1      42.305  27.682  31.500  1.00  0.00     0.029 A 
ATOM     68  N   UNL A   1      41.325  29.345  32.610  1.00  0.00    -0.354 N 
ATOM     69  N   UNL A   1      41.016  31.237  34.920  1.00  0.00    -0.248 NA
ATOM     70  C   UNL A   1      41.705  31.965  37.029  1.00  0.00     0.031 C 
ATOM     71  C   UNL A   1      42.962  27.855  32.721  1.00  0.00     0.029 A 
ATOM     72  C   UNL A   1      42.370  28.909  33.402  1.00  0.00     0.049 A 
ATOM     73  H   UNL A   1      40.709  30.079  32.840  1.00  0.00     0.167 HD
ATOM     74  C   UNL A   1      42.117  30.494  35.313  1.00  0.00     0.074 A 
ATOM     75  C   UNL A   1      42.523  31.013  36.606  1.00  0.00     0.031 C 
ATOM     76  C   UNL A   1      42.741  29.471  34.676  1.00  0.00     0.037 A 
BRANCH  63  77
ATOM     77  C   UNL A   1      40.326  27.911  29.188  1.00  0.00     0.064 A 
ATOM     78  C   UNL A   1      39.539  26.750  29.111  1.00  0.00     0.173 A 
ATOM     79  C   UNL A   1      41.142  28.222  28.092  1.00  0.00     0.173 A 
ATOM     80  F   UNL A   1      38.760  26.393  30.144  1.00  0.00    -0.203 F 
ATOM     81  C   UNL A   1      39.590  25.921  27.994  1.00  0.00     0.198 A 
ATOM     82  C   UNL A   1      41.164  27.408  26.961  1.00  0.00     0.198 A 
ATOM     83  F   UNL A   1      41.919  29.314  28.114  1.00  0.00    -0.203 F 
ATOM     84  F   UNL A   1      38.874  24.788  27.970  1.00  0.00    -0.200 F 
ATOM     85  C   UNL A   1      40.395  26.255  26.917  1.00  0.00     0.200 A 
ATOM     86  F   UNL A   1      41.938  27.736  25.917  1.00  0.00    -0.200 F 
ATOM     87  F   UNL A   1      40.439  25.460  25.839  1.00  0.00    -0.200 F 
ENDBRANCH  63  77
BRANCH  64  88
ATOM     88  C   UNL A   1      39.620  34.046  37.175  1.00  0.00     0.064 A 
ATOM     89  C   UNL A   1      38.889  33.644  38.304  1.00  0.00     0.173 A 
ATOM     90  C   UNL A   1      40.233  35.306  37.217  1.00  0.00     0.173 A 
ATOM     91  F   UNL A   1      38.274  32.453  38.314  1.00  0.00    -0.203 F 
ATOM     92  C   UNL A   1      38.753  34.479  39.412  1.00  0.00     0.198 A 
ATOM     93  C   UNL A   1      40.120  36.129  38.338  1.00  0.00     0.198 A 
ATOM     94  F   UNL A   1      40.954  35.738  36.173  1.00  0.00    -0.203 F 
ATOM     95  F   UNL A   1      38.008  34.087  40.456  1.00  0.00    -0.200 F 
ATOM     96  C   UNL A   1      39.371  35.719  39.432  1.00  0.00     0.200 A 
ATOM     97  F   UNL A   1      40.738  37.318  38.360  1.00  0.00    -0.200 F 
ATOM     98  F   UNL A   1      39.243  36.519  40.497  1.00  0.00    -0.200 F 
ENDBRANCH  64  88
BRANCH  76  99
ATOM     99  C   UNL A   1      43.941  28.884  35.353  1.00  0.00     0.064 A 
ATOM    100  C   UNL A   1      45.234  29.357  35.091  1.00  0.00     0.173 A 
ATOM    101  C   UNL A   1      43.784  27.873  36.313  1.00  0.00     0.173 A 
ATOM    102  F   UNL A   1      45.430  30.313  34.172  1.00  0.00    -0.203 F 
ATOM    103  C   UNL A   1      46.334  28.818  35.751  1.00  0.00     0.198 A 
ATOM    104  C   UNL A   1      44.883  27.361  36.994  1.00  0.00     0.198 A 
ATOM    105  F   UNL A   1      42.564  27.398  36.603  1.00  0.00    -0.203 F 
ATOM    106  F   UNL A   1      47.567  29.248  35.451  1.00  0.00    -0.200 F 
ATOM    107  C   UNL A   1      46.158  27.828  36.706  1.00  0.00     0.200 A 
ATOM    108  F   UNL A   1      44.709  26.417  37.928  1.00  0.00    -0.200 F 
ATOM    109  F   UNL A   1      47.218  27.318  37.347  1.00  0.00    -0.200 F 
ENDBRANCH  76  99
ENDBRANCH  50  51
ENDBRANCH  42  45
ENDBRANCH  40  41
ENDBRANCH  39  40
ENDBRANCH   1  39
TORSDOF 17
ENDMDL
MODEL 3
REMARK VINA RESULT:     -12.9      2.909      4.004
REMARK SMILES N#CCC[NH+]1CCN(c2cc(C(=O)NCCCNC(=O)c3ccc(-c4c5nc(c(-c6c(F)c(F)c(F)c(F)c6F)c6ccc([nH]6)c(-c6c(F)c(F)c(F)c(F)c6F)c6nc(c(-c7c(F)c(F)c(F)c(F)c7F)c7ccc4[nH]7)C=C6)C=C5)cc3)c3cc(NS(=O)(=O)c4ccccc4Cl)ccc3n2)CC1
REMARK SMILES IDX 15 1 14 2 12 3 13 4 11 6 9 7 10 8 101 9 100 10 84 11 99 12
REMARK SMILES IDX 85 13 98 14 86 15 8 16 5 17 6 18 103 19 7 21 102 22 4 23
REMARK SMILES IDX 3 24 2 25 1 26 87 27 88 29 89 30 90 31 91 32 92 33 96 34
REMARK SMILES IDX 93 35 95 36 97 37 94 38 16 39 17 40 18 41 19 42 20 44 21 45
REMARK SMILES IDX 22 46 83 47 23 48 82 49 24 50 25 51 26 52 76 53 27 54 81 55
REMARK SMILES IDX 75 56 77 57 28 58 80 59 74 60 73 61 29 63 61 64 41 65 60 66
REMARK SMILES IDX 42 67 45 68 59 69 78 70 43 71 44 72 58 74 79 75 46 76 30 77
REMARK SMILES IDX 31 78 39 79 32 80 33 81 37 82 40 83 34 84 35 85 38 86 36 87
REMARK SMILES IDX 62 88 63 89 71 90 64 91 65 92 69 93 72 94 66 95 67 96 70 97
REMARK SMILES IDX 68 98 47 99 48 100 56 101 49 102 50 103 54 104 57 105 51 106
REMARK SMILES IDX 52 107 55 108 53 109
REMARK H PARENT 14 5 5 20 87 28 18 43 77 62 45 73
REMARK Flexibility Score: inf
ROOT
ATOM      1  C   UNL A   1      31.650  27.350  26.333  1.00  0.00     0.118 C 
ENDROOT
BRANCH   1   2
ATOM      2  N   UNL A   1      30.782  26.269  26.814  1.00  0.00    -0.352 N 
ATOM      3  C   UNL A   1      30.221  25.110  26.286  1.00  0.00     0.252 C 
ATOM      4  O   UNL A   1      29.267  24.653  26.932  1.00  0.00    -0.269 OA
ATOM      5  H   UNL A   1      30.533  26.396  27.757  1.00  0.00     0.163 HD
BRANCH   3   6
ATOM      6  C   UNL A   1      30.644  24.302  25.085  1.00  0.00     0.052 A 
ATOM      7  C   UNL A   1      32.073  22.572  24.224  1.00  0.00     0.130 A 
ATOM      8  C   UNL A   1      31.419  23.176  25.300  1.00  0.00     0.061 A 
ATOM      9  N   UNL A   1      32.258  23.220  23.048  1.00  0.00    -0.231 NA
ATOM     10  C   UNL A   1      31.615  24.395  22.874  1.00  0.00     0.074 A 
ATOM     11  C   UNL A   1      30.635  24.761  23.776  1.00  0.00     0.015 A 
ATOM     12  C   UNL A   1      31.887  25.391  21.912  1.00  0.00     0.031 A 
ATOM     13  C   UNL A   1      29.810  25.742  23.365  1.00  0.00     0.038 A 
ATOM     14  C   UNL A   1      31.402  26.718  22.139  1.00  0.00     0.029 A 
ATOM     15  C   UNL A   1      30.450  26.891  23.125  1.00  0.00     0.050 A 
BRANCH   7  16
ATOM     16  N   UNL A   1      32.426  21.244  24.317  1.00  0.00    -0.345 N 
ATOM     17  N   UNL A   1      33.078  18.440  24.651  1.00  0.00    -0.331 N 
ATOM     18  C   UNL A   1      32.778  19.303  25.808  1.00  0.00     0.284 C 
ATOM     19  C   UNL A   1      32.219  18.900  23.534  1.00  0.00     0.284 C 
ATOM     20  H   UNL A   1      32.865  17.489  24.952  1.00  0.00     0.348 HD
ATOM     21  C   UNL A   1      33.032  20.798  25.571  1.00  0.00     0.179 C 
ATOM     22  C   UNL A   1      32.426  20.381  23.142  1.00  0.00     0.179 C 
BRANCH  17  23
ATOM     23  C   UNL A   1      34.488  18.236  24.250  1.00  0.00     0.277 C 
BRANCH  23  24
ATOM     24  C   UNL A   1      35.341  17.009  24.662  1.00  0.00     0.181 C 
BRANCH  24  25
ATOM     25  C   UNL A   1      34.411  15.871  25.052  1.00  0.00     0.068 C 
ATOM     26  N   UNL A   1      33.640  14.928  25.375  1.00  0.00    -0.198 NA
ENDBRANCH  24  25
ENDBRANCH  23  24
ENDBRANCH  17  23
ENDBRANCH   7  16
BRANCH  15  27
ATOM     27  N   UNL A   1      29.990  28.034  23.881  1.00  0.00    -0.280 N 
ATOM     28  H   UNL A   1      29.445  27.893  24.690  1.00  0.00     0.180 HD
BRANCH  27  29
ATOM     29  S   UNL A   1      30.380  29.634  23.390  1.00  0.00     0.263 S 
ATOM     30  O   UNL A   1      30.720  30.332  24.615  1.00  0.00    -0.201 OA
ATOM     31  O   UNL A   1      31.430  29.326  22.434  1.00  0.00    -0.201 OA
BRANCH  29  32
ATOM     32  C   UNL A   1      29.346  30.841  22.426  1.00  0.00     0.106 A 
ATOM     33  C   UNL A   1      28.581  30.080  21.504  1.00  0.00     0.024 A 
ATOM     34  C   UNL A   1      29.033  32.217  22.370  1.00  0.00     0.061 A 
ATOM     35  C   UNL A   1      27.746  30.627  20.514  1.00  0.00     0.002 A 
ATOM     36  C   UNL A   1      28.289  32.775  21.287  1.00  0.00     0.022 A 
ATOM     37  Cl  UNL A   1      29.159  33.519  23.483  1.00  0.00    -0.083 Cl
ATOM     38  C   UNL A   1      27.655  31.988  20.356  1.00  0.00     0.002 A 
ENDBRANCH  29  32
ENDBRANCH  27  29
ENDBRANCH  15  27
ENDBRANCH   3   6
ENDBRANCH   1   2
BRANCH   1  39
ATOM     39  C   UNL A   1      32.300  28.613  27.040  1.00  0.00     0.042 C 
BRANCH  39  40
ATOM     40  C   UNL A   1      33.222  29.775  26.620  1.00  0.00     0.118 C 
BRANCH  40  41
ATOM     41  N   UNL A   1      32.985  31.140  27.112  1.00  0.00    -0.352 N 
ATOM     42  C   UNL A   1      33.901  31.999  27.712  1.00  0.00     0.251 C 
ATOM     43  H   UNL A   1      32.070  31.486  27.006  1.00  0.00     0.163 HD
ATOM     44  O   UNL A   1      33.641  33.117  28.076  1.00  0.00    -0.269 OA
BRANCH  42  45
ATOM     45  C   UNL A   1      35.219  31.415  28.000  1.00  0.00     0.039 A 
ATOM     46  C   UNL A   1      36.272  32.298  28.253  1.00  0.00     0.014 A 
ATOM     47  C   UNL A   1      35.294  30.058  28.293  1.00  0.00     0.014 A 
ATOM     48  C   UNL A   1      37.396  31.820  28.913  1.00  0.00     0.010 A 
ATOM     49  C   UNL A   1      36.364  29.613  29.042  1.00  0.00     0.010 A 
ATOM     50  C   UNL A   1      37.417  30.491  29.355  1.00  0.00    -0.014 A 
BRANCH  50  51
ATOM     51  C   UNL A   1      38.567  29.958  30.108  1.00  0.00     0.031 A 
ATOM     52  C   UNL A   1      38.768  30.444  31.511  1.00  0.00     0.074 A 
ATOM     53  C   UNL A   1      39.437  29.131  29.502  1.00  0.00     0.049 A 
ATOM     54  N   UNL A   1      39.761  30.227  32.328  1.00  0.00    -0.248 NA
ATOM     55  C   UNL A   1      37.730  31.344  32.050  1.00  0.00     0.031 C 
ATOM     56  C   UNL A   1      39.337  28.659  28.117  1.00  0.00     0.029 A 
ATOM     57  N   UNL A   1      40.583  28.546  29.967  1.00  0.00    -0.354 N 
ATOM     58  C   UNL A   1      39.477  30.978  33.460  1.00  0.00     0.074 A 
ATOM     59  C   UNL A   1      38.267  31.720  33.199  1.00  0.00     0.031 C 
ATOM     60  C   UNL A   1      40.367  27.837  27.856  1.00  0.00     0.029 A 
ATOM     61  C   UNL A   1      41.213  27.751  29.041  1.00  0.00     0.049 A 
ATOM     62  H   UNL A   1      40.926  28.683  30.880  1.00  0.00     0.167 HD
ATOM     63  C   UNL A   1      40.154  31.010  34.628  1.00  0.00     0.037 A 
ATOM     64  C   UNL A   1      42.349  27.038  29.154  1.00  0.00     0.037 A 
ATOM     65  C   UNL A   1      41.331  30.224  34.869  1.00  0.00     0.049 A 
ATOM     66  C   UNL A   1      43.066  27.068  30.479  1.00  0.00     0.074 A 
ATOM     67  C   UNL A   1      42.086  30.125  36.022  1.00  0.00     0.029 A 
ATOM     68  N   UNL A   1      41.915  29.387  33.927  1.00  0.00    -0.354 N 
ATOM     69  N   UNL A   1      42.763  27.735  31.569  1.00  0.00    -0.248 NA
ATOM     70  C   UNL A   1      44.274  26.242  30.598  1.00  0.00     0.031 C 
ATOM     71  C   UNL A   1      43.148  29.253  35.765  1.00  0.00     0.029 A 
ATOM     72  C   UNL A   1      43.028  28.771  34.469  1.00  0.00     0.049 A 
ATOM     73  H   UNL A   1      41.586  29.252  33.009  1.00  0.00     0.167 HD
ATOM     74  C   UNL A   1      43.719  27.388  32.510  1.00  0.00     0.074 A 
ATOM     75  C   UNL A   1      44.604  26.435  31.867  1.00  0.00     0.031 C 
ATOM     76  C   UNL A   1      43.866  27.817  33.789  1.00  0.00     0.037 A 
BRANCH  63  77
ATOM     77  C   UNL A   1      39.623  31.899  35.714  1.00  0.00     0.064 A 
ATOM     78  C   UNL A   1      40.093  33.212  35.886  1.00  0.00     0.173 A 
ATOM     79  C   UNL A   1      38.635  31.439  36.595  1.00  0.00     0.173 A 
ATOM     80  F   UNL A   1      41.057  33.694  35.086  1.00  0.00    -0.203 F 
ATOM     81  C   UNL A   1      39.614  34.018  36.915  1.00  0.00     0.198 A 
ATOM     82  C   UNL A   1      38.132  32.260  37.601  1.00  0.00     0.198 A 
ATOM     83  F   UNL A   1      38.155  30.192  36.481  1.00  0.00    -0.203 F 
ATOM     84  F   UNL A   1      40.121  35.245  37.093  1.00  0.00    -0.200 F 
ATOM     85  C   UNL A   1      38.628  33.545  37.766  1.00  0.00     0.200 A 
ATOM     86  F   UNL A   1      37.174  31.804  38.420  1.00  0.00    -0.200 F 
ATOM     87  F   UNL A   1      38.162  34.323  38.752  1.00  0.00    -0.200 F 
ENDBRANCH  63  77
BRANCH  64  88
ATOM     88  C   UNL A   1      42.846  26.216  28.017  1.00  0.00     0.064 A 
ATOM     89  C   UNL A   1      43.713  26.762  27.058  1.00  0.00     0.173 A 
ATOM     90  C   UNL A   1      42.469  24.876  27.859  1.00  0.00     0.173 A 
ATOM     91  F   UNL A   1      44.098  28.043  27.156  1.00  0.00    -0.203 F 
ATOM     92  C   UNL A   1      44.158  26.008  25.973  1.00  0.00     0.198 A 
ATOM     93  C   UNL A   1      42.938  24.113  26.788  1.00  0.00     0.198 A 
ATOM     94  F   UNL A   1      41.652  24.297  28.751  1.00  0.00    -0.203 F 
ATOM     95  F   UNL A   1      44.946  26.572  25.046  1.00  0.00    -0.200 F 
ATOM     96  C   UNL A   1      43.774  24.684  25.840  1.00  0.00     0.200 A 
ATOM     97  F   UNL A   1      42.580  22.827  26.676  1.00  0.00    -0.200 F 
ATOM     98  F   UNL A   1      44.203  23.959  24.799  1.00  0.00    -0.200 F 
ENDBRANCH  64  88
BRANCH  76  99
ATOM     99  C   UNL A   1      44.997  27.227  34.574  1.00  0.00     0.064 A 
ATOM    100  C   UNL A   1      44.844  26.034  35.295  1.00  0.00     0.173 A 
ATOM    101  C   UNL A   1      46.260  27.836  34.559  1.00  0.00     0.173 A 
ATOM    102  F   UNL A   1      43.651  25.425  35.347  1.00  0.00    -0.203 F 
ATOM    103  C   UNL A   1      45.914  25.485  35.996  1.00  0.00     0.198 A 
ATOM    104  C   UNL A   1      47.335  27.267  35.233  1.00  0.00     0.198 A 
ATOM    105  F   UNL A   1      46.455  28.973  33.874  1.00  0.00    -0.203 F 
ATOM    106  F   UNL A   1      45.735  24.372  36.719  1.00  0.00    -0.200 F 
ATOM    107  C   UNL A   1      47.158  26.097  35.958  1.00  0.00     0.200 A 
ATOM    108  F   UNL A   1      48.540  27.848  35.181  1.00  0.00    -0.200 F 
ATOM    109  F   UNL A   1      48.189  25.561  36.625  1.00  0.00    -0.200 F 
ENDBRANCH  76  99
ENDBRANCH  50  51
ENDBRANCH  42  45
ENDBRANCH  40  41
ENDBRANCH  39  40
ENDBRANCH   1  39
TORSDOF 17
ENDMDL
