MODEL 1
REMARK VINA RESULT:     -13.4      0.000      0.000
REMARK SMILES O=C(NCCCNC(=O)c1cc(-c2cncnc2)cc(S(=O)(=O)N2CCCC2)c1)c1ccc(-c2c3nc(c(-c4c(F)c(F)c(F)c(F)c4F)c4ccc([nH]4)c(-c4c(F)c(F)c(F)c(F)c4F)c4nc(c(-c5c(F)c(F)c(F)c(F)c5F)c5ccc2[nH]5)C=C4)C=C3)cc1
REMARK SMILES IDX 5 1 4 2 3 3 1 4 2 5 30 7 31 8 92 9 32 10 91 11 33 12 34 13
REMARK SMILES IDX 35 14 85 15 36 16 90 17 84 18 86 19 37 20 89 21 83 22 82 23
REMARK SMILES IDX 38 25 70 26 50 27 69 28 51 29 54 30 68 31 87 32 52 33 53 34
REMARK SMILES IDX 67 36 88 37 55 38 39 39 40 40 48 41 41 42 42 43 46 44 49 45
REMARK SMILES IDX 43 46 44 47 47 48 45 49 71 50 72 51 80 52 73 53 74 54 78 55
REMARK SMILES IDX 81 56 75 57 76 58 79 59 77 60 56 61 57 62 65 63 58 64 59 65
REMARK SMILES IDX 63 66 66 67 60 68 61 69 64 70 62 71 6 72 7 73 8 74 9 76
REMARK SMILES IDX 10 77 11 78 29 79 12 80 20 81 19 82 13 83 14 84 18 85 15 86
REMARK SMILES IDX 17 87 16 88 21 89 22 90 23 91 24 92 25 93 28 94 26 95 27 96
REMARK H PARENT 3 6 86 24 54 35 7 75
REMARK Flexibility Score: inf
ROOT
ATOM      1  C   UNL A   1      32.434  27.992  25.428  1.00  0.00     0.042 C 
ENDROOT
BRANCH   1   2
ATOM      2  C   UNL A   1      33.252  29.248  25.175  1.00  0.00     0.118 C 
BRANCH   2   3
ATOM      3  N   UNL A   1      32.736  30.424  25.868  1.00  0.00    -0.352 N 
ATOM      4  O   UNL A   1      32.557  32.009  27.456  1.00  0.00    -0.269 OA
ATOM      5  C   UNL A   1      33.244  31.139  26.929  1.00  0.00     0.251 C 
ATOM      6  H   UNL A   1      31.881  30.763  25.518  1.00  0.00     0.163 HD
BRANCH   5   7
ATOM      7  C   UNL A   1      34.589  30.836  27.468  1.00  0.00     0.039 A 
ATOM      8  C   UNL A   1      34.947  29.535  27.808  1.00  0.00     0.014 A 
ATOM      9  C   UNL A   1      35.509  31.875  27.649  1.00  0.00     0.014 A 
ATOM     10  C   UNL A   1      36.100  29.308  28.546  1.00  0.00     0.010 A 
ATOM     11  C   UNL A   1      36.736  31.619  28.272  1.00  0.00     0.010 A 
ATOM     12  C   UNL A   1      37.015  30.345  28.786  1.00  0.00    -0.014 A 
BRANCH  12  13
ATOM     13  C   UNL A   1      38.248  30.048  29.566  1.00  0.00     0.031 A 
ATOM     14  C   UNL A   1      38.400  30.508  30.991  1.00  0.00     0.074 A 
ATOM     15  C   UNL A   1      39.207  29.288  28.999  1.00  0.00     0.049 A 
ATOM     16  N   UNL A   1      39.378  30.278  31.833  1.00  0.00    -0.248 NA
ATOM     17  C   UNL A   1      37.324  31.344  31.546  1.00  0.00     0.031 C 
ATOM     18  C   UNL A   1      39.182  28.791  27.622  1.00  0.00     0.029 A 
ATOM     19  N   UNL A   1      40.364  28.764  29.518  1.00  0.00    -0.354 N 
ATOM     20  C   UNL A   1      39.054  30.966  32.996  1.00  0.00     0.074 A 
ATOM     21  C   UNL A   1      37.797  31.640  32.750  1.00  0.00     0.031 C 
ATOM     22  C   UNL A   1      40.225  27.973  27.430  1.00  0.00     0.029 A 
ATOM     23  C   UNL A   1      41.032  27.943  28.644  1.00  0.00     0.049 A 
ATOM     24  H   UNL A   1      40.684  28.960  30.430  1.00  0.00     0.167 HD
ATOM     25  C   UNL A   1      39.739  31.025  34.163  1.00  0.00     0.037 A 
ATOM     26  C   UNL A   1      42.172  27.245  28.797  1.00  0.00     0.037 A 
ATOM     27  C   UNL A   1      40.967  30.319  34.422  1.00  0.00     0.049 A 
ATOM     28  C   UNL A   1      42.898  27.314  30.109  1.00  0.00     0.074 A 
ATOM     29  C   UNL A   1      41.715  30.284  35.587  1.00  0.00     0.029 A 
ATOM     30  N   UNL A   1      41.627  29.518  33.501  1.00  0.00    -0.354 N 
ATOM     31  N   UNL A   1      42.567  27.952  31.204  1.00  0.00    -0.248 NA
ATOM     32  C   UNL A   1      44.160  26.569  30.202  1.00  0.00     0.031 C 
ATOM     33  C   UNL A   1      42.847  29.492  35.359  1.00  0.00     0.029 A 
ATOM     34  C   UNL A   1      42.780  28.997  34.067  1.00  0.00     0.049 A 
ATOM     35  H   UNL A   1      41.321  29.345  32.582  1.00  0.00     0.167 HD
ATOM     36  C   UNL A   1      43.567  27.672  32.123  1.00  0.00     0.074 A 
ATOM     37  C   UNL A   1      44.507  26.790  31.462  1.00  0.00     0.031 C 
ATOM     38  C   UNL A   1      43.699  28.113  33.398  1.00  0.00     0.037 A 
BRANCH  25  39
ATOM     39  C   UNL A   1      39.188  31.900  35.253  1.00  0.00     0.064 A 
ATOM     40  C   UNL A   1      38.413  31.380  36.301  1.00  0.00     0.173 A 
ATOM     41  C   UNL A   1      39.478  33.273  35.271  1.00  0.00     0.173 A 
ATOM     42  F   UNL A   1      38.096  30.077  36.323  1.00  0.00    -0.203 F 
ATOM     43  C   UNL A   1      37.931  32.208  37.314  1.00  0.00     0.198 A 
ATOM     44  C   UNL A   1      39.017  34.092  36.299  1.00  0.00     0.198 A 
ATOM     45  F   UNL A   1      40.219  33.821  34.296  1.00  0.00    -0.203 F 
ATOM     46  F   UNL A   1      37.157  31.697  38.281  1.00  0.00    -0.200 F 
ATOM     47  C   UNL A   1      38.237  33.560  37.316  1.00  0.00     0.200 A 
ATOM     48  F   UNL A   1      39.324  35.397  36.305  1.00  0.00    -0.200 F 
ATOM     49  F   UNL A   1      37.778  34.352  38.294  1.00  0.00    -0.200 F 
ENDBRANCH  25  39
BRANCH  26  50
ATOM     50  C   UNL A   1      42.682  26.411  27.680  1.00  0.00     0.064 A 
ATOM     51  C   UNL A   1      42.295  25.071  27.546  1.00  0.00     0.173 A 
ATOM     52  C   UNL A   1      43.551  26.940  26.714  1.00  0.00     0.173 A 
ATOM     53  F   UNL A   1      41.479  24.515  28.453  1.00  0.00    -0.203 F 
ATOM     54  C   UNL A   1      42.769  24.288  26.495  1.00  0.00     0.198 A 
ATOM     55  C   UNL A   1      44.000  26.165  25.648  1.00  0.00     0.198 A 
ATOM     56  F   UNL A   1      43.944  28.220  26.794  1.00  0.00    -0.203 F 
ATOM     57  F   UNL A   1      42.414  22.999  26.410  1.00  0.00    -0.200 F 
ATOM     58  C   UNL A   1      43.614  24.838  25.543  1.00  0.00     0.200 A 
ATOM     59  F   UNL A   1      44.801  26.707  24.720  1.00  0.00    -0.200 F 
ATOM     60  F   UNL A   1      44.060  24.088  24.526  1.00  0.00    -0.200 F 
ENDBRANCH  26  50
BRANCH  38  61
ATOM     61  C   UNL A   1      44.884  27.614  34.169  1.00  0.00     0.064 A 
ATOM     62  C   UNL A   1      46.099  28.315  34.185  1.00  0.00     0.173 A 
ATOM     63  C   UNL A   1      44.796  26.428  34.913  1.00  0.00     0.173 A 
ATOM     64  F   UNL A   1      46.236  29.445  33.476  1.00  0.00    -0.203 F 
ATOM     65  C   UNL A   1      47.194  27.829  34.895  1.00  0.00     0.198 A 
ATOM     66  C   UNL A   1      45.885  25.960  35.643  1.00  0.00     0.198 A 
ATOM     67  F   UNL A   1      43.655  25.725  34.933  1.00  0.00    -0.203 F 
ATOM     68  F   UNL A   1      48.361  28.487  34.854  1.00  0.00    -0.200 F 
ATOM     69  C   UNL A   1      47.084  26.656  35.627  1.00  0.00     0.200 A 
ATOM     70  F   UNL A   1      45.776  24.832  36.357  1.00  0.00    -0.200 F 
ATOM     71  F   UNL A   1      48.141  26.189  36.308  1.00  0.00    -0.200 F 
ENDBRANCH  38  61
ENDBRANCH  12  13
ENDBRANCH   5   7
ENDBRANCH   2   3
ENDBRANCH   1   2
BRANCH   1  72
ATOM     72  C   UNL A   1      33.133  26.711  25.011  1.00  0.00     0.118 C 
BRANCH  72  73
ATOM     73  N   UNL A   1      33.147  26.515  23.571  1.00  0.00    -0.352 N 
ATOM     74  C   UNL A   1      33.575  25.454  22.817  1.00  0.00     0.251 C 
ATOM     75  H   UNL A   1      32.790  27.270  23.051  1.00  0.00     0.163 HD
ATOM     76  O   UNL A   1      33.653  25.581  21.599  1.00  0.00    -0.269 OA
BRANCH  74  77
ATOM     77  C   UNL A   1      33.938  24.161  23.440  1.00  0.00     0.041 A 
ATOM     78  C   UNL A   1      35.160  24.066  24.113  1.00  0.00     0.022 A 
ATOM     79  C   UNL A   1      33.143  23.027  23.279  1.00  0.00     0.035 A 
ATOM     80  C   UNL A   1      35.588  22.847  24.665  1.00  0.00    -0.013 A 
ATOM     81  C   UNL A   1      33.512  21.829  23.881  1.00  0.00     0.084 A 
ATOM     82  C   UNL A   1      34.730  21.736  24.571  1.00  0.00     0.030 A 
BRANCH  80  83
ATOM     83  C   UNL A   1      36.925  22.737  25.249  1.00  0.00     0.018 A 
ATOM     84  C   UNL A   1      37.514  23.775  25.954  1.00  0.00     0.123 A 
ATOM     85  C   UNL A   1      37.683  21.579  25.223  1.00  0.00     0.123 A 
ATOM     86  N   UNL A   1      38.709  23.697  26.577  1.00  0.00    -0.244 NA
ATOM     87  N   UNL A   1      38.884  21.437  25.826  1.00  0.00    -0.244 NA
ATOM     88  C   UNL A   1      39.335  22.516  26.483  1.00  0.00     0.221 A 
ENDBRANCH  80  83
BRANCH  81  89
ATOM     89  S   UNL A   1      32.478  20.378  23.808  1.00  0.00     0.243 S 
ATOM     90  O   UNL A   1      31.779  20.328  25.075  1.00  0.00    -0.207 OA
ATOM     91  O   UNL A   1      31.778  20.462  22.548  1.00  0.00    -0.207 OA
BRANCH  89  92
ATOM     92  N   UNL A   1      33.491  19.047  23.729  1.00  0.00    -0.198 NA
ATOM     93  C   UNL A   1      33.266  17.943  22.786  1.00  0.00     0.102 C 
ATOM     94  C   UNL A   1      34.301  18.621  24.877  1.00  0.00     0.102 C 
ATOM     95  C   UNL A   1      33.719  16.700  23.544  1.00  0.00     0.018 C 
ATOM     96  C   UNL A   1      34.773  17.218  24.507  1.00  0.00     0.018 C 
ENDBRANCH  89  92
ENDBRANCH  81  89
ENDBRANCH  74  77
ENDBRANCH  72  73
ENDBRANCH   1  72
TORSDOF 13
ENDMDL
MODEL 2
REMARK VINA RESULT:     -13.2      0.610      2.035
REMARK SMILES O=C(NCCCNC(=O)c1cc(-c2cncnc2)cc(S(=O)(=O)N2CCCC2)c1)c1ccc(-c2c3nc(c(-c4c(F)c(F)c(F)c(F)c4F)c4ccc([nH]4)c(-c4c(F)c(F)c(F)c(F)c4F)c4nc(c(-c5c(F)c(F)c(F)c(F)c5F)c5ccc2[nH]5)C=C4)C=C3)cc1
REMARK SMILES IDX 5 1 4 2 3 3 1 4 2 5 30 7 31 8 92 9 32 10 91 11 33 12 34 13
REMARK SMILES IDX 35 14 85 15 36 16 90 17 84 18 86 19 37 20 89 21 83 22 82 23
REMARK SMILES IDX 38 25 70 26 50 27 69 28 51 29 54 30 68 31 87 32 52 33 53 34
REMARK SMILES IDX 67 36 88 37 55 38 39 39 40 40 48 41 41 42 42 43 46 44 49 45
REMARK SMILES IDX 43 46 44 47 47 48 45 49 71 50 72 51 80 52 73 53 74 54 78 55
REMARK SMILES IDX 81 56 75 57 76 58 79 59 77 60 56 61 57 62 65 63 58 64 59 65
REMARK SMILES IDX 63 66 66 67 60 68 61 69 64 70 62 71 6 72 7 73 8 74 9 76
REMARK SMILES IDX 10 77 11 78 29 79 12 80 20 81 19 82 13 83 14 84 18 85 15 86
REMARK SMILES IDX 17 87 16 88 21 89 22 90 23 91 24 92 25 93 28 94 26 95 27 96
REMARK H PARENT 3 6 86 24 54 35 7 75
REMARK Flexibility Score: inf
ROOT
ATOM      1  C   UNL A   1      32.429  28.031  25.835  1.00  0.00     0.042 C 
ENDROOT
BRANCH   1   2
ATOM      2  C   UNL A   1      33.361  29.203  25.578  1.00  0.00     0.118 C 
BRANCH   2   3
ATOM      3  N   UNL A   1      32.900  30.451  26.178  1.00  0.00    -0.352 N 
ATOM      4  O   UNL A   1      32.813  32.175  27.624  1.00  0.00    -0.269 OA
ATOM      5  C   UNL A   1      33.459  31.241  27.158  1.00  0.00     0.251 C 
ATOM      6  H   UNL A   1      32.045  30.785  25.823  1.00  0.00     0.163 HD
BRANCH   5   7
ATOM      7  C   UNL A   1      34.811  30.944  27.685  1.00  0.00     0.039 A 
ATOM      8  C   UNL A   1      35.177  29.645  28.026  1.00  0.00     0.014 A 
ATOM      9  C   UNL A   1      35.729  31.986  27.852  1.00  0.00     0.014 A 
ATOM     10  C   UNL A   1      36.338  29.425  28.754  1.00  0.00     0.010 A 
ATOM     11  C   UNL A   1      36.963  31.737  28.463  1.00  0.00     0.010 A 
ATOM     12  C   UNL A   1      37.252  30.466  28.980  1.00  0.00    -0.014 A 
BRANCH  12  13
ATOM     13  C   UNL A   1      38.493  30.176  29.749  1.00  0.00     0.031 A 
ATOM     14  C   UNL A   1      38.644  30.614  31.182  1.00  0.00     0.074 A 
ATOM     15  C   UNL A   1      39.462  29.443  29.165  1.00  0.00     0.049 A 
ATOM     16  N   UNL A   1      39.630  30.386  32.015  1.00  0.00    -0.248 NA
ATOM     17  C   UNL A   1      37.557  31.421  31.756  1.00  0.00     0.031 C 
ATOM     18  C   UNL A   1      39.438  28.970  27.779  1.00  0.00     0.029 A 
ATOM     19  N   UNL A   1      40.630  28.930  29.670  1.00  0.00    -0.354 N 
ATOM     20  C   UNL A   1      39.300  31.047  33.191  1.00  0.00     0.074 A 
ATOM     21  C   UNL A   1      38.031  31.704  32.963  1.00  0.00     0.031 C 
ATOM     22  C   UNL A   1      40.494  28.172  27.568  1.00  0.00     0.029 A 
ATOM     23  C   UNL A   1      41.307  28.135  28.778  1.00  0.00     0.049 A 
ATOM     24  H   UNL A   1      40.951  29.114  30.583  1.00  0.00     0.167 HD
ATOM     25  C   UNL A   1      39.989  31.098  34.356  1.00  0.00     0.037 A 
ATOM     26  C   UNL A   1      42.460  27.453  28.914  1.00  0.00     0.037 A 
ATOM     27  C   UNL A   1      41.231  30.408  34.597  1.00  0.00     0.049 A 
ATOM     28  C   UNL A   1      43.191  27.511  30.223  1.00  0.00     0.074 A 
ATOM     29  C   UNL A   1      41.985  30.365  35.757  1.00  0.00     0.029 A 
ATOM     30  N   UNL A   1      41.899  29.635  33.659  1.00  0.00    -0.354 N 
ATOM     31  N   UNL A   1      42.854  28.125  31.331  1.00  0.00    -0.248 NA
ATOM     32  C   UNL A   1      44.465  26.787  30.297  1.00  0.00     0.031 C 
ATOM     33  C   UNL A   1      43.128  29.597  35.511  1.00  0.00     0.029 A 
ATOM     34  C   UNL A   1      43.064  29.123  34.210  1.00  0.00     0.049 A 
ATOM     35  H   UNL A   1      41.592  29.472  32.738  1.00  0.00     0.167 HD
ATOM     36  C   UNL A   1      43.864  27.846  32.240  1.00  0.00     0.074 A 
ATOM     37  C   UNL A   1      44.815  26.992  31.560  1.00  0.00     0.031 C 
ATOM     38  C   UNL A   1      43.994  28.267  33.522  1.00  0.00     0.037 A 
BRANCH  25  39
ATOM     39  C   UNL A   1      39.429  31.944  35.464  1.00  0.00     0.064 A 
ATOM     40  C   UNL A   1      39.769  33.298  35.607  1.00  0.00     0.173 A 
ATOM     41  C   UNL A   1      38.504  31.401  36.370  1.00  0.00     0.173 A 
ATOM     42  F   UNL A   1      40.659  33.861  34.777  1.00  0.00    -0.203 F 
ATOM     43  C   UNL A   1      39.221  34.070  36.630  1.00  0.00     0.198 A 
ATOM     44  C   UNL A   1      37.938  32.182  37.374  1.00  0.00     0.198 A 
ATOM     45  F   UNL A   1      38.141  30.114  36.274  1.00  0.00    -0.203 F 
ATOM     46  F   UNL A   1      39.593  35.349  36.774  1.00  0.00    -0.200 F 
ATOM     47  C   UNL A   1      38.302  33.514  37.507  1.00  0.00     0.200 A 
ATOM     48  F   UNL A   1      37.042  31.647  38.214  1.00  0.00    -0.200 F 
ATOM     49  F   UNL A   1      37.771  34.261  38.486  1.00  0.00    -0.200 F 
ENDBRANCH  25  39
BRANCH  26  50
ATOM     50  C   UNL A   1      42.978  26.648  27.779  1.00  0.00     0.064 A 
ATOM     51  C   UNL A   1      43.707  27.247  26.743  1.00  0.00     0.173 A 
ATOM     52  C   UNL A   1      42.772  25.261  27.716  1.00  0.00     0.173 A 
ATOM     53  F   UNL A   1      43.916  28.572  26.751  1.00  0.00    -0.203 F 
ATOM     54  C   UNL A   1      44.199  26.492  25.681  1.00  0.00     0.198 A 
ATOM     55  C   UNL A   1      43.290  24.504  26.669  1.00  0.00     0.198 A 
ATOM     56  F   UNL A   1      42.087  24.640  28.688  1.00  0.00    -0.203 F 
ATOM     57  F   UNL A   1      44.860  27.095  24.684  1.00  0.00    -0.200 F 
ATOM     58  C   UNL A   1      43.997  25.121  25.649  1.00  0.00     0.200 A 
ATOM     59  F   UNL A   1      43.108  23.177  26.653  1.00  0.00    -0.200 F 
ATOM     60  F   UNL A   1      44.480  24.394  24.632  1.00  0.00    -0.200 F 
ENDBRANCH  26  50
BRANCH  38  61
ATOM     61  C   UNL A   1      45.191  27.774  34.279  1.00  0.00     0.064 A 
ATOM     62  C   UNL A   1      45.144  26.604  35.049  1.00  0.00     0.173 A 
ATOM     63  C   UNL A   1      46.404  28.477  34.219  1.00  0.00     0.173 A 
ATOM     64  F   UNL A   1      44.002  25.908  35.151  1.00  0.00    -0.203 F 
ATOM     65  C   UNL A   1      46.261  26.170  35.758  1.00  0.00     0.198 A 
ATOM     66  C   UNL A   1      47.526  28.024  34.907  1.00  0.00     0.198 A 
ATOM     67  F   UNL A   1      46.501  29.599  33.492  1.00  0.00    -0.203 F 
ATOM     68  F   UNL A   1      46.179  25.078  36.530  1.00  0.00    -0.200 F 
ATOM     69  C   UNL A   1      47.452  26.877  35.682  1.00  0.00     0.200 A 
ATOM     70  F   UNL A   1      48.679  28.703  34.825  1.00  0.00    -0.200 F 
ATOM     71  F   UNL A   1      48.526  26.458  36.366  1.00  0.00    -0.200 F 
ENDBRANCH  38  61
ENDBRANCH  12  13
ENDBRANCH   5   7
ENDBRANCH   2   3
ENDBRANCH   1   2
BRANCH   1  72
ATOM     72  C   UNL A   1      33.060  26.677  25.568  1.00  0.00     0.118 C 
BRANCH  72  73
ATOM     73  N   UNL A   1      33.183  26.377  24.151  1.00  0.00    -0.352 N 
ATOM     74  C   UNL A   1      33.764  25.315  23.509  1.00  0.00     0.251 C 
ATOM     75  H   UNL A   1      32.783  27.049  23.554  1.00  0.00     0.163 HD
ATOM     76  O   UNL A   1      33.903  25.359  22.290  1.00  0.00    -0.269 OA
BRANCH  74  77
ATOM     77  C   UNL A   1      34.218  24.117  24.252  1.00  0.00     0.041 A 
ATOM     78  C   UNL A   1      35.513  24.112  24.778  1.00  0.00     0.022 A 
ATOM     79  C   UNL A   1      33.426  22.974  24.344  1.00  0.00     0.035 A 
ATOM     80  C   UNL A   1      36.023  22.979  25.433  1.00  0.00    -0.013 A 
ATOM     81  C   UNL A   1      33.881  21.869  25.052  1.00  0.00     0.084 A 
ATOM     82  C   UNL A   1      35.175  21.867  25.595  1.00  0.00     0.030 A 
BRANCH  80  83
ATOM     83  C   UNL A   1      37.422  22.947  25.858  1.00  0.00     0.018 A 
ATOM     84  C   UNL A   1      38.029  24.017  26.495  1.00  0.00     0.123 A 
ATOM     85  C   UNL A   1      38.237  21.833  25.741  1.00  0.00     0.123 A 
ATOM     86  N   UNL A   1      39.290  24.009  26.976  1.00  0.00    -0.244 NA
ATOM     87  N   UNL A   1      39.505  21.761  26.200  1.00  0.00    -0.244 NA
ATOM     88  C   UNL A   1      39.967  22.864  26.806  1.00  0.00     0.221 A 
ENDBRANCH  80  83
BRANCH  81  89
ATOM     89  S   UNL A   1      32.868  20.424  25.304  1.00  0.00     0.243 S 
ATOM     90  O   UNL A   1      33.283  19.866  26.574  1.00  0.00    -0.207 OA
ATOM     91  O   UNL A   1      31.510  20.854  25.061  1.00  0.00    -0.207 OA
BRANCH  89  92
ATOM     92  N   UNL A   1      33.263  19.321  24.107  1.00  0.00    -0.198 NA
ATOM     93  C   UNL A   1      32.492  19.202  22.862  1.00  0.00     0.102 C 
ATOM     94  C   UNL A   1      34.006  18.090  24.403  1.00  0.00     0.102 C 
ATOM     95  C   UNL A   1      32.537  17.715  22.531  1.00  0.00     0.018 C 
ATOM     96  C   UNL A   1      33.839  17.237  23.149  1.00  0.00     0.018 C 
ENDBRANCH  89  92
ENDBRANCH  81  89
ENDBRANCH  74  77
ENDBRANCH  72  73
ENDBRANCH   1  72
TORSDOF 13
ENDMDL
MODEL 3
REMARK VINA RESULT:     -13.2      1.703      3.134
REMARK SMILES O=C(NCCCNC(=O)c1cc(-c2cncnc2)cc(S(=O)(=O)N2CCCC2)c1)c1ccc(-c2c3nc(c(-c4c(F)c(F)c(F)c(F)c4F)c4ccc([nH]4)c(-c4c(F)c(F)c(F)c(F)c4F)c4nc(c(-c5c(F)c(F)c(F)c(F)c5F)c5ccc2[nH]5)C=C4)C=C3)cc1
REMARK SMILES IDX 5 1 4 2 3 3 1 4 2 5 30 7 31 8 92 9 32 10 91 11 33 12 34 13
REMARK SMILES IDX 35 14 85 15 36 16 90 17 84 18 86 19 37 20 89 21 83 22 82 23
REMARK SMILES IDX 38 25 70 26 50 27 69 28 51 29 54 30 68 31 87 32 52 33 53 34
REMARK SMILES IDX 67 36 88 37 55 38 39 39 40 40 48 41 41 42 42 43 46 44 49 45
REMARK SMILES IDX 43 46 44 47 47 48 45 49 71 50 72 51 80 52 73 53 74 54 78 55
REMARK SMILES IDX 81 56 75 57 76 58 79 59 77 60 56 61 57 62 65 63 58 64 59 65
REMARK SMILES IDX 63 66 66 67 60 68 61 69 64 70 62 71 6 72 7 73 8 74 9 76
REMARK SMILES IDX 10 77 11 78 29 79 12 80 20 81 19 82 13 83 14 84 18 85 15 86
REMARK SMILES IDX 17 87 16 88 21 89 22 90 23 91 24 92 25 93 28 94 26 95 27 96
REMARK H PARENT 3 6 86 24 54 35 7 75
REMARK Flexibility Score: inf
ROOT
ATOM      1  C   UNL A   1      31.679  28.355  27.234  1.00  0.00     0.042 C 
ENDROOT
BRANCH   1   2
ATOM      2  C   UNL A   1      32.637  29.201  26.412  1.00  0.00     0.118 C 
BRANCH   2   3
ATOM      3  N   UNL A   1      32.456  30.635  26.608  1.00  0.00    -0.352 N 
ATOM      4  O   UNL A   1      32.816  32.700  27.432  1.00  0.00    -0.269 OA
ATOM      5  C   UNL A   1      33.244  31.564  27.252  1.00  0.00     0.251 C 
ATOM      6  H   UNL A   1      31.631  31.002  26.215  1.00  0.00     0.163 HD
BRANCH   5   7
ATOM      7  C   UNL A   1      34.581  31.190  27.767  1.00  0.00     0.039 A 
ATOM      8  C   UNL A   1      34.898  29.861  28.034  1.00  0.00     0.014 A 
ATOM      9  C   UNL A   1      35.533  32.187  28.001  1.00  0.00     0.014 A 
ATOM     10  C   UNL A   1      36.046  29.558  28.754  1.00  0.00     0.010 A 
ATOM     11  C   UNL A   1      36.753  31.860  28.603  1.00  0.00     0.010 A 
ATOM     12  C   UNL A   1      36.993  30.551  29.046  1.00  0.00    -0.014 A 
BRANCH  12  13
ATOM     13  C   UNL A   1      38.218  30.174  29.803  1.00  0.00     0.031 A 
ATOM     14  C   UNL A   1      38.421  30.614  31.228  1.00  0.00     0.074 A 
ATOM     15  C   UNL A   1      39.119  29.360  29.216  1.00  0.00     0.049 A 
ATOM     16  N   UNL A   1      39.397  30.319  32.052  1.00  0.00    -0.248 NA
ATOM     17  C   UNL A   1      37.409  31.511  31.806  1.00  0.00     0.031 C 
ATOM     18  C   UNL A   1      39.040  28.875  27.836  1.00  0.00     0.029 A 
ATOM     19  N   UNL A   1      40.250  28.763  29.713  1.00  0.00    -0.354 N 
ATOM     20  C   UNL A   1      39.136  31.017  33.224  1.00  0.00     0.074 A 
ATOM     21  C   UNL A   1      37.919  31.769  33.003  1.00  0.00     0.031 C 
ATOM     22  C   UNL A   1      40.028  27.995  27.622  1.00  0.00     0.029 A 
ATOM     23  C   UNL A   1      40.851  27.907  28.822  1.00  0.00     0.049 A 
ATOM     24  H   UNL A   1      40.596  28.931  30.619  1.00  0.00     0.167 HD
ATOM     25  C   UNL A   1      39.842  31.026  34.380  1.00  0.00     0.037 A 
ATOM     26  C   UNL A   1      41.948  27.139  28.952  1.00  0.00     0.037 A 
ATOM     27  C   UNL A   1      41.029  30.244  34.614  1.00  0.00     0.049 A 
ATOM     28  C   UNL A   1      42.699  27.154  30.252  1.00  0.00     0.074 A 
ATOM     29  C   UNL A   1      41.792  30.155  35.766  1.00  0.00     0.029 A 
ATOM     30  N   UNL A   1      41.622  29.411  33.678  1.00  0.00    -0.354 N 
ATOM     31  N   UNL A   1      42.426  27.805  31.356  1.00  0.00    -0.248 NA
ATOM     32  C   UNL A   1      43.914  26.333  30.320  1.00  0.00     0.031 C 
ATOM     33  C   UNL A   1      42.869  29.297  35.514  1.00  0.00     0.029 A 
ATOM     34  C   UNL A   1      42.750  28.815  34.221  1.00  0.00     0.049 A 
ATOM     35  H   UNL A   1      41.291  29.262  32.762  1.00  0.00     0.167 HD
ATOM     36  C   UNL A   1      43.422  27.458  32.256  1.00  0.00     0.074 A 
ATOM     37  C   UNL A   1      44.295  26.524  31.575  1.00  0.00     0.031 C 
ATOM     38  C   UNL A   1      43.602  27.881  33.531  1.00  0.00     0.037 A 
BRANCH  25  39
ATOM     39  C   UNL A   1      39.365  31.926  35.484  1.00  0.00     0.064 A 
ATOM     40  C   UNL A   1      38.494  31.472  36.486  1.00  0.00     0.173 A 
ATOM     41  C   UNL A   1      39.822  33.251  35.563  1.00  0.00     0.173 A 
ATOM     42  F   UNL A   1      38.017  30.219  36.449  1.00  0.00    -0.203 F 
ATOM     43  C   UNL A   1      38.081  32.319  37.514  1.00  0.00     0.198 A 
ATOM     44  C   UNL A   1      39.428  34.086  36.606  1.00  0.00     0.198 A 
ATOM     45  F   UNL A   1      40.659  33.734  34.634  1.00  0.00    -0.203 F 
ATOM     46  F   UNL A   1      37.215  31.877  38.436  1.00  0.00    -0.200 F 
ATOM     47  C   UNL A   1      38.552  33.621  37.576  1.00  0.00     0.200 A 
ATOM     48  F   UNL A   1      39.894  35.341  36.671  1.00  0.00    -0.200 F 
ATOM     49  F   UNL A   1      38.159  34.432  38.569  1.00  0.00    -0.200 F 
ENDBRANCH  25  39
BRANCH  26  50
ATOM     50  C   UNL A   1      42.387  26.283  27.822  1.00  0.00     0.064 A 
ATOM     51  C   UNL A   1      41.803  25.029  27.597  1.00  0.00     0.173 A 
ATOM     52  C   UNL A   1      43.387  26.707  26.933  1.00  0.00     0.173 A 
ATOM     53  F   UNL A   1      40.855  24.573  28.430  1.00  0.00    -0.203 F 
ATOM     54  C   UNL A   1      42.210  24.227  26.534  1.00  0.00     0.198 A 
ATOM     55  C   UNL A   1      43.771  25.916  25.853  1.00  0.00     0.198 A 
ATOM     56  F   UNL A   1      43.972  27.902  27.100  1.00  0.00    -0.203 F 
ATOM     57  F   UNL A   1      41.661  23.017  26.363  1.00  0.00    -0.200 F 
ATOM     58  C   UNL A   1      43.187  24.674  25.658  1.00  0.00     0.200 A 
ATOM     59  F   UNL A   1      44.703  26.361  24.999  1.00  0.00    -0.200 F 
ATOM     60  F   UNL A   1      43.571  23.906  24.629  1.00  0.00    -0.200 F 
ENDBRANCH  26  50
BRANCH  38  61
ATOM     61  C   UNL A   1      44.767  27.305  34.280  1.00  0.00     0.064 A 
ATOM     62  C   UNL A   1      46.017  27.939  34.295  1.00  0.00     0.173 A 
ATOM     63  C   UNL A   1      44.623  26.111  35.003  1.00  0.00     0.173 A 
ATOM     64  F   UNL A   1      46.208  29.073  33.604  1.00  0.00    -0.203 F 
ATOM     65  C   UNL A   1      47.092  27.382  34.982  1.00  0.00     0.198 A 
ATOM     66  C   UNL A   1      45.692  25.572  35.711  1.00  0.00     0.198 A 
ATOM     67  F   UNL A   1      43.445  25.470  35.023  1.00  0.00    -0.203 F 
ATOM     68  F   UNL A   1      48.293  27.976  34.940  1.00  0.00    -0.200 F 
ATOM     69  C   UNL A   1      46.927  26.202  35.694  1.00  0.00     0.200 A 
ATOM     70  F   UNL A   1      45.530  24.438  36.406  1.00  0.00    -0.200 F 
ATOM     71  F   UNL A   1      47.964  25.667  36.354  1.00  0.00    -0.200 F 
ENDBRANCH  38  61
ENDBRANCH  12  13
ENDBRANCH   5   7
ENDBRANCH   2   3
ENDBRANCH   1   2
BRANCH   1  72
ATOM     72  C   UNL A   1      30.963  27.284  26.432  1.00  0.00     0.118 C 
BRANCH  72  73
ATOM     73  N   UNL A   1      31.018  25.974  27.058  1.00  0.00    -0.352 N 
ATOM     74  C   UNL A   1      31.668  24.828  26.681  1.00  0.00     0.251 C 
ATOM     75  H   UNL A   1      30.500  25.896  27.891  1.00  0.00     0.163 HD
ATOM     76  O   UNL A   1      31.428  23.782  27.276  1.00  0.00    -0.269 OA
BRANCH  74  77
ATOM     77  C   UNL A   1      32.657  24.830  25.578  1.00  0.00     0.041 A 
ATOM     78  C   UNL A   1      33.789  24.019  25.699  1.00  0.00     0.022 A 
ATOM     79  C   UNL A   1      32.532  25.691  24.490  1.00  0.00     0.035 A 
ATOM     80  C   UNL A   1      34.794  24.031  24.717  1.00  0.00    -0.013 A 
ATOM     81  C   UNL A   1      33.476  25.665  23.471  1.00  0.00     0.084 A 
ATOM     82  C   UNL A   1      34.606  24.840  23.582  1.00  0.00     0.030 A 
BRANCH  80  83
ATOM     83  C   UNL A   1      36.030  23.275  24.926  1.00  0.00     0.018 A 
ATOM     84  C   UNL A   1      37.040  23.721  25.764  1.00  0.00     0.123 A 
ATOM     85  C   UNL A   1      36.269  22.025  24.380  1.00  0.00     0.123 A 
ATOM     86  N   UNL A   1      38.161  23.026  26.049  1.00  0.00    -0.244 NA
ATOM     87  N   UNL A   1      37.369  21.280  24.626  1.00  0.00    -0.244 NA
ATOM     88  C   UNL A   1      38.264  21.825  25.463  1.00  0.00     0.221 A 
ENDBRANCH  80  83
BRANCH  81  89
ATOM     89  S   UNL A   1      33.307  26.658  21.999  1.00  0.00     0.243 S 
ATOM     90  O   UNL A   1      34.430  27.572  22.009  1.00  0.00    -0.207 OA
ATOM     91  O   UNL A   1      33.089  25.721  20.921  1.00  0.00    -0.207 OA
BRANCH  89  92
ATOM     92  N   UNL A   1      31.909  27.563  22.165  1.00  0.00    -0.198 NA
ATOM     93  C   UNL A   1      31.924  28.953  22.641  1.00  0.00     0.102 C 
ATOM     94  C   UNL A   1      30.599  26.934  22.375  1.00  0.00     0.102 C 
ATOM     95  C   UNL A   1      30.640  29.090  23.451  1.00  0.00     0.018 C 
ATOM     96  C   UNL A   1      29.696  28.081  22.821  1.00  0.00     0.018 C 
ENDBRANCH  89  92
ENDBRANCH  81  89
ENDBRANCH  74  77
ENDBRANCH  72  73
ENDBRANCH   1  72
TORSDOF 13
ENDMDL
