MODEL 1
REMARK VINA RESULT:     -12.7      0.000      0.000
REMARK SMILES Cc1cccc(NS(=O)(=O)Cc2ccc(C(=O)NCCCNC(=O)c3ccc(-c4c5nc(c(-c6c(F)c(F)c(F)c(F)c6F)c6ccc([nH]6)c(-c6c(F)c(F)c(F)c(F)c6F)c6nc(c(-c7c(F)c(F)c(F)c(F)c7F)c7ccc4[nH]7)C=C6)C=C5)cc3)cc2)n1
REMARK SMILES IDX 19 1 18 2 16 3 17 4 15 6 12 7 13 8 89 9 14 10 88 11 11 12
REMARK SMILES IDX 8 13 9 14 10 15 7 16 6 18 1 19 2 20 3 21 90 22 4 23 5 24
REMARK SMILES IDX 20 25 21 26 22 27 23 28 24 30 25 31 26 32 87 33 27 34 86 35
REMARK SMILES IDX 28 36 29 37 30 38 80 39 31 40 85 41 79 42 81 43 32 44 84 45
REMARK SMILES IDX 78 46 77 47 33 49 65 50 45 51 64 52 46 53 49 54 63 55 82 56
REMARK SMILES IDX 47 57 48 58 62 60 83 61 50 62 34 63 35 64 43 65 36 66 37 67
REMARK SMILES IDX 41 68 44 69 38 70 39 71 42 72 40 73 66 74 67 75 75 76 68 77
REMARK SMILES IDX 69 78 73 79 76 80 70 81 71 82 74 83 72 84 51 85 52 86 60 87
REMARK SMILES IDX 53 88 54 89 58 90 61 91 55 92 56 93 59 94 57 95
REMARK H PARENT 18 5 7 17 22 29 81 48 49 59
REMARK Flexibility Score: inf
ROOT
ATOM      1  C   UNL A   1      37.606  20.784  24.787  1.00  0.00     0.118 C 
ENDROOT
BRANCH   1   2
ATOM      2  N   UNL A   1      38.140  21.974  25.420  1.00  0.00    -0.352 N 
ATOM      3  C   UNL A   1      37.601  23.228  25.511  1.00  0.00     0.251 C 
ATOM      4  O   UNL A   1      38.192  24.097  26.147  1.00  0.00    -0.269 OA
ATOM      5  H   UNL A   1      39.021  21.864  25.846  1.00  0.00     0.163 HD
BRANCH   3   6
ATOM      6  C   UNL A   1      36.286  23.529  24.909  1.00  0.00     0.039 A 
ATOM      7  C   UNL A   1      33.836  24.347  23.824  1.00  0.00    -0.031 A 
ATOM      8  C   UNL A   1      34.139  24.585  25.173  1.00  0.00     0.005 A 
ATOM      9  C   UNL A   1      34.733  23.603  23.049  1.00  0.00     0.005 A 
ATOM     10  C   UNL A   1      35.367  24.207  25.707  1.00  0.00     0.014 A 
ATOM     11  C   UNL A   1      35.966  23.221  23.583  1.00  0.00     0.014 A 
BRANCH   7  12
ATOM     12  C   UNL A   1      32.583  24.959  23.245  1.00  0.00     0.195 C 
BRANCH  12  13
ATOM     13  S   UNL A   1      32.874  26.612  22.562  1.00  0.00     0.238 S 
ATOM     14  O   UNL A   1      33.979  26.569  21.628  1.00  0.00    -0.206 OA
ATOM     15  O   UNL A   1      32.947  27.529  23.690  1.00  0.00    -0.206 OA
BRANCH  13  16
ATOM     16  N   UNL A   1      31.505  27.085  21.764  1.00  0.00    -0.267 N 
ATOM     17  H   UNL A   1      31.399  26.830  20.819  1.00  0.00     0.181 HD
BRANCH  16  18
ATOM     18  C   UNL A   1      30.485  27.837  22.377  1.00  0.00     0.139 A 
ATOM     19  C   UNL A   1      28.783  30.996  21.594  1.00  0.00     0.067 C 
ATOM     20  C   UNL A   1      29.083  29.668  22.224  1.00  0.00     0.040 A 
ATOM     21  C   UNL A   1      28.114  29.046  23.004  1.00  0.00     0.023 A 
ATOM     22  N   UNL A   1      30.262  29.074  21.901  1.00  0.00    -0.235 NA
ATOM     23  C   UNL A   1      28.375  27.777  23.503  1.00  0.00     0.006 A 
ATOM     24  C   UNL A   1      29.575  27.156  23.175  1.00  0.00     0.048 A 
ENDBRANCH  16  18
ENDBRANCH  13  16
ENDBRANCH  12  13
ENDBRANCH   7  12
ENDBRANCH   3   6
ENDBRANCH   1   2
BRANCH   1  25
ATOM     25  C   UNL A   1      38.524  19.589  25.017  1.00  0.00     0.042 C 
BRANCH  25  26
ATOM     26  C   UNL A   1      39.462  19.783  26.202  1.00  0.00     0.118 C 
BRANCH  26  27
ATOM     27  N   UNL A   1      40.612  18.895  26.129  1.00  0.00    -0.352 N 
ATOM     28  C   UNL A   1      41.943  19.203  26.026  1.00  0.00     0.251 C 
ATOM     29  H   UNL A   1      40.403  17.933  26.158  1.00  0.00     0.163 HD
ATOM     30  O   UNL A   1      42.751  18.333  25.713  1.00  0.00    -0.269 OA
BRANCH  28  31
ATOM     31  C   UNL A   1      42.409  20.580  26.291  1.00  0.00     0.039 A 
ATOM     32  C   UNL A   1      42.675  21.424  25.209  1.00  0.00     0.014 A 
ATOM     33  C   UNL A   1      42.621  21.025  27.599  1.00  0.00     0.014 A 
ATOM     34  C   UNL A   1      43.115  22.727  25.441  1.00  0.00     0.010 A 
ATOM     35  C   UNL A   1      42.980  22.347  27.831  1.00  0.00     0.010 A 
ATOM     36  C   UNL A   1      43.249  23.206  26.754  1.00  0.00    -0.014 A 
BRANCH  36  37
ATOM     37  C   UNL A   1      43.696  24.592  27.026  1.00  0.00     0.031 A 
ATOM     38  C   UNL A   1      42.720  25.610  27.542  1.00  0.00     0.074 A 
ATOM     39  C   UNL A   1      44.964  24.947  26.746  1.00  0.00     0.049 A 
ATOM     40  N   UNL A   1      42.900  26.883  27.790  1.00  0.00    -0.248 NA
ATOM     41  C   UNL A   1      41.345  25.142  27.782  1.00  0.00     0.031 C 
ATOM     42  C   UNL A   1      45.990  24.056  26.200  1.00  0.00     0.029 A 
ATOM     43  N   UNL A   1      45.605  26.152  26.878  1.00  0.00    -0.354 N 
ATOM     44  C   UNL A   1      41.661  27.368  28.190  1.00  0.00     0.074 A 
ATOM     45  C   UNL A   1      40.726  26.267  28.100  1.00  0.00     0.031 C 
ATOM     46  C   UNL A   1      47.141  24.736  26.077  1.00  0.00     0.029 A 
ATOM     47  C   UNL A   1      46.924  26.118  26.499  1.00  0.00     0.049 A 
ATOM     48  H   UNL A   1      45.162  26.965  27.212  1.00  0.00     0.167 HD
ATOM     49  C   UNL A   1      41.340  28.614  28.613  1.00  0.00     0.037 A 
ATOM     50  C   UNL A   1      47.852  27.092  26.494  1.00  0.00     0.037 A 
ATOM     51  C   UNL A   1      42.285  29.693  28.729  1.00  0.00     0.049 A 
ATOM     52  C   UNL A   1      47.470  28.468  26.965  1.00  0.00     0.074 A 
ATOM     53  C   UNL A   1      42.084  30.968  29.226  1.00  0.00     0.029 A 
ATOM     54  N   UNL A   1      43.614  29.621  28.335  1.00  0.00    -0.354 N 
ATOM     55  N   UNL A   1      46.317  28.897  27.418  1.00  0.00    -0.248 NA
ATOM     56  C   UNL A   1      48.521  29.493  26.928  1.00  0.00     0.031 C 
ATOM     57  C   UNL A   1      43.278  31.685  29.083  1.00  0.00     0.029 A 
ATOM     58  C   UNL A   1      44.238  30.840  28.548  1.00  0.00     0.049 A 
ATOM     59  H   UNL A   1      44.049  28.821  27.960  1.00  0.00     0.167 HD
ATOM     60  C   UNL A   1      46.509  30.232  27.747  1.00  0.00     0.074 A 
ATOM     61  C   UNL A   1      47.894  30.538  27.451  1.00  0.00     0.031 C 
ATOM     62  C   UNL A   1      45.620  31.124  28.250  1.00  0.00     0.037 A 
BRANCH  49  63
ATOM     63  C   UNL A   1      39.903  28.872  28.972  1.00  0.00     0.064 A 
ATOM     64  C   UNL A   1      39.415  28.670  30.273  1.00  0.00     0.173 A 
ATOM     65  C   UNL A   1      39.002  29.333  28.000  1.00  0.00     0.173 A 
ATOM     66  F   UNL A   1      40.231  28.219  31.237  1.00  0.00    -0.203 F 
ATOM     67  C   UNL A   1      38.072  28.877  30.576  1.00  0.00     0.198 A 
ATOM     68  C   UNL A   1      37.667  29.572  28.315  1.00  0.00     0.198 A 
ATOM     69  F   UNL A   1      39.415  29.551  26.742  1.00  0.00    -0.203 F 
ATOM     70  F   UNL A   1      37.617  28.613  31.808  1.00  0.00    -0.200 F 
ATOM     71  C   UNL A   1      37.200  29.333  29.598  1.00  0.00     0.200 A 
ATOM     72  F   UNL A   1      36.829  30.024  27.372  1.00  0.00    -0.200 F 
ATOM     73  F   UNL A   1      35.907  29.529  29.891  1.00  0.00    -0.200 F 
ENDBRANCH  49  63
BRANCH  50  74
ATOM     74  C   UNL A   1      49.244  26.783  26.078  1.00  0.00     0.064 A 
ATOM     75  C   UNL A   1      49.649  26.977  24.750  1.00  0.00     0.173 A 
ATOM     76  C   UNL A   1      50.198  26.313  26.990  1.00  0.00     0.173 A 
ATOM     77  F   UNL A   1      48.766  27.408  23.837  1.00  0.00    -0.203 F 
ATOM     78  C   UNL A   1      50.953  26.702  24.347  1.00  0.00     0.198 A 
ATOM     79  C   UNL A   1      51.510  26.062  26.593  1.00  0.00     0.198 A 
ATOM     80  F   UNL A   1      49.861  26.116  28.273  1.00  0.00    -0.203 F 
ATOM     81  F   UNL A   1      51.305  26.864  23.065  1.00  0.00    -0.200 F 
ATOM     82  C   UNL A   1      51.885  26.251  25.270  1.00  0.00     0.200 A 
ATOM     83  F   UNL A   1      52.411  25.640  27.490  1.00  0.00    -0.200 F 
ATOM     84  F   UNL A   1      53.143  25.996  24.885  1.00  0.00    -0.200 F 
ENDBRANCH  50  74
BRANCH  62  85
ATOM     85  C   UNL A   1      46.128  32.504  28.545  1.00  0.00     0.064 A 
ATOM     86  C   UNL A   1      46.040  33.540  27.602  1.00  0.00     0.173 A 
ATOM     87  C   UNL A   1      46.677  32.805  29.801  1.00  0.00     0.173 A 
ATOM     88  F   UNL A   1      45.538  33.299  26.381  1.00  0.00    -0.203 F 
ATOM     89  C   UNL A   1      46.507  34.817  27.897  1.00  0.00     0.198 A 
ATOM     90  C   UNL A   1      47.114  34.090  30.104  1.00  0.00     0.198 A 
ATOM     91  F   UNL A   1      46.778  31.852  30.740  1.00  0.00    -0.203 F 
ATOM     92  F   UNL A   1      46.457  35.778  26.965  1.00  0.00    -0.200 F 
ATOM     93  C   UNL A   1      47.036  35.094  29.150  1.00  0.00     0.200 A 
ATOM     94  F   UNL A   1      47.613  34.359  31.318  1.00  0.00    -0.200 F 
ATOM     95  F   UNL A   1      47.478  36.326  29.434  1.00  0.00    -0.200 F 
ENDBRANCH  62  85
ENDBRANCH  36  37
ENDBRANCH  28  31
ENDBRANCH  26  27
ENDBRANCH  25  26
ENDBRANCH   1  25
TORSDOF 14
ENDMDL
MODEL 2
REMARK VINA RESULT:     -12.6      0.759      2.166
REMARK SMILES Cc1cccc(NS(=O)(=O)Cc2ccc(C(=O)NCCCNC(=O)c3ccc(-c4c5nc(c(-c6c(F)c(F)c(F)c(F)c6F)c6ccc([nH]6)c(-c6c(F)c(F)c(F)c(F)c6F)c6nc(c(-c7c(F)c(F)c(F)c(F)c7F)c7ccc4[nH]7)C=C6)C=C5)cc3)cc2)n1
REMARK SMILES IDX 19 1 18 2 16 3 17 4 15 6 12 7 13 8 89 9 14 10 88 11 11 12
REMARK SMILES IDX 8 13 9 14 10 15 7 16 6 18 1 19 2 20 3 21 90 22 4 23 5 24
REMARK SMILES IDX 20 25 21 26 22 27 23 28 24 30 25 31 26 32 87 33 27 34 86 35
REMARK SMILES IDX 28 36 29 37 30 38 80 39 31 40 85 41 79 42 81 43 32 44 84 45
REMARK SMILES IDX 78 46 77 47 33 49 65 50 45 51 64 52 46 53 49 54 63 55 82 56
REMARK SMILES IDX 47 57 48 58 62 60 83 61 50 62 34 63 35 64 43 65 36 66 37 67
REMARK SMILES IDX 41 68 44 69 38 70 39 71 42 72 40 73 66 74 67 75 75 76 68 77
REMARK SMILES IDX 69 78 73 79 76 80 70 81 71 82 74 83 72 84 51 85 52 86 60 87
REMARK SMILES IDX 53 88 54 89 58 90 61 91 55 92 56 93 59 94 57 95
REMARK H PARENT 18 5 7 17 22 29 81 48 49 59
REMARK Flexibility Score: inf
ROOT
ATOM      1  C   UNL A   1      37.567  20.766  24.815  1.00  0.00     0.118 C 
ENDROOT
BRANCH   1   2
ATOM      2  N   UNL A   1      38.116  21.955  25.437  1.00  0.00    -0.352 N 
ATOM      3  C   UNL A   1      37.593  23.216  25.517  1.00  0.00     0.251 C 
ATOM      4  O   UNL A   1      38.194  24.083  26.146  1.00  0.00    -0.269 OA
ATOM      5  H   UNL A   1      38.995  21.838  25.865  1.00  0.00     0.163 HD
BRANCH   3   6
ATOM      6  C   UNL A   1      36.282  23.528  24.912  1.00  0.00     0.039 A 
ATOM      7  C   UNL A   1      33.842  24.367  23.818  1.00  0.00    -0.031 A 
ATOM      8  C   UNL A   1      34.147  24.611  25.166  1.00  0.00     0.005 A 
ATOM      9  C   UNL A   1      34.731  23.607  23.050  1.00  0.00     0.005 A 
ATOM     10  C   UNL A   1      35.370  24.222  25.704  1.00  0.00     0.014 A 
ATOM     11  C   UNL A   1      35.959  23.214  23.587  1.00  0.00     0.014 A 
BRANCH   7  12
ATOM     12  C   UNL A   1      32.597  24.989  23.234  1.00  0.00     0.195 C 
BRANCH  12  13
ATOM     13  S   UNL A   1      32.904  26.642  22.558  1.00  0.00     0.238 S 
ATOM     14  O   UNL A   1      34.011  26.594  21.627  1.00  0.00    -0.206 OA
ATOM     15  O   UNL A   1      32.981  27.554  23.689  1.00  0.00    -0.206 OA
BRANCH  13  16
ATOM     16  N   UNL A   1      31.541  27.129  21.757  1.00  0.00    -0.267 N 
ATOM     17  H   UNL A   1      31.448  26.900  20.805  1.00  0.00     0.181 HD
BRANCH  16  18
ATOM     18  C   UNL A   1      30.509  27.858  22.379  1.00  0.00     0.139 A 
ATOM     19  C   UNL A   1      28.755  30.997  21.628  1.00  0.00     0.067 C 
ATOM     20  C   UNL A   1      29.077  29.667  22.245  1.00  0.00     0.040 A 
ATOM     21  C   UNL A   1      28.120  29.021  23.019  1.00  0.00     0.023 A 
ATOM     22  N   UNL A   1      30.265  29.096  21.915  1.00  0.00    -0.235 NA
ATOM     23  C   UNL A   1      28.402  27.752  23.505  1.00  0.00     0.006 A 
ATOM     24  C   UNL A   1      29.612  27.154  23.170  1.00  0.00     0.048 A 
ENDBRANCH  16  18
ENDBRANCH  13  16
ENDBRANCH  12  13
ENDBRANCH   7  12
ENDBRANCH   3   6
ENDBRANCH   1   2
BRANCH   1  25
ATOM     25  C   UNL A   1      38.501  19.576  25.002  1.00  0.00     0.042 C 
BRANCH  25  26
ATOM     26  C   UNL A   1      39.492  19.776  26.141  1.00  0.00     0.118 C 
BRANCH  26  27
ATOM     27  N   UNL A   1      40.686  18.963  25.965  1.00  0.00    -0.352 N 
ATOM     28  C   UNL A   1      41.997  19.350  25.872  1.00  0.00     0.251 C 
ATOM     29  H   UNL A   1      40.529  17.992  25.902  1.00  0.00     0.163 HD
ATOM     30  O   UNL A   1      42.843  18.560  25.464  1.00  0.00    -0.269 OA
BRANCH  28  31
ATOM     31  C   UNL A   1      42.395  20.718  26.264  1.00  0.00     0.039 A 
ATOM     32  C   UNL A   1      42.393  21.062  27.619  1.00  0.00     0.014 A 
ATOM     33  C   UNL A   1      42.731  21.671  25.298  1.00  0.00     0.014 A 
ATOM     34  C   UNL A   1      42.766  22.349  28.006  1.00  0.00     0.010 A 
ATOM     35  C   UNL A   1      43.181  22.926  25.689  1.00  0.00     0.010 A 
ATOM     36  C   UNL A   1      43.184  23.284  27.046  1.00  0.00    -0.014 A 
BRANCH  36  37
ATOM     37  C   UNL A   1      43.604  24.651  27.435  1.00  0.00     0.031 A 
ATOM     38  C   UNL A   1      42.574  25.670  27.831  1.00  0.00     0.074 A 
ATOM     39  C   UNL A   1      44.905  24.990  27.369  1.00  0.00     0.049 A 
ATOM     40  N   UNL A   1      42.732  26.929  28.152  1.00  0.00    -0.248 NA
ATOM     41  C   UNL A   1      41.172  25.222  27.837  1.00  0.00     0.031 C 
ATOM     42  C   UNL A   1      45.990  24.097  26.956  1.00  0.00     0.029 A 
ATOM     43  N   UNL A   1      45.535  26.176  27.644  1.00  0.00    -0.354 N 
ATOM     44  C   UNL A   1      41.453  27.425  28.372  1.00  0.00     0.074 A 
ATOM     45  C   UNL A   1      40.528  26.348  28.097  1.00  0.00     0.031 C 
ATOM     46  C   UNL A   1      47.156  24.758  27.039  1.00  0.00     0.029 A 
ATOM     47  C   UNL A   1      46.896  26.128  27.473  1.00  0.00     0.049 A 
ATOM     48  H   UNL A   1      45.057  26.985  27.936  1.00  0.00     0.167 HD
ATOM     49  C   UNL A   1      41.088  28.662  28.787  1.00  0.00     0.037 A 
ATOM     50  C   UNL A   1      47.828  27.082  27.649  1.00  0.00     0.037 A 
ATOM     51  C   UNL A   1      42.019  29.717  29.089  1.00  0.00     0.049 A 
ATOM     52  C   UNL A   1      47.397  28.449  28.106  1.00  0.00     0.074 A 
ATOM     53  C   UNL A   1      41.763  30.978  29.595  1.00  0.00     0.029 A 
ATOM     54  N   UNL A   1      43.392  29.632  28.903  1.00  0.00    -0.354 N 
ATOM     55  N   UNL A   1      46.194  28.886  28.390  1.00  0.00    -0.248 NA
ATOM     56  C   UNL A   1      48.456  29.453  28.271  1.00  0.00     0.031 C 
ATOM     57  C   UNL A   1      42.974  31.675  29.666  1.00  0.00     0.029 A 
ATOM     58  C   UNL A   1      43.994  30.830  29.256  1.00  0.00     0.049 A 
ATOM     59  H   UNL A   1      43.869  28.837  28.570  1.00  0.00     0.167 HD
ATOM     60  C   UNL A   1      46.352  30.204  28.795  1.00  0.00     0.074 A 
ATOM     61  C   UNL A   1      47.771  30.492  28.729  1.00  0.00     0.031 C 
ATOM     62  C   UNL A   1      45.409  31.096  29.187  1.00  0.00     0.037 A 
BRANCH  49  63
ATOM     63  C   UNL A   1      39.617  28.937  28.927  1.00  0.00     0.064 A 
ATOM     64  C   UNL A   1      38.828  29.328  27.834  1.00  0.00     0.173 A 
ATOM     65  C   UNL A   1      38.986  28.801  30.173  1.00  0.00     0.173 A 
ATOM     66  F   UNL A   1      39.383  29.484  26.623  1.00  0.00    -0.203 F 
ATOM     67  C   UNL A   1      37.475  29.617  27.992  1.00  0.00     0.198 A 
ATOM     68  C   UNL A   1      37.626  29.057  30.321  1.00  0.00     0.198 A 
ATOM     69  F   UNL A   1      39.690  28.423  31.251  1.00  0.00    -0.203 F 
ATOM     70  F   UNL A   1      36.758  30.053  26.947  1.00  0.00    -0.200 F 
ATOM     71  C   UNL A   1      36.873  29.476  29.234  1.00  0.00     0.200 A 
ATOM     72  F   UNL A   1      37.043  28.909  31.518  1.00  0.00    -0.200 F 
ATOM     73  F   UNL A   1      35.571  29.757  29.384  1.00  0.00    -0.200 F 
ENDBRANCH  49  63
BRANCH  50  74
ATOM     74  C   UNL A   1      49.263  26.760  27.442  1.00  0.00     0.064 A 
ATOM     75  C   UNL A   1      50.095  26.482  28.535  1.00  0.00     0.173 A 
ATOM     76  C   UNL A   1      49.826  26.702  26.161  1.00  0.00     0.173 A 
ATOM     77  F   UNL A   1      49.604  26.543  29.782  1.00  0.00    -0.203 F 
ATOM     78  C   UNL A   1      51.440  26.168  28.356  1.00  0.00     0.198 A 
ATOM     79  C   UNL A   1      51.166  26.363  25.979  1.00  0.00     0.198 A 
ATOM     80  F   UNL A   1      49.071  26.955  25.082  1.00  0.00    -0.203 F 
ATOM     81  F   UNL A   1      52.220  25.939  29.420  1.00  0.00    -0.200 F 
ATOM     82  C   UNL A   1      51.973  26.102  27.077  1.00  0.00     0.200 A 
ATOM     83  F   UNL A   1      51.674  26.286  24.742  1.00  0.00    -0.200 F 
ATOM     84  F   UNL A   1      53.264  25.791  26.903  1.00  0.00    -0.200 F 
ENDBRANCH  50  74
BRANCH  62  85
ATOM     85  C   UNL A   1      45.885  32.454  29.609  1.00  0.00     0.064 A 
ATOM     86  C   UNL A   1      46.275  32.723  30.929  1.00  0.00     0.173 A 
ATOM     87  C   UNL A   1      45.986  33.493  28.670  1.00  0.00     0.173 A 
ATOM     88  F   UNL A   1      46.181  31.768  31.867  1.00  0.00    -0.203 F 
ATOM     89  C   UNL A   1      46.725  33.987  31.299  1.00  0.00     0.198 A 
ATOM     90  C   UNL A   1      46.465  34.746  29.036  1.00  0.00     0.198 A 
ATOM     91  F   UNL A   1      45.631  33.286  27.393  1.00  0.00    -0.203 F 
ATOM     92  F   UNL A   1      47.046  34.234  32.576  1.00  0.00    -0.200 F 
ATOM     93  C   UNL A   1      46.827  34.995  30.352  1.00  0.00     0.200 A 
ATOM     94  F   UNL A   1      46.576  35.716  28.117  1.00  0.00    -0.200 F 
ATOM     95  F   UNL A   1      47.267  36.209  30.709  1.00  0.00    -0.200 F 
ENDBRANCH  62  85
ENDBRANCH  36  37
ENDBRANCH  28  31
ENDBRANCH  26  27
ENDBRANCH  25  26
ENDBRANCH   1  25
TORSDOF 14
ENDMDL
MODEL 3
REMARK VINA RESULT:     -12.5      5.789     10.930
REMARK SMILES Cc1cccc(NS(=O)(=O)Cc2ccc(C(=O)NCCCNC(=O)c3ccc(-c4c5nc(c(-c6c(F)c(F)c(F)c(F)c6F)c6ccc([nH]6)c(-c6c(F)c(F)c(F)c(F)c6F)c6nc(c(-c7c(F)c(F)c(F)c(F)c7F)c7ccc4[nH]7)C=C6)C=C5)cc3)cc2)n1
REMARK SMILES IDX 19 1 18 2 16 3 17 4 15 6 12 7 13 8 89 9 14 10 88 11 11 12
REMARK SMILES IDX 8 13 9 14 10 15 7 16 6 18 1 19 2 20 3 21 90 22 4 23 5 24
REMARK SMILES IDX 20 25 21 26 22 27 23 28 24 30 25 31 26 32 87 33 27 34 86 35
REMARK SMILES IDX 28 36 29 37 30 38 80 39 31 40 85 41 79 42 81 43 32 44 84 45
REMARK SMILES IDX 78 46 77 47 33 49 65 50 45 51 64 52 46 53 49 54 63 55 82 56
REMARK SMILES IDX 47 57 48 58 62 60 83 61 50 62 34 63 35 64 43 65 36 66 37 67
REMARK SMILES IDX 41 68 44 69 38 70 39 71 42 72 40 73 66 74 67 75 75 76 68 77
REMARK SMILES IDX 69 78 73 79 76 80 70 81 71 82 74 83 72 84 51 85 52 86 60 87
REMARK SMILES IDX 53 88 54 89 58 90 61 91 55 92 56 93 59 94 57 95
REMARK H PARENT 18 5 7 17 22 29 81 48 49 59
REMARK Flexibility Score: inf
ROOT
ATOM      1  C   UNL A   1      31.781  30.661  26.877  1.00  0.00     0.118 C 
ENDROOT
BRANCH   1   2
ATOM      2  N   UNL A   1      33.028  30.361  27.554  1.00  0.00    -0.352 N 
ATOM      3  C   UNL A   1      33.944  29.379  27.295  1.00  0.00     0.251 C 
ATOM      4  O   UNL A   1      34.979  29.326  27.956  1.00  0.00    -0.269 OA
ATOM      5  H   UNL A   1      33.247  30.951  28.311  1.00  0.00     0.163 HD
BRANCH   3   6
ATOM      6  C   UNL A   1      33.733  28.422  26.189  1.00  0.00     0.039 A 
ATOM      7  C   UNL A   1      33.580  26.647  24.027  1.00  0.00    -0.031 A 
ATOM      8  C   UNL A   1      33.922  27.994  23.828  1.00  0.00     0.005 A 
ATOM      9  C   UNL A   1      33.215  26.224  25.310  1.00  0.00     0.005 A 
ATOM     10  C   UNL A   1      34.028  28.870  24.903  1.00  0.00     0.014 A 
ATOM     11  C   UNL A   1      33.320  27.102  26.392  1.00  0.00     0.014 A 
BRANCH   7  12
ATOM     12  C   UNL A   1      33.680  25.695  22.861  1.00  0.00     0.195 C 
BRANCH  12  13
ATOM     13  S   UNL A   1      32.159  25.644  21.877  1.00  0.00     0.238 S 
ATOM     14  O   UNL A   1      32.488  25.563  20.470  1.00  0.00    -0.206 OA
ATOM     15  O   UNL A   1      31.321  26.741  22.338  1.00  0.00    -0.206 OA
BRANCH  13  16
ATOM     16  N   UNL A   1      31.310  24.294  22.316  1.00  0.00    -0.267 N 
ATOM     17  H   UNL A   1      30.513  24.049  21.794  1.00  0.00     0.181 HD
BRANCH  16  18
ATOM     18  C   UNL A   1      31.679  23.481  23.405  1.00  0.00     0.139 A 
ATOM     19  C   UNL A   1      30.331  22.916  26.775  1.00  0.00     0.067 C 
ATOM     20  C   UNL A   1      31.128  22.724  25.518  1.00  0.00     0.040 A 
ATOM     21  C   UNL A   1      31.804  21.527  25.312  1.00  0.00     0.023 A 
ATOM     22  N   UNL A   1      31.055  23.700  24.575  1.00  0.00    -0.235 NA
ATOM     23  C   UNL A   1      32.460  21.332  24.105  1.00  0.00     0.006 A 
ATOM     24  C   UNL A   1      32.388  22.319  23.129  1.00  0.00     0.048 A 
ENDBRANCH  16  18
ENDBRANCH  13  16
ENDBRANCH  12  13
ENDBRANCH   7  12
ENDBRANCH   3   6
ENDBRANCH   1   2
BRANCH   1  25
ATOM     25  C   UNL A   1      31.508  32.160  26.883  1.00  0.00     0.042 C 
BRANCH  25  26
ATOM     26  C   UNL A   1      32.782  32.993  26.953  1.00  0.00     0.118 C 
BRANCH  26  27
ATOM     27  N   UNL A   1      32.550  34.278  27.597  1.00  0.00    -0.352 N 
ATOM     28  C   UNL A   1      33.072  34.773  28.763  1.00  0.00     0.251 C 
ATOM     29  H   UNL A   1      31.927  34.878  27.126  1.00  0.00     0.163 HD
ATOM     30  O   UNL A   1      32.569  35.761  29.289  1.00  0.00    -0.269 OA
BRANCH  28  31
ATOM     31  C   UNL A   1      34.241  34.121  29.389  1.00  0.00     0.039 A 
ATOM     32  C   UNL A   1      35.524  34.516  29.002  1.00  0.00     0.014 A 
ATOM     33  C   UNL A   1      34.073  33.094  30.323  1.00  0.00     0.014 A 
ATOM     34  C   UNL A   1      36.638  33.910  29.584  1.00  0.00     0.010 A 
ATOM     35  C   UNL A   1      35.181  32.549  30.961  1.00  0.00     0.010 A 
ATOM     36  C   UNL A   1      36.475  32.938  30.583  1.00  0.00    -0.014 A 
BRANCH  36  37
ATOM     37  C   UNL A   1      37.643  32.295  31.229  1.00  0.00     0.031 A 
ATOM     38  C   UNL A   1      38.403  31.218  30.507  1.00  0.00     0.074 A 
ATOM     39  C   UNL A   1      37.978  32.636  32.487  1.00  0.00     0.049 A 
ATOM     40  N   UNL A   1      39.416  30.498  30.920  1.00  0.00    -0.248 NA
ATOM     41  C   UNL A   1      37.942  30.883  29.151  1.00  0.00     0.031 C 
ATOM     42  C   UNL A   1      37.286  33.637  33.303  1.00  0.00     0.029 A 
ATOM     43  N   UNL A   1      38.981  32.177  33.302  1.00  0.00    -0.354 N 
ATOM     44  C   UNL A   1      39.694  29.613  29.886  1.00  0.00     0.074 A 
ATOM     45  C   UNL A   1      38.712  29.849  28.850  1.00  0.00     0.031 C 
ATOM     46  C   UNL A   1      37.907  33.741  34.489  1.00  0.00     0.029 A 
ATOM     47  C   UNL A   1      39.015  32.789  34.530  1.00  0.00     0.049 A 
ATOM     48  H   UNL A   1      39.615  31.475  33.032  1.00  0.00     0.167 HD
ATOM     49  C   UNL A   1      40.693  28.702  29.801  1.00  0.00     0.037 A 
ATOM     50  C   UNL A   1      39.847  32.603  35.570  1.00  0.00     0.037 A 
ATOM     51  C   UNL A   1      41.685  28.498  30.824  1.00  0.00     0.049 A 
ATOM     52  C   UNL A   1      40.945  31.582  35.454  1.00  0.00     0.074 A 
ATOM     53  C   UNL A   1      42.786  27.662  30.806  1.00  0.00     0.029 A 
ATOM     54  N   UNL A   1      41.687  29.137  32.056  1.00  0.00    -0.354 N 
ATOM     55  N   UNL A   1      41.251  30.807  34.442  1.00  0.00    -0.248 NA
ATOM     56  C   UNL A   1      41.816  31.415  36.624  1.00  0.00     0.031 C 
ATOM     57  C   UNL A   1      43.426  27.756  32.047  1.00  0.00     0.029 A 
ATOM     58  C   UNL A   1      42.754  28.690  32.820  1.00  0.00     0.049 A 
ATOM     59  H   UNL A   1      41.027  29.808  32.346  1.00  0.00     0.167 HD
ATOM     60  C   UNL A   1      42.366  30.081  34.840  1.00  0.00     0.074 A 
ATOM     61  C   UNL A   1      42.688  30.518  36.184  1.00  0.00     0.031 C 
ATOM     62  C   UNL A   1      43.061  29.140  34.154  1.00  0.00     0.037 A 
BRANCH  49  63
ATOM     63  C   UNL A   1      40.750  27.853  28.562  1.00  0.00     0.064 A 
ATOM     64  C   UNL A   1      40.062  26.633  28.466  1.00  0.00     0.173 A 
ATOM     65  C   UNL A   1      41.500  28.270  27.452  1.00  0.00     0.173 A 
ATOM     66  F   UNL A   1      39.340  26.182  29.502  1.00  0.00    -0.203 F 
ATOM     67  C   UNL A   1      40.160  25.842  27.324  1.00  0.00     0.198 A 
ATOM     68  C   UNL A   1      41.568  27.493  26.299  1.00  0.00     0.198 A 
ATOM     69  F   UNL A   1      42.172  29.431  27.485  1.00  0.00    -0.203 F 
ATOM     70  F   UNL A   1      39.548  24.650  27.283  1.00  0.00    -0.200 F 
ATOM     71  C   UNL A   1      40.909  26.275  26.239  1.00  0.00     0.200 A 
ATOM     72  F   UNL A   1      42.281  27.918  25.247  1.00  0.00    -0.200 F 
ATOM     73  F   UNL A   1      41.003  25.511  25.142  1.00  0.00    -0.200 F 
ENDBRANCH  49  63
BRANCH  50  74
ATOM     74  C   UNL A   1      39.703  33.439  36.789  1.00  0.00     0.064 A 
ATOM     75  C   UNL A   1      40.402  34.648  36.910  1.00  0.00     0.173 A 
ATOM     76  C   UNL A   1      38.857  33.066  37.842  1.00  0.00     0.173 A 
ATOM     77  F   UNL A   1      41.238  35.038  35.936  1.00  0.00    -0.203 F 
ATOM     78  C   UNL A   1      40.270  35.447  38.042  1.00  0.00     0.198 A 
ATOM     79  C   UNL A   1      38.705  33.878  38.965  1.00  0.00     0.198 A 
ATOM     80  F   UNL A   1      38.163  31.921  37.772  1.00  0.00    -0.203 F 
ATOM     81  F   UNL A   1      40.975  36.581  38.146  1.00  0.00    -0.200 F 
ATOM     82  C   UNL A   1      39.416  35.065  39.066  1.00  0.00     0.200 A 
ATOM     83  F   UNL A   1      37.868  33.513  39.945  1.00  0.00    -0.200 F 
ATOM     84  F   UNL A   1      39.280  35.839  40.152  1.00  0.00    -0.200 F 
ENDBRANCH  50  74
BRANCH  62  85
ATOM     85  C   UNL A   1      44.258  28.544  34.834  1.00  0.00     0.064 A 
ATOM     86  C   UNL A   1      45.510  29.178  34.811  1.00  0.00     0.173 A 
ATOM     87  C   UNL A   1      44.143  27.342  35.548  1.00  0.00     0.173 A 
ATOM     88  F   UNL A   1      45.675  30.321  34.128  1.00  0.00    -0.203 F 
ATOM     89  C   UNL A   1      46.608  28.615  35.457  1.00  0.00     0.198 A 
ATOM     90  C   UNL A   1      45.235  26.799  36.218  1.00  0.00     0.198 A 
ATOM     91  F   UNL A   1      42.967  26.700  35.606  1.00  0.00    -0.203 F 
ATOM     92  F   UNL A   1      47.805  29.212  35.381  1.00  0.00    -0.200 F 
ATOM     93  C   UNL A   1      46.468  27.431  36.166  1.00  0.00     0.200 A 
ATOM     94  F   UNL A   1      45.095  25.662  36.914  1.00  0.00    -0.200 F 
ATOM     95  F   UNL A   1      47.524  26.896  36.793  1.00  0.00    -0.200 F 
ENDBRANCH  62  85
ENDBRANCH  36  37
ENDBRANCH  28  31
ENDBRANCH  26  27
ENDBRANCH  25  26
ENDBRANCH   1  25
TORSDOF 14
ENDMDL
