MODEL 1
REMARK VINA RESULT:     -12.3      0.000      0.000
REMARK SMILES COc1ccc(OCCNc2c(Cl)cccc2C(=O)NCCCNC(=O)c2ccc(-c3c4nc(c(-c5c(F)c(F)c(F)c(F)c5F)c5ccc([nH]5)c(-c5c(F)c(F)c(F)c(F)c5F)c5nc(c(-c6c(F)c(F)c(F)c(F)c6F)c6ccc3[nH]6)C=C5)C=C4)cc2)cc1
REMARK SMILES IDX 18 1 19 2 20 3 17 5 11 6 12 7 13 8 14 9 16 10 15 11 10 12
REMARK SMILES IDX 9 14 8 15 7 16 6 17 3 18 4 19 91 20 5 21 90 22 2 23 1 24
REMARK SMILES IDX 21 25 22 26 23 27 24 28 25 29 26 31 27 32 28 33 89 34 29 35
REMARK SMILES IDX 88 36 30 37 31 38 32 39 82 40 33 41 87 42 81 43 83 44 34 45
REMARK SMILES IDX 86 46 80 47 79 48 35 50 67 51 47 52 66 53 48 54 51 55 65 56
REMARK SMILES IDX 84 57 49 58 50 59 64 61 85 62 52 63 36 64 37 65 45 66 38 67
REMARK SMILES IDX 39 68 43 69 46 70 40 71 41 72 44 73 42 74 68 75 69 76 77 77
REMARK SMILES IDX 70 78 71 79 75 80 78 81 72 82 73 83 76 84 74 85 53 86 54 87
REMARK SMILES IDX 62 88 55 89 56 90 60 91 63 92 57 93 58 94 61 95 59 96
REMARK H PARENT 20 4 10 13 24 30 83 49 51 60
REMARK Flexibility Score: inf
ROOT
ATOM      1  C   UNL A   1      33.753  25.536  23.160  1.00  0.00     0.253 C 
ATOM      2  O   UNL A   1      33.859  25.727  21.948  1.00  0.00    -0.269 OA
ATOM      3  N   UNL A   1      33.607  26.628  23.974  1.00  0.00    -0.352 N 
ATOM      4  H   UNL A   1      33.666  27.500  23.520  1.00  0.00     0.163 HD
ENDROOT
BRANCH   1   5
ATOM      5  C   UNL A   1      33.903  24.156  23.677  1.00  0.00     0.064 A 
ATOM      6  C   UNL A   1      32.864  23.305  24.098  1.00  0.00     0.066 A 
ATOM      7  C   UNL A   1      33.247  22.019  24.564  1.00  0.00     0.065 A 
ATOM      8  Cl  UNL A   1      32.060  20.897  25.162  1.00  0.00    -0.082 Cl
ATOM      9  C   UNL A   1      34.575  21.582  24.570  1.00  0.00     0.023 A 
ATOM     10  C   UNL A   1      35.243  23.702  23.676  1.00  0.00     0.016 A 
ATOM     11  C   UNL A   1      35.579  22.427  24.124  1.00  0.00     0.003 A 
BRANCH   6  12
ATOM     12  N   UNL A   1      31.548  23.687  24.290  1.00  0.00    -0.380 N 
ATOM     13  H   UNL A   1      31.179  23.532  25.188  1.00  0.00     0.160 HD
BRANCH  12  14
ATOM     14  C   UNL A   1      30.646  24.292  23.323  1.00  0.00     0.154 C 
BRANCH  14  15
ATOM     15  C   UNL A   1      30.085  25.632  23.867  1.00  0.00     0.250 C 
BRANCH  15  16
ATOM     16  O   UNL A   1      30.566  26.794  23.168  1.00  0.00    -0.492 OA
BRANCH  16  17
ATOM     17  C   UNL A   1      29.720  27.840  22.909  1.00  0.00     0.119 A 
ATOM     18  C   UNL A   1      28.289  30.234  22.641  1.00  0.00     0.119 A 
ATOM     19  C   UNL A   1      29.616  30.170  22.225  1.00  0.00     0.050 A 
ATOM     20  C   UNL A   1      27.646  29.085  23.090  1.00  0.00     0.050 A 
ATOM     21  C   UNL A   1      30.333  28.978  22.373  1.00  0.00     0.050 A 
ATOM     22  C   UNL A   1      28.356  27.886  23.201  1.00  0.00     0.050 A 
BRANCH  18  23
ATOM     23  O   UNL A   1      27.635  31.430  22.532  1.00  0.00    -0.497 OA
ATOM     24  C   UNL A   1      28.523  32.477  22.129  1.00  0.00     0.278 C 
ENDBRANCH  18  23
ENDBRANCH  16  17
ENDBRANCH  15  16
ENDBRANCH  14  15
ENDBRANCH  12  14
ENDBRANCH   6  12
ENDBRANCH   1   5
BRANCH   3  25
ATOM     25  C   UNL A   1      33.377  26.692  25.401  1.00  0.00     0.118 C 
BRANCH  25  26
ATOM     26  C   UNL A   1      32.524  27.865  25.843  1.00  0.00     0.042 C 
BRANCH  26  27
ATOM     27  C   UNL A   1      32.985  29.228  25.338  1.00  0.00     0.118 C 
BRANCH  27  28
ATOM     28  N   UNL A   1      32.517  30.374  26.111  1.00  0.00    -0.352 N 
ATOM     29  C   UNL A   1      33.143  31.168  27.048  1.00  0.00     0.251 C 
ATOM     30  H   UNL A   1      31.583  30.627  25.929  1.00  0.00     0.163 HD
ATOM     31  O   UNL A   1      32.532  32.090  27.572  1.00  0.00    -0.269 OA
BRANCH  29  32
ATOM     32  C   UNL A   1      34.528  30.871  27.480  1.00  0.00     0.039 A 
ATOM     33  C   UNL A   1      35.409  31.934  27.701  1.00  0.00     0.014 A 
ATOM     34  C   UNL A   1      34.950  29.567  27.720  1.00  0.00     0.014 A 
ATOM     35  C   UNL A   1      36.651  31.695  28.297  1.00  0.00     0.010 A 
ATOM     36  C   UNL A   1      36.120  29.345  28.436  1.00  0.00     0.010 A 
ATOM     37  C   UNL A   1      36.982  30.407  28.746  1.00  0.00    -0.014 A 
BRANCH  37  38
ATOM     38  C   UNL A   1      38.201  30.137  29.558  1.00  0.00     0.031 A 
ATOM     39  C   UNL A   1      39.258  29.197  29.044  1.00  0.00     0.074 A 
ATOM     40  C   UNL A   1      38.300  30.635  30.807  1.00  0.00     0.049 A 
ATOM     41  N   UNL A   1      40.289  28.684  29.667  1.00  0.00    -0.248 NA
ATOM     42  C   UNL A   1      39.102  28.726  27.657  1.00  0.00     0.031 C 
ATOM     43  C   UNL A   1      37.314  31.496  31.463  1.00  0.00     0.029 A 
ATOM     44  N   UNL A   1      39.276  30.468  31.762  1.00  0.00    -0.354 N 
ATOM     45  C   UNL A   1      40.872  27.801  28.767  1.00  0.00     0.074 A 
ATOM     46  C   UNL A   1      40.048  27.802  27.578  1.00  0.00     0.031 C 
ATOM     47  C   UNL A   1      37.746  31.806  32.696  1.00  0.00     0.029 A 
ATOM     48  C   UNL A   1      39.014  31.129  32.939  1.00  0.00     0.049 A 
ATOM     49  H   UNL A   1      40.084  29.927  31.616  1.00  0.00     0.167 HD
ATOM     50  C   UNL A   1      42.009  27.077  28.904  1.00  0.00     0.037 A 
ATOM     51  C   UNL A   1      39.714  31.175  34.089  1.00  0.00     0.037 A 
ATOM     52  C   UNL A   1      42.863  27.125  30.061  1.00  0.00     0.049 A 
ATOM     53  C   UNL A   1      41.006  30.414  34.195  1.00  0.00     0.074 A 
ATOM     54  C   UNL A   1      44.074  26.489  30.267  1.00  0.00     0.029 A 
ATOM     55  N   UNL A   1      42.601  27.868  31.203  1.00  0.00    -0.354 N 
ATOM     56  N   UNL A   1      41.574  29.624  33.318  1.00  0.00    -0.248 NA
ATOM     57  C   UNL A   1      41.758  30.557  35.450  1.00  0.00     0.031 C 
ATOM     58  C   UNL A   1      44.533  26.827  31.545  1.00  0.00     0.029 A 
ATOM     59  C   UNL A   1      43.627  27.704  32.119  1.00  0.00     0.049 A 
ATOM     60  H   UNL A   1      41.804  28.429  31.341  1.00  0.00     0.167 HD
ATOM     61  C   UNL A   1      42.756  29.192  33.902  1.00  0.00     0.074 A 
ATOM     62  C   UNL A   1      42.833  29.822  35.204  1.00  0.00     0.031 C 
ATOM     63  C   UNL A   1      43.692  28.348  33.405  1.00  0.00     0.037 A 
BRANCH  50  64
ATOM     64  C   UNL A   1      42.401  26.186  27.761  1.00  0.00     0.064 A 
ATOM     65  C   UNL A   1      41.833  24.914  27.591  1.00  0.00     0.173 A 
ATOM     66  C   UNL A   1      43.348  26.612  26.816  1.00  0.00     0.173 A 
ATOM     67  F   UNL A   1      40.932  24.454  28.473  1.00  0.00    -0.203 F 
ATOM     68  C   UNL A   1      42.227  24.086  26.544  1.00  0.00     0.198 A 
ATOM     69  C   UNL A   1      43.714  25.794  25.750  1.00  0.00     0.198 A 
ATOM     70  F   UNL A   1      43.917  27.821  26.926  1.00  0.00    -0.203 F 
ATOM     71  F   UNL A   1      41.717  22.850  26.441  1.00  0.00    -0.200 F 
ATOM     72  C   UNL A   1      43.163  24.528  25.622  1.00  0.00     0.200 A 
ATOM     73  F   UNL A   1      44.610  26.227  24.853  1.00  0.00    -0.200 F 
ATOM     74  F   UNL A   1      43.542  23.730  24.615  1.00  0.00    -0.200 F 
ENDBRANCH  50  64
BRANCH  51  75
ATOM     75  C   UNL A   1      39.219  32.000  35.222  1.00  0.00     0.064 A 
ATOM     76  C   UNL A   1      38.486  31.416  36.265  1.00  0.00     0.173 A 
ATOM     77  C   UNL A   1      39.475  33.376  35.292  1.00  0.00     0.173 A 
ATOM     78  F   UNL A   1      38.200  30.107  36.230  1.00  0.00    -0.203 F 
ATOM     79  C   UNL A   1      38.011  32.183  37.327  1.00  0.00     0.198 A 
ATOM     80  C   UNL A   1      39.021  34.137  36.369  1.00  0.00     0.198 A 
ATOM     81  F   UNL A   1      40.178  33.981  34.324  1.00  0.00    -0.203 F 
ATOM     82  F   UNL A   1      37.278  31.608  38.289  1.00  0.00    -0.200 F 
ATOM     83  C   UNL A   1      38.283  33.542  37.381  1.00  0.00     0.200 A 
ATOM     84  F   UNL A   1      39.297  35.447  36.425  1.00  0.00    -0.200 F 
ATOM     85  F   UNL A   1      37.830  34.277  38.405  1.00  0.00    -0.200 F 
ENDBRANCH  51  75
BRANCH  63  86
ATOM     86  C   UNL A   1      44.898  28.080  34.257  1.00  0.00     0.064 A 
ATOM     87  C   UNL A   1      44.936  27.004  35.154  1.00  0.00     0.173 A 
ATOM     88  C   UNL A   1      46.040  28.883  34.139  1.00  0.00     0.173 A 
ATOM     89  F   UNL A   1      43.861  26.217  35.313  1.00  0.00    -0.203 F 
ATOM     90  C   UNL A   1      46.072  26.754  35.920  1.00  0.00     0.198 A 
ATOM     91  C   UNL A   1      47.183  28.616  34.886  1.00  0.00     0.198 A 
ATOM     92  F   UNL A   1      46.053  29.922  33.290  1.00  0.00    -0.203 F 
ATOM     93  F   UNL A   1      46.076  25.745  36.801  1.00  0.00    -0.200 F 
ATOM     94  C   UNL A   1      47.197  27.555  35.780  1.00  0.00     0.200 A 
ATOM     95  F   UNL A   1      48.272  29.384  34.742  1.00  0.00    -0.200 F 
ATOM     96  F   UNL A   1      48.292  27.308  36.511  1.00  0.00    -0.200 F 
ENDBRANCH  63  86
ENDBRANCH  37  38
ENDBRANCH  29  32
ENDBRANCH  27  28
ENDBRANCH  26  27
ENDBRANCH  25  26
ENDBRANCH   3  25
TORSDOF 16
ENDMDL
MODEL 2
REMARK VINA RESULT:     -12.3      0.554      1.746
REMARK SMILES COc1ccc(OCCNc2c(Cl)cccc2C(=O)NCCCNC(=O)c2ccc(-c3c4nc(c(-c5c(F)c(F)c(F)c(F)c5F)c5ccc([nH]5)c(-c5c(F)c(F)c(F)c(F)c5F)c5nc(c(-c6c(F)c(F)c(F)c(F)c6F)c6ccc3[nH]6)C=C5)C=C4)cc2)cc1
REMARK SMILES IDX 18 1 19 2 20 3 17 5 11 6 12 7 13 8 14 9 16 10 15 11 10 12
REMARK SMILES IDX 9 14 8 15 7 16 6 17 3 18 4 19 91 20 5 21 90 22 2 23 1 24
REMARK SMILES IDX 21 25 22 26 23 27 24 28 25 29 26 31 27 32 28 33 89 34 29 35
REMARK SMILES IDX 88 36 30 37 31 38 32 39 82 40 33 41 87 42 81 43 83 44 34 45
REMARK SMILES IDX 86 46 80 47 79 48 35 50 67 51 47 52 66 53 48 54 51 55 65 56
REMARK SMILES IDX 84 57 49 58 50 59 64 61 85 62 52 63 36 64 37 65 45 66 38 67
REMARK SMILES IDX 39 68 43 69 46 70 40 71 41 72 44 73 42 74 68 75 69 76 77 77
REMARK SMILES IDX 70 78 71 79 75 80 78 81 72 82 73 83 76 84 74 85 53 86 54 87
REMARK SMILES IDX 62 88 55 89 56 90 60 91 63 92 57 93 58 94 61 95 59 96
REMARK H PARENT 20 4 10 13 24 30 83 49 51 60
REMARK Flexibility Score: inf
ROOT
ATOM      1  C   UNL A   1      33.590  26.024  22.789  1.00  0.00     0.253 C 
ATOM      2  O   UNL A   1      33.644  25.974  21.560  1.00  0.00    -0.269 OA
ATOM      3  N   UNL A   1      33.585  27.257  23.385  1.00  0.00    -0.352 N 
ATOM      4  H   UNL A   1      33.695  28.019  22.771  1.00  0.00     0.163 HD
ENDROOT
BRANCH   1   5
ATOM      5  C   UNL A   1      33.648  24.756  23.554  1.00  0.00     0.064 A 
ATOM      6  C   UNL A   1      32.548  23.994  23.991  1.00  0.00     0.066 A 
ATOM      7  C   UNL A   1      32.846  22.810  24.717  1.00  0.00     0.065 A 
ATOM      8  Cl  UNL A   1      31.573  21.813  25.357  1.00  0.00    -0.082 Cl
ATOM      9  C   UNL A   1      34.154  22.380  24.959  1.00  0.00     0.023 A 
ATOM     10  C   UNL A   1      34.968  24.309  23.793  1.00  0.00     0.016 A 
ATOM     11  C   UNL A   1      35.221  23.133  24.495  1.00  0.00     0.003 A 
BRANCH   6  12
ATOM     12  N   UNL A   1      31.228  24.405  23.954  1.00  0.00    -0.380 N 
ATOM     13  H   UNL A   1      30.723  24.169  23.144  1.00  0.00     0.160 HD
BRANCH  12  14
ATOM     14  C   UNL A   1      30.496  25.144  24.971  1.00  0.00     0.154 C 
BRANCH  14  15
ATOM     15  C   UNL A   1      29.649  26.269  24.320  1.00  0.00     0.250 C 
BRANCH  15  16
ATOM     16  O   UNL A   1      30.418  27.202  23.541  1.00  0.00    -0.492 OA
BRANCH  16  17
ATOM     17  C   UNL A   1      29.817  28.308  23.000  1.00  0.00     0.119 A 
ATOM     18  C   UNL A   1      28.312  30.259  21.665  1.00  0.00     0.119 A 
ATOM     19  C   UNL A   1      27.674  29.337  22.489  1.00  0.00     0.050 A 
ATOM     20  C   UNL A   1      29.701  30.277  21.588  1.00  0.00     0.050 A 
ATOM     21  C   UNL A   1      28.425  28.354  23.143  1.00  0.00     0.050 A 
ATOM     22  C   UNL A   1      30.451  29.316  22.274  1.00  0.00     0.050 A 
BRANCH  18  23
ATOM     23  O   UNL A   1      27.542  31.172  20.999  1.00  0.00    -0.497 OA
ATOM     24  C   UNL A   1      28.030  32.503  21.184  1.00  0.00     0.278 C 
ENDBRANCH  18  23
ENDBRANCH  16  17
ENDBRANCH  15  16
ENDBRANCH  14  15
ENDBRANCH  12  14
ENDBRANCH   6  12
ENDBRANCH   1   5
BRANCH   3  25
ATOM     25  C   UNL A   1      33.443  27.609  24.781  1.00  0.00     0.118 C 
BRANCH  25  26
ATOM     26  C   UNL A   1      32.973  29.030  25.022  1.00  0.00     0.042 C 
BRANCH  26  27
ATOM     27  C   UNL A   1      32.534  29.334  26.450  1.00  0.00     0.118 C 
BRANCH  27  28
ATOM     28  N   UNL A   1      32.366  30.749  26.766  1.00  0.00    -0.352 N 
ATOM     29  C   UNL A   1      33.234  31.681  27.295  1.00  0.00     0.251 C 
ATOM     30  H   UNL A   1      31.471  31.104  26.563  1.00  0.00     0.163 HD
ATOM     31  O   UNL A   1      32.858  32.832  27.474  1.00  0.00    -0.269 OA
BRANCH  29  32
ATOM     32  C   UNL A   1      34.597  31.285  27.718  1.00  0.00     0.039 A 
ATOM     33  C   UNL A   1      35.573  32.276  27.863  1.00  0.00     0.014 A 
ATOM     34  C   UNL A   1      34.908  29.963  28.022  1.00  0.00     0.014 A 
ATOM     35  C   UNL A   1      36.803  31.958  28.448  1.00  0.00     0.010 A 
ATOM     36  C   UNL A   1      36.070  29.676  28.727  1.00  0.00     0.010 A 
ATOM     37  C   UNL A   1      37.030  30.672  28.961  1.00  0.00    -0.014 A 
BRANCH  37  38
ATOM     38  C   UNL A   1      38.238  30.338  29.765  1.00  0.00     0.031 A 
ATOM     39  C   UNL A   1      39.263  29.376  29.224  1.00  0.00     0.074 A 
ATOM     40  C   UNL A   1      38.355  30.797  31.027  1.00  0.00     0.049 A 
ATOM     41  N   UNL A   1      40.275  28.812  29.831  1.00  0.00    -0.248 NA
ATOM     42  C   UNL A   1      39.091  28.950  27.825  1.00  0.00     0.031 C 
ATOM     43  C   UNL A   1      37.399  31.673  31.708  1.00  0.00     0.029 A 
ATOM     44  N   UNL A   1      39.324  30.570  31.976  1.00  0.00    -0.354 N 
ATOM     45  C   UNL A   1      40.828  27.935  28.906  1.00  0.00     0.074 A 
ATOM     46  C   UNL A   1      40.004  27.998  27.719  1.00  0.00     0.031 C 
ATOM     47  C   UNL A   1      37.841  31.933  32.949  1.00  0.00     0.029 A 
ATOM     48  C   UNL A   1      39.085  31.206  33.171  1.00  0.00     0.049 A 
ATOM     49  H   UNL A   1      40.113  30.006  31.814  1.00  0.00     0.167 HD
ATOM     50  C   UNL A   1      41.939  27.168  29.022  1.00  0.00     0.037 A 
ATOM     51  C   UNL A   1      39.786  31.197  34.322  1.00  0.00     0.037 A 
ATOM     52  C   UNL A   1      42.795  27.156  30.179  1.00  0.00     0.049 A 
ATOM     53  C   UNL A   1      41.051  30.389  34.405  1.00  0.00     0.074 A 
ATOM     54  C   UNL A   1      43.983  26.473  30.366  1.00  0.00     0.029 A 
ATOM     55  N   UNL A   1      42.558  27.875  31.341  1.00  0.00    -0.354 N 
ATOM     56  N   UNL A   1      41.592  29.605  33.506  1.00  0.00    -0.248 NA
ATOM     57  C   UNL A   1      41.808  30.472  35.663  1.00  0.00     0.031 C 
ATOM     58  C   UNL A   1      44.454  26.759  31.652  1.00  0.00     0.029 A 
ATOM     59  C   UNL A   1      43.578  27.650  32.252  1.00  0.00     0.049 A 
ATOM     60  H   UNL A   1      41.781  28.459  31.496  1.00  0.00     0.167 HD
ATOM     61  C   UNL A   1      42.759  29.117  34.076  1.00  0.00     0.074 A 
ATOM     62  C   UNL A   1      42.857  29.707  35.395  1.00  0.00     0.031 C 
ATOM     63  C   UNL A   1      43.666  28.256  33.555  1.00  0.00     0.037 A 
BRANCH  50  64
ATOM     64  C   UNL A   1      42.301  26.297  27.854  1.00  0.00     0.064 A 
ATOM     65  C   UNL A   1      43.244  26.704  26.897  1.00  0.00     0.173 A 
ATOM     66  C   UNL A   1      41.706  25.036  27.693  1.00  0.00     0.173 A 
ATOM     67  F   UNL A   1      43.832  27.905  26.998  1.00  0.00    -0.203 F 
ATOM     68  C   UNL A   1      43.547  25.900  25.802  1.00  0.00     0.198 A 
ATOM     69  C   UNL A   1      42.038  24.220  26.614  1.00  0.00     0.198 A 
ATOM     70  F   UNL A   1      40.804  24.594  28.581  1.00  0.00    -0.203 F 
ATOM     71  F   UNL A   1      44.403  26.339  24.868  1.00  0.00    -0.200 F 
ATOM     72  C   UNL A   1      42.948  24.657  25.664  1.00  0.00     0.200 A 
ATOM     73  F   UNL A   1      41.468  23.014  26.488  1.00  0.00    -0.200 F 
ATOM     74  F   UNL A   1      43.242  23.884  24.609  1.00  0.00    -0.200 F 
ENDBRANCH  50  64
BRANCH  51  75
ATOM     75  C   UNL A   1      39.320  32.006  35.477  1.00  0.00     0.064 A 
ATOM     76  C   UNL A   1      39.700  33.349  35.608  1.00  0.00     0.173 A 
ATOM     77  C   UNL A   1      38.483  31.464  36.462  1.00  0.00     0.173 A 
ATOM     78  F   UNL A   1      40.515  33.905  34.702  1.00  0.00    -0.203 F 
ATOM     79  C   UNL A   1      39.275  34.115  36.693  1.00  0.00     0.198 A 
ATOM     80  C   UNL A   1      38.038  32.239  37.532  1.00  0.00     0.198 A 
ATOM     81  F   UNL A   1      38.085  30.186  36.378  1.00  0.00    -0.203 F 
ATOM     82  F   UNL A   1      39.687  35.384  36.816  1.00  0.00    -0.200 F 
ATOM     83  C   UNL A   1      38.440  33.560  37.651  1.00  0.00     0.200 A 
ATOM     84  F   UNL A   1      37.220  31.704  38.450  1.00  0.00    -0.200 F 
ATOM     85  F   UNL A   1      38.028  34.298  38.691  1.00  0.00    -0.200 F 
ENDBRANCH  51  75
BRANCH  63  86
ATOM     86  C   UNL A   1      44.861  27.923  34.398  1.00  0.00     0.064 A 
ATOM     87  C   UNL A   1      44.866  26.817  35.259  1.00  0.00     0.173 A 
ATOM     88  C   UNL A   1      46.028  28.695  34.307  1.00  0.00     0.173 A 
ATOM     89  F   UNL A   1      43.767  26.058  35.391  1.00  0.00    -0.203 F 
ATOM     90  C   UNL A   1      45.992  26.507  36.016  1.00  0.00     0.198 A 
ATOM     91  C   UNL A   1      47.161  28.368  35.046  1.00  0.00     0.198 A 
ATOM     92  F   UNL A   1      46.073  29.760  33.494  1.00  0.00    -0.203 F 
ATOM     93  F   UNL A   1      45.965  25.469  36.863  1.00  0.00    -0.200 F 
ATOM     94  C   UNL A   1      47.141  27.278  35.903  1.00  0.00     0.200 A 
ATOM     95  F   UNL A   1      48.273  29.107  34.928  1.00  0.00    -0.200 F 
ATOM     96  F   UNL A   1      48.227  26.973  36.627  1.00  0.00    -0.200 F 
ENDBRANCH  63  86
ENDBRANCH  37  38
ENDBRANCH  29  32
ENDBRANCH  27  28
ENDBRANCH  26  27
ENDBRANCH  25  26
ENDBRANCH   3  25
TORSDOF 16
ENDMDL
MODEL 3
REMARK VINA RESULT:     -12.1      0.637      7.422
REMARK SMILES COc1ccc(OCCNc2c(Cl)cccc2C(=O)NCCCNC(=O)c2ccc(-c3c4nc(c(-c5c(F)c(F)c(F)c(F)c5F)c5ccc([nH]5)c(-c5c(F)c(F)c(F)c(F)c5F)c5nc(c(-c6c(F)c(F)c(F)c(F)c6F)c6ccc3[nH]6)C=C5)C=C4)cc2)cc1
REMARK SMILES IDX 18 1 19 2 20 3 17 5 11 6 12 7 13 8 14 9 16 10 15 11 10 12
REMARK SMILES IDX 9 14 8 15 7 16 6 17 3 18 4 19 91 20 5 21 90 22 2 23 1 24
REMARK SMILES IDX 21 25 22 26 23 27 24 28 25 29 26 31 27 32 28 33 89 34 29 35
REMARK SMILES IDX 88 36 30 37 31 38 32 39 82 40 33 41 87 42 81 43 83 44 34 45
REMARK SMILES IDX 86 46 80 47 79 48 35 50 67 51 47 52 66 53 48 54 51 55 65 56
REMARK SMILES IDX 84 57 49 58 50 59 64 61 85 62 52 63 36 64 37 65 45 66 38 67
REMARK SMILES IDX 39 68 43 69 46 70 40 71 41 72 44 73 42 74 68 75 69 76 77 77
REMARK SMILES IDX 70 78 71 79 75 80 78 81 72 82 73 83 76 84 74 85 53 86 54 87
REMARK SMILES IDX 62 88 55 89 56 90 60 91 63 92 57 93 58 94 61 95 59 96
REMARK H PARENT 20 4 10 13 24 30 83 49 51 60
REMARK Flexibility Score: inf
ROOT
ATOM      1  C   UNL A   1      33.622  26.081  22.909  1.00  0.00     0.253 C 
ATOM      2  O   UNL A   1      33.712  26.010  21.683  1.00  0.00    -0.269 OA
ATOM      3  N   UNL A   1      33.538  27.324  23.478  1.00  0.00    -0.352 N 
ATOM      4  H   UNL A   1      33.625  28.078  22.850  1.00  0.00     0.163 HD
ENDROOT
BRANCH   1   5
ATOM      5  C   UNL A   1      33.725  24.833  23.702  1.00  0.00     0.064 A 
ATOM      6  C   UNL A   1      32.653  24.084  24.220  1.00  0.00     0.066 A 
ATOM      7  C   UNL A   1      32.992  22.919  24.959  1.00  0.00     0.065 A 
ATOM      8  Cl  UNL A   1      31.759  21.939  25.695  1.00  0.00    -0.082 Cl
ATOM      9  C   UNL A   1      34.312  22.495  25.137  1.00  0.00     0.023 A 
ATOM     10  C   UNL A   1      35.057  24.392  23.878  1.00  0.00     0.016 A 
ATOM     11  C   UNL A   1      35.351  23.235  24.594  1.00  0.00     0.003 A 
BRANCH   6  12
ATOM     12  N   UNL A   1      31.332  24.494  24.248  1.00  0.00    -0.380 N 
ATOM     13  H   UNL A   1      30.817  24.350  23.423  1.00  0.00     0.160 HD
BRANCH  12  14
ATOM     14  C   UNL A   1      30.614  25.112  25.350  1.00  0.00     0.154 C 
BRANCH  14  15
ATOM     15  C   UNL A   1      29.786  26.325  24.848  1.00  0.00     0.250 C 
BRANCH  15  16
ATOM     16  O   UNL A   1      30.276  26.899  23.624  1.00  0.00    -0.492 OA
BRANCH  16  17
ATOM     17  C   UNL A   1      29.615  27.949  23.043  1.00  0.00     0.119 A 
ATOM     18  C   UNL A   1      28.566  30.368  22.094  1.00  0.00     0.119 A 
ATOM     19  C   UNL A   1      29.905  30.062  21.876  1.00  0.00     0.050 A 
ATOM     20  C   UNL A   1      27.726  29.430  22.688  1.00  0.00     0.050 A 
ATOM     21  C   UNL A   1      30.431  28.860  22.363  1.00  0.00     0.050 A 
ATOM     22  C   UNL A   1      28.248  28.214  23.141  1.00  0.00     0.050 A 
BRANCH  18  23
ATOM     23  O   UNL A   1      28.098  31.575  21.652  1.00  0.00    -0.497 OA
ATOM     24  C   UNL A   1      28.574  32.650  22.467  1.00  0.00     0.278 C 
ENDBRANCH  18  23
ENDBRANCH  16  17
ENDBRANCH  15  16
ENDBRANCH  14  15
ENDBRANCH  12  14
ENDBRANCH   6  12
ENDBRANCH   1   5
BRANCH   3  25
ATOM     25  C   UNL A   1      33.341  27.696  24.862  1.00  0.00     0.118 C 
BRANCH  25  26
ATOM     26  C   UNL A   1      32.885  29.127  25.064  1.00  0.00     0.042 C 
BRANCH  26  27
ATOM     27  C   UNL A   1      32.350  29.447  26.456  1.00  0.00     0.118 C 
BRANCH  27  28
ATOM     28  N   UNL A   1      32.328  30.863  26.809  1.00  0.00    -0.352 N 
ATOM     29  C   UNL A   1      33.284  31.687  27.364  1.00  0.00     0.251 C 
ATOM     30  H   UNL A   1      31.474  31.313  26.614  1.00  0.00     0.163 HD
ATOM     31  O   UNL A   1      33.027  32.866  27.572  1.00  0.00    -0.269 OA
BRANCH  29  32
ATOM     32  C   UNL A   1      34.597  31.142  27.778  1.00  0.00     0.039 A 
ATOM     33  C   UNL A   1      35.654  32.029  28.007  1.00  0.00     0.014 A 
ATOM     34  C   UNL A   1      34.783  29.780  27.995  1.00  0.00     0.014 A 
ATOM     35  C   UNL A   1      36.838  31.563  28.587  1.00  0.00     0.010 A 
ATOM     36  C   UNL A   1      35.900  29.343  28.696  1.00  0.00     0.010 A 
ATOM     37  C   UNL A   1      36.939  30.230  29.013  1.00  0.00    -0.014 A 
BRANCH  37  38
ATOM     38  C   UNL A   1      38.096  29.735  29.810  1.00  0.00     0.031 A 
ATOM     39  C   UNL A   1      38.322  30.245  31.208  1.00  0.00     0.074 A 
ATOM     40  C   UNL A   1      39.011  28.927  29.237  1.00  0.00     0.049 A 
ATOM     41  N   UNL A   1      39.360  30.089  31.991  1.00  0.00    -0.248 NA
ATOM     42  C   UNL A   1      37.261  31.089  31.781  1.00  0.00     0.031 C 
ATOM     43  C   UNL A   1      38.959  28.419  27.865  1.00  0.00     0.029 A 
ATOM     44  N   UNL A   1      40.182  28.407  29.735  1.00  0.00    -0.354 N 
ATOM     45  C   UNL A   1      39.095  30.851  33.123  1.00  0.00     0.074 A 
ATOM     46  C   UNL A   1      37.829  31.515  32.899  1.00  0.00     0.031 C 
ATOM     47  C   UNL A   1      40.029  27.639  27.641  1.00  0.00     0.029 A 
ATOM     48  C   UNL A   1      40.867  27.629  28.833  1.00  0.00     0.049 A 
ATOM     49  H   UNL A   1      40.498  28.576  30.651  1.00  0.00     0.167 HD
ATOM     50  C   UNL A   1      39.824  30.966  34.259  1.00  0.00     0.037 A 
ATOM     51  C   UNL A   1      42.046  26.987  28.950  1.00  0.00     0.037 A 
ATOM     52  C   UNL A   1      41.050  30.255  34.507  1.00  0.00     0.049 A 
ATOM     53  C   UNL A   1      42.806  27.076  30.244  1.00  0.00     0.074 A 
ATOM     54  C   UNL A   1      41.825  30.244  35.653  1.00  0.00     0.029 A 
ATOM     55  N   UNL A   1      41.672  29.415  33.594  1.00  0.00    -0.354 N 
ATOM     56  N   UNL A   1      42.519  27.758  31.326  1.00  0.00    -0.248 NA
ATOM     57  C   UNL A   1      44.051  26.300  30.336  1.00  0.00     0.031 C 
ATOM     58  C   UNL A   1      42.930  29.415  35.425  1.00  0.00     0.029 A 
ATOM     59  C   UNL A   1      42.823  28.882  34.151  1.00  0.00     0.049 A 
ATOM     60  H   UNL A   1      41.343  29.227  32.685  1.00  0.00     0.167 HD
ATOM     61  C   UNL A   1      43.533  27.479  32.232  1.00  0.00     0.074 A 
ATOM     62  C   UNL A   1      44.434  26.553  31.580  1.00  0.00     0.031 C 
ATOM     63  C   UNL A   1      43.702  27.951  33.491  1.00  0.00     0.037 A 
BRANCH  50  64
ATOM     64  C   UNL A   1      39.297  31.880  35.327  1.00  0.00     0.064 A 
ATOM     65  C   UNL A   1      39.587  33.253  35.329  1.00  0.00     0.173 A 
ATOM     66  C   UNL A   1      38.483  31.381  36.356  1.00  0.00     0.173 A 
ATOM     67  F   UNL A   1      40.370  33.778  34.375  1.00  0.00    -0.203 F 
ATOM     68  C   UNL A   1      39.117  34.084  36.342  1.00  0.00     0.198 A 
ATOM     69  C   UNL A   1      37.987  32.222  37.349  1.00  0.00     0.198 A 
ATOM     70  F   UNL A   1      38.169  30.078  36.399  1.00  0.00    -0.203 F 
ATOM     71  F   UNL A   1      39.462  35.379  36.357  1.00  0.00    -0.200 F 
ATOM     72  C   UNL A   1      38.314  33.569  37.348  1.00  0.00     0.200 A 
ATOM     73  F   UNL A   1      37.201  31.725  38.314  1.00  0.00    -0.200 F 
ATOM     74  F   UNL A   1      37.862  34.370  38.322  1.00  0.00    -0.200 F 
ENDBRANCH  50  64
BRANCH  51  75
ATOM     75  C   UNL A   1      42.561  26.176  27.817  1.00  0.00     0.064 A 
ATOM     76  C   UNL A   1      43.468  26.725  26.899  1.00  0.00     0.173 A 
ATOM     77  C   UNL A   1      42.172  24.842  27.633  1.00  0.00     0.173 A 
ATOM     78  F   UNL A   1      43.853  28.003  27.023  1.00  0.00    -0.203 F 
ATOM     79  C   UNL A   1      43.950  25.975  25.828  1.00  0.00     0.198 A 
ATOM     80  C   UNL A   1      42.676  24.086  26.577  1.00  0.00     0.198 A 
ATOM     81  F   UNL A   1      41.313  24.268  28.489  1.00  0.00    -0.203 F 
ATOM     82  F   UNL A   1      44.783  26.537  24.942  1.00  0.00    -0.200 F 
ATOM     83  C   UNL A   1      43.558  24.654  25.671  1.00  0.00     0.200 A 
ATOM     84  F   UNL A   1      42.305  22.805  26.435  1.00  0.00    -0.200 F 
ATOM     85  F   UNL A   1      44.026  23.933  24.643  1.00  0.00    -0.200 F 
ENDBRANCH  51  75
BRANCH  63  86
ATOM     86  C   UNL A   1      44.888  27.450  34.259  1.00  0.00     0.064 A 
ATOM     87  C   UNL A   1      46.115  28.128  34.239  1.00  0.00     0.173 A 
ATOM     88  C   UNL A   1      44.780  26.304  35.059  1.00  0.00     0.173 A 
ATOM     89  F   UNL A   1      46.271  29.220  33.476  1.00  0.00    -0.203 F 
ATOM     90  C   UNL A   1      47.199  27.663  34.977  1.00  0.00     0.198 A 
ATOM     91  C   UNL A   1      45.858  25.856  35.817  1.00  0.00     0.198 A 
ATOM     92  F   UNL A   1      43.625  25.624  35.115  1.00  0.00    -0.203 F 
ATOM     93  F   UNL A   1      48.375  28.302  34.914  1.00  0.00    -0.200 F 
ATOM     94  C   UNL A   1      47.068  26.532  35.772  1.00  0.00     0.200 A 
ATOM     95  F   UNL A   1      45.727  24.770  36.591  1.00  0.00    -0.200 F 
ATOM     96  F   UNL A   1      48.111  26.091  36.488  1.00  0.00    -0.200 F 
ENDBRANCH  63  86
ENDBRANCH  37  38
ENDBRANCH  29  32
ENDBRANCH  27  28
ENDBRANCH  26  27
ENDBRANCH  25  26
ENDBRANCH   3  25
TORSDOF 16
ENDMDL
