MODEL 1
REMARK VINA RESULT:      -9.3      0.000      0.000
REMARK SMILES CCCCCCNC(=O)Oc1cccc(-c2ccc([C@@H](C)C(=O)NCCCNC(=O)c3ccc(-c4c5nc(c(-c6c(F)c(F)c(F)c(F)c6F)c6ccc([nH]6)c(-c6c(F)c(F)c(F)c(F)c6F)c6nc(c(-c7c(F)c(F)c(F)c(F)c7F)c7ccc4[nH]7)C=C6)C=C5)cc3)cc2Cl)c1
REMARK SMILES IDX 16 1 17 2 18 3 19 4 94 5 95 6 96 7 15 8 11 9 12 10 97 11
REMARK SMILES IDX 13 12 14 13 10 14 8 15 7 16 9 18 6 19 5 20 4 21 3 22 2 23
REMARK SMILES IDX 1 24 20 25 21 26 22 27 23 28 24 29 25 31 26 32 27 33 28 34
REMARK SMILES IDX 29 35 30 37 31 38 32 39 93 40 33 41 92 42 34 43 35 44 36 45
REMARK SMILES IDX 86 46 37 47 91 48 85 49 87 50 38 51 90 52 84 53 83 54 39 56
REMARK SMILES IDX 71 57 51 58 70 59 52 60 55 61 69 62 88 63 53 64 54 65 68 67
REMARK SMILES IDX 89 68 56 69 40 70 41 71 49 72 42 73 43 74 47 75 50 76 44 77
REMARK SMILES IDX 45 78 48 79 46 80 72 81 73 82 81 83 74 84 75 85 79 86 82 87
REMARK SMILES IDX 76 88 77 89 80 90 78 91 57 92 58 93 66 94 59 95 60 96 64 97
REMARK SMILES IDX 67 98 61 99 62 100 65 101 63 102
REMARK H PARENT 7 17 24 30 28 36 87 55 55 66
REMARK Flexibility Score: inf
ROOT
ATOM      1  C   UNL A   1      40.090  30.082  34.199  1.00  0.00     0.000 A 
ATOM      2  C   UNL A   1      40.004  31.379  34.743  1.00  0.00     0.010 A 
ATOM      3  C   UNL A   1      38.948  32.246  34.443  1.00  0.00     0.005 A 
ATOM      4  C   UNL A   1      37.972  31.894  33.513  1.00  0.00    -0.034 A 
ATOM      5  C   UNL A   1      38.021  30.595  32.987  1.00  0.00     0.025 A 
ATOM      6  C   UNL A   1      39.036  29.691  33.349  1.00  0.00     0.049 A 
ATOM      7  Cl  UNL A   1      38.860  28.076  32.742  1.00  0.00    -0.084 Cl
ENDROOT
BRANCH   1   8
ATOM      8  C   UNL A   1      41.265  29.240  34.541  1.00  0.00    -0.013 A 
ATOM      9  C   UNL A   1      42.508  27.835  36.094  1.00  0.00     0.133 A 
ATOM     10  C   UNL A   1      43.504  27.608  35.149  1.00  0.00     0.047 A 
ATOM     11  C   UNL A   1      41.393  28.620  35.795  1.00  0.00     0.056 A 
ATOM     12  C   UNL A   1      43.382  28.180  33.889  1.00  0.00     0.004 A 
ATOM     13  C   UNL A   1      42.285  28.998  33.596  1.00  0.00     0.009 A 
BRANCH   9  14
ATOM     14  O   UNL A   1      42.763  27.379  37.399  1.00  0.00    -0.410 OA
BRANCH  14  15
ATOM     15  C   UNL A   1      43.651  26.334  37.608  1.00  0.00     0.412 C 
ATOM     16  N   UNL A   1      43.119  25.115  37.289  1.00  0.00    -0.321 N 
ATOM     17  H   UNL A   1      43.682  24.327  37.467  1.00  0.00     0.167 HD
ATOM     18  O   UNL A   1      44.794  26.437  38.036  1.00  0.00    -0.224 OA
BRANCH  16  19
ATOM     19  C   UNL A   1      41.810  24.863  36.718  1.00  0.00     0.119 C 
BRANCH  19  20
ATOM     20  C   UNL A   1      41.883  23.922  35.514  1.00  0.00     0.021 C 
BRANCH  20  21
ATOM     21  C   UNL A   1      43.281  23.760  34.904  1.00  0.00     0.002 C 
BRANCH  21  22
ATOM     22  C   UNL A   1      43.337  23.001  33.573  1.00  0.00    -0.000 C 
BRANCH  22  23
ATOM     23  C   UNL A   1      44.406  23.480  32.588  1.00  0.00    -0.003 C 
ATOM     24  C   UNL A   1      44.506  24.995  32.500  1.00  0.00     0.004 C 
ENDBRANCH  22  23
ENDBRANCH  21  22
ENDBRANCH  20  21
ENDBRANCH  19  20
ENDBRANCH  16  19
ENDBRANCH  14  15
ENDBRANCH   9  14
ENDBRANCH   1   8
BRANCH   4  25
ATOM     25  C   UNL A   1      36.892  32.856  33.043  1.00  0.00     0.105 C 
ATOM     26  C   UNL A   1      36.147  33.597  34.152  1.00  0.00     0.023 C 
BRANCH  25  27
ATOM     27  C   UNL A   1      37.324  33.733  31.857  1.00  0.00     0.227 C 
ATOM     28  O   UNL A   1      38.507  34.076  31.746  1.00  0.00    -0.274 OA
ATOM     29  N   UNL A   1      36.483  34.176  30.883  1.00  0.00    -0.356 N 
ATOM     30  H   UNL A   1      36.935  34.668  30.160  1.00  0.00     0.163 HD
BRANCH  29  31
ATOM     31  C   UNL A   1      35.049  34.062  30.708  1.00  0.00     0.117 C 
BRANCH  31  32
ATOM     32  C   UNL A   1      34.642  32.693  30.166  1.00  0.00     0.042 C 
BRANCH  32  33
ATOM     33  C   UNL A   1      34.484  32.648  28.651  1.00  0.00     0.118 C 
BRANCH  33  34
ATOM     34  N   UNL A   1      33.898  31.395  28.196  1.00  0.00    -0.352 N 
ATOM     35  C   UNL A   1      34.484  30.195  27.877  1.00  0.00     0.251 C 
ATOM     36  H   UNL A   1      32.918  31.412  28.101  1.00  0.00     0.163 HD
ATOM     37  O   UNL A   1      33.814  29.337  27.306  1.00  0.00    -0.269 OA
BRANCH  35  38
ATOM     38  C   UNL A   1      35.903  29.917  28.196  1.00  0.00     0.039 A 
ATOM     39  C   UNL A   1      36.222  29.425  29.467  1.00  0.00     0.014 A 
ATOM     40  C   UNL A   1      36.928  30.192  27.287  1.00  0.00     0.014 A 
ATOM     41  C   UNL A   1      37.551  29.157  29.802  1.00  0.00     0.010 A 
ATOM     42  C   UNL A   1      38.244  29.850  27.591  1.00  0.00     0.010 A 
ATOM     43  C   UNL A   1      38.572  29.338  28.856  1.00  0.00    -0.014 A 
BRANCH  43  44
ATOM     44  C   UNL A   1      39.987  29.015  29.170  1.00  0.00     0.031 A 
ATOM     45  C   UNL A   1      40.843  30.008  29.908  1.00  0.00     0.074 A 
ATOM     46  C   UNL A   1      40.522  27.859  28.731  1.00  0.00     0.049 A 
ATOM     47  N   UNL A   1      42.120  29.951  30.195  1.00  0.00    -0.248 NA
ATOM     48  C   UNL A   1      40.181  31.240  30.362  1.00  0.00     0.031 C 
ATOM     49  C   UNL A   1      39.808  26.834  27.970  1.00  0.00     0.029 A 
ATOM     50  N   UNL A   1      41.794  27.358  28.852  1.00  0.00    -0.354 N 
ATOM     51  C   UNL A   1      42.415  31.145  30.840  1.00  0.00     0.074 A 
ATOM     52  C   UNL A   1      41.198  31.927  30.862  1.00  0.00     0.031 C 
ATOM     53  C   UNL A   1      40.646  25.820  27.705  1.00  0.00     0.029 A 
ATOM     54  C   UNL A   1      41.965  26.139  28.244  1.00  0.00     0.049 A 
ATOM     55  H   UNL A   1      42.516  27.829  29.328  1.00  0.00     0.167 HD
ATOM     56  C   UNL A   1      43.591  31.544  31.385  1.00  0.00     0.037 A 
ATOM     57  C   UNL A   1      43.065  25.371  28.124  1.00  0.00     0.037 A 
ATOM     58  C   UNL A   1      44.792  30.752  31.387  1.00  0.00     0.049 A 
ATOM     59  C   UNL A   1      44.358  25.839  28.733  1.00  0.00     0.074 A 
ATOM     60  C   UNL A   1      46.016  31.042  31.964  1.00  0.00     0.029 A 
ATOM     61  N   UNL A   1      44.920  29.513  30.778  1.00  0.00    -0.354 N 
ATOM     62  N   UNL A   1      44.610  26.941  29.396  1.00  0.00    -0.248 NA
ATOM     63  C   UNL A   1      45.520  24.952  28.581  1.00  0.00     0.031 C 
ATOM     64  C   UNL A   1      46.897  29.995  31.670  1.00  0.00     0.029 A 
ATOM     65  C   UNL A   1      46.209  29.032  30.949  1.00  0.00     0.049 A 
ATOM     66  H   UNL A   1      44.202  29.043  30.295  1.00  0.00     0.167 HD
ATOM     67  C   UNL A   1      45.947  26.870  29.762  1.00  0.00     0.074 A 
ATOM     68  C   UNL A   1      46.451  25.608  29.259  1.00  0.00     0.031 C 
ATOM     69  C   UNL A   1      46.690  27.769  30.451  1.00  0.00     0.037 A 
BRANCH  56  70
ATOM     70  C   UNL A   1      43.631  32.900  32.029  1.00  0.00     0.064 A 
ATOM     71  C   UNL A   1      43.435  33.065  33.409  1.00  0.00     0.173 A 
ATOM     72  C   UNL A   1      43.900  34.046  31.264  1.00  0.00     0.173 A 
ATOM     73  F   UNL A   1      43.165  32.003  34.184  1.00  0.00    -0.203 F 
ATOM     74  C   UNL A   1      43.476  34.327  33.994  1.00  0.00     0.198 A 
ATOM     75  C   UNL A   1      43.970  35.304  31.858  1.00  0.00     0.198 A 
ATOM     76  F   UNL A   1      44.103  33.945  29.942  1.00  0.00    -0.203 F 
ATOM     77  F   UNL A   1      43.236  34.465  35.306  1.00  0.00    -0.200 F 
ATOM     78  C   UNL A   1      43.749  35.445  33.220  1.00  0.00     0.200 A 
ATOM     79  F   UNL A   1      44.249  36.381  31.111  1.00  0.00    -0.200 F 
ATOM     80  F   UNL A   1      43.794  36.658  33.785  1.00  0.00    -0.200 F 
ENDBRANCH  56  70
BRANCH  57  81
ATOM     81  C   UNL A   1      42.982  24.064  27.420  1.00  0.00     0.064 A 
ATOM     82  C   UNL A   1      43.312  23.961  26.062  1.00  0.00     0.173 A 
ATOM     83  C   UNL A   1      42.577  22.898  28.085  1.00  0.00     0.173 A 
ATOM     84  F   UNL A   1      43.684  25.053  25.379  1.00  0.00    -0.203 F 
ATOM     85  C   UNL A   1      43.224  22.744  25.391  1.00  0.00     0.198 A 
ATOM     86  C   UNL A   1      42.517  21.675  27.420  1.00  0.00     0.198 A 
ATOM     87  F   UNL A   1      42.252  22.943  29.385  1.00  0.00    -0.203 F 
ATOM     88  F   UNL A   1      43.506  22.681  24.082  1.00  0.00    -0.200 F 
ATOM     89  C   UNL A   1      42.834  21.601  26.071  1.00  0.00     0.200 A 
ATOM     90  F   UNL A   1      42.151  20.570  28.083  1.00  0.00    -0.200 F 
ATOM     91  F   UNL A   1      42.756  20.428  25.426  1.00  0.00    -0.200 F 
ENDBRANCH  57  81
BRANCH  69  92
ATOM     92  C   UNL A   1      48.119  27.407  30.735  1.00  0.00     0.064 A 
ATOM     93  C   UNL A   1      48.476  26.657  31.865  1.00  0.00     0.173 A 
ATOM     94  C   UNL A   1      49.136  27.780  29.844  1.00  0.00     0.173 A 
ATOM     95  F   UNL A   1      47.543  26.291  32.756  1.00  0.00    -0.203 F 
ATOM     96  C   UNL A   1      49.804  26.312  32.103  1.00  0.00     0.198 A 
ATOM     97  C   UNL A   1      50.458  27.409  30.069  1.00  0.00     0.198 A 
ATOM     98  F   UNL A   1      48.844  28.493  28.746  1.00  0.00    -0.203 F 
ATOM     99  F   UNL A   1      50.129  25.632  33.211  1.00  0.00    -0.200 F 
ATOM    100  C   UNL A   1      50.792  26.681  31.202  1.00  0.00     0.200 A 
ATOM    101  F   UNL A   1      51.409  27.756  29.192  1.00  0.00    -0.200 F 
ATOM    102  F   UNL A   1      52.068  26.341  31.428  1.00  0.00    -0.200 F 
ENDBRANCH  69  92
ENDBRANCH  43  44
ENDBRANCH  35  38
ENDBRANCH  33  34
ENDBRANCH  32  33
ENDBRANCH  31  32
ENDBRANCH  29  31
ENDBRANCH  25  27
ENDBRANCH   4  25
TORSDOF 19
ENDMDL
MODEL 2
REMARK VINA RESULT:      -9.3      1.610      3.023
REMARK SMILES CCCCCCNC(=O)Oc1cccc(-c2ccc([C@@H](C)C(=O)NCCCNC(=O)c3ccc(-c4c5nc(c(-c6c(F)c(F)c(F)c(F)c6F)c6ccc([nH]6)c(-c6c(F)c(F)c(F)c(F)c6F)c6nc(c(-c7c(F)c(F)c(F)c(F)c7F)c7ccc4[nH]7)C=C6)C=C5)cc3)cc2Cl)c1
REMARK SMILES IDX 16 1 17 2 18 3 19 4 94 5 95 6 96 7 15 8 11 9 12 10 97 11
REMARK SMILES IDX 13 12 14 13 10 14 8 15 7 16 9 18 6 19 5 20 4 21 3 22 2 23
REMARK SMILES IDX 1 24 20 25 21 26 22 27 23 28 24 29 25 31 26 32 27 33 28 34
REMARK SMILES IDX 29 35 30 37 31 38 32 39 93 40 33 41 92 42 34 43 35 44 36 45
REMARK SMILES IDX 86 46 37 47 91 48 85 49 87 50 38 51 90 52 84 53 83 54 39 56
REMARK SMILES IDX 71 57 51 58 70 59 52 60 55 61 69 62 88 63 53 64 54 65 68 67
REMARK SMILES IDX 89 68 56 69 40 70 41 71 49 72 42 73 43 74 47 75 50 76 44 77
REMARK SMILES IDX 45 78 48 79 46 80 72 81 73 82 81 83 74 84 75 85 79 86 82 87
REMARK SMILES IDX 76 88 77 89 80 90 78 91 57 92 58 93 66 94 59 95 60 96 64 97
REMARK SMILES IDX 67 98 61 99 62 100 65 101 63 102
REMARK H PARENT 7 17 24 30 28 36 87 55 55 66
REMARK Flexibility Score: inf
ROOT
ATOM      1  C   UNL A   1      36.498  33.770  33.265  1.00  0.00     0.000 A 
ATOM      2  C   UNL A   1      35.243  33.558  33.869  1.00  0.00     0.010 A 
ATOM      3  C   UNL A   1      34.048  33.984  33.278  1.00  0.00     0.005 A 
ATOM      4  C   UNL A   1      34.055  34.721  32.096  1.00  0.00    -0.034 A 
ATOM      5  C   UNL A   1      35.291  34.912  31.461  1.00  0.00     0.025 A 
ATOM      6  C   UNL A   1      36.486  34.415  32.012  1.00  0.00     0.049 A 
ATOM      7  Cl  UNL A   1      37.902  34.588  31.024  1.00  0.00    -0.084 Cl
ENDROOT
BRANCH   1   8
ATOM      8  C   UNL A   1      37.720  33.320  33.980  1.00  0.00    -0.013 A 
ATOM      9  C   UNL A   1      39.552  31.747  34.300  1.00  0.00     0.133 A 
ATOM     10  C   UNL A   1      40.072  32.508  35.343  1.00  0.00     0.047 A 
ATOM     11  C   UNL A   1      38.406  32.151  33.611  1.00  0.00     0.056 A 
ATOM     12  C   UNL A   1      39.432  33.687  35.702  1.00  0.00     0.004 A 
ATOM     13  C   UNL A   1      38.262  34.078  35.039  1.00  0.00     0.009 A 
BRANCH   9  14
ATOM     14  O   UNL A   1      40.133  30.484  34.091  1.00  0.00    -0.410 OA
BRANCH  14  15
ATOM     15  C   UNL A   1      40.256  29.594  35.147  1.00  0.00     0.412 C 
ATOM     16  N   UNL A   1      41.035  28.512  34.841  1.00  0.00    -0.321 N 
ATOM     17  H   UNL A   1      41.117  27.816  35.532  1.00  0.00     0.167 HD
ATOM     18  O   UNL A   1      39.738  29.712  36.251  1.00  0.00    -0.224 OA
BRANCH  16  19
ATOM     19  C   UNL A   1      41.752  28.285  33.601  1.00  0.00     0.119 C 
BRANCH  19  20
ATOM     20  C   UNL A   1      43.193  27.834  33.847  1.00  0.00     0.021 C 
BRANCH  20  21
ATOM     21  C   UNL A   1      43.379  26.319  34.002  1.00  0.00     0.002 C 
BRANCH  21  22
ATOM     22  C   UNL A   1      44.525  25.708  33.188  1.00  0.00    -0.000 C 
BRANCH  22  23
ATOM     23  C   UNL A   1      44.206  24.380  32.498  1.00  0.00    -0.003 C 
ATOM     24  C   UNL A   1      43.845  23.269  33.472  1.00  0.00     0.004 C 
ENDBRANCH  22  23
ENDBRANCH  21  22
ENDBRANCH  20  21
ENDBRANCH  19  20
ENDBRANCH  16  19
ENDBRANCH  14  15
ENDBRANCH   9  14
ENDBRANCH   1   8
BRANCH   4  25
ATOM     25  C   UNL A   1      32.799  35.331  31.494  1.00  0.00     0.105 C 
ATOM     26  C   UNL A   1      31.800  35.901  32.501  1.00  0.00     0.023 C 
BRANCH  25  27
ATOM     27  C   UNL A   1      33.074  36.229  30.277  1.00  0.00     0.227 C 
ATOM     28  O   UNL A   1      33.192  37.451  30.430  1.00  0.00    -0.274 OA
ATOM     29  N   UNL A   1      33.204  35.775  29.002  1.00  0.00    -0.356 N 
ATOM     30  H   UNL A   1      33.447  36.474  28.353  1.00  0.00     0.163 HD
BRANCH  29  31
ATOM     31  C   UNL A   1      33.053  34.458  28.415  1.00  0.00     0.117 C 
BRANCH  31  32
ATOM     32  C   UNL A   1      34.400  33.780  28.170  1.00  0.00     0.042 C 
BRANCH  32  33
ATOM     33  C   UNL A   1      34.618  32.519  28.997  1.00  0.00     0.118 C 
BRANCH  33  34
ATOM     34  N   UNL A   1      34.029  31.342  28.372  1.00  0.00    -0.352 N 
ATOM     35  C   UNL A   1      34.609  30.181  27.924  1.00  0.00     0.251 C 
ATOM     36  H   UNL A   1      33.054  31.387  28.251  1.00  0.00     0.163 HD
ATOM     37  O   UNL A   1      33.947  29.411  27.231  1.00  0.00    -0.269 OA
BRANCH  35  38
ATOM     38  C   UNL A   1      36.014  29.841  28.249  1.00  0.00     0.039 A 
ATOM     39  C   UNL A   1      36.305  29.328  29.518  1.00  0.00     0.014 A 
ATOM     40  C   UNL A   1      37.054  30.078  27.346  1.00  0.00     0.014 A 
ATOM     41  C   UNL A   1      37.621  29.002  29.858  1.00  0.00     0.010 A 
ATOM     42  C   UNL A   1      38.352  29.678  27.655  1.00  0.00     0.010 A 
ATOM     43  C   UNL A   1      38.652  29.146  28.918  1.00  0.00    -0.014 A 
BRANCH  43  44
ATOM     44  C   UNL A   1      40.051  28.761  29.237  1.00  0.00     0.031 A 
ATOM     45  C   UNL A   1      40.937  29.702  30.007  1.00  0.00     0.074 A 
ATOM     46  C   UNL A   1      40.546  27.597  28.774  1.00  0.00     0.049 A 
ATOM     47  N   UNL A   1      42.208  29.590  30.305  1.00  0.00    -0.248 NA
ATOM     48  C   UNL A   1      40.318  30.947  30.486  1.00  0.00     0.031 C 
ATOM     49  C   UNL A   1      39.801  26.619  27.980  1.00  0.00     0.029 A 
ATOM     50  N   UNL A   1      41.797  27.045  28.893  1.00  0.00    -0.354 N 
ATOM     51  C   UNL A   1      42.541  30.755  30.982  1.00  0.00     0.074 A 
ATOM     52  C   UNL A   1      41.354  31.582  31.012  1.00  0.00     0.031 C 
ATOM     53  C   UNL A   1      40.604  25.581  27.698  1.00  0.00     0.029 A 
ATOM     54  C   UNL A   1      41.928  25.836  28.256  1.00  0.00     0.049 A 
ATOM     55  H   UNL A   1      42.531  27.476  29.388  1.00  0.00     0.167 HD
ATOM     56  C   UNL A   1      43.725  31.096  31.548  1.00  0.00     0.037 A 
ATOM     57  C   UNL A   1      42.999  25.030  28.128  1.00  0.00     0.037 A 
ATOM     58  C   UNL A   1      44.896  30.259  31.540  1.00  0.00     0.049 A 
ATOM     59  C   UNL A   1      44.303  25.432  28.760  1.00  0.00     0.074 A 
ATOM     60  C   UNL A   1      46.124  30.487  32.137  1.00  0.00     0.029 A 
ATOM     61  N   UNL A   1      44.983  29.030  30.902  1.00  0.00    -0.354 N 
ATOM     62  N   UNL A   1      44.589  26.507  29.453  1.00  0.00    -0.248 NA
ATOM     63  C   UNL A   1      45.432  24.506  28.596  1.00  0.00     0.031 C 
ATOM     64  C   UNL A   1      46.967  29.415  31.824  1.00  0.00     0.029 A 
ATOM     65  C   UNL A   1      46.251  28.497  31.073  1.00  0.00     0.049 A 
ATOM     66  H   UNL A   1      44.253  28.601  30.400  1.00  0.00     0.167 HD
ATOM     67  C   UNL A   1      45.919  26.376  29.829  1.00  0.00     0.074 A 
ATOM     68  C   UNL A   1      46.380  25.110  29.300  1.00  0.00     0.031 C 
ATOM     69  C   UNL A   1      46.689  27.229  30.548  1.00  0.00     0.037 A 
BRANCH  56  70
ATOM     70  C   UNL A   1      43.810  32.432  32.226  1.00  0.00     0.064 A 
ATOM     71  C   UNL A   1      43.499  32.588  33.585  1.00  0.00     0.173 A 
ATOM     72  C   UNL A   1      44.239  33.566  31.518  1.00  0.00     0.173 A 
ATOM     73  F   UNL A   1      43.074  31.539  34.306  1.00  0.00    -0.203 F 
ATOM     74  C   UNL A   1      43.582  33.833  34.203  1.00  0.00     0.198 A 
ATOM     75  C   UNL A   1      44.351  34.804  32.146  1.00  0.00     0.198 A 
ATOM     76  F   UNL A   1      44.557  33.472  30.219  1.00  0.00    -0.203 F 
ATOM     77  F   UNL A   1      43.231  33.967  35.490  1.00  0.00    -0.200 F 
ATOM     78  C   UNL A   1      44.014  34.938  33.485  1.00  0.00     0.200 A 
ATOM     79  F   UNL A   1      44.782  35.868  31.456  1.00  0.00    -0.200 F 
ATOM     80  F   UNL A   1      44.100  36.135  34.082  1.00  0.00    -0.200 F 
ENDBRANCH  56  70
BRANCH  57  81
ATOM     81  C   UNL A   1      42.874  23.745  27.391  1.00  0.00     0.064 A 
ATOM     82  C   UNL A   1      42.391  22.595  28.032  1.00  0.00     0.173 A 
ATOM     83  C   UNL A   1      43.228  23.639  26.038  1.00  0.00     0.173 A 
ATOM     84  F   UNL A   1      42.060  22.644  29.330  1.00  0.00    -0.203 F 
ATOM     85  C   UNL A   1      42.284  21.385  27.352  1.00  0.00     0.198 A 
ATOM     86  C   UNL A   1      43.093  22.433  25.352  1.00  0.00     0.198 A 
ATOM     87  F   UNL A   1      43.693  24.710  25.378  1.00  0.00    -0.203 F 
ATOM     88  F   UNL A   1      41.859  20.291  28.000  1.00  0.00    -0.200 F 
ATOM     89  C   UNL A   1      42.628  21.306  26.012  1.00  0.00     0.200 A 
ATOM     90  F   UNL A   1      43.415  22.364  24.053  1.00  0.00    -0.200 F 
ATOM     91  F   UNL A   1      42.519  20.141  25.357  1.00  0.00    -0.200 F 
ENDBRANCH  57  81
BRANCH  69  92
ATOM     92  C   UNL A   1      48.100  26.806  30.836  1.00  0.00     0.064 A 
ATOM     93  C   UNL A   1      48.409  25.968  31.917  1.00  0.00     0.173 A 
ATOM     94  C   UNL A   1      49.148  27.211  29.995  1.00  0.00     0.173 A 
ATOM     95  F   UNL A   1      47.446  25.567  32.759  1.00  0.00    -0.203 F 
ATOM     96  C   UNL A   1      49.722  25.568  32.158  1.00  0.00     0.198 A 
ATOM     97  C   UNL A   1      50.453  26.786  30.222  1.00  0.00     0.198 A 
ATOM     98  F   UNL A   1      48.902  28.008  28.945  1.00  0.00    -0.203 F 
ATOM     99  F   UNL A   1      50.002  24.802  33.222  1.00  0.00    -0.200 F 
ATOM    100  C   UNL A   1      50.740  25.971  31.307  1.00  0.00     0.200 A 
ATOM    101  F   UNL A   1      51.434  27.166  29.392  1.00  0.00    -0.200 F 
ATOM    102  F   UNL A   1      52.000  25.578  31.536  1.00  0.00    -0.200 F 
ENDBRANCH  69  92
ENDBRANCH  43  44
ENDBRANCH  35  38
ENDBRANCH  33  34
ENDBRANCH  32  33
ENDBRANCH  31  32
ENDBRANCH  29  31
ENDBRANCH  25  27
ENDBRANCH   4  25
TORSDOF 19
ENDMDL
MODEL 3
REMARK VINA RESULT:      -9.0      3.711      9.386
REMARK SMILES CCCCCCNC(=O)Oc1cccc(-c2ccc([C@@H](C)C(=O)NCCCNC(=O)c3ccc(-c4c5nc(c(-c6c(F)c(F)c(F)c(F)c6F)c6ccc([nH]6)c(-c6c(F)c(F)c(F)c(F)c6F)c6nc(c(-c7c(F)c(F)c(F)c(F)c7F)c7ccc4[nH]7)C=C6)C=C5)cc3)cc2Cl)c1
REMARK SMILES IDX 16 1 17 2 18 3 19 4 94 5 95 6 96 7 15 8 11 9 12 10 97 11
REMARK SMILES IDX 13 12 14 13 10 14 8 15 7 16 9 18 6 19 5 20 4 21 3 22 2 23
REMARK SMILES IDX 1 24 20 25 21 26 22 27 23 28 24 29 25 31 26 32 27 33 28 34
REMARK SMILES IDX 29 35 30 37 31 38 32 39 93 40 33 41 92 42 34 43 35 44 36 45
REMARK SMILES IDX 86 46 37 47 91 48 85 49 87 50 38 51 90 52 84 53 83 54 39 56
REMARK SMILES IDX 71 57 51 58 70 59 52 60 55 61 69 62 88 63 53 64 54 65 68 67
REMARK SMILES IDX 89 68 56 69 40 70 41 71 49 72 42 73 43 74 47 75 50 76 44 77
REMARK SMILES IDX 45 78 48 79 46 80 72 81 73 82 81 83 74 84 75 85 79 86 82 87
REMARK SMILES IDX 76 88 77 89 80 90 78 91 57 92 58 93 66 94 59 95 60 96 64 97
REMARK SMILES IDX 67 98 61 99 62 100 65 101 63 102
REMARK H PARENT 7 17 24 30 28 36 87 55 55 66
REMARK Flexibility Score: inf
ROOT
ATOM      1  C   UNL A   1      39.841  27.550  28.512  1.00  0.00     0.000 A 
ATOM      2  C   UNL A   1      39.826  26.859  27.284  1.00  0.00     0.010 A 
ATOM      3  C   UNL A   1      40.814  25.931  26.937  1.00  0.00     0.005 A 
ATOM      4  C   UNL A   1      41.915  25.711  27.762  1.00  0.00    -0.034 A 
ATOM      5  C   UNL A   1      41.930  26.363  29.004  1.00  0.00     0.025 A 
ATOM      6  C   UNL A   1      40.898  27.236  29.391  1.00  0.00     0.049 A 
ATOM      7  Cl  UNL A   1      40.981  27.828  31.019  1.00  0.00    -0.084 Cl
ENDROOT
BRANCH   1   8
ATOM      8  C   UNL A   1      38.775  28.547  28.785  1.00  0.00    -0.013 A 
ATOM      9  C   UNL A   1      37.133  29.571  30.265  1.00  0.00     0.133 A 
ATOM     10  C   UNL A   1      36.767  30.487  29.284  1.00  0.00     0.047 A 
ATOM     11  C   UNL A   1      38.136  28.626  30.033  1.00  0.00     0.056 A 
ATOM     12  C   UNL A   1      37.410  30.454  28.054  1.00  0.00     0.004 A 
ATOM     13  C   UNL A   1      38.390  29.485  27.804  1.00  0.00     0.009 A 
BRANCH   9  14
ATOM     14  O   UNL A   1      36.338  29.535  31.423  1.00  0.00    -0.410 OA
BRANCH  14  15
ATOM     15  C   UNL A   1      36.934  29.540  32.675  1.00  0.00     0.412 C 
ATOM     16  N   UNL A   1      36.956  30.783  33.247  1.00  0.00    -0.321 N 
ATOM     17  H   UNL A   1      37.415  30.862  34.114  1.00  0.00     0.167 HD
ATOM     18  O   UNL A   1      37.412  28.568  33.248  1.00  0.00    -0.224 OA
BRANCH  16  19
ATOM     19  C   UNL A   1      36.372  31.995  32.706  1.00  0.00     0.119 C 
BRANCH  19  20
ATOM     20  C   UNL A   1      37.383  33.142  32.652  1.00  0.00     0.021 C 
BRANCH  20  21
ATOM     21  C   UNL A   1      37.756  33.609  31.239  1.00  0.00     0.002 C 
BRANCH  21  22
ATOM     22  C   UNL A   1      39.203  33.336  30.814  1.00  0.00    -0.000 C 
BRANCH  22  23
ATOM     23  C   UNL A   1      39.785  32.001  31.283  1.00  0.00    -0.003 C 
ATOM     24  C   UNL A   1      40.654  31.323  30.235  1.00  0.00     0.004 C 
ENDBRANCH  22  23
ENDBRANCH  21  22
ENDBRANCH  20  21
ENDBRANCH  19  20
ENDBRANCH  16  19
ENDBRANCH  14  15
ENDBRANCH   9  14
ENDBRANCH   1   8
BRANCH   4  25
ATOM     25  C   UNL A   1      43.085  24.827  27.362  1.00  0.00     0.105 C 
ATOM     26  C   UNL A   1      44.125  24.582  28.454  1.00  0.00     0.023 C 
BRANCH  25  27
ATOM     27  C   UNL A   1      42.668  23.575  26.574  1.00  0.00     0.227 C 
ATOM     28  O   UNL A   1      41.764  22.849  27.009  1.00  0.00    -0.274 OA
ATOM     29  N   UNL A   1      43.228  23.186  25.397  1.00  0.00    -0.356 N 
ATOM     30  H   UNL A   1      42.796  22.400  24.991  1.00  0.00     0.163 HD
BRANCH  29  31
ATOM     31  C   UNL A   1      44.339  23.708  24.626  1.00  0.00     0.117 C 
BRANCH  31  32
ATOM     32  C   UNL A   1      45.678  23.136  25.087  1.00  0.00     0.042 C 
BRANCH  32  33
ATOM     33  C   UNL A   1      46.618  24.172  25.692  1.00  0.00     0.118 C 
BRANCH  33  34
ATOM     34  N   UNL A   1      47.068  25.147  24.709  1.00  0.00    -0.352 N 
ATOM     35  C   UNL A   1      46.884  26.506  24.645  1.00  0.00     0.251 C 
ATOM     36  H   UNL A   1      47.592  24.769  23.966  1.00  0.00     0.163 HD
ATOM     37  O   UNL A   1      47.170  27.100  23.607  1.00  0.00    -0.269 OA
BRANCH  35  38
ATOM     38  C   UNL A   1      46.341  27.269  25.793  1.00  0.00     0.039 A 
ATOM     39  C   UNL A   1      44.966  27.527  25.837  1.00  0.00     0.014 A 
ATOM     40  C   UNL A   1      47.171  27.785  26.791  1.00  0.00     0.014 A 
ATOM     41  C   UNL A   1      44.421  28.248  26.903  1.00  0.00     0.010 A 
ATOM     42  C   UNL A   1      46.620  28.433  27.894  1.00  0.00     0.010 A 
ATOM     43  C   UNL A   1      45.240  28.681  27.957  1.00  0.00    -0.014 A 
BRANCH  43  44
ATOM     44  C   UNL A   1      44.679  29.407  29.126  1.00  0.00     0.031 A 
ATOM     45  C   UNL A   1      44.388  30.880  29.032  1.00  0.00     0.074 A 
ATOM     46  C   UNL A   1      44.498  28.757  30.292  1.00  0.00     0.049 A 
ATOM     47  N   UNL A   1      43.985  31.708  29.964  1.00  0.00    -0.248 NA
ATOM     48  C   UNL A   1      44.603  31.513  27.722  1.00  0.00     0.031 C 
ATOM     49  C   UNL A   1      44.782  27.340  30.521  1.00  0.00     0.029 A 
ATOM     50  N   UNL A   1      44.043  29.207  31.506  1.00  0.00    -0.354 N 
ATOM     51  C   UNL A   1      43.922  32.956  29.359  1.00  0.00     0.074 A 
ATOM     52  C   UNL A   1      44.370  32.788  27.994  1.00  0.00     0.031 C 
ATOM     53  C   UNL A   1      44.480  27.033  31.793  1.00  0.00     0.029 A 
ATOM     54  C   UNL A   1      44.019  28.237  32.478  1.00  0.00     0.049 A 
ATOM     55  H   UNL A   1      43.763  30.137  31.666  1.00  0.00     0.167 HD
ATOM     56  C   UNL A   1      43.504  34.132  29.888  1.00  0.00     0.037 A 
ATOM     57  C   UNL A   1      43.674  28.313  33.777  1.00  0.00     0.037 A 
ATOM     58  C   UNL A   1      43.031  34.290  31.238  1.00  0.00     0.049 A 
ATOM     59  C   UNL A   1      43.219  29.631  34.341  1.00  0.00     0.074 A 
ATOM     60  C   UNL A   1      42.530  35.426  31.850  1.00  0.00     0.029 A 
ATOM     61  N   UNL A   1      43.002  33.278  32.186  1.00  0.00    -0.354 N 
ATOM     62  N   UNL A   1      43.102  30.791  33.743  1.00  0.00    -0.248 NA
ATOM     63  C   UNL A   1      42.844  29.648  35.762  1.00  0.00     0.031 C 
ATOM     64  C   UNL A   1      42.236  35.111  33.181  1.00  0.00     0.029 A 
ATOM     65  C   UNL A   1      42.509  33.768  33.386  1.00  0.00     0.049 A 
ATOM     66  H   UNL A   1      43.289  32.350  32.031  1.00  0.00     0.167 HD
ATOM     67  C   UNL A   1      42.617  31.668  34.703  1.00  0.00     0.074 A 
ATOM     68  C   UNL A   1      42.447  30.904  35.921  1.00  0.00     0.031 C 
ATOM     69  C   UNL A   1      42.338  32.989  34.585  1.00  0.00     0.037 A 
BRANCH  56  70
ATOM     70  C   UNL A   1      43.538  35.342  29.000  1.00  0.00     0.064 A 
ATOM     71  C   UNL A   1      44.728  36.047  28.763  1.00  0.00     0.173 A 
ATOM     72  C   UNL A   1      42.375  35.784  28.350  1.00  0.00     0.173 A 
ATOM     73  F   UNL A   1      45.867  35.672  29.366  1.00  0.00    -0.203 F 
ATOM     74  C   UNL A   1      44.747  37.167  27.936  1.00  0.00     0.198 A 
ATOM     75  C   UNL A   1      42.403  36.887  27.500  1.00  0.00     0.198 A 
ATOM     76  F   UNL A   1      41.212  35.143  28.535  1.00  0.00    -0.203 F 
ATOM     77  F   UNL A   1      45.885  37.854  27.766  1.00  0.00    -0.200 F 
ATOM     78  C   UNL A   1      43.587  37.582  27.301  1.00  0.00     0.200 A 
ATOM     79  F   UNL A   1      41.285  37.279  26.876  1.00  0.00    -0.200 F 
ATOM     80  F   UNL A   1      43.607  38.657  26.501  1.00  0.00    -0.200 F 
ENDBRANCH  56  70
BRANCH  57  81
ATOM     81  C   UNL A   1      43.719  27.094  34.627  1.00  0.00     0.064 A 
ATOM     82  C   UNL A   1      42.566  26.327  34.841  1.00  0.00     0.173 A 
ATOM     83  C   UNL A   1      44.908  26.671  35.239  1.00  0.00     0.173 A 
ATOM     84  F   UNL A   1      41.401  26.704  34.294  1.00  0.00    -0.203 F 
ATOM     85  C   UNL A   1      42.597  25.192  35.646  1.00  0.00     0.198 A 
ATOM     86  C   UNL A   1      44.943  25.519  36.022  1.00  0.00     0.198 A 
ATOM     87  F   UNL A   1      46.040  27.369  35.065  1.00  0.00    -0.203 F 
ATOM     88  F   UNL A   1      41.470  24.499  35.867  1.00  0.00    -0.200 F 
ATOM     89  C   UNL A   1      43.786  24.785  36.231  1.00  0.00     0.200 A 
ATOM     90  F   UNL A   1      46.097  25.122  36.575  1.00  0.00    -0.200 F 
ATOM     91  F   UNL A   1      43.815  23.689  37.002  1.00  0.00    -0.200 F 
ENDBRANCH  57  81
BRANCH  69  92
ATOM     92  C   UNL A   1      41.785  33.686  35.795  1.00  0.00     0.064 A 
ATOM     93  C   UNL A   1      40.408  33.715  36.061  1.00  0.00     0.173 A 
ATOM     94  C   UNL A   1      42.648  34.295  36.719  1.00  0.00     0.173 A 
ATOM     95  F   UNL A   1      39.542  33.162  35.200  1.00  0.00    -0.203 F 
ATOM     96  C   UNL A   1      39.914  34.348  37.199  1.00  0.00     0.198 A 
ATOM     97  C   UNL A   1      42.153  34.901  37.869  1.00  0.00     0.198 A 
ATOM     98  F   UNL A   1      43.973  34.289  36.512  1.00  0.00    -0.203 F 
ATOM     99  F   UNL A   1      38.592  34.402  37.412  1.00  0.00    -0.200 F 
ATOM    100  C   UNL A   1      40.787  34.933  38.105  1.00  0.00     0.200 A 
ATOM    101  F   UNL A   1      42.998  35.456  38.749  1.00  0.00    -0.200 F 
ATOM    102  F   UNL A   1      40.309  35.534  39.203  1.00  0.00    -0.200 F 
ENDBRANCH  69  92
ENDBRANCH  43  44
ENDBRANCH  35  38
ENDBRANCH  33  34
ENDBRANCH  32  33
ENDBRANCH  31  32
ENDBRANCH  29  31
ENDBRANCH  25  27
ENDBRANCH   4  25
TORSDOF 19
ENDMDL
