MODEL 1
REMARK VINA RESULT:     -12.8      0.000      0.000
REMARK SMILES Cc1cccc([C@@H](CC(=O)NCCCNC(=O)c2ccc(-c3c4nc(c(-c5c(F)c(F)c(F)c(F)c5F)c5ccc([nH]5)c(-c5c(F)c(F)c(F)c(F)c5F)c5nc(c(-c6c(F)c(F)c(F)c(F)c6F)c6ccc3[nH]6)C=C5)C=C4)cc2)NC(=O)OC(C)(C)C)c1
REMARK SMILES IDX 12 1 11 2 9 3 10 4 8 6 7 7 6 8 1 9 2 10 3 11 89 12 4 13 5 14
REMARK SMILES IDX 81 15 82 16 83 18 84 19 85 20 86 21 87 22 88 23 13 24 14 25
REMARK SMILES IDX 15 26 16 27 17 29 18 30 19 31 80 32 20 33 79 34 21 35 22 36
REMARK SMILES IDX 23 37 73 38 24 39 78 40 72 41 74 42 25 43 77 44 71 45 70 46
REMARK SMILES IDX 26 48 58 49 38 50 57 51 39 52 42 53 56 54 75 55 40 56 41 57
REMARK SMILES IDX 55 59 76 60 43 61 27 62 28 63 36 64 29 65 30 66 34 67 37 68
REMARK SMILES IDX 31 69 32 70 35 71 33 72 59 73 60 74 68 75 61 76 62 77 66 78
REMARK SMILES IDX 69 79 63 80 64 81 67 82 65 83 44 84 45 85 53 86 46 87 47 88
REMARK SMILES IDX 51 89 54 90 48 91 49 92 52 93 50 94
REMARK H PARENT 11 5 81 17 15 28 74 47 42 58
REMARK Flexibility Score: inf
ROOT
ATOM      1  C   UNL A   1      33.587  30.320  26.842  1.00  0.00     0.117 C 
ENDROOT
BRANCH   1   2
ATOM      2  N   UNL A   1      32.744  29.469  27.658  1.00  0.00    -0.356 N 
ATOM      3  C   UNL A   1      32.193  28.269  27.314  1.00  0.00     0.222 C 
ATOM      4  O   UNL A   1      31.212  27.883  27.951  1.00  0.00    -0.275 OA
ATOM      5  H   UNL A   1      32.546  29.794  28.566  1.00  0.00     0.163 HD
BRANCH   3   6
ATOM      6  C   UNL A   1      32.808  27.420  26.215  1.00  0.00     0.130 C 
BRANCH   6   7
ATOM      7  C   UNL A   1      31.912  26.316  25.625  1.00  0.00     0.125 C 
BRANCH   7   8
ATOM      8  C   UNL A   1      30.768  26.807  24.739  1.00  0.00    -0.025 A 
ATOM      9  C   UNL A   1      30.144  29.606  22.195  1.00  0.00     0.044 C 
ATOM     10  C   UNL A   1      29.925  28.424  23.095  1.00  0.00    -0.051 A 
ATOM     11  C   UNL A   1      28.667  27.819  23.148  1.00  0.00     0.003 A 
ATOM     12  C   UNL A   1      30.958  27.933  23.911  1.00  0.00     0.009 A 
ATOM     13  C   UNL A   1      28.471  26.682  23.927  1.00  0.00     0.001 A 
ATOM     14  C   UNL A   1      29.519  26.166  24.696  1.00  0.00     0.006 A 
ENDBRANCH   7   8
BRANCH   7  15
ATOM     15  N   UNL A   1      31.453  25.382  26.638  1.00  0.00    -0.314 N 
ATOM     16  C   UNL A   1      31.849  24.089  26.800  1.00  0.00     0.408 C 
ATOM     17  H   UNL A   1      30.783  25.720  27.276  1.00  0.00     0.167 HD
ATOM     18  O   UNL A   1      31.290  23.353  27.586  1.00  0.00    -0.225 OA
BRANCH  16  19
ATOM     19  O   UNL A   1      32.912  23.778  26.019  1.00  0.00    -0.444 OA
BRANCH  19  20
ATOM     20  C   UNL A   1      32.734  22.998  24.815  1.00  0.00     0.106 C 
ATOM     21  C   UNL A   1      31.254  22.880  24.431  1.00  0.00     0.056 C 
ATOM     22  C   UNL A   1      33.589  23.563  23.678  1.00  0.00     0.056 C 
ATOM     23  C   UNL A   1      33.253  21.599  25.179  1.00  0.00     0.056 C 
ENDBRANCH  19  20
ENDBRANCH  16  19
ENDBRANCH   7  15
ENDBRANCH   6   7
ENDBRANCH   3   6
ENDBRANCH   1   2
BRANCH   1  24
ATOM     24  C   UNL A   1      33.904  31.593  27.607  1.00  0.00     0.042 C 
BRANCH  24  25
ATOM     25  C   UNL A   1      34.612  31.383  28.933  1.00  0.00     0.118 C 
BRANCH  25  26
ATOM     26  N   UNL A   1      35.912  32.057  28.910  1.00  0.00    -0.352 N 
ATOM     27  C   UNL A   1      37.207  31.582  28.987  1.00  0.00     0.251 C 
ATOM     28  H   UNL A   1      35.852  33.036  28.824  1.00  0.00     0.163 HD
ATOM     29  O   UNL A   1      38.156  32.343  29.123  1.00  0.00    -0.269 OA
BRANCH  27  30
ATOM     30  C   UNL A   1      37.448  30.160  28.689  1.00  0.00     0.039 A 
ATOM     31  C   UNL A   1      37.583  29.369  29.838  1.00  0.00     0.014 A 
ATOM     32  C   UNL A   1      38.079  29.837  27.495  1.00  0.00     0.014 A 
ATOM     33  C   UNL A   1      38.659  28.508  29.920  1.00  0.00     0.010 A 
ATOM     34  C   UNL A   1      39.187  29.028  27.594  1.00  0.00     0.010 A 
ATOM     35  C   UNL A   1      39.530  28.480  28.841  1.00  0.00    -0.014 A 
BRANCH  35  36
ATOM     36  C   UNL A   1      40.858  27.910  28.904  1.00  0.00     0.031 A 
ATOM     37  C   UNL A   1      40.959  26.471  28.652  1.00  0.00     0.074 A 
ATOM     38  C   UNL A   1      41.931  28.724  29.024  1.00  0.00     0.049 A 
ATOM     39  N   UNL A   1      41.988  25.757  28.924  1.00  0.00    -0.248 NA
ATOM     40  C   UNL A   1      39.846  25.699  28.110  1.00  0.00     0.031 C 
ATOM     41  C   UNL A   1      43.333  28.406  28.774  1.00  0.00     0.029 A 
ATOM     42  N   UNL A   1      41.975  30.016  29.581  1.00  0.00    -0.354 N 
ATOM     43  C   UNL A   1      41.806  24.532  28.324  1.00  0.00     0.074 A 
ATOM     44  C   UNL A   1      40.417  24.505  27.946  1.00  0.00     0.031 C 
ATOM     45  C   UNL A   1      44.105  29.281  29.445  1.00  0.00     0.029 A 
ATOM     46  C   UNL A   1      43.218  30.086  30.264  1.00  0.00     0.049 A 
ATOM     47  H   UNL A   1      41.290  30.721  29.512  1.00  0.00     0.167 HD
ATOM     48  C   UNL A   1      42.915  23.770  28.103  1.00  0.00     0.037 A 
ATOM     49  C   UNL A   1      43.244  30.147  31.630  1.00  0.00     0.037 A 
ATOM     50  C   UNL A   1      44.069  24.375  28.777  1.00  0.00     0.049 A 
ATOM     51  C   UNL A   1      43.839  28.911  32.279  1.00  0.00     0.074 A 
ATOM     52  C   UNL A   1      45.100  25.208  28.377  1.00  0.00     0.029 A 
ATOM     53  N   UNL A   1      44.039  24.448  30.157  1.00  0.00    -0.354 N 
ATOM     54  N   UNL A   1      44.146  27.823  31.626  1.00  0.00    -0.248 NA
ATOM     55  C   UNL A   1      44.073  28.775  33.715  1.00  0.00     0.031 C 
ATOM     56  C   UNL A   1      45.640  25.829  29.547  1.00  0.00     0.029 A 
ATOM     57  C   UNL A   1      44.958  25.350  30.652  1.00  0.00     0.049 A 
ATOM     58  H   UNL A   1      43.432  23.919  30.722  1.00  0.00     0.167 HD
ATOM     59  C   UNL A   1      44.585  26.864  32.495  1.00  0.00     0.074 A 
ATOM     60  C   UNL A   1      44.494  27.499  33.800  1.00  0.00     0.031 C 
ATOM     61  C   UNL A   1      44.975  25.620  32.084  1.00  0.00     0.037 A 
BRANCH  48  62
ATOM     62  C   UNL A   1      43.030  22.622  27.125  1.00  0.00     0.064 A 
ATOM     63  C   UNL A   1      42.249  21.462  27.326  1.00  0.00     0.173 A 
ATOM     64  C   UNL A   1      43.912  22.542  26.029  1.00  0.00     0.173 A 
ATOM     65  F   UNL A   1      41.316  21.405  28.287  1.00  0.00    -0.203 F 
ATOM     66  C   UNL A   1      42.397  20.308  26.552  1.00  0.00     0.198 A 
ATOM     67  C   UNL A   1      44.071  21.382  25.263  1.00  0.00     0.198 A 
ATOM     68  F   UNL A   1      44.639  23.579  25.615  1.00  0.00    -0.203 F 
ATOM     69  F   UNL A   1      41.637  19.234  26.813  1.00  0.00    -0.200 F 
ATOM     70  C   UNL A   1      43.320  20.261  25.531  1.00  0.00     0.200 A 
ATOM     71  F   UNL A   1      44.962  21.369  24.261  1.00  0.00    -0.200 F 
ATOM     72  F   UNL A   1      43.475  19.151  24.798  1.00  0.00    -0.200 F 
ENDBRANCH  48  62
BRANCH  49  73
ATOM     73  C   UNL A   1      42.113  30.967  32.156  1.00  0.00     0.064 A 
ATOM     74  C   UNL A   1      41.022  30.269  32.720  1.00  0.00     0.173 A 
ATOM     75  C   UNL A   1      42.301  32.296  32.551  1.00  0.00     0.173 A 
ATOM     76  F   UNL A   1      40.782  28.997  32.361  1.00  0.00    -0.203 F 
ATOM     77  C   UNL A   1      40.287  30.809  33.773  1.00  0.00     0.198 A 
ATOM     78  C   UNL A   1      41.532  32.847  33.579  1.00  0.00     0.198 A 
ATOM     79  F   UNL A   1      43.314  33.016  32.048  1.00  0.00    -0.203 F 
ATOM     80  F   UNL A   1      39.383  30.052  34.414  1.00  0.00    -0.200 F 
ATOM     81  C   UNL A   1      40.569  32.084  34.227  1.00  0.00     0.200 A 
ATOM     82  F   UNL A   1      41.798  34.086  34.018  1.00  0.00    -0.200 F 
ATOM     83  F   UNL A   1      39.947  32.560  35.315  1.00  0.00    -0.200 F 
ENDBRANCH  49  73
BRANCH  61  84
ATOM     84  C   UNL A   1      45.415  24.539  33.032  1.00  0.00     0.064 A 
ATOM     85  C   UNL A   1      44.540  23.544  33.491  1.00  0.00     0.173 A 
ATOM     86  C   UNL A   1      46.713  24.525  33.592  1.00  0.00     0.173 A 
ATOM     87  F   UNL A   1      43.260  23.520  33.090  1.00  0.00    -0.203 F 
ATOM     88  C   UNL A   1      44.958  22.559  34.387  1.00  0.00     0.198 A 
ATOM     89  C   UNL A   1      47.103  23.588  34.545  1.00  0.00     0.198 A 
ATOM     90  F   UNL A   1      47.659  25.393  33.208  1.00  0.00    -0.203 F 
ATOM     91  F   UNL A   1      44.113  21.578  34.733  1.00  0.00    -0.200 F 
ATOM     92  C   UNL A   1      46.233  22.588  34.923  1.00  0.00     0.200 A 
ATOM     93  F   UNL A   1      48.331  23.657  35.078  1.00  0.00    -0.200 F 
ATOM     94  F   UNL A   1      46.626  21.651  35.795  1.00  0.00    -0.200 F 
ENDBRANCH  61  84
ENDBRANCH  35  36
ENDBRANCH  27  30
ENDBRANCH  25  26
ENDBRANCH  24  25
ENDBRANCH   1  24
TORSDOF 15
ENDMDL
MODEL 2
REMARK VINA RESULT:     -12.6      1.147      2.082
REMARK SMILES Cc1cccc([C@@H](CC(=O)NCCCNC(=O)c2ccc(-c3c4nc(c(-c5c(F)c(F)c(F)c(F)c5F)c5ccc([nH]5)c(-c5c(F)c(F)c(F)c(F)c5F)c5nc(c(-c6c(F)c(F)c(F)c(F)c6F)c6ccc3[nH]6)C=C5)C=C4)cc2)NC(=O)OC(C)(C)C)c1
REMARK SMILES IDX 12 1 11 2 9 3 10 4 8 6 7 7 6 8 1 9 2 10 3 11 89 12 4 13 5 14
REMARK SMILES IDX 81 15 82 16 83 18 84 19 85 20 86 21 87 22 88 23 13 24 14 25
REMARK SMILES IDX 15 26 16 27 17 29 18 30 19 31 80 32 20 33 79 34 21 35 22 36
REMARK SMILES IDX 23 37 73 38 24 39 78 40 72 41 74 42 25 43 77 44 71 45 70 46
REMARK SMILES IDX 26 48 58 49 38 50 57 51 39 52 42 53 56 54 75 55 40 56 41 57
REMARK SMILES IDX 55 59 76 60 43 61 27 62 28 63 36 64 29 65 30 66 34 67 37 68
REMARK SMILES IDX 31 69 32 70 35 71 33 72 59 73 60 74 68 75 61 76 62 77 66 78
REMARK SMILES IDX 69 79 63 80 64 81 67 82 65 83 44 84 45 85 53 86 46 87 47 88
REMARK SMILES IDX 51 89 54 90 48 91 49 92 52 93 50 94
REMARK H PARENT 11 5 81 17 15 28 74 47 42 58
REMARK Flexibility Score: inf
ROOT
ATOM      1  C   UNL A   1      33.297  30.679  26.738  1.00  0.00     0.117 C 
ENDROOT
BRANCH   1   2
ATOM      2  N   UNL A   1      32.592  29.758  27.608  1.00  0.00    -0.356 N 
ATOM      3  C   UNL A   1      32.326  28.439  27.380  1.00  0.00     0.222 C 
ATOM      4  O   UNL A   1      31.403  27.922  28.011  1.00  0.00    -0.275 OA
ATOM      5  H   UNL A   1      32.267  30.126  28.461  1.00  0.00     0.163 HD
BRANCH   3   6
ATOM      6  C   UNL A   1      33.179  27.631  26.418  1.00  0.00     0.130 C 
BRANCH   6   7
ATOM      7  C   UNL A   1      32.636  26.244  26.027  1.00  0.00     0.125 C 
BRANCH   7   8
ATOM      8  C   UNL A   1      33.580  25.387  25.185  1.00  0.00    -0.025 A 
ATOM      9  C   UNL A   1      36.644  23.151  25.737  1.00  0.00     0.044 C 
ATOM     10  C   UNL A   1      35.536  23.909  25.063  1.00  0.00    -0.051 A 
ATOM     11  C   UNL A   1      35.411  23.861  23.672  1.00  0.00     0.003 A 
ATOM     12  C   UNL A   1      34.638  24.694  25.807  1.00  0.00     0.009 A 
ATOM     13  C   UNL A   1      34.348  24.504  23.044  1.00  0.00     0.001 A 
ATOM     14  C   UNL A   1      33.427  25.239  23.797  1.00  0.00     0.006 A 
ENDBRANCH   7   8
BRANCH   7  15
ATOM     15  N   UNL A   1      31.306  26.318  25.449  1.00  0.00    -0.314 N 
ATOM     16  C   UNL A   1      30.237  25.528  25.749  1.00  0.00     0.408 C 
ATOM     17  H   UNL A   1      31.162  27.013  24.767  1.00  0.00     0.167 HD
ATOM     18  O   UNL A   1      29.215  25.578  25.098  1.00  0.00    -0.225 OA
BRANCH  16  19
ATOM     19  O   UNL A   1      30.466  24.748  26.834  1.00  0.00    -0.444 OA
BRANCH  19  20
ATOM     20  C   UNL A   1      30.599  23.315  26.692  1.00  0.00     0.106 C 
ATOM     21  C   UNL A   1      29.379  22.575  27.254  1.00  0.00     0.056 C 
ATOM     22  C   UNL A   1      30.887  22.944  25.235  1.00  0.00     0.056 C 
ATOM     23  C   UNL A   1      31.822  22.953  27.548  1.00  0.00     0.056 C 
ENDBRANCH  19  20
ENDBRANCH  16  19
ENDBRANCH   7  15
ENDBRANCH   6   7
ENDBRANCH   3   6
ENDBRANCH   1   2
BRANCH   1  24
ATOM     24  C   UNL A   1      34.710  30.879  27.262  1.00  0.00     0.042 C 
BRANCH  24  25
ATOM     25  C   UNL A   1      34.797  31.356  28.699  1.00  0.00     0.118 C 
BRANCH  25  26
ATOM     26  N   UNL A   1      36.105  31.969  28.937  1.00  0.00    -0.352 N 
ATOM     27  C   UNL A   1      37.355  31.429  29.175  1.00  0.00     0.251 C 
ATOM     28  H   UNL A   1      36.093  32.954  28.924  1.00  0.00     0.163 HD
ATOM     29  O   UNL A   1      38.296  32.133  29.521  1.00  0.00    -0.269 OA
BRANCH  27  30
ATOM     30  C   UNL A   1      37.593  30.025  28.801  1.00  0.00     0.039 A 
ATOM     31  C   UNL A   1      37.690  29.168  29.905  1.00  0.00     0.014 A 
ATOM     32  C   UNL A   1      38.253  29.766  27.607  1.00  0.00     0.014 A 
ATOM     33  C   UNL A   1      38.757  28.293  29.964  1.00  0.00     0.010 A 
ATOM     34  C   UNL A   1      39.351  28.942  27.688  1.00  0.00     0.010 A 
ATOM     35  C   UNL A   1      39.656  28.319  28.909  1.00  0.00    -0.014 A 
BRANCH  35  36
ATOM     36  C   UNL A   1      40.977  27.734  28.974  1.00  0.00     0.031 A 
ATOM     37  C   UNL A   1      41.063  26.295  28.715  1.00  0.00     0.074 A 
ATOM     38  C   UNL A   1      42.060  28.534  29.101  1.00  0.00     0.049 A 
ATOM     39  N   UNL A   1      42.083  25.568  28.986  1.00  0.00    -0.248 NA
ATOM     40  C   UNL A   1      39.942  25.539  28.166  1.00  0.00     0.031 C 
ATOM     41  C   UNL A   1      43.458  28.202  28.853  1.00  0.00     0.029 A 
ATOM     42  N   UNL A   1      42.116  29.824  29.664  1.00  0.00    -0.354 N 
ATOM     43  C   UNL A   1      41.888  24.348  28.380  1.00  0.00     0.074 A 
ATOM     44  C   UNL A   1      40.500  24.338  27.998  1.00  0.00     0.031 C 
ATOM     45  C   UNL A   1      44.238  29.065  29.530  1.00  0.00     0.029 A 
ATOM     46  C   UNL A   1      43.357  29.877  30.351  1.00  0.00     0.049 A 
ATOM     47  H   UNL A   1      41.439  30.536  29.596  1.00  0.00     0.167 HD
ATOM     48  C   UNL A   1      42.989  23.575  28.160  1.00  0.00     0.037 A 
ATOM     49  C   UNL A   1      43.381  29.931  31.717  1.00  0.00     0.037 A 
ATOM     50  C   UNL A   1      44.148  24.163  28.840  1.00  0.00     0.049 A 
ATOM     51  C   UNL A   1      43.959  28.685  32.362  1.00  0.00     0.074 A 
ATOM     52  C   UNL A   1      45.189  24.986  28.446  1.00  0.00     0.029 A 
ATOM     53  N   UNL A   1      44.115  24.230  30.220  1.00  0.00    -0.354 N 
ATOM     54  N   UNL A   1      44.255  27.597  31.705  1.00  0.00    -0.248 NA
ATOM     55  C   UNL A   1      44.187  28.540  33.798  1.00  0.00     0.031 C 
ATOM     56  C   UNL A   1      45.733  25.595  29.621  1.00  0.00     0.029 A 
ATOM     57  C   UNL A   1      45.042  25.119  30.722  1.00  0.00     0.049 A 
ATOM     58  H   UNL A   1      43.499  23.705  30.780  1.00  0.00     0.167 HD
ATOM     59  C   UNL A   1      44.681  26.629  32.571  1.00  0.00     0.074 A 
ATOM     60  C   UNL A   1      44.593  27.259  33.878  1.00  0.00     0.031 C 
ATOM     61  C   UNL A   1      45.058  25.382  32.155  1.00  0.00     0.037 A 
BRANCH  48  62
ATOM     62  C   UNL A   1      43.094  22.430  27.176  1.00  0.00     0.064 A 
ATOM     63  C   UNL A   1      42.280  21.289  27.355  1.00  0.00     0.173 A 
ATOM     64  C   UNL A   1      43.995  22.334  26.096  1.00  0.00     0.173 A 
ATOM     65  F   UNL A   1      41.328  21.250  28.298  1.00  0.00    -0.203 F 
ATOM     66  C   UNL A   1      42.414  20.135  26.576  1.00  0.00     0.198 A 
ATOM     67  C   UNL A   1      44.139  21.175  25.327  1.00  0.00     0.198 A 
ATOM     68  F   UNL A   1      44.756  23.354  25.703  1.00  0.00    -0.203 F 
ATOM     69  F   UNL A   1      41.623  19.080  26.815  1.00  0.00    -0.200 F 
ATOM     70  C   UNL A   1      43.355  20.071  25.573  1.00  0.00     0.200 A 
ATOM     71  F   UNL A   1      45.049  21.145  24.342  1.00  0.00    -0.200 F 
ATOM     72  F   UNL A   1      43.496  18.962  24.836  1.00  0.00    -0.200 F 
ENDBRANCH  48  62
BRANCH  49  73
ATOM     73  C   UNL A   1      42.257  30.761  32.243  1.00  0.00     0.064 A 
ATOM     74  C   UNL A   1      41.150  30.073  32.788  1.00  0.00     0.173 A 
ATOM     75  C   UNL A   1      42.462  32.082  32.657  1.00  0.00     0.173 A 
ATOM     76  F   UNL A   1      40.894  28.810  32.411  1.00  0.00    -0.203 F 
ATOM     77  C   UNL A   1      40.414  30.610  33.841  1.00  0.00     0.198 A 
ATOM     78  C   UNL A   1      41.692  32.631  33.686  1.00  0.00     0.198 A 
ATOM     79  F   UNL A   1      43.490  32.793  32.173  1.00  0.00    -0.203 F 
ATOM     80  F   UNL A   1      39.493  29.859  34.465  1.00  0.00    -0.200 F 
ATOM     81  C   UNL A   1      40.711  31.875  34.315  1.00  0.00     0.200 A 
ATOM     82  F   UNL A   1      41.973  33.860  34.142  1.00  0.00    -0.200 F 
ATOM     83  F   UNL A   1      40.086  32.347  35.403  1.00  0.00    -0.200 F 
ENDBRANCH  49  73
BRANCH  61  84
ATOM     84  C   UNL A   1      45.483  24.291  33.100  1.00  0.00     0.064 A 
ATOM     85  C   UNL A   1      44.602  23.289  33.529  1.00  0.00     0.173 A 
ATOM     86  C   UNL A   1      46.769  24.276  33.686  1.00  0.00     0.173 A 
ATOM     87  F   UNL A   1      43.331  23.265  33.102  1.00  0.00    -0.203 F 
ATOM     88  C   UNL A   1      45.005  22.295  34.422  1.00  0.00     0.198 A 
ATOM     89  C   UNL A   1      47.142  23.329  34.636  1.00  0.00     0.198 A 
ATOM     90  F   UNL A   1      47.719  25.151  33.331  1.00  0.00    -0.203 F 
ATOM     91  F   UNL A   1      44.157  21.306  34.739  1.00  0.00    -0.200 F 
ATOM     92  C   UNL A   1      46.269  22.322  34.984  1.00  0.00     0.200 A 
ATOM     93  F   UNL A   1      48.359  23.396  35.194  1.00  0.00    -0.200 F 
ATOM     94  F   UNL A   1      46.648  21.376  35.853  1.00  0.00    -0.200 F 
ENDBRANCH  61  84
ENDBRANCH  35  36
ENDBRANCH  27  30
ENDBRANCH  25  26
ENDBRANCH  24  25
ENDBRANCH   1  24
TORSDOF 15
ENDMDL
MODEL 3
REMARK VINA RESULT:     -12.5      1.521      3.147
REMARK SMILES Cc1cccc([C@@H](CC(=O)NCCCNC(=O)c2ccc(-c3c4nc(c(-c5c(F)c(F)c(F)c(F)c5F)c5ccc([nH]5)c(-c5c(F)c(F)c(F)c(F)c5F)c5nc(c(-c6c(F)c(F)c(F)c(F)c6F)c6ccc3[nH]6)C=C5)C=C4)cc2)NC(=O)OC(C)(C)C)c1
REMARK SMILES IDX 12 1 11 2 9 3 10 4 8 6 7 7 6 8 1 9 2 10 3 11 89 12 4 13 5 14
REMARK SMILES IDX 81 15 82 16 83 18 84 19 85 20 86 21 87 22 88 23 13 24 14 25
REMARK SMILES IDX 15 26 16 27 17 29 18 30 19 31 80 32 20 33 79 34 21 35 22 36
REMARK SMILES IDX 23 37 73 38 24 39 78 40 72 41 74 42 25 43 77 44 71 45 70 46
REMARK SMILES IDX 26 48 58 49 38 50 57 51 39 52 42 53 56 54 75 55 40 56 41 57
REMARK SMILES IDX 55 59 76 60 43 61 27 62 28 63 36 64 29 65 30 66 34 67 37 68
REMARK SMILES IDX 31 69 32 70 35 71 33 72 59 73 60 74 68 75 61 76 62 77 66 78
REMARK SMILES IDX 69 79 63 80 64 81 67 82 65 83 44 84 45 85 53 86 46 87 47 88
REMARK SMILES IDX 51 89 54 90 48 91 49 92 52 93 50 94
REMARK H PARENT 11 5 81 17 15 28 74 47 42 58
REMARK Flexibility Score: inf
ROOT
ATOM      1  C   UNL A   1      32.763  30.787  26.990  1.00  0.00     0.117 C 
ENDROOT
BRANCH   1   2
ATOM      2  N   UNL A   1      33.273  30.093  25.824  1.00  0.00    -0.356 N 
ATOM      3  C   UNL A   1      32.849  28.900  25.316  1.00  0.00     0.222 C 
ATOM      4  O   UNL A   1      33.623  28.277  24.588  1.00  0.00    -0.275 OA
ATOM      5  H   UNL A   1      34.010  30.534  25.342  1.00  0.00     0.163 HD
BRANCH   3   6
ATOM      6  C   UNL A   1      31.447  28.389  25.602  1.00  0.00     0.130 C 
BRANCH   6   7
ATOM      7  C   UNL A   1      30.707  27.735  24.421  1.00  0.00     0.125 C 
BRANCH   7   8
ATOM      8  C   UNL A   1      30.793  26.211  24.360  1.00  0.00    -0.025 A 
ATOM      9  C   UNL A   1      30.521  23.249  26.779  1.00  0.00     0.044 C 
ATOM     10  C   UNL A   1      30.721  24.051  25.524  1.00  0.00    -0.051 A 
ATOM     11  C   UNL A   1      31.032  23.398  24.328  1.00  0.00     0.003 A 
ATOM     12  C   UNL A   1      30.633  25.453  25.538  1.00  0.00     0.009 A 
ATOM     13  C   UNL A   1      31.152  24.125  23.147  1.00  0.00     0.001 A 
ATOM     14  C   UNL A   1      31.009  25.516  23.159  1.00  0.00     0.006 A 
ENDBRANCH   7   8
BRANCH   7  15
ATOM     15  N   UNL A   1      31.047  28.351  23.151  1.00  0.00    -0.314 N 
ATOM     16  C   UNL A   1      30.384  29.365  22.528  1.00  0.00     0.408 C 
ATOM     17  H   UNL A   1      31.843  27.998  22.691  1.00  0.00     0.167 HD
ATOM     18  O   UNL A   1      30.667  29.701  21.397  1.00  0.00    -0.225 OA
BRANCH  16  19
ATOM     19  O   UNL A   1      29.438  29.922  23.323  1.00  0.00    -0.444 OA
BRANCH  19  20
ATOM     20  C   UNL A   1      28.077  30.064  22.854  1.00  0.00     0.106 C 
ATOM     21  C   UNL A   1      28.028  30.482  21.379  1.00  0.00     0.056 C 
ATOM     22  C   UNL A   1      27.278  28.788  23.126  1.00  0.00     0.056 C 
ATOM     23  C   UNL A   1      27.493  31.207  23.700  1.00  0.00     0.056 C 
ENDBRANCH  19  20
ENDBRANCH  16  19
ENDBRANCH   7  15
ENDBRANCH   6   7
ENDBRANCH   3   6
ENDBRANCH   1   2
BRANCH   1  24
ATOM     24  C   UNL A   1      33.831  31.730  27.518  1.00  0.00     0.042 C 
BRANCH  24  25
ATOM     25  C   UNL A   1      34.634  31.195  28.690  1.00  0.00     0.118 C 
BRANCH  25  26
ATOM     26  N   UNL A   1      35.938  31.860  28.739  1.00  0.00    -0.352 N 
ATOM     27  C   UNL A   1      37.216  31.383  28.957  1.00  0.00     0.251 C 
ATOM     28  H   UNL A   1      35.896  32.832  28.589  1.00  0.00     0.163 HD
ATOM     29  O   UNL A   1      38.158  32.147  29.129  1.00  0.00    -0.269 OA
BRANCH  27  30
ATOM     30  C   UNL A   1      37.468  29.945  28.768  1.00  0.00     0.039 A 
ATOM     31  C   UNL A   1      37.647  29.252  29.974  1.00  0.00     0.014 A 
ATOM     32  C   UNL A   1      38.068  29.533  27.586  1.00  0.00     0.014 A 
ATOM     33  C   UNL A   1      38.736  28.412  30.092  1.00  0.00     0.010 A 
ATOM     34  C   UNL A   1      39.188  28.746  27.717  1.00  0.00     0.010 A 
ATOM     35  C   UNL A   1      39.575  28.306  28.993  1.00  0.00    -0.014 A 
BRANCH  35  36
ATOM     36  C   UNL A   1      40.912  27.757  29.062  1.00  0.00     0.031 A 
ATOM     37  C   UNL A   1      41.047  26.334  28.743  1.00  0.00     0.074 A 
ATOM     38  C   UNL A   1      41.966  28.583  29.248  1.00  0.00     0.049 A 
ATOM     39  N   UNL A   1      42.083  25.627  29.006  1.00  0.00    -0.248 NA
ATOM     40  C   UNL A   1      39.961  25.570  28.138  1.00  0.00     0.031 C 
ATOM     41  C   UNL A   1      43.380  28.303  29.017  1.00  0.00     0.029 A 
ATOM     42  N   UNL A   1      41.972  29.848  29.867  1.00  0.00    -0.354 N 
ATOM     43  C   UNL A   1      41.938  24.429  28.344  1.00  0.00     0.074 A 
ATOM     44  C   UNL A   1      40.559  24.395  27.931  1.00  0.00     0.031 C 
ATOM     45  C   UNL A   1      44.118  29.158  29.748  1.00  0.00     0.029 A 
ATOM     46  C   UNL A   1      43.196  29.907  30.584  1.00  0.00     0.049 A 
ATOM     47  H   UNL A   1      41.275  30.542  29.815  1.00  0.00     0.167 HD
ATOM     48  C   UNL A   1      43.066  23.699  28.115  1.00  0.00     0.037 A 
ATOM     49  C   UNL A   1      43.189  29.902  31.951  1.00  0.00     0.037 A 
ATOM     50  C   UNL A   1      44.192  24.291  28.845  1.00  0.00     0.049 A 
ATOM     51  C   UNL A   1      43.791  28.647  32.554  1.00  0.00     0.074 A 
ATOM     52  C   UNL A   1      45.216  25.161  28.511  1.00  0.00     0.029 A 
ATOM     53  N   UNL A   1      44.128  24.297  30.226  1.00  0.00    -0.354 N 
ATOM     54  N   UNL A   1      44.134  27.598  31.857  1.00  0.00    -0.248 NA
ATOM     55  C   UNL A   1      43.993  28.446  33.988  1.00  0.00     0.031 C 
ATOM     56  C   UNL A   1      45.716  25.734  29.723  1.00  0.00     0.029 A 
ATOM     57  C   UNL A   1      45.017  25.189  30.787  1.00  0.00     0.049 A 
ATOM     58  H   UNL A   1      43.517  23.730  30.749  1.00  0.00     0.167 HD
ATOM     59  C   UNL A   1      44.571  26.606  32.690  1.00  0.00     0.074 A 
ATOM     60  C   UNL A   1      44.437  27.175  34.022  1.00  0.00     0.031 C 
ATOM     61  C   UNL A   1      44.994  25.390  32.230  1.00  0.00     0.037 A 
BRANCH  48  62
ATOM     62  C   UNL A   1      43.227  22.602  27.086  1.00  0.00     0.064 A 
ATOM     63  C   UNL A   1      42.466  21.418  27.213  1.00  0.00     0.173 A 
ATOM     64  C   UNL A   1      44.135  22.592  26.007  1.00  0.00     0.173 A 
ATOM     65  F   UNL A   1      41.513  21.297  28.148  1.00  0.00    -0.203 F 
ATOM     66  C   UNL A   1      42.655  20.306  26.388  1.00  0.00     0.198 A 
ATOM     67  C   UNL A   1      44.335  21.474  25.191  1.00  0.00     0.198 A 
ATOM     68  F   UNL A   1      44.850  23.661  25.661  1.00  0.00    -0.203 F 
ATOM     69  F   UNL A   1      41.912  19.207  26.579  1.00  0.00    -0.200 F 
ATOM     70  C   UNL A   1      43.601  20.326  25.388  1.00  0.00     0.200 A 
ATOM     71  F   UNL A   1      45.248  21.527  24.211  1.00  0.00    -0.200 F 
ATOM     72  F   UNL A   1      43.795  19.256  24.606  1.00  0.00    -0.200 F 
ENDBRANCH  48  62
BRANCH  49  73
ATOM     73  C   UNL A   1      42.029  30.675  32.487  1.00  0.00     0.064 A 
ATOM     74  C   UNL A   1      41.973  32.051  32.168  1.00  0.00     0.173 A 
ATOM     75  C   UNL A   1      40.829  30.043  32.827  1.00  0.00     0.173 A 
ATOM     76  F   UNL A   1      43.098  32.713  31.854  1.00  0.00    -0.203 F 
ATOM     77  C   UNL A   1      40.754  32.702  32.000  1.00  0.00     0.198 A 
ATOM     78  C   UNL A   1      39.611  30.715  32.697  1.00  0.00     0.198 A 
ATOM     79  F   UNL A   1      40.815  28.741  33.146  1.00  0.00    -0.203 F 
ATOM     80  F   UNL A   1      40.725  33.953  31.513  1.00  0.00    -0.200 F 
ATOM     81  C   UNL A   1      39.571  32.022  32.229  1.00  0.00     0.200 A 
ATOM     82  F   UNL A   1      38.463  30.060  32.924  1.00  0.00    -0.200 F 
ATOM     83  F   UNL A   1      38.398  32.607  31.953  1.00  0.00    -0.200 F 
ENDBRANCH  49  73
BRANCH  61  84
ATOM     84  C   UNL A   1      45.432  24.272  33.136  1.00  0.00     0.064 A 
ATOM     85  C   UNL A   1      44.567  23.238  33.519  1.00  0.00     0.173 A 
ATOM     86  C   UNL A   1      46.714  24.258  33.731  1.00  0.00     0.173 A 
ATOM     87  F   UNL A   1      43.299  23.208  33.082  1.00  0.00    -0.203 F 
ATOM     88  C   UNL A   1      44.982  22.219  34.378  1.00  0.00     0.198 A 
ATOM     89  C   UNL A   1      47.098  23.283  34.648  1.00  0.00     0.198 A 
ATOM     90  F   UNL A   1      47.651  25.163  33.417  1.00  0.00    -0.203 F 
ATOM     91  F   UNL A   1      44.150  21.204  34.650  1.00  0.00    -0.200 F 
ATOM     92  C   UNL A   1      46.241  22.247  34.951  1.00  0.00     0.200 A 
ATOM     93  F   UNL A   1      48.309  23.350  35.218  1.00  0.00    -0.200 F 
ATOM     94  F   UNL A   1      46.631  21.276  35.786  1.00  0.00    -0.200 F 
ENDBRANCH  61  84
ENDBRANCH  35  36
ENDBRANCH  27  30
ENDBRANCH  25  26
ENDBRANCH  24  25
ENDBRANCH   1  24
TORSDOF 15
ENDMDL
