MODEL 1
REMARK VINA RESULT:     -12.0      0.000      0.000
REMARK SMILES C[C@@H](C(=O)NCCCNC(=O)c1ccc(-c2c3nc(c(-c4c(F)c(F)c(F)c(F)c4F)c4ccc([nH]4)c(-c4c(F)c(F)c(F)c(F)c4F)c4nc(c(-c5c(F)c(F)c(F)c(F)c5F)c5ccc2[nH]5)C=C4)C=C3)cc1)N1C(=O)c2nccnc2C1=O
REMARK SMILES IDX 7 1 6 2 5 3 3 4 4 5 2 7 1 8 75 9 76 10 84 11 77 12 78 13
REMARK SMILES IDX 83 14 85 15 79 16 82 17 80 18 81 19 8 20 9 21 10 22 11 24
REMARK SMILES IDX 12 25 13 26 74 27 14 28 73 29 15 30 16 31 17 32 67 33 18 34
REMARK SMILES IDX 72 35 66 36 68 37 19 38 71 39 65 40 64 41 20 43 52 44 32 45
REMARK SMILES IDX 51 46 33 47 36 48 50 49 69 50 34 51 35 52 49 54 70 55 37 56
REMARK SMILES IDX 21 57 22 58 30 59 23 60 24 61 28 62 31 63 25 64 26 65 29 66
REMARK SMILES IDX 27 67 53 68 54 69 62 70 55 71 56 72 60 73 63 74 57 75 58 76
REMARK SMILES IDX 61 77 59 78 38 79 39 80 47 81 40 82 41 83 45 84 48 85 42 86
REMARK SMILES IDX 43 87 46 88 44 89
REMARK H PARENT 5 6 9 23 68 42 36 53
REMARK Flexibility Score: inf
ROOT
ATOM      1  C   UNL A   1      41.224  19.957  27.562  1.00  0.00     0.042 C 
ENDROOT
BRANCH   1   2
ATOM      2  C   UNL A   1      41.615  19.402  26.197  1.00  0.00     0.117 C 
BRANCH   2   3
ATOM      3  N   UNL A   1      42.845  18.631  26.250  1.00  0.00    -0.354 N 
ATOM      4  C   UNL A   1      43.981  18.750  25.499  1.00  0.00     0.243 C 
ATOM      5  O   UNL A   1      44.930  18.016  25.787  1.00  0.00    -0.273 OA
ATOM      6  H   UNL A   1      42.862  17.917  26.927  1.00  0.00     0.163 HD
BRANCH   4   7
ATOM      7  C   UNL A   1      44.044  19.775  24.351  1.00  0.00     0.180 C 
ATOM      8  C   UNL A   1      44.900  19.308  23.180  1.00  0.00     0.042 C 
BRANCH   7   9
ATOM      9  N   UNL A   1      44.488  21.057  24.897  1.00  0.00    -0.259 N 
ATOM     10  C   UNL A   1      43.684  22.148  25.128  1.00  0.00     0.282 C 
ATOM     11  C   UNL A   1      45.806  21.341  25.144  1.00  0.00     0.282 C 
ATOM     12  O   UNL A   1      42.481  22.246  24.995  1.00  0.00    -0.267 OA
ATOM     13  C   UNL A   1      44.567  23.205  25.627  1.00  0.00     0.160 A 
ATOM     14  C   UNL A   1      45.847  22.716  25.640  1.00  0.00     0.160 A 
ATOM     15  O   UNL A   1      46.764  20.601  25.005  1.00  0.00    -0.267 OA
ATOM     16  N   UNL A   1      44.213  24.416  26.099  1.00  0.00    -0.247 NA
ATOM     17  N   UNL A   1      46.910  23.384  26.126  1.00  0.00    -0.247 NA
ATOM     18  C   UNL A   1      45.271  25.117  26.585  1.00  0.00     0.132 A 
ATOM     19  C   UNL A   1      46.581  24.616  26.599  1.00  0.00     0.132 A 
ENDBRANCH   7   9
ENDBRANCH   4   7
ENDBRANCH   2   3
ENDBRANCH   1   2
BRANCH   1  20
ATOM     20  C   UNL A   1      40.769  21.412  27.538  1.00  0.00     0.118 C 
BRANCH  20  21
ATOM     21  N   UNL A   1      39.717  21.656  26.565  1.00  0.00    -0.352 N 
ATOM     22  C   UNL A   1      39.004  22.794  26.289  1.00  0.00     0.251 C 
ATOM     23  H   UNL A   1      39.476  20.876  26.014  1.00  0.00     0.163 HD
ATOM     24  O   UNL A   1      38.036  22.724  25.535  1.00  0.00    -0.269 OA
BRANCH  22  25
ATOM     25  C   UNL A   1      39.367  24.099  26.889  1.00  0.00     0.039 A 
ATOM     26  C   UNL A   1      40.114  24.998  26.122  1.00  0.00     0.014 A 
ATOM     27  C   UNL A   1      39.046  24.423  28.210  1.00  0.00     0.014 A 
ATOM     28  C   UNL A   1      40.513  26.222  26.666  1.00  0.00     0.010 A 
ATOM     29  C   UNL A   1      39.363  25.680  28.721  1.00  0.00     0.010 A 
ATOM     30  C   UNL A   1      40.127  26.583  27.966  1.00  0.00    -0.014 A 
BRANCH  30  31
ATOM     31  C   UNL A   1      40.561  27.874  28.560  1.00  0.00     0.031 A 
ATOM     32  C   UNL A   1      42.004  28.088  28.938  1.00  0.00     0.074 A 
ATOM     33  C   UNL A   1      39.660  28.847  28.787  1.00  0.00     0.049 A 
ATOM     34  N   UNL A   1      42.575  29.133  29.483  1.00  0.00    -0.248 NA
ATOM     35  C   UNL A   1      42.923  26.965  28.695  1.00  0.00     0.031 C 
ATOM     36  C   UNL A   1      38.226  28.750  28.515  1.00  0.00     0.029 A 
ATOM     37  N   UNL A   1      39.815  30.110  29.303  1.00  0.00    -0.354 N 
ATOM     38  C   UNL A   1      43.911  28.791  29.652  1.00  0.00     0.074 A 
ATOM     39  C   UNL A   1      44.051  27.416  29.223  1.00  0.00     0.031 C 
ATOM     40  C   UNL A   1      37.636  29.910  28.842  1.00  0.00     0.029 A 
ATOM     41  C   UNL A   1      38.643  30.821  29.381  1.00  0.00     0.049 A 
ATOM     42  H   UNL A   1      40.685  30.472  29.591  1.00  0.00     0.167 HD
ATOM     43  C   UNL A   1      44.936  29.560  30.091  1.00  0.00     0.037 A 
ATOM     44  C   UNL A   1      38.406  32.066  29.837  1.00  0.00     0.037 A 
ATOM     45  C   UNL A   1      44.797  30.930  30.510  1.00  0.00     0.049 A 
ATOM     46  C   UNL A   1      39.558  32.901  30.328  1.00  0.00     0.074 A 
ATOM     47  C   UNL A   1      45.777  31.807  30.943  1.00  0.00     0.029 A 
ATOM     48  N   UNL A   1      43.595  31.624  30.552  1.00  0.00    -0.354 N 
ATOM     49  N   UNL A   1      40.828  32.588  30.423  1.00  0.00    -0.248 NA
ATOM     50  C   UNL A   1      39.246  34.271  30.756  1.00  0.00     0.031 C 
ATOM     51  C   UNL A   1      45.162  33.012  31.297  1.00  0.00     0.029 A 
ATOM     52  C   UNL A   1      43.808  32.912  31.019  1.00  0.00     0.049 A 
ATOM     53  H   UNL A   1      42.721  31.255  30.291  1.00  0.00     0.167 HD
ATOM     54  C   UNL A   1      41.469  33.729  30.887  1.00  0.00     0.074 A 
ATOM     55  C   UNL A   1      40.449  34.746  31.039  1.00  0.00     0.031 C 
ATOM     56  C   UNL A   1      42.785  33.919  31.159  1.00  0.00     0.037 A 
BRANCH  43  57
ATOM     57  C   UNL A   1      46.301  28.928  30.137  1.00  0.00     0.064 A 
ATOM     58  C   UNL A   1      47.166  28.962  29.030  1.00  0.00     0.173 A 
ATOM     59  C   UNL A   1      46.757  28.293  31.301  1.00  0.00     0.173 A 
ATOM     60  F   UNL A   1      46.778  29.547  27.887  1.00  0.00    -0.203 F 
ATOM     61  C   UNL A   1      48.415  28.346  29.074  1.00  0.00     0.198 A 
ATOM     62  C   UNL A   1      48.022  27.711  31.354  1.00  0.00     0.198 A 
ATOM     63  F   UNL A   1      45.979  28.237  32.392  1.00  0.00    -0.203 F 
ATOM     64  F   UNL A   1      49.192  28.333  27.983  1.00  0.00    -0.200 F 
ATOM     65  C   UNL A   1      48.844  27.727  30.237  1.00  0.00     0.200 A 
ATOM     66  F   UNL A   1      48.443  27.128  32.485  1.00  0.00    -0.200 F 
ATOM     67  F   UNL A   1      50.046  27.136  30.279  1.00  0.00    -0.200 F 
ENDBRANCH  43  57
BRANCH  44  68
ATOM     68  C   UNL A   1      37.020  32.606  29.823  1.00  0.00     0.064 A 
ATOM     69  C   UNL A   1      36.515  33.279  28.703  1.00  0.00     0.173 A 
ATOM     70  C   UNL A   1      36.171  32.456  30.931  1.00  0.00     0.173 A 
ATOM     71  F   UNL A   1      37.293  33.465  27.626  1.00  0.00    -0.203 F 
ATOM     72  C   UNL A   1      35.224  33.804  28.698  1.00  0.00     0.198 A 
ATOM     73  C   UNL A   1      34.869  32.951  30.912  1.00  0.00     0.198 A 
ATOM     74  F   UNL A   1      36.601  31.811  32.025  1.00  0.00    -0.203 F 
ATOM     75  F   UNL A   1      34.785  34.487  27.632  1.00  0.00    -0.200 F 
ATOM     76  C   UNL A   1      34.400  33.634  29.800  1.00  0.00     0.200 A 
ATOM     77  F   UNL A   1      34.070  32.768  31.972  1.00  0.00    -0.200 F 
ATOM     78  F   UNL A   1      33.156  34.131  29.792  1.00  0.00    -0.200 F 
ENDBRANCH  44  68
BRANCH  56  79
ATOM     79  C   UNL A   1      43.207  35.294  31.597  1.00  0.00     0.064 A 
ATOM     80  C   UNL A   1      43.691  36.248  30.691  1.00  0.00     0.173 A 
ATOM     81  C   UNL A   1      43.104  35.666  32.947  1.00  0.00     0.173 A 
ATOM     82  F   UNL A   1      43.821  35.942  29.392  1.00  0.00    -0.203 F 
ATOM     83  C   UNL A   1      44.095  37.509  31.126  1.00  0.00     0.198 A 
ATOM     84  C   UNL A   1      43.472  36.939  33.372  1.00  0.00     0.198 A 
ATOM     85  F   UNL A   1      42.638  34.796  33.856  1.00  0.00    -0.203 F 
ATOM     86  F   UNL A   1      44.615  38.382  30.252  1.00  0.00    -0.200 F 
ATOM     87  C   UNL A   1      43.978  37.855  32.464  1.00  0.00     0.200 A 
ATOM     88  F   UNL A   1      43.342  37.277  34.663  1.00  0.00    -0.200 F 
ATOM     89  F   UNL A   1      44.365  39.069  32.880  1.00  0.00    -0.200 F 
ENDBRANCH  56  79
ENDBRANCH  30  31
ENDBRANCH  22  25
ENDBRANCH  20  21
ENDBRANCH   1  20
TORSDOF 11
ENDMDL
MODEL 2
REMARK VINA RESULT:     -11.6      5.649     11.106
REMARK SMILES C[C@@H](C(=O)NCCCNC(=O)c1ccc(-c2c3nc(c(-c4c(F)c(F)c(F)c(F)c4F)c4ccc([nH]4)c(-c4c(F)c(F)c(F)c(F)c4F)c4nc(c(-c5c(F)c(F)c(F)c(F)c5F)c5ccc2[nH]5)C=C4)C=C3)cc1)N1C(=O)c2nccnc2C1=O
REMARK SMILES IDX 7 1 6 2 5 3 3 4 4 5 2 7 1 8 75 9 76 10 84 11 77 12 78 13
REMARK SMILES IDX 83 14 85 15 79 16 82 17 80 18 81 19 8 20 9 21 10 22 11 24
REMARK SMILES IDX 12 25 13 26 74 27 14 28 73 29 15 30 16 31 17 32 67 33 18 34
REMARK SMILES IDX 72 35 66 36 68 37 19 38 71 39 65 40 64 41 20 43 52 44 32 45
REMARK SMILES IDX 51 46 33 47 36 48 50 49 69 50 34 51 35 52 49 54 70 55 37 56
REMARK SMILES IDX 21 57 22 58 30 59 23 60 24 61 28 62 31 63 25 64 26 65 29 66
REMARK SMILES IDX 27 67 53 68 54 69 62 70 55 71 56 72 60 73 63 74 57 75 58 76
REMARK SMILES IDX 61 77 59 78 38 79 39 80 47 81 40 82 41 83 45 84 48 85 42 86
REMARK SMILES IDX 43 87 46 88 44 89
REMARK H PARENT 5 6 9 23 68 42 36 53
REMARK Flexibility Score: inf
ROOT
ATOM      1  C   UNL A   1      31.387  32.190  26.542  1.00  0.00     0.042 C 
ENDROOT
BRANCH   1   2
ATOM      2  C   UNL A   1      31.458  30.672  26.410  1.00  0.00     0.117 C 
BRANCH   2   3
ATOM      3  N   UNL A   1      31.115  30.222  25.073  1.00  0.00    -0.354 N 
ATOM      4  C   UNL A   1      31.614  29.174  24.351  1.00  0.00     0.243 C 
ATOM      5  O   UNL A   1      31.103  28.948  23.252  1.00  0.00    -0.273 OA
ATOM      6  H   UNL A   1      30.420  30.751  24.619  1.00  0.00     0.163 HD
BRANCH   4   7
ATOM      7  C   UNL A   1      32.765  28.323  24.922  1.00  0.00     0.180 C 
ATOM      8  C   UNL A   1      34.019  28.357  24.054  1.00  0.00     0.042 C 
BRANCH   7   9
ATOM      9  N   UNL A   1      32.272  26.965  25.145  1.00  0.00    -0.259 N 
ATOM     10  C   UNL A   1      32.274  25.951  24.215  1.00  0.00     0.282 C 
ATOM     11  C   UNL A   1      31.646  26.585  26.303  1.00  0.00     0.282 C 
ATOM     12  O   UNL A   1      32.727  25.956  23.089  1.00  0.00    -0.267 OA
ATOM     13  C   UNL A   1      31.645  24.801  24.867  1.00  0.00     0.160 A 
ATOM     14  C   UNL A   1      31.270  25.182  26.129  1.00  0.00     0.160 A 
ATOM     15  O   UNL A   1      31.452  27.259  27.299  1.00  0.00    -0.267 OA
ATOM     16  N   UNL A   1      31.532  23.546  24.389  1.00  0.00    -0.247 NA
ATOM     17  N   UNL A   1      30.741  24.351  27.047  1.00  0.00    -0.247 NA
ATOM     18  C   UNL A   1      30.989  22.689  25.294  1.00  0.00     0.132 A 
ATOM     19  C   UNL A   1      30.606  23.080  26.585  1.00  0.00     0.132 A 
ENDBRANCH   7   9
ENDBRANCH   4   7
ENDBRANCH   2   3
ENDBRANCH   1   2
BRANCH   1  20
ATOM     20  C   UNL A   1      32.703  32.844  26.949  1.00  0.00     0.118 C 
BRANCH  20  21
ATOM     21  N   UNL A   1      32.514  34.136  27.589  1.00  0.00    -0.352 N 
ATOM     22  C   UNL A   1      33.114  34.677  28.697  1.00  0.00     0.251 C 
ATOM     23  H   UNL A   1      31.847  34.716  27.157  1.00  0.00     0.163 HD
ATOM     24  O   UNL A   1      32.673  35.727  29.161  1.00  0.00    -0.269 OA
BRANCH  22  25
ATOM     25  C   UNL A   1      34.269  34.020  29.351  1.00  0.00     0.039 A 
ATOM     26  C   UNL A   1      35.558  34.404  28.965  1.00  0.00     0.014 A 
ATOM     27  C   UNL A   1      34.107  32.991  30.282  1.00  0.00     0.014 A 
ATOM     28  C   UNL A   1      36.674  33.778  29.527  1.00  0.00     0.010 A 
ATOM     29  C   UNL A   1      35.219  32.432  30.910  1.00  0.00     0.010 A 
ATOM     30  C   UNL A   1      36.516  32.797  30.519  1.00  0.00    -0.014 A 
BRANCH  30  31
ATOM     31  C   UNL A   1      37.696  32.113  31.110  1.00  0.00     0.031 A 
ATOM     32  C   UNL A   1      38.173  32.481  32.490  1.00  0.00     0.074 A 
ATOM     33  C   UNL A   1      38.357  31.180  30.400  1.00  0.00     0.049 A 
ATOM     34  N   UNL A   1      39.190  32.014  33.170  1.00  0.00    -0.248 NA
ATOM     35  C   UNL A   1      37.423  33.537  33.189  1.00  0.00     0.031 C 
ATOM     36  C   UNL A   1      38.029  30.767  29.036  1.00  0.00     0.029 A 
ATOM     37  N   UNL A   1      39.447  30.411  30.728  1.00  0.00    -0.354 N 
ATOM     38  C   UNL A   1      39.203  32.720  34.367  1.00  0.00     0.074 A 
ATOM     39  C   UNL A   1      38.141  33.699  34.290  1.00  0.00     0.031 C 
ATOM     40  C   UNL A   1      38.882  29.805  28.651  1.00  0.00     0.029 A 
ATOM     41  C   UNL A   1      39.839  29.557  29.726  1.00  0.00     0.049 A 
ATOM     42  H   UNL A   1      39.905  30.467  31.598  1.00  0.00     0.167 HD
ATOM     43  C   UNL A   1      40.003  32.548  35.447  1.00  0.00     0.037 A 
ATOM     44  C   UNL A   1      40.855  28.675  29.679  1.00  0.00     0.037 A 
ATOM     45  C   UNL A   1      41.054  31.567  35.526  1.00  0.00     0.049 A 
ATOM     46  C   UNL A   1      41.737  28.505  30.887  1.00  0.00     0.074 A 
ATOM     47  C   UNL A   1      41.902  31.290  36.585  1.00  0.00     0.029 A 
ATOM     48  N   UNL A   1      41.406  30.703  34.498  1.00  0.00    -0.354 N 
ATOM     49  N   UNL A   1      41.699  29.134  32.037  1.00  0.00    -0.248 NA
ATOM     50  C   UNL A   1      42.791  27.486  30.797  1.00  0.00     0.031 C 
ATOM     51  C   UNL A   1      42.799  30.297  36.180  1.00  0.00     0.029 A 
ATOM     52  C   UNL A   1      42.468  29.904  34.893  1.00  0.00     0.049 A 
ATOM     53  H   UNL A   1      40.967  30.665  33.618  1.00  0.00     0.167 HD
ATOM     54  C   UNL A   1      42.697  28.565  32.818  1.00  0.00     0.074 A 
ATOM     55  C   UNL A   1      43.313  27.529  32.014  1.00  0.00     0.031 C 
ATOM     56  C   UNL A   1      43.068  28.870  34.086  1.00  0.00     0.037 A 
BRANCH  43  57
ATOM     57  C   UNL A   1      39.764  33.444  36.632  1.00  0.00     0.064 A 
ATOM     58  C   UNL A   1      38.874  33.086  37.658  1.00  0.00     0.173 A 
ATOM     59  C   UNL A   1      40.439  34.667  36.752  1.00  0.00     0.173 A 
ATOM     60  F   UNL A   1      38.193  31.932  37.590  1.00  0.00    -0.203 F 
ATOM     61  C   UNL A   1      38.637  33.939  38.734  1.00  0.00     0.198 A 
ATOM     62  C   UNL A   1      40.228  35.500  37.849  1.00  0.00     0.198 A 
ATOM     63  F   UNL A   1      41.308  35.057  35.807  1.00  0.00    -0.203 F 
ATOM     64  F   UNL A   1      37.731  33.605  39.664  1.00  0.00    -0.200 F 
ATOM     65  C   UNL A   1      39.318  35.141  38.832  1.00  0.00     0.200 A 
ATOM     66  F   UNL A   1      40.901  36.654  37.951  1.00  0.00    -0.200 F 
ATOM     67  F   UNL A   1      39.091  35.960  39.868  1.00  0.00    -0.200 F 
ENDBRANCH  43  57
BRANCH  44  68
ATOM     68  C   UNL A   1      41.075  27.866  28.451  1.00  0.00     0.064 A 
ATOM     69  C   UNL A   1      40.430  26.635  28.268  1.00  0.00     0.173 A 
ATOM     70  C   UNL A   1      41.933  28.310  27.432  1.00  0.00     0.173 A 
ATOM     71  F   UNL A   1      39.615  26.158  29.221  1.00  0.00    -0.203 F 
ATOM     72  C   UNL A   1      40.653  25.867  27.127  1.00  0.00     0.198 A 
ATOM     73  C   UNL A   1      42.129  27.557  26.277  1.00  0.00     0.198 A 
ATOM     74  F   UNL A   1      42.567  29.485  27.553  1.00  0.00    -0.203 F 
ATOM     75  F   UNL A   1      40.062  24.671  27.001  1.00  0.00    -0.200 F 
ATOM     76  C   UNL A   1      41.496  26.332  26.129  1.00  0.00     0.200 A 
ATOM     77  F   UNL A   1      42.930  28.018  25.307  1.00  0.00    -0.200 F 
ATOM     78  F   UNL A   1      41.703  25.597  25.028  1.00  0.00    -0.200 F 
ENDBRANCH  44  68
BRANCH  56  79
ATOM     79  C   UNL A   1      44.156  28.038  34.707  1.00  0.00     0.064 A 
ATOM     80  C   UNL A   1      45.505  28.416  34.655  1.00  0.00     0.173 A 
ATOM     81  C   UNL A   1      43.835  26.850  35.383  1.00  0.00     0.173 A 
ATOM     82  F   UNL A   1      45.869  29.536  34.012  1.00  0.00    -0.203 F 
ATOM     83  C   UNL A   1      46.496  27.617  35.220  1.00  0.00     0.198 A 
ATOM     84  C   UNL A   1      44.823  26.073  35.980  1.00  0.00     0.198 A 
ATOM     85  F   UNL A   1      42.559  26.445  35.472  1.00  0.00    -0.203 F 
ATOM     86  F   UNL A   1      47.784  27.966  35.102  1.00  0.00    -0.200 F 
ATOM     87  C   UNL A   1      46.154  26.450  35.888  1.00  0.00     0.200 A 
ATOM     88  F   UNL A   1      44.488  24.955  36.640  1.00  0.00    -0.200 F 
ATOM     89  F   UNL A   1      47.108  25.683  36.434  1.00  0.00    -0.200 F 
ENDBRANCH  56  79
ENDBRANCH  30  31
ENDBRANCH  22  25
ENDBRANCH  20  21
ENDBRANCH   1  20
TORSDOF 11
ENDMDL
MODEL 3
REMARK VINA RESULT:     -11.6      5.667     11.115
REMARK SMILES C[C@@H](C(=O)NCCCNC(=O)c1ccc(-c2c3nc(c(-c4c(F)c(F)c(F)c(F)c4F)c4ccc([nH]4)c(-c4c(F)c(F)c(F)c(F)c4F)c4nc(c(-c5c(F)c(F)c(F)c(F)c5F)c5ccc2[nH]5)C=C4)C=C3)cc1)N1C(=O)c2nccnc2C1=O
REMARK SMILES IDX 7 1 6 2 5 3 3 4 4 5 2 7 1 8 75 9 76 10 84 11 77 12 78 13
REMARK SMILES IDX 83 14 85 15 79 16 82 17 80 18 81 19 8 20 9 21 10 22 11 24
REMARK SMILES IDX 12 25 13 26 74 27 14 28 73 29 15 30 16 31 17 32 67 33 18 34
REMARK SMILES IDX 72 35 66 36 68 37 19 38 71 39 65 40 64 41 20 43 52 44 32 45
REMARK SMILES IDX 51 46 33 47 36 48 50 49 69 50 34 51 35 52 49 54 70 55 37 56
REMARK SMILES IDX 21 57 22 58 30 59 23 60 24 61 28 62 31 63 25 64 26 65 29 66
REMARK SMILES IDX 27 67 53 68 54 69 62 70 55 71 56 72 60 73 63 74 57 75 58 76
REMARK SMILES IDX 61 77 59 78 38 79 39 80 47 81 40 82 41 83 45 84 48 85 42 86
REMARK SMILES IDX 43 87 46 88 44 89
REMARK H PARENT 5 6 9 23 68 42 36 53
REMARK Flexibility Score: inf
ROOT
ATOM      1  C   UNL A   1      31.384  32.274  26.525  1.00  0.00     0.042 C 
ENDROOT
BRANCH   1   2
ATOM      2  C   UNL A   1      31.429  30.753  26.415  1.00  0.00     0.117 C 
BRANCH   2   3
ATOM      3  N   UNL A   1      31.074  30.289  25.086  1.00  0.00    -0.354 N 
ATOM      4  C   UNL A   1      31.564  29.231  24.372  1.00  0.00     0.243 C 
ATOM      5  O   UNL A   1      31.043  28.995  23.279  1.00  0.00    -0.273 OA
ATOM      6  H   UNL A   1      30.377  30.815  24.631  1.00  0.00     0.163 HD
BRANCH   4   7
ATOM      7  C   UNL A   1      32.717  28.383  24.943  1.00  0.00     0.180 C 
ATOM      8  C   UNL A   1      33.977  28.438  24.088  1.00  0.00     0.042 C 
BRANCH   7   9
ATOM      9  N   UNL A   1      32.232  27.019  25.146  1.00  0.00    -0.259 N 
ATOM     10  C   UNL A   1      32.230  26.023  24.198  1.00  0.00     0.282 C 
ATOM     11  C   UNL A   1      31.620  26.614  26.303  1.00  0.00     0.282 C 
ATOM     12  O   UNL A   1      32.672  26.051  23.067  1.00  0.00    -0.267 OA
ATOM     13  C   UNL A   1      31.613  24.857  24.835  1.00  0.00     0.160 A 
ATOM     14  C   UNL A   1      31.248  25.213  26.107  1.00  0.00     0.160 A 
ATOM     15  O   UNL A   1      31.432  27.270  27.314  1.00  0.00    -0.267 OA
ATOM     16  N   UNL A   1      31.501  23.611  24.335  1.00  0.00    -0.247 NA
ATOM     17  N   UNL A   1      30.733  24.363  27.015  1.00  0.00    -0.247 NA
ATOM     18  C   UNL A   1      30.972  22.735  25.229  1.00  0.00     0.132 A 
ATOM     19  C   UNL A   1      30.599  23.099  26.531  1.00  0.00     0.132 A 
ENDBRANCH   7   9
ENDBRANCH   4   7
ENDBRANCH   2   3
ENDBRANCH   1   2
BRANCH   1  20
ATOM     20  C   UNL A   1      32.695  32.906  26.981  1.00  0.00     0.118 C 
BRANCH  20  21
ATOM     21  N   UNL A   1      32.502  34.194  27.629  1.00  0.00    -0.352 N 
ATOM     22  C   UNL A   1      33.099  34.731  28.740  1.00  0.00     0.251 C 
ATOM     23  H   UNL A   1      31.833  34.774  27.200  1.00  0.00     0.163 HD
ATOM     24  O   UNL A   1      32.656  35.776  29.210  1.00  0.00    -0.269 OA
BRANCH  22  25
ATOM     25  C   UNL A   1      34.257  34.074  29.391  1.00  0.00     0.039 A 
ATOM     26  C   UNL A   1      35.544  34.441  28.986  1.00  0.00     0.014 A 
ATOM     27  C   UNL A   1      34.096  33.058  30.338  1.00  0.00     0.014 A 
ATOM     28  C   UNL A   1      36.661  33.814  29.544  1.00  0.00     0.010 A 
ATOM     29  C   UNL A   1      35.211  32.499  30.962  1.00  0.00     0.010 A 
ATOM     30  C   UNL A   1      36.506  32.848  30.551  1.00  0.00    -0.014 A 
BRANCH  30  31
ATOM     31  C   UNL A   1      37.687  32.162  31.139  1.00  0.00     0.031 A 
ATOM     32  C   UNL A   1      38.168  32.531  32.518  1.00  0.00     0.074 A 
ATOM     33  C   UNL A   1      38.344  31.228  30.428  1.00  0.00     0.049 A 
ATOM     34  N   UNL A   1      39.187  32.062  33.195  1.00  0.00    -0.248 NA
ATOM     35  C   UNL A   1      37.422  33.588  33.218  1.00  0.00     0.031 C 
ATOM     36  C   UNL A   1      38.012  30.815  29.065  1.00  0.00     0.029 A 
ATOM     37  N   UNL A   1      39.434  30.458  30.753  1.00  0.00    -0.354 N 
ATOM     38  C   UNL A   1      39.205  32.769  34.391  1.00  0.00     0.074 A 
ATOM     39  C   UNL A   1      38.144  33.750  34.317  1.00  0.00     0.031 C 
ATOM     40  C   UNL A   1      38.862  29.851  28.678  1.00  0.00     0.029 A 
ATOM     41  C   UNL A   1      39.822  29.603  29.750  1.00  0.00     0.049 A 
ATOM     42  H   UNL A   1      39.894  30.514  31.622  1.00  0.00     0.167 HD
ATOM     43  C   UNL A   1      40.007  32.596  35.469  1.00  0.00     0.037 A 
ATOM     44  C   UNL A   1      40.837  28.719  29.701  1.00  0.00     0.037 A 
ATOM     45  C   UNL A   1      41.057  31.615  35.546  1.00  0.00     0.049 A 
ATOM     46  C   UNL A   1      41.722  28.548  30.906  1.00  0.00     0.074 A 
ATOM     47  C   UNL A   1      41.908  31.337  36.602  1.00  0.00     0.029 A 
ATOM     48  N   UNL A   1      41.405  30.750  34.517  1.00  0.00    -0.354 N 
ATOM     49  N   UNL A   1      41.688  29.178  32.056  1.00  0.00    -0.248 NA
ATOM     50  C   UNL A   1      42.774  27.528  30.814  1.00  0.00     0.031 C 
ATOM     51  C   UNL A   1      42.802  30.342  36.195  1.00  0.00     0.029 A 
ATOM     52  C   UNL A   1      42.467  29.949  34.909  1.00  0.00     0.049 A 
ATOM     53  H   UNL A   1      40.963  30.711  33.638  1.00  0.00     0.167 HD
ATOM     54  C   UNL A   1      42.688  28.608  32.834  1.00  0.00     0.074 A 
ATOM     55  C   UNL A   1      43.300  27.571  32.029  1.00  0.00     0.031 C 
ATOM     56  C   UNL A   1      43.063  28.914  34.101  1.00  0.00     0.037 A 
BRANCH  43  57
ATOM     57  C   UNL A   1      39.773  33.493  36.654  1.00  0.00     0.064 A 
ATOM     58  C   UNL A   1      38.899  33.130  37.692  1.00  0.00     0.173 A 
ATOM     59  C   UNL A   1      40.437  34.724  36.763  1.00  0.00     0.173 A 
ATOM     60  F   UNL A   1      38.229  31.969  37.635  1.00  0.00    -0.203 F 
ATOM     61  C   UNL A   1      38.666  33.983  38.768  1.00  0.00     0.198 A 
ATOM     62  C   UNL A   1      40.230  35.558  37.859  1.00  0.00     0.198 A 
ATOM     63  F   UNL A   1      41.291  35.120  35.807  1.00  0.00    -0.203 F 
ATOM     64  F   UNL A   1      37.775  33.643  39.710  1.00  0.00    -0.200 F 
ATOM     65  C   UNL A   1      39.336  35.193  38.854  1.00  0.00     0.200 A 
ATOM     66  F   UNL A   1      40.893  36.720  37.950  1.00  0.00    -0.200 F 
ATOM     67  F   UNL A   1      39.113  36.012  39.891  1.00  0.00    -0.200 F 
ENDBRANCH  43  57
BRANCH  44  68
ATOM     68  C   UNL A   1      41.052  27.909  28.472  1.00  0.00     0.064 A 
ATOM     69  C   UNL A   1      41.890  28.361  27.444  1.00  0.00     0.173 A 
ATOM     70  C   UNL A   1      40.424  26.666  28.303  1.00  0.00     0.173 A 
ATOM     71  F   UNL A   1      42.499  29.552  27.549  1.00  0.00    -0.203 F 
ATOM     72  C   UNL A   1      42.075  27.612  26.283  1.00  0.00     0.198 A 
ATOM     73  C   UNL A   1      40.636  25.903  27.157  1.00  0.00     0.198 A 
ATOM     74  F   UNL A   1      39.619  26.183  29.261  1.00  0.00    -0.203 F 
ATOM     75  F   UNL A   1      42.842  28.090  25.295  1.00  0.00    -0.200 F 
ATOM     76  C   UNL A   1      41.453  26.380  26.143  1.00  0.00     0.200 A 
ATOM     77  F   UNL A   1      40.048  24.705  27.035  1.00  0.00    -0.200 F 
ATOM     78  F   UNL A   1      41.637  25.657  25.031  1.00  0.00    -0.200 F 
ENDBRANCH  44  68
BRANCH  56  79
ATOM     79  C   UNL A   1      44.151  28.080  34.719  1.00  0.00     0.064 A 
ATOM     80  C   UNL A   1      43.878  26.886  35.403  1.00  0.00     0.173 A 
ATOM     81  C   UNL A   1      45.494  28.475  34.602  1.00  0.00     0.173 A 
ATOM     82  F   UNL A   1      42.612  26.468  35.552  1.00  0.00    -0.203 F 
ATOM     83  C   UNL A   1      44.903  26.142  35.983  1.00  0.00     0.198 A 
ATOM     84  C   UNL A   1      46.518  27.709  35.150  1.00  0.00     0.198 A 
ATOM     85  F   UNL A   1      45.814  29.603  33.950  1.00  0.00    -0.203 F 
ATOM     86  F   UNL A   1      44.612  25.040  36.687  1.00  0.00    -0.200 F 
ATOM     87  C   UNL A   1      46.222  26.550  35.850  1.00  0.00     0.200 A 
ATOM     88  F   UNL A   1      47.794  28.096  35.006  1.00  0.00    -0.200 F 
ATOM     89  F   UNL A   1      47.207  25.832  36.407  1.00  0.00    -0.200 F 
ENDBRANCH  56  79
ENDBRANCH  30  31
ENDBRANCH  22  25
ENDBRANCH  20  21
ENDBRANCH   1  20
TORSDOF 11
ENDMDL
