MODEL 1
REMARK VINA RESULT:     -10.0      0.000      0.000
REMARK SMILES C[N@@H+](CCCCC(=O)NCCCNC(=O)c1ccc(-c2c3nc(c(-c4c(F)c(F)c(F)c(F)c4F)c4ccc([nH]4)c(-c4c(F)c(F)c(F)c(F)c4F)c4nc(c(-c5c(F)c(F)c(F)c(F)c5F)c5ccc2[nH]5)C=C4)C=C3)cc1)CC(C)(C)O
REMARK SMILES IDX 7 1 8 2 9 3 6 5 5 6 4 7 3 8 2 9 1 10 79 12 80 13 81 14 82 15
REMARK SMILES IDX 83 16 10 18 11 19 12 20 13 21 14 22 15 24 16 25 17 26 78 27
REMARK SMILES IDX 18 28 77 29 19 30 20 31 21 32 71 33 22 34 76 35 70 36 72 37
REMARK SMILES IDX 23 38 75 39 69 40 68 41 24 43 56 44 36 45 55 46 37 47 40 48
REMARK SMILES IDX 54 49 73 50 38 51 39 52 53 54 74 55 41 56 25 57 26 58 34 59
REMARK SMILES IDX 27 60 28 61 32 62 35 63 29 64 30 65 33 66 31 67 57 68 58 69
REMARK SMILES IDX 66 70 59 71 60 72 64 73 67 74 61 75 62 76 65 77 63 78 42 79
REMARK SMILES IDX 43 80 51 81 44 82 45 83 49 84 52 85 46 86 47 87 50 88 48 89
REMARK H PARENT 9 4 2 11 83 17 13 23 72 42 40 53
REMARK Flexibility Score: inf
ROOT
ATOM      1  C   UNL A   1      34.110  29.439  27.099  1.00  0.00     0.219 C 
ATOM      2  O   UNL A   1      35.134  29.331  27.776  1.00  0.00    -0.275 OA
ATOM      3  N   UNL A   1      33.165  30.328  27.507  1.00  0.00    -0.356 N 
ATOM      4  H   UNL A   1      33.420  30.872  28.288  1.00  0.00     0.163 HD
ENDROOT
BRANCH   1   5
ATOM      5  C   UNL A   1      33.913  28.615  25.842  1.00  0.00     0.100 C 
BRANCH   5   6
ATOM      6  C   UNL A   1      33.594  27.145  26.129  1.00  0.00     0.016 C 
BRANCH   6   7
ATOM      7  C   UNL A   1      33.784  26.202  24.937  1.00  0.00     0.062 C 
BRANCH   7   8
ATOM      8  C   UNL A   1      32.510  25.561  24.376  1.00  0.00     0.262 C 
BRANCH   8   9
ATOM      9  N   UNL A   1      32.124  25.888  23.003  1.00  0.00    -0.335 N 
ATOM     10  C   UNL A   1      32.818  25.099  22.005  1.00  0.00     0.332 C 
ATOM     11  H   UNL A   1      31.157  25.576  22.920  1.00  0.00     0.347 HD
BRANCH   9  12
ATOM     12  C   UNL A   1      31.969  27.321  22.718  1.00  0.00     0.296 C 
BRANCH  12  13
ATOM     13  C   UNL A   1      30.610  28.095  22.868  1.00  0.00     0.108 C 
ATOM     14  C   UNL A   1      29.464  27.205  23.355  1.00  0.00     0.048 C 
ATOM     15  C   UNL A   1      30.820  29.243  23.868  1.00  0.00     0.048 C 
BRANCH  13  16
ATOM     16  O   UNL A   1      30.195  28.695  21.642  1.00  0.00    -0.385 OA
ATOM     17  H   UNL A   1      30.173  28.022  20.943  1.00  0.00     0.211 HD
ENDBRANCH  13  16
ENDBRANCH  12  13
ENDBRANCH   9  12
ENDBRANCH   8   9
ENDBRANCH   7   8
ENDBRANCH   6   7
ENDBRANCH   5   6
ENDBRANCH   1   5
BRANCH   3  18
ATOM     18  C   UNL A   1      31.840  30.606  26.980  1.00  0.00     0.117 C 
BRANCH  18  19
ATOM     19  C   UNL A   1      31.551  32.105  26.973  1.00  0.00     0.042 C 
BRANCH  19  20
ATOM     20  C   UNL A   1      32.793  32.974  27.022  1.00  0.00     0.118 C 
BRANCH  20  21
ATOM     21  N   UNL A   1      32.528  34.284  27.586  1.00  0.00    -0.352 N 
ATOM     22  C   UNL A   1      33.037  34.878  28.713  1.00  0.00     0.251 C 
ATOM     23  H   UNL A   1      31.882  34.830  27.082  1.00  0.00     0.163 HD
ATOM     24  O   UNL A   1      32.512  35.910  29.136  1.00  0.00    -0.269 OA
BRANCH  22  25
ATOM     25  C   UNL A   1      34.191  34.298  29.438  1.00  0.00     0.039 A 
ATOM     26  C   UNL A   1      35.484  34.603  29.000  1.00  0.00     0.014 A 
ATOM     27  C   UNL A   1      34.021  33.411  30.504  1.00  0.00     0.014 A 
ATOM     28  C   UNL A   1      36.595  34.053  29.650  1.00  0.00     0.010 A 
ATOM     29  C   UNL A   1      35.124  32.949  31.218  1.00  0.00     0.010 A 
ATOM     30  C   UNL A   1      36.423  33.237  30.779  1.00  0.00    -0.014 A 
BRANCH  30  31
ATOM     31  C   UNL A   1      37.580  32.614  31.473  1.00  0.00     0.031 A 
ATOM     32  C   UNL A   1      38.314  31.471  30.820  1.00  0.00     0.074 A 
ATOM     33  C   UNL A   1      37.935  33.026  32.706  1.00  0.00     0.049 A 
ATOM     34  N   UNL A   1      39.275  30.720  31.296  1.00  0.00    -0.248 NA
ATOM     35  C   UNL A   1      37.883  31.101  29.462  1.00  0.00     0.031 C 
ATOM     36  C   UNL A   1      37.280  34.092  33.463  1.00  0.00     0.029 A 
ATOM     37  N   UNL A   1      38.931  32.587  33.542  1.00  0.00    -0.354 N 
ATOM     38  C   UNL A   1      39.536  29.774  30.312  1.00  0.00     0.074 A 
ATOM     39  C   UNL A   1      38.600  30.011  29.236  1.00  0.00     0.031 C 
ATOM     40  C   UNL A   1      37.904  34.240  34.643  1.00  0.00     0.029 A 
ATOM     41  C   UNL A   1      38.978  33.256  34.741  1.00  0.00     0.049 A 
ATOM     42  H   UNL A   1      39.553  31.861  33.306  1.00  0.00     0.167 HD
ATOM     43  C   UNL A   1      40.487  28.811  30.294  1.00  0.00     0.037 A 
ATOM     44  C   UNL A   1      39.792  33.087  35.801  1.00  0.00     0.037 A 
ATOM     45  C   UNL A   1      41.454  28.614  31.340  1.00  0.00     0.049 A 
ATOM     46  C   UNL A   1      40.857  32.025  35.749  1.00  0.00     0.074 A 
ATOM     47  C   UNL A   1      42.507  27.717  31.385  1.00  0.00     0.029 A 
ATOM     48  N   UNL A   1      41.488  29.333  32.525  1.00  0.00    -0.354 N 
ATOM     49  N   UNL A   1      41.130  31.175  34.789  1.00  0.00    -0.248 NA
ATOM     50  C   UNL A   1      41.729  31.902  36.924  1.00  0.00     0.031 C 
ATOM     51  C   UNL A   1      43.158  27.871  32.614  1.00  0.00     0.029 A 
ATOM     52  C   UNL A   1      42.535  28.891  33.316  1.00  0.00     0.049 A 
ATOM     53  H   UNL A   1      40.861  30.053  32.768  1.00  0.00     0.167 HD
ATOM     54  C   UNL A   1      42.217  30.435  35.233  1.00  0.00     0.074 A 
ATOM     55  C   UNL A   1      42.563  30.945  36.544  1.00  0.00     0.031 C 
ATOM     56  C   UNL A   1      42.868  29.420  34.613  1.00  0.00     0.037 A 
BRANCH  43  57
ATOM     57  C   UNL A   1      40.537  27.905  29.099  1.00  0.00     0.064 A 
ATOM     58  C   UNL A   1      41.389  28.161  28.014  1.00  0.00     0.173 A 
ATOM     59  C   UNL A   1      39.744  26.748  29.049  1.00  0.00     0.173 A 
ATOM     60  F   UNL A   1      42.158  29.261  28.005  1.00  0.00    -0.203 F 
ATOM     61  C   UNL A   1      41.421  27.314  26.910  1.00  0.00     0.198 A 
ATOM     62  C   UNL A   1      39.801  25.886  27.957  1.00  0.00     0.198 A 
ATOM     63  F   UNL A   1      38.916  26.451  30.062  1.00  0.00    -0.203 F 
ATOM     64  F   UNL A   1      42.205  27.608  25.863  1.00  0.00    -0.200 F 
ATOM     65  C   UNL A   1      40.633  26.173  26.886  1.00  0.00     0.200 A 
ATOM     66  F   UNL A   1      39.048  24.778  27.940  1.00  0.00    -0.200 F 
ATOM     67  F   UNL A   1      40.669  25.354  25.826  1.00  0.00    -0.200 F 
ENDBRANCH  43  57
BRANCH  44  68
ATOM     68  C   UNL A   1      39.648  33.964  36.991  1.00  0.00     0.064 A 
ATOM     69  C   UNL A   1      40.285  35.212  37.044  1.00  0.00     0.173 A 
ATOM     70  C   UNL A   1      38.874  33.579  38.095  1.00  0.00     0.173 A 
ATOM     71  F   UNL A   1      41.053  35.614  36.021  1.00  0.00    -0.203 F 
ATOM     72  C   UNL A   1      40.166  36.035  38.162  1.00  0.00     0.198 A 
ATOM     73  C   UNL A   1      38.734  34.413  39.202  1.00  0.00     0.198 A 
ATOM     74  F   UNL A   1      38.241  32.396  38.092  1.00  0.00    -0.203 F 
ATOM     75  F   UNL A   1      40.817  37.205  38.202  1.00  0.00    -0.200 F 
ATOM     76  C   UNL A   1      39.385  35.637  39.238  1.00  0.00     0.200 A 
ATOM     77  F   UNL A   1      37.970  34.033  40.235  1.00  0.00    -0.200 F 
ATOM     78  F   UNL A   1      39.267  36.431  40.311  1.00  0.00    -0.200 F 
ENDBRANCH  44  68
BRANCH  56  79
ATOM     79  C   UNL A   1      44.039  28.816  35.328  1.00  0.00     0.064 A 
ATOM     80  C   UNL A   1      45.341  29.301  35.139  1.00  0.00     0.173 A 
ATOM     81  C   UNL A   1      43.849  27.776  36.250  1.00  0.00     0.173 A 
ATOM     82  F   UNL A   1      45.575  30.283  34.257  1.00  0.00    -0.203 F 
ATOM     83  C   UNL A   1      46.415  28.752  35.835  1.00  0.00     0.198 A 
ATOM     84  C   UNL A   1      44.921  27.248  36.963  1.00  0.00     0.198 A 
ATOM     85  F   UNL A   1      42.621  27.283  36.470  1.00  0.00    -0.203 F 
ATOM     86  F   UNL A   1      47.657  29.203  35.612  1.00  0.00    -0.200 F 
ATOM     87  C   UNL A   1      46.203  27.732  36.752  1.00  0.00     0.200 A 
ATOM     88  F   UNL A   1      44.712  26.272  37.858  1.00  0.00    -0.200 F 
ATOM     89  F   UNL A   1      47.237  27.212  37.427  1.00  0.00    -0.200 F 
ENDBRANCH  56  79
ENDBRANCH  30  31
ENDBRANCH  22  25
ENDBRANCH  20  21
ENDBRANCH  19  20
ENDBRANCH  18  19
ENDBRANCH   3  18
TORSDOF 17
ENDMDL
MODEL 2
REMARK VINA RESULT:      -9.9      0.778      1.589
REMARK SMILES C[N@@H+](CCCCC(=O)NCCCNC(=O)c1ccc(-c2c3nc(c(-c4c(F)c(F)c(F)c(F)c4F)c4ccc([nH]4)c(-c4c(F)c(F)c(F)c(F)c4F)c4nc(c(-c5c(F)c(F)c(F)c(F)c5F)c5ccc2[nH]5)C=C4)C=C3)cc1)CC(C)(C)O
REMARK SMILES IDX 7 1 8 2 9 3 6 5 5 6 4 7 3 8 2 9 1 10 79 12 80 13 81 14 82 15
REMARK SMILES IDX 83 16 10 18 11 19 12 20 13 21 14 22 15 24 16 25 17 26 78 27
REMARK SMILES IDX 18 28 77 29 19 30 20 31 21 32 71 33 22 34 76 35 70 36 72 37
REMARK SMILES IDX 23 38 75 39 69 40 68 41 24 43 56 44 36 45 55 46 37 47 40 48
REMARK SMILES IDX 54 49 73 50 38 51 39 52 53 54 74 55 41 56 25 57 26 58 34 59
REMARK SMILES IDX 27 60 28 61 32 62 35 63 29 64 30 65 33 66 31 67 57 68 58 69
REMARK SMILES IDX 66 70 59 71 60 72 64 73 67 74 61 75 62 76 65 77 63 78 42 79
REMARK SMILES IDX 43 80 51 81 44 82 45 83 49 84 52 85 46 86 47 87 50 88 48 89
REMARK H PARENT 9 4 2 11 83 17 13 23 72 42 40 53
REMARK Flexibility Score: inf
ROOT
ATOM      1  C   UNL A   1      33.923  29.470  27.032  1.00  0.00     0.219 C 
ATOM      2  O   UNL A   1      34.849  29.262  27.818  1.00  0.00    -0.275 OA
ATOM      3  N   UNL A   1      32.929  30.312  27.425  1.00  0.00    -0.356 N 
ATOM      4  H   UNL A   1      33.076  30.746  28.296  1.00  0.00     0.163 HD
ENDROOT
BRANCH   1   5
ATOM      5  C   UNL A   1      33.897  28.820  25.664  1.00  0.00     0.100 C 
BRANCH   5   6
ATOM      6  C   UNL A   1      33.597  27.320  25.716  1.00  0.00     0.016 C 
BRANCH   6   7
ATOM      7  C   UNL A   1      32.350  26.886  24.938  1.00  0.00     0.062 C 
BRANCH   7   8
ATOM      8  C   UNL A   1      31.167  27.860  24.965  1.00  0.00     0.262 C 
BRANCH   8   9
ATOM      9  N   UNL A   1      30.551  28.229  23.690  1.00  0.00    -0.335 N 
ATOM     10  C   UNL A   1      31.280  27.744  22.536  1.00  0.00     0.332 C 
ATOM     11  H   UNL A   1      29.679  27.701  23.657  1.00  0.00     0.347 HD
BRANCH   9  12
ATOM     12  C   UNL A   1      30.036  29.603  23.614  1.00  0.00     0.296 C 
BRANCH  12  13
ATOM     13  C   UNL A   1      28.811  30.024  22.726  1.00  0.00     0.108 C 
ATOM     14  C   UNL A   1      27.652  29.028  22.793  1.00  0.00     0.048 C 
ATOM     15  C   UNL A   1      28.324  31.402  23.203  1.00  0.00     0.048 C 
BRANCH  13  16
ATOM     16  O   UNL A   1      29.169  30.173  21.353  1.00  0.00    -0.385 OA
ATOM     17  H   UNL A   1      30.019  29.733  21.190  1.00  0.00     0.211 HD
ENDBRANCH  13  16
ENDBRANCH  12  13
ENDBRANCH   9  12
ENDBRANCH   8   9
ENDBRANCH   7   8
ENDBRANCH   6   7
ENDBRANCH   5   6
ENDBRANCH   1   5
BRANCH   3  18
ATOM     18  C   UNL A   1      31.684  30.674  26.769  1.00  0.00     0.117 C 
BRANCH  18  19
ATOM     19  C   UNL A   1      31.429  32.177  26.857  1.00  0.00     0.042 C 
BRANCH  19  20
ATOM     20  C   UNL A   1      32.692  33.016  26.897  1.00  0.00     0.118 C 
BRANCH  20  21
ATOM     21  N   UNL A   1      32.480  34.301  27.537  1.00  0.00    -0.352 N 
ATOM     22  C   UNL A   1      33.039  34.821  28.676  1.00  0.00     0.251 C 
ATOM     23  H   UNL A   1      31.834  34.890  27.082  1.00  0.00     0.163 HD
ATOM     24  O   UNL A   1      32.556  35.843  29.169  1.00  0.00    -0.269 OA
BRANCH  22  25
ATOM     25  C   UNL A   1      34.199  34.174  29.333  1.00  0.00     0.039 A 
ATOM     26  C   UNL A   1      33.963  33.247  30.354  1.00  0.00     0.014 A 
ATOM     27  C   UNL A   1      35.514  34.510  29.004  1.00  0.00     0.014 A 
ATOM     28  C   UNL A   1      35.037  32.635  31.010  1.00  0.00     0.010 A 
ATOM     29  C   UNL A   1      36.581  33.825  29.580  1.00  0.00     0.010 A 
ATOM     30  C   UNL A   1      36.356  32.904  30.613  1.00  0.00    -0.014 A 
BRANCH  30  31
ATOM     31  C   UNL A   1      37.519  32.294  31.308  1.00  0.00     0.031 A 
ATOM     32  C   UNL A   1      38.262  31.155  30.659  1.00  0.00     0.074 A 
ATOM     33  C   UNL A   1      37.872  32.714  32.539  1.00  0.00     0.049 A 
ATOM     34  N   UNL A   1      39.230  30.414  31.137  1.00  0.00    -0.248 NA
ATOM     35  C   UNL A   1      37.833  30.776  29.303  1.00  0.00     0.031 C 
ATOM     36  C   UNL A   1      37.208  33.777  33.293  1.00  0.00     0.029 A 
ATOM     37  N   UNL A   1      38.872  32.287  33.376  1.00  0.00    -0.354 N 
ATOM     38  C   UNL A   1      39.498  29.467  30.156  1.00  0.00     0.074 A 
ATOM     39  C   UNL A   1      38.559  29.691  29.080  1.00  0.00     0.031 C 
ATOM     40  C   UNL A   1      37.831  33.935  34.472  1.00  0.00     0.029 A 
ATOM     41  C   UNL A   1      38.914  32.961  34.573  1.00  0.00     0.049 A 
ATOM     42  H   UNL A   1      39.500  31.565  33.142  1.00  0.00     0.167 HD
ATOM     43  C   UNL A   1      40.458  28.512  30.141  1.00  0.00     0.037 A 
ATOM     44  C   UNL A   1      39.731  32.803  35.632  1.00  0.00     0.037 A 
ATOM     45  C   UNL A   1      41.428  28.328  31.187  1.00  0.00     0.049 A 
ATOM     46  C   UNL A   1      40.805  31.751  35.583  1.00  0.00     0.074 A 
ATOM     47  C   UNL A   1      42.489  27.441  31.234  1.00  0.00     0.029 A 
ATOM     48  N   UNL A   1      41.456  29.052  32.369  1.00  0.00    -0.354 N 
ATOM     49  N   UNL A   1      41.085  30.899  34.626  1.00  0.00    -0.248 NA
ATOM     50  C   UNL A   1      41.679  31.640  36.758  1.00  0.00     0.031 C 
ATOM     51  C   UNL A   1      43.140  27.605  32.462  1.00  0.00     0.029 A 
ATOM     52  C   UNL A   1      42.509  28.622  33.160  1.00  0.00     0.049 A 
ATOM     53  H   UNL A   1      40.823  29.767  32.610  1.00  0.00     0.167 HD
ATOM     54  C   UNL A   1      42.178  30.170  35.072  1.00  0.00     0.074 A 
ATOM     55  C   UNL A   1      42.521  30.689  36.380  1.00  0.00     0.031 C 
ATOM     56  C   UNL A   1      42.838  29.159  34.455  1.00  0.00     0.037 A 
BRANCH  43  57
ATOM     57  C   UNL A   1      40.515  27.602  28.950  1.00  0.00     0.064 A 
ATOM     58  C   UNL A   1      41.333  27.883  27.845  1.00  0.00     0.173 A 
ATOM     59  C   UNL A   1      39.763  26.417  28.923  1.00  0.00     0.173 A 
ATOM     60  F   UNL A   1      42.062  29.010  27.814  1.00  0.00    -0.203 F 
ATOM     61  C   UNL A   1      41.372  27.031  26.745  1.00  0.00     0.198 A 
ATOM     62  C   UNL A   1      39.828  25.551  27.834  1.00  0.00     0.198 A 
ATOM     63  F   UNL A   1      38.969  26.096  29.955  1.00  0.00    -0.203 F 
ATOM     64  F   UNL A   1      42.122  27.348  25.680  1.00  0.00    -0.200 F 
ATOM     65  C   UNL A   1      40.625  25.863  26.743  1.00  0.00     0.200 A 
ATOM     66  F   UNL A   1      39.115  24.417  27.838  1.00  0.00    -0.200 F 
ATOM     67  F   UNL A   1      40.668  25.040  25.686  1.00  0.00    -0.200 F 
ENDBRANCH  43  57
BRANCH  44  68
ATOM     68  C   UNL A   1      39.580  33.684  36.819  1.00  0.00     0.064 A 
ATOM     69  C   UNL A   1      38.833  33.268  37.930  1.00  0.00     0.173 A 
ATOM     70  C   UNL A   1      40.178  34.951  36.871  1.00  0.00     0.173 A 
ATOM     71  F   UNL A   1      38.225  32.073  37.917  1.00  0.00    -0.203 F 
ATOM     72  C   UNL A   1      38.676  34.093  39.042  1.00  0.00     0.198 A 
ATOM     73  C   UNL A   1      40.042  35.765  37.994  1.00  0.00     0.198 A 
ATOM     74  F   UNL A   1      40.906  35.394  35.836  1.00  0.00    -0.203 F 
ATOM     75  F   UNL A   1      37.923  33.687  40.073  1.00  0.00    -0.200 F 
ATOM     76  C   UNL A   1      39.285  35.339  39.075  1.00  0.00     0.200 A 
ATOM     77  F   UNL A   1      40.642  36.962  38.029  1.00  0.00    -0.200 F 
ATOM     78  F   UNL A   1      39.138  36.130  40.147  1.00  0.00    -0.200 F 
ENDBRANCH  44  68
BRANCH  56  79
ATOM     79  C   UNL A   1      44.015  28.568  35.171  1.00  0.00     0.064 A 
ATOM     80  C   UNL A   1      45.304  29.100  35.022  1.00  0.00     0.173 A 
ATOM     81  C   UNL A   1      43.843  27.493  36.054  1.00  0.00     0.173 A 
ATOM     82  F   UNL A   1      45.522  30.118  34.178  1.00  0.00    -0.203 F 
ATOM     83  C   UNL A   1      46.383  28.562  35.720  1.00  0.00     0.198 A 
ATOM     84  C   UNL A   1      44.918  26.975  36.770  1.00  0.00     0.198 A 
ATOM     85  F   UNL A   1      42.627  26.954  36.235  1.00  0.00    -0.203 F 
ATOM     86  F   UNL A   1      47.613  29.059  35.535  1.00  0.00    -0.200 F 
ATOM     87  C   UNL A   1      46.188  27.505  36.598  1.00  0.00     0.200 A 
ATOM     88  F   UNL A   1      44.725  25.963  37.628  1.00  0.00    -0.200 F 
ATOM     89  F   UNL A   1      47.225  26.996  37.275  1.00  0.00    -0.200 F 
ENDBRANCH  56  79
ENDBRANCH  30  31
ENDBRANCH  22  25
ENDBRANCH  20  21
ENDBRANCH  19  20
ENDBRANCH  18  19
ENDBRANCH   3  18
TORSDOF 17
ENDMDL
MODEL 3
REMARK VINA RESULT:      -9.8      1.035      7.565
REMARK SMILES C[N@@H+](CCCCC(=O)NCCCNC(=O)c1ccc(-c2c3nc(c(-c4c(F)c(F)c(F)c(F)c4F)c4ccc([nH]4)c(-c4c(F)c(F)c(F)c(F)c4F)c4nc(c(-c5c(F)c(F)c(F)c(F)c5F)c5ccc2[nH]5)C=C4)C=C3)cc1)CC(C)(C)O
REMARK SMILES IDX 7 1 8 2 9 3 6 5 5 6 4 7 3 8 2 9 1 10 79 12 80 13 81 14 82 15
REMARK SMILES IDX 83 16 10 18 11 19 12 20 13 21 14 22 15 24 16 25 17 26 78 27
REMARK SMILES IDX 18 28 77 29 19 30 20 31 21 32 71 33 22 34 76 35 70 36 72 37
REMARK SMILES IDX 23 38 75 39 69 40 68 41 24 43 56 44 36 45 55 46 37 47 40 48
REMARK SMILES IDX 54 49 73 50 38 51 39 52 53 54 74 55 41 56 25 57 26 58 34 59
REMARK SMILES IDX 27 60 28 61 32 62 35 63 29 64 30 65 33 66 31 67 57 68 58 69
REMARK SMILES IDX 66 70 59 71 60 72 64 73 67 74 61 75 62 76 65 77 63 78 42 79
REMARK SMILES IDX 43 80 51 81 44 82 45 83 49 84 52 85 46 86 47 87 50 88 48 89
REMARK H PARENT 9 4 2 11 83 17 13 23 72 42 40 53
REMARK Flexibility Score: inf
ROOT
ATOM      1  C   UNL A   1      33.651  29.355  26.858  1.00  0.00     0.219 C 
ATOM      2  O   UNL A   1      34.425  28.950  27.727  1.00  0.00    -0.275 OA
ATOM      3  N   UNL A   1      32.628  30.165  27.241  1.00  0.00    -0.356 N 
ATOM      4  H   UNL A   1      32.637  30.420  28.192  1.00  0.00     0.163 HD
ENDROOT
BRANCH   1   5
ATOM      5  C   UNL A   1      33.840  28.973  25.404  1.00  0.00     0.100 C 
BRANCH   5   6
ATOM      6  C   UNL A   1      33.598  27.485  25.136  1.00  0.00     0.016 C 
BRANCH   6   7
ATOM      7  C   UNL A   1      32.886  27.177  23.815  1.00  0.00     0.062 C 
BRANCH   7   8
ATOM      8  C   UNL A   1      31.954  28.271  23.281  1.00  0.00     0.262 C 
BRANCH   8   9
ATOM      9  N   UNL A   1      30.521  28.144  23.550  1.00  0.00    -0.335 N 
ATOM     10  C   UNL A   1      30.183  26.969  24.328  1.00  0.00     0.332 C 
ATOM     11  H   UNL A   1      30.303  28.915  24.181  1.00  0.00     0.347 HD
BRANCH   9  12
ATOM     12  C   UNL A   1      29.639  28.462  22.420  1.00  0.00     0.296 C 
BRANCH  12  13
ATOM     13  C   UNL A   1      28.395  29.416  22.530  1.00  0.00     0.108 C 
ATOM     14  C   UNL A   1      27.174  28.740  23.157  1.00  0.00     0.048 C 
ATOM     15  C   UNL A   1      28.796  30.630  23.383  1.00  0.00     0.048 C 
BRANCH  13  16
ATOM     16  O   UNL A   1      27.996  29.926  21.259  1.00  0.00    -0.385 OA
ATOM     17  H   UNL A   1      28.731  29.844  20.631  1.00  0.00     0.211 HD
ENDBRANCH  13  16
ENDBRANCH  12  13
ENDBRANCH   9  12
ENDBRANCH   8   9
ENDBRANCH   7   8
ENDBRANCH   6   7
ENDBRANCH   5   6
ENDBRANCH   1   5
BRANCH   3  18
ATOM     18  C   UNL A   1      31.522  30.715  26.477  1.00  0.00     0.117 C 
BRANCH  18  19
ATOM     19  C   UNL A   1      31.406  32.224  26.677  1.00  0.00     0.042 C 
BRANCH  19  20
ATOM     20  C   UNL A   1      32.729  32.913  26.955  1.00  0.00     0.118 C 
BRANCH  20  21
ATOM     21  N   UNL A   1      32.555  34.194  27.614  1.00  0.00    -0.352 N 
ATOM     22  C   UNL A   1      33.140  34.685  28.754  1.00  0.00     0.251 C 
ATOM     23  H   UNL A   1      31.919  34.804  27.175  1.00  0.00     0.163 HD
ATOM     24  O   UNL A   1      32.687  35.711  29.265  1.00  0.00    -0.269 OA
BRANCH  22  25
ATOM     25  C   UNL A   1      34.290  34.001  29.389  1.00  0.00     0.039 A 
ATOM     26  C   UNL A   1      35.586  34.387  29.029  1.00  0.00     0.014 A 
ATOM     27  C   UNL A   1      34.115  32.945  30.287  1.00  0.00     0.014 A 
ATOM     28  C   UNL A   1      36.693  33.745  29.594  1.00  0.00     0.010 A 
ATOM     29  C   UNL A   1      35.213  32.378  30.930  1.00  0.00     0.010 A 
ATOM     30  C   UNL A   1      36.515  32.749  30.566  1.00  0.00    -0.014 A 
BRANCH  30  31
ATOM     31  C   UNL A   1      37.669  32.027  31.163  1.00  0.00     0.031 A 
ATOM     32  C   UNL A   1      38.127  32.378  32.555  1.00  0.00     0.074 A 
ATOM     33  C   UNL A   1      38.341  31.107  30.444  1.00  0.00     0.049 A 
ATOM     34  N   UNL A   1      39.172  31.950  33.220  1.00  0.00    -0.248 NA
ATOM     35  C   UNL A   1      37.322  33.372  33.284  1.00  0.00     0.031 C 
ATOM     36  C   UNL A   1      38.025  30.709  29.073  1.00  0.00     0.029 A 
ATOM     37  N   UNL A   1      39.439  30.349  30.767  1.00  0.00    -0.354 N 
ATOM     38  C   UNL A   1      39.164  32.646  34.422  1.00  0.00     0.074 A 
ATOM     39  C   UNL A   1      38.045  33.560  34.378  1.00  0.00     0.031 C 
ATOM     40  C   UNL A   1      38.894  29.764  28.679  1.00  0.00     0.029 A 
ATOM     41  C   UNL A   1      39.850  29.517  29.754  1.00  0.00     0.049 A 
ATOM     42  H   UNL A   1      39.890  30.397  31.641  1.00  0.00     0.167 HD
ATOM     43  C   UNL A   1      39.998  32.516  35.481  1.00  0.00     0.037 A 
ATOM     44  C   UNL A   1      40.887  28.658  29.700  1.00  0.00     0.037 A 
ATOM     45  C   UNL A   1      41.076  31.566  35.546  1.00  0.00     0.049 A 
ATOM     46  C   UNL A   1      41.786  28.514  30.898  1.00  0.00     0.074 A 
ATOM     47  C   UNL A   1      41.931  31.301  36.601  1.00  0.00     0.029 A 
ATOM     48  N   UNL A   1      41.440  30.718  34.511  1.00  0.00    -0.354 N 
ATOM     49  N   UNL A   1      41.734  29.136  32.050  1.00  0.00    -0.248 NA
ATOM     50  C   UNL A   1      42.886  27.547  30.788  1.00  0.00     0.031 C 
ATOM     51  C   UNL A   1      42.836  30.316  36.192  1.00  0.00     0.029 A 
ATOM     52  C   UNL A   1      42.518  29.939  34.897  1.00  0.00     0.049 A 
ATOM     53  H   UNL A   1      40.998  30.676  33.632  1.00  0.00     0.167 HD
ATOM     54  C   UNL A   1      42.774  28.620  32.810  1.00  0.00     0.074 A 
ATOM     55  C   UNL A   1      43.434  27.623  31.992  1.00  0.00     0.031 C 
ATOM     56  C   UNL A   1      43.153  28.945  34.070  1.00  0.00     0.037 A 
BRANCH  43  57
ATOM     57  C   UNL A   1      39.770  33.415  36.661  1.00  0.00     0.064 A 
ATOM     58  C   UNL A   1      40.418  34.654  36.778  1.00  0.00     0.173 A 
ATOM     59  C   UNL A   1      38.870  33.048  37.673  1.00  0.00     0.173 A 
ATOM     60  F   UNL A   1      41.298  35.047  35.844  1.00  0.00    -0.203 F 
ATOM     61  C   UNL A   1      40.199  35.477  37.880  1.00  0.00     0.198 A 
ATOM     62  C   UNL A   1      38.631  33.887  38.758  1.00  0.00     0.198 A 
ATOM     63  F   UNL A   1      38.219  31.877  37.607  1.00  0.00    -0.203 F 
ATOM     64  F   UNL A   1      40.869  36.632  37.996  1.00  0.00    -0.200 F 
ATOM     65  C   UNL A   1      39.301  35.096  38.865  1.00  0.00     0.200 A 
ATOM     66  F   UNL A   1      37.754  33.523  39.704  1.00  0.00    -0.200 F 
ATOM     67  F   UNL A   1      39.087  35.891  39.923  1.00  0.00    -0.200 F 
ENDBRANCH  43  57
BRANCH  44  68
ATOM     68  C   UNL A   1      41.112  27.847  28.476  1.00  0.00     0.064 A 
ATOM     69  C   UNL A   1      41.975  28.296  27.467  1.00  0.00     0.173 A 
ATOM     70  C   UNL A   1      40.475  26.612  28.288  1.00  0.00     0.173 A 
ATOM     71  F   UNL A   1      42.590  29.481  27.592  1.00  0.00    -0.203 F 
ATOM     72  C   UNL A   1      42.182  27.548  26.310  1.00  0.00     0.198 A 
ATOM     73  C   UNL A   1      40.702  25.852  27.142  1.00  0.00     0.198 A 
ATOM     74  F   UNL A   1      39.642  26.136  29.226  1.00  0.00    -0.203 F 
ATOM     75  F   UNL A   1      42.982  28.020  25.344  1.00  0.00    -0.200 F 
ATOM     76  C   UNL A   1      41.549  26.324  26.151  1.00  0.00     0.200 A 
ATOM     77  F   UNL A   1      40.099  24.665  26.997  1.00  0.00    -0.200 F 
ATOM     78  F   UNL A   1      41.752  25.603  25.040  1.00  0.00    -0.200 F 
ENDBRANCH  44  68
BRANCH  56  79
ATOM     79  C   UNL A   1      44.312  28.195  34.655  1.00  0.00     0.064 A 
ATOM     80  C   UNL A   1      45.622  28.687  34.565  1.00  0.00     0.173 A 
ATOM     81  C   UNL A   1      44.102  27.000  35.358  1.00  0.00     0.173 A 
ATOM     82  F   UNL A   1      45.874  29.818  33.890  1.00  0.00    -0.203 F 
ATOM     83  C   UNL A   1      46.685  27.997  35.143  1.00  0.00     0.198 A 
ATOM     84  C   UNL A   1      45.163  26.327  35.957  1.00  0.00     0.198 A 
ATOM     85  F   UNL A   1      42.866  26.493  35.478  1.00  0.00    -0.203 F 
ATOM     86  F   UNL A   1      47.934  28.463  35.012  1.00  0.00    -0.200 F 
ATOM     87  C   UNL A   1      46.453  26.822  35.845  1.00  0.00     0.200 A 
ATOM     88  F   UNL A   1      44.936  25.199  36.646  1.00  0.00    -0.200 F 
ATOM     89  F   UNL A   1      47.476  26.165  36.408  1.00  0.00    -0.200 F 
ENDBRANCH  56  79
ENDBRANCH  30  31
ENDBRANCH  22  25
ENDBRANCH  20  21
ENDBRANCH  19  20
ENDBRANCH  18  19
ENDBRANCH   3  18
TORSDOF 17
ENDMDL
