MODEL 1
REMARK VINA RESULT:     -10.1      0.000      0.000
REMARK SMILES C[C@@]([NH2+]CCC1CC1)(C(=O)NCCCNC(=O)c1ccc(-c2c3nc(c(-c4c(F)c(F)c(F)c(F)c4F)c4ccc([nH]4)c(-c4c(F)c(F)c(F)c(F)c4F)c4nc(c(-c5c(F)c(F)c(F)c(F)c5F)c5ccc2[nH]5)C=C4)C=C3)cc1)C(F)(F)F
REMARK SMILES IDX 12 1 11 2 9 3 10 4 2 6 1 7 3 8 4 11 5 12 6 13 7 14 8 15
REMARK SMILES IDX 81 16 82 17 83 18 84 19 13 20 14 21 15 22 16 23 17 25 18 26
REMARK SMILES IDX 19 27 80 28 20 29 79 30 21 31 22 32 23 33 73 34 24 35 78 36
REMARK SMILES IDX 72 37 74 38 25 39 77 40 71 41 70 42 26 44 58 45 38 46 57 47
REMARK SMILES IDX 39 48 42 49 56 50 75 51 40 52 41 53 55 55 76 56 43 57 27 58
REMARK SMILES IDX 28 59 36 60 29 61 30 62 34 63 37 64 31 65 32 66 35 67 33 68
REMARK SMILES IDX 59 69 60 70 68 71 61 72 62 73 66 74 69 75 63 76 64 77 67 78
REMARK SMILES IDX 65 79 44 80 45 81 53 82 46 83 47 84 51 85 54 86 48 87 49 88
REMARK SMILES IDX 52 89 50 90
REMARK H PARENT 11 5 3 9 3 10 15 24 74 43 42 54
REMARK Flexibility Score: inf
ROOT
ATOM      1  C   UNL A   1      33.779  35.061  30.005  1.00  0.00     0.118 C 
ENDROOT
BRANCH   1   2
ATOM      2  N   UNL A   1      33.405  34.208  31.120  1.00  0.00    -0.350 N 
ATOM      3  C   UNL A   1      33.748  34.241  32.442  1.00  0.00     0.290 C 
ATOM      4  O   UNL A   1      33.281  33.328  33.127  1.00  0.00    -0.267 OA
ATOM      5  H   UNL A   1      32.796  33.472  30.879  1.00  0.00     0.163 HD
BRANCH   3   6
ATOM      6  C   UNL A   1      34.651  35.342  33.038  1.00  0.00     0.268 C 
ATOM      7  C   UNL A   1      35.037  34.968  34.486  1.00  0.00     0.101 C 
BRANCH   6   8
ATOM      8  N   UNL A   1      35.957  35.452  32.292  1.00  0.00    -0.326 N 
ATOM      9  H   UNL A   1      36.381  36.344  32.547  1.00  0.00     0.347 HD
ATOM     10  H   UNL A   1      35.706  35.355  31.309  1.00  0.00     0.347 HD
BRANCH   8  11
ATOM     11  C   UNL A   1      36.956  34.405  32.530  1.00  0.00     0.261 C 
BRANCH  11  12
ATOM     12  C   UNL A   1      37.235  33.405  31.399  1.00  0.00     0.065 C 
BRANCH  12  13
ATOM     13  C   UNL A   1      37.536  34.048  30.076  1.00  0.00    -0.006 C 
ATOM     14  C   UNL A   1      38.868  34.699  29.822  1.00  0.00     0.004 C 
ATOM     15  C   UNL A   1      38.524  33.403  29.142  1.00  0.00     0.004 C 
ENDBRANCH  12  13
ENDBRANCH  11  12
ENDBRANCH   8  11
ENDBRANCH   6   8
BRANCH   6  16
ATOM     16  C   UNL A   1      33.791  36.632  33.146  1.00  0.00     0.453 C 
ATOM     17  F   UNL A   1      33.864  37.200  34.373  1.00  0.00    -0.164 F 
ATOM     18  F   UNL A   1      34.260  37.564  32.269  1.00  0.00    -0.164 F 
ATOM     19  F   UNL A   1      32.489  36.452  32.849  1.00  0.00    -0.164 F 
ENDBRANCH   6  16
ENDBRANCH   3   6
ENDBRANCH   1   2
BRANCH   1  20
ATOM     20  C   UNL A   1      33.776  34.292  28.687  1.00  0.00     0.042 C 
BRANCH  20  21
ATOM     21  C   UNL A   1      34.661  33.051  28.690  1.00  0.00     0.118 C 
BRANCH  21  22
ATOM     22  N   UNL A   1      34.029  31.914  28.040  1.00  0.00    -0.352 N 
ATOM     23  C   UNL A   1      34.532  30.675  27.739  1.00  0.00     0.251 C 
ATOM     24  H   UNL A   1      33.092  32.056  27.775  1.00  0.00     0.163 HD
ATOM     25  O   UNL A   1      33.880  29.921  27.023  1.00  0.00    -0.269 OA
BRANCH  23  26
ATOM     26  C   UNL A   1      35.851  30.237  28.250  1.00  0.00     0.039 A 
ATOM     27  C   UNL A   1      36.943  30.265  27.378  1.00  0.00     0.014 A 
ATOM     28  C   UNL A   1      36.011  29.739  29.548  1.00  0.00     0.014 A 
ATOM     29  C   UNL A   1      38.195  29.825  27.813  1.00  0.00     0.010 A 
ATOM     30  C   UNL A   1      37.276  29.373  30.004  1.00  0.00     0.010 A 
ATOM     31  C   UNL A   1      38.375  29.390  29.135  1.00  0.00    -0.014 A 
BRANCH  31  32
ATOM     32  C   UNL A   1      39.701  28.909  29.599  1.00  0.00     0.031 A 
ATOM     33  C   UNL A   1      40.467  29.683  30.637  1.00  0.00     0.074 A 
ATOM     34  C   UNL A   1      40.228  27.788  29.069  1.00  0.00     0.049 A 
ATOM     35  N   UNL A   1      41.636  29.425  31.169  1.00  0.00    -0.248 NA
ATOM     36  C   UNL A   1      39.851  30.927  31.124  1.00  0.00     0.031 C 
ATOM     37  C   UNL A   1      39.609  26.979  28.019  1.00  0.00     0.029 A 
ATOM     38  N   UNL A   1      41.404  27.136  29.343  1.00  0.00    -0.354 N 
ATOM     39  C   UNL A   1      41.898  30.476  32.037  1.00  0.00     0.074 A 
ATOM     40  C   UNL A   1      40.795  31.405  31.922  1.00  0.00     0.031 C 
ATOM     41  C   UNL A   1      40.396  25.923  27.757  1.00  0.00     0.029 A 
ATOM     42  C   UNL A   1      41.584  25.994  28.604  1.00  0.00     0.049 A 
ATOM     43  H   UNL A   1      42.056  27.458  30.006  1.00  0.00     0.167 HD
ATOM     44  C   UNL A   1      42.949  30.642  32.876  1.00  0.00     0.037 A 
ATOM     45  C   UNL A   1      42.589  25.099  28.617  1.00  0.00     0.037 A 
ATOM     46  C   UNL A   1      44.031  29.703  33.013  1.00  0.00     0.049 A 
ATOM     47  C   UNL A   1      43.726  25.286  29.584  1.00  0.00     0.074 A 
ATOM     48  C   UNL A   1      45.119  29.755  33.866  1.00  0.00     0.029 A 
ATOM     49  N   UNL A   1      44.158  28.535  32.275  1.00  0.00    -0.354 N 
ATOM     50  N   UNL A   1      43.929  26.249  30.448  1.00  0.00    -0.248 NA
ATOM     51  C   UNL A   1      44.766  24.247  29.588  1.00  0.00     0.031 C 
ATOM     52  C   UNL A   1      45.922  28.635  33.622  1.00  0.00     0.029 A 
ATOM     53  C   UNL A   1      45.309  27.861  32.649  1.00  0.00     0.049 A 
ATOM     54  H   UNL A   1      43.523  28.230  31.586  1.00  0.00     0.167 HD
ATOM     55  C   UNL A   1      45.097  25.919  31.121  1.00  0.00     0.074 A 
ATOM     56  C   UNL A   1      45.550  24.657  30.574  1.00  0.00     0.031 C 
ATOM     57  C   UNL A   1      45.738  26.599  32.104  1.00  0.00     0.037 A 
BRANCH  44  58
ATOM     58  C   UNL A   1      42.974  31.885  33.718  1.00  0.00     0.064 A 
ATOM     59  C   UNL A   1      43.602  33.059  33.274  1.00  0.00     0.173 A 
ATOM     60  C   UNL A   1      42.342  31.913  34.971  1.00  0.00     0.173 A 
ATOM     61  F   UNL A   1      44.232  33.083  32.091  1.00  0.00    -0.203 F 
ATOM     62  C   UNL A   1      43.623  34.205  34.067  1.00  0.00     0.198 A 
ATOM     63  C   UNL A   1      42.339  33.069  35.747  1.00  0.00     0.198 A 
ATOM     64  F   UNL A   1      41.723  30.819  35.441  1.00  0.00    -0.203 F 
ATOM     65  F   UNL A   1      44.272  35.298  33.644  1.00  0.00    -0.200 F 
ATOM     66  C   UNL A   1      42.986  34.210  35.298  1.00  0.00     0.200 A 
ATOM     67  F   UNL A   1      41.713  33.076  36.931  1.00  0.00    -0.200 F 
ATOM     68  F   UNL A   1      43.002  35.315  36.057  1.00  0.00    -0.200 F 
ENDBRANCH  44  58
BRANCH  45  69
ATOM     69  C   UNL A   1      42.539  23.914  27.721  1.00  0.00     0.064 A 
ATOM     70  C   UNL A   1      42.090  22.673  28.195  1.00  0.00     0.173 A 
ATOM     71  C   UNL A   1      42.939  23.996  26.380  1.00  0.00     0.173 A 
ATOM     72  F   UNL A   1      41.715  22.542  29.477  1.00  0.00    -0.203 F 
ATOM     73  C   UNL A   1      42.066  21.553  27.369  1.00  0.00     0.198 A 
ATOM     74  C   UNL A   1      42.889  22.880  25.547  1.00  0.00     0.198 A 
ATOM     75  F   UNL A   1      43.369  25.162  25.878  1.00  0.00    -0.203 F 
ATOM     76  F   UNL A   1      41.678  20.368  27.861  1.00  0.00    -0.200 F 
ATOM     77  C   UNL A   1      42.462  21.658  26.044  1.00  0.00     0.200 A 
ATOM     78  F   UNL A   1      43.259  22.989  24.264  1.00  0.00    -0.200 F 
ATOM     79  F   UNL A   1      42.437  20.581  25.248  1.00  0.00    -0.200 F 
ENDBRANCH  45  69
BRANCH  57  80
ATOM     80  C   UNL A   1      46.970  25.966  32.682  1.00  0.00     0.064 A 
ATOM     81  C   UNL A   1      46.908  25.104  33.786  1.00  0.00     0.173 A 
ATOM     82  C   UNL A   1      48.228  26.218  32.114  1.00  0.00     0.173 A 
ATOM     83  F   UNL A   1      45.731  24.843  34.374  1.00  0.00    -0.203 F 
ATOM     84  C   UNL A   1      48.065  24.543  34.320  1.00  0.00     0.198 A 
ATOM     85  C   UNL A   1      49.379  25.633  32.632  1.00  0.00     0.198 A 
ATOM     86  F   UNL A   1      48.340  27.031  31.052  1.00  0.00    -0.203 F 
ATOM     87  F   UNL A   1      47.989  23.767  35.410  1.00  0.00    -0.200 F 
ATOM     88  C   UNL A   1      49.298  24.805  33.742  1.00  0.00     0.200 A 
ATOM     89  F   UNL A   1      50.568  25.878  32.064  1.00  0.00    -0.200 F 
ATOM     90  F   UNL A   1      50.411  24.265  34.258  1.00  0.00    -0.200 F 
ENDBRANCH  57  80
ENDBRANCH  31  32
ENDBRANCH  23  26
ENDBRANCH  21  22
ENDBRANCH  20  21
ENDBRANCH   1  20
TORSDOF 15
ENDMDL
MODEL 2
REMARK VINA RESULT:     -10.1      1.127      2.155
REMARK SMILES C[C@@]([NH2+]CCC1CC1)(C(=O)NCCCNC(=O)c1ccc(-c2c3nc(c(-c4c(F)c(F)c(F)c(F)c4F)c4ccc([nH]4)c(-c4c(F)c(F)c(F)c(F)c4F)c4nc(c(-c5c(F)c(F)c(F)c(F)c5F)c5ccc2[nH]5)C=C4)C=C3)cc1)C(F)(F)F
REMARK SMILES IDX 12 1 11 2 9 3 10 4 2 6 1 7 3 8 4 11 5 12 6 13 7 14 8 15
REMARK SMILES IDX 81 16 82 17 83 18 84 19 13 20 14 21 15 22 16 23 17 25 18 26
REMARK SMILES IDX 19 27 80 28 20 29 79 30 21 31 22 32 23 33 73 34 24 35 78 36
REMARK SMILES IDX 72 37 74 38 25 39 77 40 71 41 70 42 26 44 58 45 38 46 57 47
REMARK SMILES IDX 39 48 42 49 56 50 75 51 40 52 41 53 55 55 76 56 43 57 27 58
REMARK SMILES IDX 28 59 36 60 29 61 30 62 34 63 37 64 31 65 32 66 35 67 33 68
REMARK SMILES IDX 59 69 60 70 68 71 61 72 62 73 66 74 69 75 63 76 64 77 67 78
REMARK SMILES IDX 65 79 44 80 45 81 53 82 46 83 47 84 51 85 54 86 48 87 49 88
REMARK SMILES IDX 52 89 50 90
REMARK H PARENT 11 5 3 9 3 10 15 24 74 43 42 54
REMARK Flexibility Score: inf
ROOT
ATOM      1  C   UNL A   1      34.481  34.479  29.866  1.00  0.00     0.118 C 
ENDROOT
BRANCH   1   2
ATOM      2  N   UNL A   1      33.949  33.740  30.998  1.00  0.00    -0.350 N 
ATOM      3  C   UNL A   1      34.080  33.927  32.344  1.00  0.00     0.290 C 
ATOM      4  O   UNL A   1      33.524  33.080  33.048  1.00  0.00    -0.267 OA
ATOM      5  H   UNL A   1      33.395  32.965  30.750  1.00  0.00     0.163 HD
BRANCH   3   6
ATOM      6  C   UNL A   1      34.864  35.113  32.946  1.00  0.00     0.268 C 
ATOM      7  C   UNL A   1      35.153  34.840  34.438  1.00  0.00     0.101 C 
BRANCH   6   8
ATOM      8  N   UNL A   1      36.217  35.269  32.299  1.00  0.00    -0.326 N 
ATOM      9  H   UNL A   1      36.554  36.206  32.515  1.00  0.00     0.347 HD
ATOM     10  H   UNL A   1      36.056  35.084  31.309  1.00  0.00     0.347 HD
BRANCH   8  11
ATOM     11  C   UNL A   1      37.264  34.321  32.694  1.00  0.00     0.261 C 
BRANCH  11  12
ATOM     12  C   UNL A   1      38.494  34.185  31.785  1.00  0.00     0.065 C 
BRANCH  12  13
ATOM     13  C   UNL A   1      38.276  34.683  30.385  1.00  0.00    -0.006 C 
ATOM     14  C   UNL A   1      39.364  34.577  29.352  1.00  0.00     0.004 C 
ATOM     15  C   UNL A   1      38.148  33.697  29.255  1.00  0.00     0.004 C 
ENDBRANCH  12  13
ENDBRANCH  11  12
ENDBRANCH   8  11
ENDBRANCH   6   8
BRANCH   6  16
ATOM     16  C   UNL A   1      33.921  36.349  32.914  1.00  0.00     0.453 C 
ATOM     17  F   UNL A   1      32.663  36.028  32.532  1.00  0.00    -0.164 F 
ATOM     18  F   UNL A   1      33.814  36.869  34.170  1.00  0.00    -0.164 F 
ATOM     19  F   UNL A   1      34.353  37.350  32.122  1.00  0.00    -0.164 F 
ENDBRANCH   6  16
ENDBRANCH   3   6
ENDBRANCH   1   2
BRANCH   1  20
ATOM     20  C   UNL A   1      33.992  33.900  28.541  1.00  0.00     0.042 C 
BRANCH  20  21
ATOM     21  C   UNL A   1      34.850  32.759  28.007  1.00  0.00     0.118 C 
BRANCH  21  22
ATOM     22  N   UNL A   1      34.113  31.510  27.900  1.00  0.00    -0.352 N 
ATOM     23  C   UNL A   1      34.561  30.214  27.910  1.00  0.00     0.251 C 
ATOM     24  H   UNL A   1      33.139  31.610  27.807  1.00  0.00     0.163 HD
ATOM     25  O   UNL A   1      33.783  29.309  27.625  1.00  0.00    -0.269 OA
BRANCH  23  26
ATOM     26  C   UNL A   1      35.966  29.891  28.245  1.00  0.00     0.039 A 
ATOM     27  C   UNL A   1      36.940  30.058  27.256  1.00  0.00     0.014 A 
ATOM     28  C   UNL A   1      36.325  29.366  29.491  1.00  0.00     0.014 A 
ATOM     29  C   UNL A   1      38.271  29.729  27.523  1.00  0.00     0.010 A 
ATOM     30  C   UNL A   1      37.665  29.110  29.782  1.00  0.00     0.010 A 
ATOM     31  C   UNL A   1      38.647  29.267  28.794  1.00  0.00    -0.014 A 
BRANCH  31  32
ATOM     32  C   UNL A   1      40.057  28.903  29.080  1.00  0.00     0.031 A 
ATOM     33  C   UNL A   1      40.938  29.840  29.861  1.00  0.00     0.074 A 
ATOM     34  C   UNL A   1      40.555  27.741  28.614  1.00  0.00     0.049 A 
ATOM     35  N   UNL A   1      42.192  29.700  30.212  1.00  0.00    -0.248 NA
ATOM     36  C   UNL A   1      40.338  31.115  30.283  1.00  0.00     0.031 C 
ATOM     37  C   UNL A   1      39.820  26.774  27.800  1.00  0.00     0.029 A 
ATOM     38  N   UNL A   1      41.796  27.176  28.762  1.00  0.00    -0.354 N 
ATOM     39  C   UNL A   1      42.531  30.870  30.880  1.00  0.00     0.074 A 
ATOM     40  C   UNL A   1      41.371  31.732  30.838  1.00  0.00     0.031 C 
ATOM     41  C   UNL A   1      40.614  25.721  27.544  1.00  0.00     0.029 A 
ATOM     42  C   UNL A   1      41.919  25.951  28.157  1.00  0.00     0.049 A 
ATOM     43  H   UNL A   1      42.530  27.610  29.256  1.00  0.00     0.167 HD
ATOM     44  C   UNL A   1      43.696  31.187  31.496  1.00  0.00     0.037 A 
ATOM     45  C   UNL A   1      42.964  25.104  28.111  1.00  0.00     0.037 A 
ATOM     46  C   UNL A   1      44.839  30.317  31.563  1.00  0.00     0.049 A 
ATOM     47  C   UNL A   1      44.233  25.464  28.834  1.00  0.00     0.074 A 
ATOM     48  C   UNL A   1      46.049  30.524  32.202  1.00  0.00     0.029 A 
ATOM     49  N   UNL A   1      44.911  29.064  30.970  1.00  0.00    -0.354 N 
ATOM     50  N   UNL A   1      44.519  26.543  29.519  1.00  0.00    -0.248 NA
ATOM     51  C   UNL A   1      45.319  24.474  28.792  1.00  0.00     0.031 C 
ATOM     52  C   UNL A   1      46.865  29.412  31.968  1.00  0.00     0.029 A 
ATOM     53  C   UNL A   1      46.147  28.491  31.223  1.00  0.00     0.049 A 
ATOM     54  H   UNL A   1      44.190  28.644  30.447  1.00  0.00     0.167 HD
ATOM     55  C   UNL A   1      45.800  26.352  30.017  1.00  0.00     0.074 A 
ATOM     56  C   UNL A   1      46.230  25.044  29.567  1.00  0.00     0.031 C 
ATOM     57  C   UNL A   1      46.554  27.182  30.779  1.00  0.00     0.037 A 
BRANCH  44  58
ATOM     58  C   UNL A   1      43.785  32.534  32.155  1.00  0.00     0.064 A 
ATOM     59  C   UNL A   1      43.425  32.718  33.499  1.00  0.00     0.173 A 
ATOM     60  C   UNL A   1      44.259  33.647  31.444  1.00  0.00     0.173 A 
ATOM     61  F   UNL A   1      42.953  31.691  34.220  1.00  0.00    -0.203 F 
ATOM     62  C   UNL A   1      43.507  33.974  34.097  1.00  0.00     0.198 A 
ATOM     63  C   UNL A   1      44.369  34.893  32.054  1.00  0.00     0.198 A 
ATOM     64  F   UNL A   1      44.621  33.524  30.158  1.00  0.00    -0.203 F 
ATOM     65  F   UNL A   1      43.110  34.136  35.366  1.00  0.00    -0.200 F 
ATOM     66  C   UNL A   1      43.985  35.058  33.377  1.00  0.00     0.200 A 
ATOM     67  F   UNL A   1      44.841  35.938  31.361  1.00  0.00    -0.200 F 
ATOM     68  F   UNL A   1      44.069  36.264  33.956  1.00  0.00    -0.200 F 
ENDBRANCH  44  58
BRANCH  45  69
ATOM     69  C   UNL A   1      42.837  23.808  27.397  1.00  0.00     0.064 A 
ATOM     70  C   UNL A   1      43.219  23.686  26.053  1.00  0.00     0.173 A 
ATOM     71  C   UNL A   1      42.329  22.668  28.037  1.00  0.00     0.173 A 
ATOM     72  F   UNL A   1      43.693  24.754  25.393  1.00  0.00    -0.203 F 
ATOM     73  C   UNL A   1      43.077  22.481  25.371  1.00  0.00     0.198 A 
ATOM     74  C   UNL A   1      42.213  21.456  27.360  1.00  0.00     0.198 A 
ATOM     75  F   UNL A   1      41.956  22.732  29.324  1.00  0.00    -0.203 F 
ATOM     76  F   UNL A   1      43.406  22.405  24.074  1.00  0.00    -0.200 F 
ATOM     77  C   UNL A   1      42.578  21.365  26.026  1.00  0.00     0.200 A 
ATOM     78  F   UNL A   1      41.743  20.377  28.001  1.00  0.00    -0.200 F 
ATOM     79  F   UNL A   1      42.443  20.205  25.370  1.00  0.00    -0.200 F 
ENDBRANCH  45  69
BRANCH  57  80
ATOM     80  C   UNL A   1      47.900  26.681  31.212  1.00  0.00     0.064 A 
ATOM     81  C   UNL A   1      48.066  25.927  32.382  1.00  0.00     0.173 A 
ATOM     82  C   UNL A   1      49.038  26.949  30.436  1.00  0.00     0.173 A 
ATOM     83  F   UNL A   1      47.011  25.656  33.166  1.00  0.00    -0.203 F 
ATOM     84  C   UNL A   1      49.326  25.487  32.778  1.00  0.00     0.198 A 
ATOM     85  C   UNL A   1      50.293  26.485  30.819  1.00  0.00     0.198 A 
ATOM     86  F   UNL A   1      48.933  27.662  29.304  1.00  0.00    -0.203 F 
ATOM     87  F   UNL A   1      49.470  24.817  33.929  1.00  0.00    -0.200 F 
ATOM     88  C   UNL A   1      50.438  25.763  31.994  1.00  0.00     0.200 A 
ATOM     89  F   UNL A   1      51.363  26.742  30.055  1.00  0.00    -0.200 F 
ATOM     90  F   UNL A   1      51.651  25.342  32.377  1.00  0.00    -0.200 F 
ENDBRANCH  57  80
ENDBRANCH  31  32
ENDBRANCH  23  26
ENDBRANCH  21  22
ENDBRANCH  20  21
ENDBRANCH   1  20
TORSDOF 15
ENDMDL
MODEL 3
REMARK VINA RESULT:     -10.1      1.404      1.872
REMARK SMILES C[C@@]([NH2+]CCC1CC1)(C(=O)NCCCNC(=O)c1ccc(-c2c3nc(c(-c4c(F)c(F)c(F)c(F)c4F)c4ccc([nH]4)c(-c4c(F)c(F)c(F)c(F)c4F)c4nc(c(-c5c(F)c(F)c(F)c(F)c5F)c5ccc2[nH]5)C=C4)C=C3)cc1)C(F)(F)F
REMARK SMILES IDX 12 1 11 2 9 3 10 4 2 6 1 7 3 8 4 11 5 12 6 13 7 14 8 15
REMARK SMILES IDX 81 16 82 17 83 18 84 19 13 20 14 21 15 22 16 23 17 25 18 26
REMARK SMILES IDX 19 27 80 28 20 29 79 30 21 31 22 32 23 33 73 34 24 35 78 36
REMARK SMILES IDX 72 37 74 38 25 39 77 40 71 41 70 42 26 44 58 45 38 46 57 47
REMARK SMILES IDX 39 48 42 49 56 50 75 51 40 52 41 53 55 55 76 56 43 57 27 58
REMARK SMILES IDX 28 59 36 60 29 61 30 62 34 63 37 64 31 65 32 66 35 67 33 68
REMARK SMILES IDX 59 69 60 70 68 71 61 72 62 73 66 74 69 75 63 76 64 77 67 78
REMARK SMILES IDX 65 79 44 80 45 81 53 82 46 83 47 84 51 85 54 86 48 87 49 88
REMARK SMILES IDX 52 89 50 90
REMARK H PARENT 11 5 3 9 3 10 15 24 74 43 42 54
REMARK Flexibility Score: inf
ROOT
ATOM      1  C   UNL A   1      34.047  34.802  29.901  1.00  0.00     0.118 C 
ENDROOT
BRANCH   1   2
ATOM      2  N   UNL A   1      33.646  33.979  31.029  1.00  0.00    -0.350 N 
ATOM      3  C   UNL A   1      33.951  34.053  32.358  1.00  0.00     0.290 C 
ATOM      4  O   UNL A   1      33.469  33.157  33.057  1.00  0.00    -0.267 OA
ATOM      5  H   UNL A   1      33.048  33.234  30.793  1.00  0.00     0.163 HD
BRANCH   3   6
ATOM      6  C   UNL A   1      34.832  35.176  32.947  1.00  0.00     0.268 C 
ATOM      7  C   UNL A   1      35.253  34.803  34.386  1.00  0.00     0.101 C 
BRANCH   6   8
ATOM      8  N   UNL A   1      36.122  35.328  32.181  1.00  0.00    -0.326 N 
ATOM      9  H   UNL A   1      36.461  36.277  32.338  1.00  0.00     0.347 HD
ATOM     10  H   UNL A   1      35.879  35.109  31.215  1.00  0.00     0.347 HD
BRANCH   8  11
ATOM     11  C   UNL A   1      37.214  34.409  32.514  1.00  0.00     0.261 C 
BRANCH  11  12
ATOM     12  C   UNL A   1      37.530  33.277  31.525  1.00  0.00     0.065 C 
BRANCH  12  13
ATOM     13  C   UNL A   1      37.569  31.912  32.152  1.00  0.00    -0.006 C 
ATOM     14  C   UNL A   1      37.090  31.698  33.562  1.00  0.00     0.004 C 
ATOM     15  C   UNL A   1      36.284  31.172  32.406  1.00  0.00     0.004 C 
ENDBRANCH  12  13
ENDBRANCH  11  12
ENDBRANCH   8  11
ENDBRANCH   6   8
BRANCH   6  16
ATOM     16  C   UNL A   1      33.936  36.439  33.079  1.00  0.00     0.453 C 
ATOM     17  F   UNL A   1      34.020  37.005  34.306  1.00  0.00    -0.164 F 
ATOM     18  F   UNL A   1      34.359  37.388  32.196  1.00  0.00    -0.164 F 
ATOM     19  F   UNL A   1      32.634  36.221  32.810  1.00  0.00    -0.164 F 
ENDBRANCH   6  16
ENDBRANCH   3   6
ENDBRANCH   1   2
BRANCH   1  20
ATOM     20  C   UNL A   1      34.123  33.987  28.614  1.00  0.00     0.042 C 
BRANCH  20  21
ATOM     21  C   UNL A   1      34.958  32.717  28.730  1.00  0.00     0.118 C 
BRANCH  21  22
ATOM     22  N   UNL A   1      34.212  31.524  28.365  1.00  0.00    -0.352 N 
ATOM     23  C   UNL A   1      34.655  30.265  28.050  1.00  0.00     0.251 C 
ATOM     24  H   UNL A   1      33.235  31.636  28.339  1.00  0.00     0.163 HD
ATOM     25  O   UNL A   1      33.861  29.447  27.594  1.00  0.00    -0.269 OA
BRANCH  23  26
ATOM     26  C   UNL A   1      36.072  29.881  28.239  1.00  0.00     0.039 A 
ATOM     27  C   UNL A   1      36.453  29.334  29.468  1.00  0.00     0.014 A 
ATOM     28  C   UNL A   1      37.037  30.110  27.253  1.00  0.00     0.014 A 
ATOM     29  C   UNL A   1      37.788  28.993  29.698  1.00  0.00     0.010 A 
ATOM     30  C   UNL A   1      38.354  29.698  27.454  1.00  0.00     0.010 A 
ATOM     31  C   UNL A   1      38.746  29.158  28.686  1.00  0.00    -0.014 A 
BRANCH  31  32
ATOM     32  C   UNL A   1      40.169  28.808  28.928  1.00  0.00     0.031 A 
ATOM     33  C   UNL A   1      41.070  29.766  29.659  1.00  0.00     0.074 A 
ATOM     34  C   UNL A   1      40.657  27.640  28.469  1.00  0.00     0.049 A 
ATOM     35  N   UNL A   1      42.337  29.641  29.968  1.00  0.00    -0.248 NA
ATOM     36  C   UNL A   1      40.477  31.046  30.077  1.00  0.00     0.031 C 
ATOM     37  C   UNL A   1      39.900  26.652  27.701  1.00  0.00     0.029 A 
ATOM     38  N   UNL A   1      41.907  27.086  28.584  1.00  0.00    -0.354 N 
ATOM     39  C   UNL A   1      42.692  30.825  30.600  1.00  0.00     0.074 A 
ATOM     40  C   UNL A   1      41.525  31.680  30.582  1.00  0.00     0.031 C 
ATOM     41  C   UNL A   1      40.691  25.599  27.438  1.00  0.00     0.029 A 
ATOM     42  C   UNL A   1      42.016  25.849  27.999  1.00  0.00     0.049 A 
ATOM     43  H   UNL A   1      42.654  27.533  29.043  1.00  0.00     0.167 HD
ATOM     44  C   UNL A   1      43.876  31.162  31.168  1.00  0.00     0.037 A 
ATOM     45  C   UNL A   1      43.064  25.007  27.933  1.00  0.00     0.037 A 
ATOM     46  C   UNL A   1      45.027  30.300  31.211  1.00  0.00     0.049 A 
ATOM     47  C   UNL A   1      44.356  25.389  28.604  1.00  0.00     0.074 A 
ATOM     48  C   UNL A   1      46.257  30.528  31.802  1.00  0.00     0.029 A 
ATOM     49  N   UNL A   1      45.085  29.036  30.642  1.00  0.00    -0.354 N 
ATOM     50  N   UNL A   1      44.659  26.484  29.256  1.00  0.00    -0.248 NA
ATOM     51  C   UNL A   1      45.446  24.405  28.543  1.00  0.00     0.031 C 
ATOM     52  C   UNL A   1      47.071  29.416  31.562  1.00  0.00     0.029 A 
ATOM     53  C   UNL A   1      46.333  28.475  30.861  1.00  0.00     0.049 A 
ATOM     54  H   UNL A   1      44.349  28.602  30.153  1.00  0.00     0.167 HD
ATOM     55  C   UNL A   1      45.958  26.310  29.712  1.00  0.00     0.074 A 
ATOM     56  C   UNL A   1      46.381  24.996  29.273  1.00  0.00     0.031 C 
ATOM     57  C   UNL A   1      46.733  27.161  30.430  1.00  0.00     0.037 A 
BRANCH  44  58
ATOM     58  C   UNL A   1      43.980  32.522  31.795  1.00  0.00     0.064 A 
ATOM     59  C   UNL A   1      44.362  33.648  31.048  1.00  0.00     0.173 A 
ATOM     60  C   UNL A   1      43.671  32.710  33.151  1.00  0.00     0.173 A 
ATOM     61  F   UNL A   1      44.681  33.522  29.752  1.00  0.00    -0.203 F 
ATOM     62  C   UNL A   1      44.461  34.904  31.643  1.00  0.00     0.198 A 
ATOM     63  C   UNL A   1      43.741  33.972  33.734  1.00  0.00     0.198 A 
ATOM     64  F   UNL A   1      43.296  31.668  33.909  1.00  0.00    -0.203 F 
ATOM     65  F   UNL A   1      44.876  35.953  30.921  1.00  0.00    -0.200 F 
ATOM     66  C   UNL A   1      44.144  35.065  32.983  1.00  0.00     0.200 A 
ATOM     67  F   UNL A   1      43.424  34.129  35.026  1.00  0.00    -0.200 F 
ATOM     68  F   UNL A   1      44.234  36.276  33.552  1.00  0.00    -0.200 F 
ENDBRANCH  44  58
BRANCH  45  69
ATOM     69  C   UNL A   1      42.920  23.696  27.251  1.00  0.00     0.064 A 
ATOM     70  C   UNL A   1      42.367  22.595  27.919  1.00  0.00     0.173 A 
ATOM     71  C   UNL A   1      43.333  23.515  25.923  1.00  0.00     0.173 A 
ATOM     72  F   UNL A   1      41.974  22.715  29.196  1.00  0.00    -0.203 F 
ATOM     73  C   UNL A   1      42.254  21.356  27.294  1.00  0.00     0.198 A 
ATOM     74  C   UNL A   1      43.194  22.280  25.290  1.00  0.00     0.198 A 
ATOM     75  F   UNL A   1      43.862  24.539  25.239  1.00  0.00    -0.203 F 
ATOM     76  F   UNL A   1      41.765  20.308  27.972  1.00  0.00    -0.200 F 
ATOM     77  C   UNL A   1      42.664  21.201  25.978  1.00  0.00     0.200 A 
ATOM     78  F   UNL A   1      43.579  22.139  24.014  1.00  0.00    -0.200 F 
ATOM     79  F   UNL A   1      42.553  20.009  25.376  1.00  0.00    -0.200 F 
ENDBRANCH  45  69
BRANCH  57  80
ATOM     80  C   UNL A   1      48.097  26.676  30.825  1.00  0.00     0.064 A 
ATOM     81  C   UNL A   1      48.308  25.941  32.000  1.00  0.00     0.173 A 
ATOM     82  C   UNL A   1      49.206  26.940  30.006  1.00  0.00     0.173 A 
ATOM     83  F   UNL A   1      47.283  25.675  32.823  1.00  0.00    -0.203 F 
ATOM     84  C   UNL A   1      49.585  25.518  32.359  1.00  0.00     0.198 A 
ATOM     85  C   UNL A   1      50.476  26.491  30.353  1.00  0.00     0.198 A 
ATOM     86  F   UNL A   1      49.056  27.634  28.867  1.00  0.00    -0.203 F 
ATOM     87  F   UNL A   1      49.772  24.867  33.515  1.00  0.00    -0.200 F 
ATOM     88  C   UNL A   1      50.666  25.789  31.535  1.00  0.00     0.200 A 
ATOM     89  F   UNL A   1      51.518  26.744  29.549  1.00  0.00    -0.200 F 
ATOM     90  F   UNL A   1      51.895  25.382  31.883  1.00  0.00    -0.200 F 
ENDBRANCH  57  80
ENDBRANCH  31  32
ENDBRANCH  23  26
ENDBRANCH  21  22
ENDBRANCH  20  21
ENDBRANCH   1  20
TORSDOF 15
ENDMDL
