MODEL 1
REMARK VINA RESULT:     -15.4      0.000      0.000
REMARK SMILES COc1ccc(C2=NN(C(=O)CCC(=O)NCCCNC(=O)c3ccc(-c4c5nc(c(-c6c(F)c(F)c(F)c(F)c6F)c6ccc([nH]6)c(-c6c(F)c(F)c(F)c(F)c6F)c6nc(c(-c7c(F)c(F)c(F)c(F)c7F)c7ccc4[nH]7)C=C6)C=C5)cc3)[C@H](c3ccc(Cl)cc3Cl)C2)cc1
REMARK SMILES IDX 14 1 15 2 16 3 13 5 12 6 10 7 11 8 9 9 7 10 8 11 95 12 86 13
REMARK SMILES IDX 6 14 3 15 4 16 97 17 5 18 96 19 2 20 1 21 87 22 88 23 93 24
REMARK SMILES IDX 89 25 92 26 94 27 90 28 91 29 17 30 18 31 19 32 20 33 21 34
REMARK SMILES IDX 22 36 23 37 24 38 85 39 25 40 84 41 26 42 27 43 28 44 78 45
REMARK SMILES IDX 29 46 83 47 77 48 79 49 30 50 82 51 76 52 75 53 31 55 63 56
REMARK SMILES IDX 43 57 62 58 44 59 47 60 61 61 80 62 45 63 46 64 60 66 81 67
REMARK SMILES IDX 48 68 32 69 33 70 41 71 34 72 35 73 39 74 42 75 36 76 37 77
REMARK SMILES IDX 40 78 38 79 64 80 65 81 73 82 66 83 67 84 71 85 74 86 68 87
REMARK SMILES IDX 69 88 72 89 70 90 49 91 50 92 58 93 51 94 52 95 56 96 59 97
REMARK SMILES IDX 53 98 54 99 57 100 55 101
REMARK H PARENT 16 4 20 35 79 54 47 65
REMARK Flexibility Score: inf
ROOT
ATOM      1  C   UNL A   1      31.444  31.281  26.166  1.00  0.00     0.220 C 
ATOM      2  O   UNL A   1      30.398  31.507  25.540  1.00  0.00    -0.275 OA
ATOM      3  N   UNL A   1      31.900  32.339  26.901  1.00  0.00    -0.356 N 
ATOM      4  H   UNL A   1      31.309  33.121  26.809  1.00  0.00     0.163 HD
ENDROOT
BRANCH   1   5
ATOM      5  C   UNL A   1      32.053  29.879  26.085  1.00  0.00     0.110 C 
BRANCH   5   6
ATOM      6  C   UNL A   1      33.492  29.620  25.668  1.00  0.00     0.112 C 
BRANCH   6   7
ATOM      7  C   UNL A   1      33.836  28.218  25.984  1.00  0.00     0.243 C 
ATOM      8  O   UNL A   1      34.398  27.889  27.023  1.00  0.00    -0.273 OA
BRANCH   7   9
ATOM      9  N   UNL A   1      33.531  27.376  24.945  1.00  0.00    -0.225 N 
ATOM     10  C   UNL A   1      34.044  24.753  23.735  1.00  0.00     0.071 C 
ATOM     11  N   UNL A   1      34.345  25.644  25.061  1.00  0.00    -0.174 NA
ATOM     12  C   UNL A   1      33.235  25.825  22.292  1.00  0.00     0.091 C 
ATOM     13  C   UNL A   1      32.724  27.531  23.156  1.00  0.00     0.149 C 
BRANCH  10  14
ATOM     14  C   UNL A   1      33.785  23.248  23.619  1.00  0.00    -0.002 A 
ATOM     15  C   UNL A   1      33.882  19.717  24.633  1.00  0.00     0.118 A 
ATOM     16  C   UNL A   1      32.413  20.264  23.839  1.00  0.00     0.047 A 
ATOM     17  C   UNL A   1      35.158  20.808  24.907  1.00  0.00     0.047 A 
ATOM     18  C   UNL A   1      32.254  22.215  23.289  1.00  0.00     0.014 A 
ATOM     19  C   UNL A   1      35.133  22.478  24.438  1.00  0.00     0.014 A 
BRANCH  15  20
ATOM     20  O   UNL A   1      33.923  18.432  25.087  1.00  0.00    -0.497 OA
ATOM     21  C   UNL A   1      34.826  17.711  24.250  1.00  0.00     0.278 C 
ENDBRANCH  15  20
ENDBRANCH  10  14
BRANCH  13  22
ATOM     22  C   UNL A   1      31.265  27.995  22.843  1.00  0.00    -0.004 A 
ATOM     23  C   UNL A   1      31.059  29.322  22.405  1.00  0.00     0.009 A 
ATOM     24  C   UNL A   1      30.106  27.351  23.352  1.00  0.00     0.047 A 
ATOM     25  C   UNL A   1      29.802  29.942  22.428  1.00  0.00     0.021 A 
ATOM     26  C   UNL A   1      28.827  27.922  23.249  1.00  0.00     0.041 A 
ATOM     27  Cl  UNL A   1      30.134  26.014  24.449  1.00  0.00    -0.084 Cl
ATOM     28  C   UNL A   1      28.684  29.226  22.812  1.00  0.00     0.042 A 
ATOM     29  Cl  UNL A   1      27.146  29.988  22.862  1.00  0.00    -0.084 Cl
ENDBRANCH  13  22
ENDBRANCH   7   9
ENDBRANCH   6   7
ENDBRANCH   5   6
ENDBRANCH   1   5
BRANCH   3  30
ATOM     30  C   UNL A   1      33.110  32.647  27.852  1.00  0.00     0.117 C 
BRANCH  30  31
ATOM     31  C   UNL A   1      33.998  34.509  28.702  1.00  0.00     0.042 C 
BRANCH  31  32
ATOM     32  C   UNL A   1      33.613  35.066  30.480  1.00  0.00     0.118 C 
BRANCH  32  33
ATOM     33  N   UNL A   1      34.728  34.933  31.721  1.00  0.00    -0.352 N 
ATOM     34  C   UNL A   1      35.961  34.204  32.042  1.00  0.00     0.251 C 
ATOM     35  H   UNL A   1      34.480  35.527  32.467  1.00  0.00     0.163 HD
ATOM     36  O   UNL A   1      36.875  34.772  32.639  1.00  0.00    -0.269 OA
BRANCH  34  37
ATOM     37  C   UNL A   1      36.091  32.529  31.867  1.00  0.00     0.039 A 
ATOM     38  C   UNL A   1      36.733  32.942  30.245  1.00  0.00     0.014 A 
ATOM     39  C   UNL A   1      37.075  31.081  32.927  1.00  0.00     0.014 A 
ATOM     40  C   UNL A   1      38.202  32.256  29.717  1.00  0.00     0.010 A 
ATOM     41  C   UNL A   1      38.651  30.481  32.220  1.00  0.00     0.010 A 
ATOM     42  C   UNL A   1      39.177  31.102  30.631  1.00  0.00    -0.014 A 
BRANCH  42  43
ATOM     43  C   UNL A   1      40.376  30.606  29.825  1.00  0.00     0.031 A 
ATOM     44  C   UNL A   1      41.618  31.452  29.697  1.00  0.00     0.074 A 
ATOM     45  C   UNL A   1      40.437  29.331  29.344  1.00  0.00     0.049 A 
ATOM     46  N   UNL A   1      42.730  31.206  29.043  1.00  0.00    -0.248 NA
ATOM     47  C   UNL A   1      41.608  32.759  30.360  1.00  0.00     0.031 C 
ATOM     48  C   UNL A   1      39.351  28.343  29.372  1.00  0.00     0.029 A 
ATOM     49  N   UNL A   1      41.481  28.607  28.788  1.00  0.00    -0.354 N 
ATOM     50  C   UNL A   1      43.502  32.356  29.158  1.00  0.00     0.074 A 
ATOM     51  C   UNL A   1      42.718  33.314  29.901  1.00  0.00     0.031 C 
ATOM     52  C   UNL A   1      39.817  27.137  29.019  1.00  0.00     0.029 A 
ATOM     53  C   UNL A   1      41.190  27.275  28.556  1.00  0.00     0.049 A 
ATOM     54  H   UNL A   1      42.355  29.008  28.577  1.00  0.00     0.167 HD
ATOM     55  C   UNL A   1      44.763  32.591  28.721  1.00  0.00     0.037 A 
ATOM     56  C   UNL A   1      41.906  26.275  27.992  1.00  0.00     0.037 A 
ATOM     57  C   UNL A   1      45.598  31.615  28.074  1.00  0.00     0.049 A 
ATOM     58  C   UNL A   1      43.290  26.577  27.474  1.00  0.00     0.074 A 
ATOM     59  C   UNL A   1      46.899  31.765  27.626  1.00  0.00     0.029 A 
ATOM     60  N   UNL A   1      45.226  30.310  27.796  1.00  0.00    -0.354 N 
ATOM     61  N   UNL A   1      43.979  27.688  27.564  1.00  0.00    -0.248 NA
ATOM     62  C   UNL A   1      43.984  25.501  26.750  1.00  0.00     0.031 C 
ATOM     63  C   UNL A   1      47.286  30.575  27.005  1.00  0.00     0.029 A 
ATOM     64  C   UNL A   1      46.262  29.655  27.148  1.00  0.00     0.049 A 
ATOM     65  H   UNL A   1      44.357  29.907  28.026  1.00  0.00     0.167 HD
ATOM     66  C   UNL A   1      45.189  27.437  26.930  1.00  0.00     0.074 A 
ATOM     67  C   UNL A   1      45.156  26.062  26.488  1.00  0.00     0.031 C 
ATOM     68  C   UNL A   1      46.230  28.280  26.724  1.00  0.00     0.037 A 
BRANCH  55  69
ATOM     69  C   UNL A   1      45.318  33.978  28.898  1.00  0.00     0.064 A 
ATOM     70  C   UNL A   1      45.188  34.975  27.920  1.00  0.00     0.173 A 
ATOM     71  C   UNL A   1      45.957  34.322  30.101  1.00  0.00     0.173 A 
ATOM     72  F   UNL A   1      44.601  34.698  26.745  1.00  0.00    -0.203 F 
ATOM     73  C   UNL A   1      45.707  36.251  28.125  1.00  0.00     0.198 A 
ATOM     74  C   UNL A   1      46.433  35.610  30.320  1.00  0.00     0.198 A 
ATOM     75  F   UNL A   1      46.104  33.409  31.074  1.00  0.00    -0.203 F 
ATOM     76  F   UNL A   1      45.630  37.168  27.150  1.00  0.00    -0.200 F 
ATOM     77  C   UNL A   1      46.317  36.571  29.328  1.00  0.00     0.200 A 
ATOM     78  F   UNL A   1      47.005  35.921  31.492  1.00  0.00    -0.200 F 
ATOM     79  F   UNL A   1      46.803  37.804  29.529  1.00  0.00    -0.200 F 
ENDBRANCH  55  69
BRANCH  56  80
ATOM     80  C   UNL A   1      41.315  24.912  27.787  1.00  0.00     0.064 A 
ATOM     81  C   UNL A   1      41.804  23.779  28.461  1.00  0.00     0.173 A 
ATOM     82  C   UNL A   1      40.291  24.697  26.848  1.00  0.00     0.173 A 
ATOM     83  F   UNL A   1      42.807  23.903  29.342  1.00  0.00    -0.203 F 
ATOM     84  C   UNL A   1      41.315  22.499  28.186  1.00  0.00     0.198 A 
ATOM     85  C   UNL A   1      39.767  23.427  26.612  1.00  0.00     0.198 A 
ATOM     86  F   UNL A   1      39.791  25.730  26.153  1.00  0.00    -0.203 F 
ATOM     87  F   UNL A   1      41.859  21.432  28.785  1.00  0.00    -0.200 F 
ATOM     88  C   UNL A   1      40.291  22.325  27.267  1.00  0.00     0.200 A 
ATOM     89  F   UNL A   1      38.766  23.272  25.735  1.00  0.00    -0.200 F 
ATOM     90  F   UNL A   1      39.821  21.099  27.003  1.00  0.00    -0.200 F 
ENDBRANCH  56  80
BRANCH  68  91
ATOM     91  C   UNL A   1      47.448  27.728  26.040  1.00  0.00     0.064 A 
ATOM     92  C   UNL A   1      48.510  27.159  26.758  1.00  0.00     0.173 A 
ATOM     93  C   UNL A   1      47.532  27.734  24.639  1.00  0.00     0.173 A 
ATOM     94  F   UNL A   1      48.484  27.134  28.098  1.00  0.00    -0.203 F 
ATOM     95  C   UNL A   1      49.626  26.649  26.099  1.00  0.00     0.198 A 
ATOM     96  C   UNL A   1      48.630  27.185  23.983  1.00  0.00     0.198 A 
ATOM     97  F   UNL A   1      46.539  28.256  23.902  1.00  0.00    -0.203 F 
ATOM     98  F   UNL A   1      50.657  26.167  26.808  1.00  0.00    -0.200 F 
ATOM     99  C   UNL A   1      49.681  26.655  24.713  1.00  0.00     0.200 A 
ATOM    100  F   UNL A   1      48.667  27.168  22.643  1.00  0.00    -0.200 F 
ATOM    101  F   UNL A   1      50.751  26.153  24.081  1.00  0.00    -0.200 F 
ENDBRANCH  68  91
ENDBRANCH  42  43
ENDBRANCH  34  37
ENDBRANCH  32  33
ENDBRANCH  31  32
ENDBRANCH  30  31
ENDBRANCH   3  30
TORSDOF 16
ENDMDL
MODEL 2
REMARK VINA RESULT:     -14.9      1.267      7.149
REMARK SMILES COc1ccc(C2=NN(C(=O)CCC(=O)NCCCNC(=O)c3ccc(-c4c5nc(c(-c6c(F)c(F)c(F)c(F)c6F)c6ccc([nH]6)c(-c6c(F)c(F)c(F)c(F)c6F)c6nc(c(-c7c(F)c(F)c(F)c(F)c7F)c7ccc4[nH]7)C=C6)C=C5)cc3)[C@H](c3ccc(Cl)cc3Cl)C2)cc1
REMARK SMILES IDX 14 1 15 2 16 3 13 5 12 6 10 7 11 8 9 9 7 10 8 11 95 12 86 13
REMARK SMILES IDX 6 14 3 15 4 16 97 17 5 18 96 19 2 20 1 21 87 22 88 23 93 24
REMARK SMILES IDX 89 25 92 26 94 27 90 28 91 29 17 30 18 31 19 32 20 33 21 34
REMARK SMILES IDX 22 36 23 37 24 38 85 39 25 40 84 41 26 42 27 43 28 44 78 45
REMARK SMILES IDX 29 46 83 47 77 48 79 49 30 50 82 51 76 52 75 53 31 55 63 56
REMARK SMILES IDX 43 57 62 58 44 59 47 60 61 61 80 62 45 63 46 64 60 66 81 67
REMARK SMILES IDX 48 68 32 69 33 70 41 71 34 72 35 73 39 74 42 75 36 76 37 77
REMARK SMILES IDX 40 78 38 79 64 80 65 81 73 82 66 83 67 84 71 85 74 86 68 87
REMARK SMILES IDX 69 88 72 89 70 90 49 91 50 92 58 93 51 94 52 95 56 96 59 97
REMARK SMILES IDX 53 98 54 99 57 100 55 101
REMARK H PARENT 16 4 20 35 79 54 47 65
REMARK Flexibility Score: inf
ROOT
ATOM      1  C   UNL A   1      31.564  28.251  27.299  1.00  0.00     0.220 C 
ATOM      2  O   UNL A   1      30.667  27.691  27.945  1.00  0.00    -0.275 OA
ATOM      3  N   UNL A   1      31.546  29.616  27.380  1.00  0.00    -0.356 N 
ATOM      4  H   UNL A   1      30.808  29.932  27.950  1.00  0.00     0.163 HD
ENDROOT
BRANCH   1   5
ATOM      5  C   UNL A   1      32.579  27.381  26.554  1.00  0.00     0.110 C 
BRANCH   5   6
ATOM      6  C   UNL A   1      34.020  27.801  26.316  1.00  0.00     0.112 C 
BRANCH   6   7
ATOM      7  C   UNL A   1      34.180  28.179  24.897  1.00  0.00     0.243 C 
ATOM      8  O   UNL A   1      34.657  29.251  24.544  1.00  0.00    -0.273 OA
BRANCH   7   9
ATOM      9  N   UNL A   1      33.652  27.229  24.058  1.00  0.00    -0.225 N 
ATOM     10  C   UNL A   1      33.900  24.479  23.069  1.00  0.00     0.071 C 
ATOM     11  N   UNL A   1      34.490  25.510  24.180  1.00  0.00    -0.174 NA
ATOM     12  C   UNL A   1      32.769  25.394  21.739  1.00  0.00     0.091 C 
ATOM     13  C   UNL A   1      32.453  27.194  22.497  1.00  0.00     0.149 C 
BRANCH  10  14
ATOM     14  C   UNL A   1      33.639  22.975  23.187  1.00  0.00    -0.002 A 
ATOM     15  C   UNL A   1      33.852  19.615  24.663  1.00  0.00     0.118 A 
ATOM     16  C   UNL A   1      32.308  20.062  23.951  1.00  0.00     0.047 A 
ATOM     17  C   UNL A   1      35.144  20.722  24.656  1.00  0.00     0.047 A 
ATOM     18  C   UNL A   1      32.087  21.920  23.156  1.00  0.00     0.014 A 
ATOM     19  C   UNL A   1      35.065  22.312  23.967  1.00  0.00     0.014 A 
BRANCH  15  20
ATOM     20  O   UNL A   1      33.944  18.405  25.283  1.00  0.00    -0.497 OA
ATOM     21  C   UNL A   1      34.595  17.511  24.381  1.00  0.00     0.278 C 
ENDBRANCH  15  20
ENDBRANCH  10  14
BRANCH  13  22
ATOM     22  C   UNL A   1      30.955  27.643  22.479  1.00  0.00    -0.004 A 
ATOM     23  C   UNL A   1      30.651  28.960  22.068  1.00  0.00     0.009 A 
ATOM     24  C   UNL A   1      29.930  27.001  23.224  1.00  0.00     0.047 A 
ATOM     25  C   UNL A   1      29.419  29.572  22.334  1.00  0.00     0.021 A 
ATOM     26  C   UNL A   1      28.651  27.562  23.372  1.00  0.00     0.041 A 
ATOM     27  Cl  UNL A   1      30.194  25.687  24.317  1.00  0.00    -0.084 Cl
ATOM     28  C   UNL A   1      28.409  28.856  22.950  1.00  0.00     0.042 A 
ATOM     29  Cl  UNL A   1      26.906  29.609  23.297  1.00  0.00    -0.084 Cl
ENDBRANCH  13  22
ENDBRANCH   7   9
ENDBRANCH   6   7
ENDBRANCH   5   6
ENDBRANCH   1   5
BRANCH   3  30
ATOM     30  C   UNL A   1      32.382  30.816  26.810  1.00  0.00     0.117 C 
BRANCH  30  31
ATOM     31  C   UNL A   1      33.173  32.718  27.666  1.00  0.00     0.042 C 
BRANCH  31  32
ATOM     32  C   UNL A   1      34.786  32.755  28.673  1.00  0.00     0.118 C 
BRANCH  32  33
ATOM     33  N   UNL A   1      34.797  32.757  30.347  1.00  0.00    -0.352 N 
ATOM     34  C   UNL A   1      35.596  32.230  31.460  1.00  0.00     0.251 C 
ATOM     35  H   UNL A   1      34.030  33.271  30.692  1.00  0.00     0.163 HD
ATOM     36  O   UNL A   1      35.782  32.917  32.464  1.00  0.00    -0.269 OA
BRANCH  34  37
ATOM     37  C   UNL A   1      36.060  30.609  31.550  1.00  0.00     0.039 A 
ATOM     38  C   UNL A   1      36.638  30.882  29.874  1.00  0.00     0.014 A 
ATOM     39  C   UNL A   1      37.291  29.571  32.811  1.00  0.00     0.014 A 
ATOM     40  C   UNL A   1      38.224  30.428  29.442  1.00  0.00     0.010 A 
ATOM     41  C   UNL A   1      38.969  29.193  32.188  1.00  0.00     0.010 A 
ATOM     42  C   UNL A   1      39.391  29.649  30.515  1.00  0.00    -0.014 A 
BRANCH  42  43
ATOM     43  C   UNL A   1      40.680  29.282  29.782  1.00  0.00     0.031 A 
ATOM     44  C   UNL A   1      40.811  27.955  29.076  1.00  0.00     0.074 A 
ATOM     45  C   UNL A   1      41.679  30.191  29.592  1.00  0.00     0.049 A 
ATOM     46  N   UNL A   1      41.831  27.461  28.414  1.00  0.00    -0.248 NA
ATOM     47  C   UNL A   1      39.664  27.046  29.144  1.00  0.00     0.031 C 
ATOM     48  C   UNL A   1      41.747  31.536  30.176  1.00  0.00     0.029 A 
ATOM     49  N   UNL A   1      42.814  30.157  28.796  1.00  0.00    -0.354 N 
ATOM     50  C   UNL A   1      41.467  26.166  28.063  1.00  0.00     0.074 A 
ATOM     51  C   UNL A   1      40.158  25.934  28.624  1.00  0.00     0.031 C 
ATOM     52  C   UNL A   1      42.743  32.234  29.612  1.00  0.00     0.029 A 
ATOM     53  C   UNL A   1      43.517  31.348  28.755  1.00  0.00     0.049 A 
ATOM     54  H   UNL A   1      43.095  29.353  28.301  1.00  0.00     0.167 HD
ATOM     55  C   UNL A   1      42.138  25.258  27.314  1.00  0.00     0.037 A 
ATOM     56  C   UNL A   1      44.676  31.696  28.150  1.00  0.00     0.037 A 
ATOM     57  C   UNL A   1      43.394  25.508  26.660  1.00  0.00     0.049 A 
ATOM     58  C   UNL A   1      45.424  30.652  27.360  1.00  0.00     0.074 A 
ATOM     59  C   UNL A   1      44.127  24.650  25.858  1.00  0.00     0.029 A 
ATOM     60  N   UNL A   1      44.096  26.701  26.716  1.00  0.00    -0.354 N 
ATOM     61  N   UNL A   1      45.071  29.422  27.078  1.00  0.00    -0.248 NA
ATOM     62  C   UNL A   1      46.743  31.031  26.828  1.00  0.00     0.031 C 
ATOM     63  C   UNL A   1      45.311  25.296  25.494  1.00  0.00     0.029 A 
ATOM     64  C   UNL A   1      45.273  26.587  25.992  1.00  0.00     0.049 A 
ATOM     65  H   UNL A   1      43.803  27.509  27.196  1.00  0.00     0.167 HD
ATOM     66  C   UNL A   1      46.109  28.892  26.324  1.00  0.00     0.074 A 
ATOM     67  C   UNL A   1      47.091  29.940  26.163  1.00  0.00     0.031 C 
ATOM     68  C   UNL A   1      46.240  27.640  25.821  1.00  0.00     0.037 A 
BRANCH  55  69
ATOM     69  C   UNL A   1      41.543  23.884  27.182  1.00  0.00     0.064 A 
ATOM     70  C   UNL A   1      40.390  23.629  26.424  1.00  0.00     0.173 A 
ATOM     71  C   UNL A   1      42.174  22.791  27.797  1.00  0.00     0.173 A 
ATOM     72  F   UNL A   1      39.736  24.637  25.827  1.00  0.00    -0.203 F 
ATOM     73  C   UNL A   1      39.874  22.339  26.317  1.00  0.00     0.198 A 
ATOM     74  C   UNL A   1      41.683  21.498  27.651  1.00  0.00     0.198 A 
ATOM     75  F   UNL A   1      43.284  22.976  28.530  1.00  0.00    -0.203 F 
ATOM     76  F   UNL A   1      38.735  22.129  25.642  1.00  0.00    -0.200 F 
ATOM     77  C   UNL A   1      40.527  21.275  26.919  1.00  0.00     0.200 A 
ATOM     78  F   UNL A   1      42.327  20.469  28.218  1.00  0.00    -0.200 F 
ATOM     79  F   UNL A   1      40.038  20.032  26.803  1.00  0.00    -0.200 F 
ENDBRANCH  55  69
BRANCH  56  80
ATOM     80  C   UNL A   1      45.271  33.061  28.333  1.00  0.00     0.064 A 
ATOM     81  C   UNL A   1      46.118  33.366  29.413  1.00  0.00     0.173 A 
ATOM     82  C   UNL A   1      44.941  34.119  27.468  1.00  0.00     0.173 A 
ATOM     83  F   UNL A   1      46.443  32.414  30.300  1.00  0.00    -0.203 F 
ATOM     84  C   UNL A   1      46.581  34.666  29.631  1.00  0.00     0.198 A 
ATOM     85  C   UNL A   1      45.446  35.405  27.657  1.00  0.00     0.198 A 
ATOM     86  F   UNL A   1      44.120  33.905  26.428  1.00  0.00    -0.203 F 
ATOM     87  F   UNL A   1      47.319  34.940  30.715  1.00  0.00    -0.200 F 
ATOM     88  C   UNL A   1      46.252  35.683  28.748  1.00  0.00     0.200 A 
ATOM     89  F   UNL A   1      45.136  36.376  26.788  1.00  0.00    -0.200 F 
ATOM     90  F   UNL A   1      46.697  36.929  28.956  1.00  0.00    -0.200 F 
ENDBRANCH  56  80
BRANCH  68  91
ATOM     91  C   UNL A   1      47.460  27.344  24.996  1.00  0.00     0.064 A 
ATOM     92  C   UNL A   1      47.551  27.713  23.645  1.00  0.00     0.173 A 
ATOM     93  C   UNL A   1      48.571  26.719  25.581  1.00  0.00     0.173 A 
ATOM     94  F   UNL A   1      46.515  28.307  23.034  1.00  0.00    -0.203 F 
ATOM     95  C   UNL A   1      48.696  27.432  22.904  1.00  0.00     0.198 A 
ATOM     96  C   UNL A   1      49.730  26.478  24.848  1.00  0.00     0.198 A 
ATOM     97  F   UNL A   1      48.542  26.356  26.873  1.00  0.00    -0.203 F 
ATOM     98  F   UNL A   1      48.737  27.736  21.599  1.00  0.00    -0.200 F 
ATOM     99  C   UNL A   1      49.787  26.824  23.508  1.00  0.00     0.200 A 
ATOM    100  F   UNL A   1      50.791  25.914  25.442  1.00  0.00    -0.200 F 
ATOM    101  F   UNL A   1      50.891  26.565  22.795  1.00  0.00    -0.200 F 
ENDBRANCH  68  91
ENDBRANCH  42  43
ENDBRANCH  34  37
ENDBRANCH  32  33
ENDBRANCH  31  32
ENDBRANCH  30  31
ENDBRANCH   3  30
TORSDOF 16
ENDMDL
MODEL 3
REMARK VINA RESULT:     -14.7      1.292      7.148
REMARK SMILES COc1ccc(C2=NN(C(=O)CCC(=O)NCCCNC(=O)c3ccc(-c4c5nc(c(-c6c(F)c(F)c(F)c(F)c6F)c6ccc([nH]6)c(-c6c(F)c(F)c(F)c(F)c6F)c6nc(c(-c7c(F)c(F)c(F)c(F)c7F)c7ccc4[nH]7)C=C6)C=C5)cc3)[C@H](c3ccc(Cl)cc3Cl)C2)cc1
REMARK SMILES IDX 14 1 15 2 16 3 13 5 12 6 10 7 11 8 9 9 7 10 8 11 95 12 86 13
REMARK SMILES IDX 6 14 3 15 4 16 97 17 5 18 96 19 2 20 1 21 87 22 88 23 93 24
REMARK SMILES IDX 89 25 92 26 94 27 90 28 91 29 17 30 18 31 19 32 20 33 21 34
REMARK SMILES IDX 22 36 23 37 24 38 85 39 25 40 84 41 26 42 27 43 28 44 78 45
REMARK SMILES IDX 29 46 83 47 77 48 79 49 30 50 82 51 76 52 75 53 31 55 63 56
REMARK SMILES IDX 43 57 62 58 44 59 47 60 61 61 80 62 45 63 46 64 60 66 81 67
REMARK SMILES IDX 48 68 32 69 33 70 41 71 34 72 35 73 39 74 42 75 36 76 37 77
REMARK SMILES IDX 40 78 38 79 64 80 65 81 73 82 66 83 67 84 71 85 74 86 68 87
REMARK SMILES IDX 69 88 72 89 70 90 49 91 50 92 58 93 51 94 52 95 56 96 59 97
REMARK SMILES IDX 53 98 54 99 57 100 55 101
REMARK H PARENT 16 4 20 35 79 54 47 65
REMARK Flexibility Score: inf
ROOT
ATOM      1  C   UNL A   1      31.636  28.217  27.255  1.00  0.00     0.220 C 
ATOM      2  O   UNL A   1      30.841  27.606  27.984  1.00  0.00    -0.275 OA
ATOM      3  N   UNL A   1      31.612  29.575  27.413  1.00  0.00    -0.356 N 
ATOM      4  H   UNL A   1      30.955  29.846  28.093  1.00  0.00     0.163 HD
ENDROOT
BRANCH   1   5
ATOM      5  C   UNL A   1      32.552  27.408  26.334  1.00  0.00     0.110 C 
BRANCH   5   6
ATOM      6  C   UNL A   1      34.022  27.734  26.126  1.00  0.00     0.112 C 
BRANCH   6   7
ATOM      7  C   UNL A   1      34.247  28.036  24.698  1.00  0.00     0.243 C 
ATOM      8  O   UNL A   1      34.814  29.053  24.314  1.00  0.00    -0.273 OA
BRANCH   7   9
ATOM      9  N   UNL A   1      33.670  27.093  23.885  1.00  0.00    -0.225 N 
ATOM     10  C   UNL A   1      33.855  24.348  22.865  1.00  0.00     0.071 C 
ATOM     11  N   UNL A   1      34.509  25.370  23.948  1.00  0.00    -0.174 NA
ATOM     12  C   UNL A   1      32.653  25.274  21.608  1.00  0.00     0.091 C 
ATOM     13  C   UNL A   1      32.384  27.070  22.394  1.00  0.00     0.149 C 
BRANCH  10  14
ATOM     14  C   UNL A   1      33.597  22.844  22.989  1.00  0.00    -0.002 A 
ATOM     15  C   UNL A   1      33.422  19.573  24.656  1.00  0.00     0.118 A 
ATOM     16  C   UNL A   1      32.152  19.929  23.495  1.00  0.00     0.047 A 
ATOM     17  C   UNL A   1      34.638  20.721  24.966  1.00  0.00     0.047 A 
ATOM     18  C   UNL A   1      32.144  21.736  22.563  1.00  0.00     0.014 A 
ATOM     19  C   UNL A   1      34.739  22.271  24.193  1.00  0.00     0.014 A 
BRANCH  15  20
ATOM     20  O   UNL A   1      33.347  18.399  25.346  1.00  0.00    -0.497 OA
ATOM     21  C   UNL A   1      33.327  17.341  24.388  1.00  0.00     0.278 C 
ENDBRANCH  15  20
ENDBRANCH  10  14
BRANCH  13  22
ATOM     22  C   UNL A   1      30.889  27.522  22.463  1.00  0.00    -0.004 A 
ATOM     23  C   UNL A   1      30.563  28.836  22.060  1.00  0.00     0.009 A 
ATOM     24  C   UNL A   1      29.911  26.889  23.274  1.00  0.00     0.047 A 
ATOM     25  C   UNL A   1      29.351  29.453  22.396  1.00  0.00     0.021 A 
ATOM     26  C   UNL A   1      28.644  27.454  23.496  1.00  0.00     0.041 A 
ATOM     27  Cl  UNL A   1      30.238  25.583  24.360  1.00  0.00    -0.084 Cl
ATOM     28  C   UNL A   1      28.379  28.745  23.078  1.00  0.00     0.042 A 
ATOM     29  Cl  UNL A   1      26.901  29.504  23.511  1.00  0.00    -0.084 Cl
ENDBRANCH  13  22
ENDBRANCH   7   9
ENDBRANCH   6   7
ENDBRANCH   5   6
ENDBRANCH   1   5
BRANCH   3  30
ATOM     30  C   UNL A   1      32.349  30.820  26.803  1.00  0.00     0.117 C 
BRANCH  30  31
ATOM     31  C   UNL A   1      33.081  32.762  27.624  1.00  0.00     0.042 C 
BRANCH  31  32
ATOM     32  C   UNL A   1      34.700  32.870  28.615  1.00  0.00     0.118 C 
BRANCH  32  33
ATOM     33  N   UNL A   1      34.728  32.866  30.288  1.00  0.00    -0.352 N 
ATOM     34  C   UNL A   1      35.535  32.328  31.390  1.00  0.00     0.251 C 
ATOM     35  H   UNL A   1      33.969  33.382  30.643  1.00  0.00     0.163 HD
ATOM     36  O   UNL A   1      35.736  33.010  32.396  1.00  0.00    -0.269 OA
BRANCH  34  37
ATOM     37  C   UNL A   1      35.988  30.703  31.469  1.00  0.00     0.039 A 
ATOM     38  C   UNL A   1      36.586  30.990  29.802  1.00  0.00     0.014 A 
ATOM     39  C   UNL A   1      37.201  29.645  32.732  1.00  0.00     0.014 A 
ATOM     40  C   UNL A   1      38.173  30.531  29.382  1.00  0.00     0.010 A 
ATOM     41  C   UNL A   1      38.883  29.264  32.123  1.00  0.00     0.010 A 
ATOM     42  C   UNL A   1      39.325  29.735  30.458  1.00  0.00    -0.014 A 
BRANCH  42  43
ATOM     43  C   UNL A   1      40.619  29.368  29.735  1.00  0.00     0.031 A 
ATOM     44  C   UNL A   1      40.756  28.039  29.033  1.00  0.00     0.074 A 
ATOM     45  C   UNL A   1      41.618  30.277  29.551  1.00  0.00     0.049 A 
ATOM     46  N   UNL A   1      41.782  27.546  28.378  1.00  0.00    -0.248 NA
ATOM     47  C   UNL A   1      39.610  27.129  29.094  1.00  0.00     0.031 C 
ATOM     48  C   UNL A   1      41.681  31.623  30.133  1.00  0.00     0.029 A 
ATOM     49  N   UNL A   1      42.759  30.243  28.762  1.00  0.00    -0.354 N 
ATOM     50  C   UNL A   1      41.421  26.250  28.028  1.00  0.00     0.074 A 
ATOM     51  C   UNL A   1      40.108  26.017  28.579  1.00  0.00     0.031 C 
ATOM     52  C   UNL A   1      42.680  32.321  29.574  1.00  0.00     0.029 A 
ATOM     53  C   UNL A   1      43.461  31.434  28.724  1.00  0.00     0.049 A 
ATOM     54  H   UNL A   1      43.045  29.439  28.271  1.00  0.00     0.167 HD
ATOM     55  C   UNL A   1      42.099  25.341  27.285  1.00  0.00     0.037 A 
ATOM     56  C   UNL A   1      44.624  31.783  28.127  1.00  0.00     0.037 A 
ATOM     57  C   UNL A   1      43.359  25.591  26.639  1.00  0.00     0.049 A 
ATOM     58  C   UNL A   1      45.378  30.739  27.344  1.00  0.00     0.074 A 
ATOM     59  C   UNL A   1      44.098  24.732  25.843  1.00  0.00     0.029 A 
ATOM     60  N   UNL A   1      44.059  26.785  26.698  1.00  0.00    -0.354 N 
ATOM     61  N   UNL A   1      45.029  29.508  27.062  1.00  0.00    -0.248 NA
ATOM     62  C   UNL A   1      46.701  31.118  26.821  1.00  0.00     0.031 C 
ATOM     63  C   UNL A   1      45.284  25.379  25.487  1.00  0.00     0.029 A 
ATOM     64  C   UNL A   1      45.241  26.671  25.982  1.00  0.00     0.049 A 
ATOM     65  H   UNL A   1      43.762  27.594  27.175  1.00  0.00     0.167 HD
ATOM     66  C   UNL A   1      46.073  28.977  26.316  1.00  0.00     0.074 A 
ATOM     67  C   UNL A   1      47.055  30.026  26.160  1.00  0.00     0.031 C 
ATOM     68  C   UNL A   1      46.208  27.724  25.816  1.00  0.00     0.037 A 
BRANCH  55  69
ATOM     69  C   UNL A   1      41.506  23.965  27.151  1.00  0.00     0.064 A 
ATOM     70  C   UNL A   1      40.350  23.711  26.398  1.00  0.00     0.173 A 
ATOM     71  C   UNL A   1      42.143  22.872  27.759  1.00  0.00     0.173 A 
ATOM     72  F   UNL A   1      39.690  24.720  25.808  1.00  0.00    -0.203 F 
ATOM     73  C   UNL A   1      39.836  22.420  26.289  1.00  0.00     0.198 A 
ATOM     74  C   UNL A   1      41.653  21.579  27.611  1.00  0.00     0.198 A 
ATOM     75  F   UNL A   1      43.255  23.057  28.487  1.00  0.00    -0.203 F 
ATOM     76  F   UNL A   1      38.694  22.211  25.620  1.00  0.00    -0.200 F 
ATOM     77  C   UNL A   1      40.494  21.355  26.884  1.00  0.00     0.200 A 
ATOM     78  F   UNL A   1      42.303  20.549  28.171  1.00  0.00    -0.200 F 
ATOM     79  F   UNL A   1      40.007  20.112  26.766  1.00  0.00    -0.200 F 
ENDBRANCH  55  69
BRANCH  56  80
ATOM     80  C   UNL A   1      45.217  33.149  28.312  1.00  0.00     0.064 A 
ATOM     81  C   UNL A   1      45.127  34.140  27.319  1.00  0.00     0.173 A 
ATOM     82  C   UNL A   1      45.958  33.470  29.462  1.00  0.00     0.173 A 
ATOM     83  F   UNL A   1      44.469  33.889  26.177  1.00  0.00    -0.203 F 
ATOM     84  C   UNL A   1      45.771  35.372  27.458  1.00  0.00     0.198 A 
ATOM     85  C   UNL A   1      46.557  34.719  29.624  1.00  0.00     0.198 A 
ATOM     86  F   UNL A   1      46.103  32.564  30.442  1.00  0.00    -0.203 F 
ATOM     87  F   UNL A   1      45.735  36.263  26.458  1.00  0.00    -0.200 F 
ATOM     88  C   UNL A   1      46.478  35.664  28.615  1.00  0.00     0.200 A 
ATOM     89  F   UNL A   1      47.223  34.996  30.752  1.00  0.00    -0.200 F 
ATOM     90  F   UNL A   1      47.096  36.845  28.749  1.00  0.00    -0.200 F 
ENDBRANCH  56  80
BRANCH  68  91
ATOM     91  C   UNL A   1      47.434  27.428  25.000  1.00  0.00     0.064 A 
ATOM     92  C   UNL A   1      48.558  26.794  25.550  1.00  0.00     0.173 A 
ATOM     93  C   UNL A   1      47.465  27.748  23.634  1.00  0.00     0.173 A 
ATOM     94  F   UNL A   1      48.584  26.474  26.853  1.00  0.00    -0.203 F 
ATOM     95  C   UNL A   1      49.680  26.526  24.771  1.00  0.00     0.198 A 
ATOM     96  C   UNL A   1      48.572  27.439  22.849  1.00  0.00     0.198 A 
ATOM     97  F   UNL A   1      46.413  28.344  23.053  1.00  0.00    -0.203 F 
ATOM     98  F   UNL A   1      50.767  25.977  25.333  1.00  0.00    -0.200 F 
ATOM     99  C   UNL A   1      49.683  26.841  23.420  1.00  0.00     0.200 A 
ATOM    100  F   UNL A   1      48.561  27.721  21.538  1.00  0.00    -0.200 F 
ATOM    101  F   UNL A   1      50.760  26.571  22.670  1.00  0.00    -0.200 F 
ENDBRANCH  68  91
ENDBRANCH  42  43
ENDBRANCH  34  37
ENDBRANCH  32  33
ENDBRANCH  31  32
ENDBRANCH  30  31
ENDBRANCH   3  30
TORSDOF 16
ENDMDL
