MODEL 1
REMARK VINA RESULT:     -13.1      0.000      0.000
REMARK SMILES NS(=O)(=O)c1ccc(-n2nc(C(=O)NCCCNC(=O)c3ccc(-c4c5nc(c(-c6c(F)c(F)c(F)c(F)c6F)c6ccc([nH]6)c(-c6c(F)c(F)c(F)c(F)c6F)c6nc(c(-c7c(F)c(F)c(F)c(F)c7F)c7ccc4[nH]7)C=C6)C=C5)cc3)cc2-c2ccc(Cl)s2)cc1
REMARK SMILES IDX 15 1 14 2 12 3 13 4 11 6 9 7 10 8 85 9 84 10 8 11 5 12 6 13
REMARK SMILES IDX 93 14 7 15 92 16 2 17 3 18 4 19 1 20 86 23 87 24 91 25 88 26
REMARK SMILES IDX 89 27 90 28 16 29 17 30 18 31 19 32 20 34 21 35 22 36 83 37
REMARK SMILES IDX 23 38 82 39 24 40 25 41 26 42 76 43 27 44 81 45 75 46 77 47
REMARK SMILES IDX 28 48 80 49 74 50 73 51 29 53 61 54 41 55 60 56 42 57 45 58
REMARK SMILES IDX 59 59 78 60 43 61 44 62 58 64 79 65 46 66 30 67 31 68 39 69
REMARK SMILES IDX 32 70 33 71 37 72 40 73 34 74 35 75 38 76 36 77 62 78 63 79
REMARK SMILES IDX 71 80 64 81 65 82 69 83 72 84 66 85 67 86 70 87 68 88 47 89
REMARK SMILES IDX 48 90 56 91 49 92 50 93 54 94 57 95 51 96 52 97 55 98 53 99
REMARK H PARENT 14 5 1 21 1 22 18 33 77 52 45 63
REMARK Flexibility Score: inf
ROOT
ATOM      1  C   UNL A   1      39.918  19.840  25.992  1.00  0.00     0.118 C 
ENDROOT
BRANCH   1   2
ATOM      2  N   UNL A   1      40.090  21.269  26.187  1.00  0.00    -0.351 N 
ATOM      3  C   UNL A   1      39.215  22.334  26.119  1.00  0.00     0.271 C 
ATOM      4  O   UNL A   1      39.697  23.435  26.395  1.00  0.00    -0.267 OA
ATOM      5  H   UNL A   1      41.012  21.529  26.413  1.00  0.00     0.163 HD
BRANCH   3   6
ATOM      6  C   UNL A   1      37.788  22.156  25.766  1.00  0.00     0.151 A 
ATOM      7  N   UNL A   1      35.691  22.654  25.650  1.00  0.00    -0.231 N 
ATOM      8  N   UNL A   1      36.917  23.181  25.884  1.00  0.00    -0.162 NA
ATOM      9  C   UNL A   1      35.774  21.344  25.221  1.00  0.00     0.085 A 
ATOM     10  C   UNL A   1      37.111  21.026  25.252  1.00  0.00     0.066 A 
BRANCH   7  11
ATOM     11  C   UNL A   1      34.520  23.430  25.828  1.00  0.00     0.065 A 
ATOM     12  C   UNL A   1      32.072  24.737  25.976  1.00  0.00     0.082 A 
ATOM     13  C   UNL A   1      32.395  23.774  26.933  1.00  0.00     0.024 A 
ATOM     14  C   UNL A   1      32.994  25.099  24.984  1.00  0.00     0.024 A 
ATOM     15  C   UNL A   1      33.617  23.108  26.851  1.00  0.00     0.030 A 
ATOM     16  C   UNL A   1      34.237  24.461  24.925  1.00  0.00     0.030 A 
BRANCH  12  17
ATOM     17  S   UNL A   1      30.477  25.500  25.956  1.00  0.00     0.238 S 
ATOM     18  O   UNL A   1      30.025  25.557  24.582  1.00  0.00    -0.207 OA
ATOM     19  O   UNL A   1      30.504  26.650  26.821  1.00  0.00    -0.207 OA
BRANCH  17  20
ATOM     20  N   UNL A   1      29.463  24.391  26.714  1.00  0.00    -0.225 NA
ATOM     21  H   UNL A   1      29.353  23.571  26.118  1.00  0.00     0.137 HD
ATOM     22  H   UNL A   1      28.551  24.819  26.876  1.00  0.00     0.137 HD
ENDBRANCH  17  20
ENDBRANCH  12  17
ENDBRANCH   7  11
BRANCH   9  23
ATOM     23  C   UNL A   1      34.712  20.517  24.734  1.00  0.00     0.054 A 
ATOM     24  C   UNL A   1      33.483  20.948  24.271  1.00  0.00     0.024 A 
ATOM     25  S   UNL A   1      34.809  18.806  24.779  1.00  0.00    -0.122 S 
ATOM     26  C   UNL A   1      32.622  19.859  23.943  1.00  0.00     0.033 A 
ATOM     27  C   UNL A   1      33.233  18.656  24.185  1.00  0.00     0.094 A 
ATOM     28  Cl  UNL A   1      32.552  17.097  23.960  1.00  0.00    -0.072 Cl
ENDBRANCH   9  23
ENDBRANCH   3   6
ENDBRANCH   1   2
BRANCH   1  29
ATOM     29  C   UNL A   1      41.251  19.085  26.056  1.00  0.00     0.042 C 
BRANCH  29  30
ATOM     30  C   UNL A   1      42.402  19.999  26.458  1.00  0.00     0.118 C 
BRANCH  30  31
ATOM     31  N   UNL A   1      43.618  19.713  25.695  1.00  0.00    -0.352 N 
ATOM     32  C   UNL A   1      44.467  20.596  25.065  1.00  0.00     0.251 C 
ATOM     33  H   UNL A   1      43.861  18.761  25.621  1.00  0.00     0.163 HD
ATOM     34  O   UNL A   1      45.225  20.210  24.182  1.00  0.00    -0.269 OA
BRANCH  32  35
ATOM     35  C   UNL A   1      44.449  22.014  25.458  1.00  0.00     0.039 A 
ATOM     36  C   UNL A   1      43.590  22.912  24.823  1.00  0.00     0.014 A 
ATOM     37  C   UNL A   1      45.286  22.434  26.493  1.00  0.00     0.014 A 
ATOM     38  C   UNL A   1      43.508  24.212  25.305  1.00  0.00     0.010 A 
ATOM     39  C   UNL A   1      45.116  23.681  27.048  1.00  0.00     0.010 A 
ATOM     40  C   UNL A   1      44.245  24.581  26.445  1.00  0.00    -0.014 A 
BRANCH  40  41
ATOM     41  C   UNL A   1      43.941  25.839  27.126  1.00  0.00     0.031 A 
ATOM     42  C   UNL A   1      44.852  26.942  26.721  1.00  0.00     0.074 A 
ATOM     43  C   UNL A   1      42.847  26.053  27.890  1.00  0.00     0.049 A 
ATOM     44  N   UNL A   1      45.786  27.472  27.437  1.00  0.00    -0.248 NA
ATOM     45  C   UNL A   1      44.867  27.383  25.315  1.00  0.00     0.031 C 
ATOM     46  C   UNL A   1      41.725  25.135  28.114  1.00  0.00     0.029 A 
ATOM     47  N   UNL A   1      42.449  27.177  28.557  1.00  0.00    -0.354 N 
ATOM     48  C   UNL A   1      46.338  28.484  26.657  1.00  0.00     0.074 A 
ATOM     49  C   UNL A   1      45.893  28.239  25.314  1.00  0.00     0.031 C 
ATOM     50  C   UNL A   1      40.684  25.811  28.649  1.00  0.00     0.029 A 
ATOM     51  C   UNL A   1      41.115  27.161  28.961  1.00  0.00     0.049 A 
ATOM     52  H   UNL A   1      43.052  27.933  28.737  1.00  0.00     0.167 HD
ATOM     53  C   UNL A   1      46.820  29.606  27.263  1.00  0.00     0.037 A 
ATOM     54  C   UNL A   1      40.411  28.186  29.505  1.00  0.00     0.037 A 
ATOM     55  C   UNL A   1      46.978  29.368  28.679  1.00  0.00     0.049 A 
ATOM     56  C   UNL A   1      41.397  29.122  30.088  1.00  0.00     0.074 A 
ATOM     57  C   UNL A   1      47.772  28.580  29.485  1.00  0.00     0.029 A 
ATOM     58  N   UNL A   1      45.880  29.723  29.415  1.00  0.00    -0.354 N 
ATOM     59  N   UNL A   1      42.130  28.838  31.129  1.00  0.00    -0.248 NA
ATOM     60  C   UNL A   1      41.841  30.263  29.300  1.00  0.00     0.031 C 
ATOM     61  C   UNL A   1      46.984  28.288  30.641  1.00  0.00     0.029 A 
ATOM     62  C   UNL A   1      45.766  28.960  30.539  1.00  0.00     0.049 A 
ATOM     63  H   UNL A   1      45.252  30.438  29.164  1.00  0.00     0.167 HD
ATOM     64  C   UNL A   1      43.343  29.440  30.857  1.00  0.00     0.074 A 
ATOM     65  C   UNL A   1      43.049  30.444  29.840  1.00  0.00     0.031 C 
ATOM     66  C   UNL A   1      44.505  28.833  31.235  1.00  0.00     0.037 A 
BRANCH  53  67
ATOM     67  C   UNL A   1      46.597  31.026  26.754  1.00  0.00     0.064 A 
ATOM     68  C   UNL A   1      47.684  31.930  26.806  1.00  0.00     0.173 A 
ATOM     69  C   UNL A   1      45.331  31.626  26.578  1.00  0.00     0.173 A 
ATOM     70  F   UNL A   1      48.937  31.482  26.980  1.00  0.00    -0.203 F 
ATOM     71  C   UNL A   1      47.500  33.316  26.797  1.00  0.00     0.198 A 
ATOM     72  C   UNL A   1      45.157  33.008  26.523  1.00  0.00     0.198 A 
ATOM     73  F   UNL A   1      44.196  30.922  26.565  1.00  0.00    -0.203 F 
ATOM     74  F   UNL A   1      48.547  34.129  26.997  1.00  0.00    -0.200 F 
ATOM     75  C   UNL A   1      46.235  33.854  26.668  1.00  0.00     0.200 A 
ATOM     76  F   UNL A   1      43.919  33.510  26.420  1.00  0.00    -0.200 F 
ATOM     77  F   UNL A   1      46.045  35.178  26.733  1.00  0.00    -0.200 F 
ENDBRANCH  53  67
BRANCH  54  78
ATOM     78  C   UNL A   1      38.975  28.543  29.374  1.00  0.00     0.064 A 
ATOM     79  C   UNL A   1      38.161  28.692  30.514  1.00  0.00     0.173 A 
ATOM     80  C   UNL A   1      38.454  29.051  28.170  1.00  0.00     0.173 A 
ATOM     81  F   UNL A   1      38.589  28.264  31.711  1.00  0.00    -0.203 F 
ATOM     82  C   UNL A   1      36.933  29.359  30.462  1.00  0.00     0.198 A 
ATOM     83  C   UNL A   1      37.223  29.711  28.119  1.00  0.00     0.198 A 
ATOM     84  F   UNL A   1      39.170  29.006  27.039  1.00  0.00    -0.203 F 
ATOM     85  F   UNL A   1      36.230  29.554  31.587  1.00  0.00    -0.200 F 
ATOM     86  C   UNL A   1      36.474  29.884  29.267  1.00  0.00     0.200 A 
ATOM     87  F   UNL A   1      36.803  30.242  26.962  1.00  0.00    -0.200 F 
ATOM     88  F   UNL A   1      35.337  30.593  29.231  1.00  0.00    -0.200 F 
ENDBRANCH  54  78
BRANCH  66  89
ATOM     89  C   UNL A   1      44.435  27.850  32.364  1.00  0.00     0.064 A 
ATOM     90  C   UNL A   1      44.240  26.467  32.221  1.00  0.00     0.173 A 
ATOM     91  C   UNL A   1      44.665  28.343  33.656  1.00  0.00     0.173 A 
ATOM     92  F   UNL A   1      44.095  25.908  31.012  1.00  0.00    -0.203 F 
ATOM     93  C   UNL A   1      44.236  25.626  33.334  1.00  0.00     0.198 A 
ATOM     94  C   UNL A   1      44.702  27.497  34.757  1.00  0.00     0.198 A 
ATOM     95  F   UNL A   1      44.894  29.652  33.844  1.00  0.00    -0.203 F 
ATOM     96  F   UNL A   1      44.027  24.310  33.179  1.00  0.00    -0.200 F 
ATOM     97  C   UNL A   1      44.475  26.141  34.598  1.00  0.00     0.200 A 
ATOM     98  F   UNL A   1      44.977  27.996  35.970  1.00  0.00    -0.200 F 
ATOM     99  F   UNL A   1      44.508  25.326  35.662  1.00  0.00    -0.200 F 
ENDBRANCH  66  89
ENDBRANCH  40  41
ENDBRANCH  32  35
ENDBRANCH  30  31
ENDBRANCH  29  30
ENDBRANCH   1  29
TORSDOF 14
ENDMDL
MODEL 2
REMARK VINA RESULT:     -12.9      3.186      8.576
REMARK SMILES NS(=O)(=O)c1ccc(-n2nc(C(=O)NCCCNC(=O)c3ccc(-c4c5nc(c(-c6c(F)c(F)c(F)c(F)c6F)c6ccc([nH]6)c(-c6c(F)c(F)c(F)c(F)c6F)c6nc(c(-c7c(F)c(F)c(F)c(F)c7F)c7ccc4[nH]7)C=C6)C=C5)cc3)cc2-c2ccc(Cl)s2)cc1
REMARK SMILES IDX 15 1 14 2 12 3 13 4 11 6 9 7 10 8 85 9 84 10 8 11 5 12 6 13
REMARK SMILES IDX 93 14 7 15 92 16 2 17 3 18 4 19 1 20 86 23 87 24 91 25 88 26
REMARK SMILES IDX 89 27 90 28 16 29 17 30 18 31 19 32 20 34 21 35 22 36 83 37
REMARK SMILES IDX 23 38 82 39 24 40 25 41 26 42 76 43 27 44 81 45 75 46 77 47
REMARK SMILES IDX 28 48 80 49 74 50 73 51 29 53 61 54 41 55 60 56 42 57 45 58
REMARK SMILES IDX 59 59 78 60 43 61 44 62 58 64 79 65 46 66 30 67 31 68 39 69
REMARK SMILES IDX 32 70 33 71 37 72 40 73 34 74 35 75 38 76 36 77 62 78 63 79
REMARK SMILES IDX 71 80 64 81 65 82 69 83 72 84 66 85 67 86 70 87 68 88 47 89
REMARK SMILES IDX 48 90 56 91 49 92 50 93 54 94 57 95 51 96 52 97 55 98 53 99
REMARK H PARENT 14 5 1 21 1 22 18 33 77 52 45 63
REMARK Flexibility Score: inf
ROOT
ATOM      1  C   UNL A   1      32.286  28.338  25.322  1.00  0.00     0.118 C 
ENDROOT
BRANCH   1   2
ATOM      2  N   UNL A   1      31.023  27.624  25.247  1.00  0.00    -0.351 N 
ATOM      3  C   UNL A   1      30.711  26.291  25.071  1.00  0.00     0.271 C 
ATOM      4  O   UNL A   1      29.509  26.018  25.107  1.00  0.00    -0.267 OA
ATOM      5  H   UNL A   1      30.235  28.205  25.342  1.00  0.00     0.163 HD
BRANCH   3   6
ATOM      6  C   UNL A   1      31.757  25.259  24.883  1.00  0.00     0.151 A 
ATOM      7  N   UNL A   1      32.575  23.274  24.673  1.00  0.00    -0.231 N 
ATOM      8  N   UNL A   1      31.419  23.978  24.624  1.00  0.00    -0.162 NA
ATOM      9  C   UNL A   1      33.672  24.104  24.796  1.00  0.00     0.085 A 
ATOM     10  C   UNL A   1      33.166  25.378  24.890  1.00  0.00     0.066 A 
BRANCH   7  11
ATOM     11  C   UNL A   1      32.569  21.860  24.582  1.00  0.00     0.065 A 
ATOM     12  C   UNL A   1      32.879  19.111  24.319  1.00  0.00     0.082 A 
ATOM     13  C   UNL A   1      33.053  19.705  25.571  1.00  0.00     0.024 A 
ATOM     14  C   UNL A   1      32.485  19.874  23.212  1.00  0.00     0.024 A 
ATOM     15  C   UNL A   1      32.912  21.086  25.699  1.00  0.00     0.030 A 
ATOM     16  C   UNL A   1      32.302  21.254  23.349  1.00  0.00     0.030 A 
BRANCH  12  17
ATOM     17  S   UNL A   1      33.191  17.387  24.080  1.00  0.00     0.238 S 
ATOM     18  O   UNL A   1      34.419  17.054  24.771  1.00  0.00    -0.207 OA
ATOM     19  O   UNL A   1      32.955  17.061  22.699  1.00  0.00    -0.207 OA
BRANCH  17  20
ATOM     20  N   UNL A   1      31.971  16.608  24.940  1.00  0.00    -0.225 NA
ATOM     21  H   UNL A   1      31.367  17.304  25.377  1.00  0.00     0.137 HD
ATOM     22  H   UNL A   1      32.387  16.017  25.660  1.00  0.00     0.137 HD
ENDBRANCH  17  20
ENDBRANCH  12  17
ENDBRANCH   7  11
BRANCH   9  23
ATOM     23  C   UNL A   1      35.053  23.738  24.725  1.00  0.00     0.054 A 
ATOM     24  C   UNL A   1      35.741  23.341  23.594  1.00  0.00     0.024 A 
ATOM     25  S   UNL A   1      36.032  23.639  26.130  1.00  0.00    -0.122 S 
ATOM     26  C   UNL A   1      37.085  22.962  23.888  1.00  0.00     0.033 A 
ATOM     27  C   UNL A   1      37.348  23.078  25.229  1.00  0.00     0.094 A 
ATOM     28  Cl  UNL A   1      38.824  22.701  26.019  1.00  0.00    -0.072 Cl
ENDBRANCH   9  23
ENDBRANCH   3   6
ENDBRANCH   1   2
BRANCH   1  29
ATOM     29  C   UNL A   1      32.650  28.716  26.762  1.00  0.00     0.042 C 
BRANCH  29  30
ATOM     30  C   UNL A   1      34.098  29.178  26.879  1.00  0.00     0.118 C 
BRANCH  30  31
ATOM     31  N   UNL A   1      34.202  30.636  26.951  1.00  0.00    -0.352 N 
ATOM     32  C   UNL A   1      35.042  31.402  27.730  1.00  0.00     0.251 C 
ATOM     33  H   UNL A   1      33.588  31.136  26.366  1.00  0.00     0.163 HD
ATOM     34  O   UNL A   1      34.782  32.579  27.954  1.00  0.00    -0.269 OA
BRANCH  32  35
ATOM     35  C   UNL A   1      36.253  30.788  28.297  1.00  0.00     0.039 A 
ATOM     36  C   UNL A   1      36.348  29.401  28.423  1.00  0.00     0.014 A 
ATOM     37  C   UNL A   1      37.308  31.616  28.679  1.00  0.00     0.014 A 
ATOM     38  C   UNL A   1      37.553  28.851  28.843  1.00  0.00     0.010 A 
ATOM     39  C   UNL A   1      38.536  31.070  28.975  1.00  0.00     0.010 A 
ATOM     40  C   UNL A   1      38.658  29.689  29.080  1.00  0.00    -0.014 A 
BRANCH  40  41
ATOM     41  C   UNL A   1      39.989  29.104  29.230  1.00  0.00     0.031 A 
ATOM     42  C   UNL A   1      40.378  28.926  30.654  1.00  0.00     0.074 A 
ATOM     43  C   UNL A   1      40.722  28.595  28.214  1.00  0.00     0.049 A 
ATOM     44  N   UNL A   1      41.259  29.610  31.303  1.00  0.00    -0.248 NA
ATOM     45  C   UNL A   1      39.582  28.030  31.510  1.00  0.00     0.031 C 
ATOM     46  C   UNL A   1      40.315  28.440  26.814  1.00  0.00     0.029 A 
ATOM     47  N   UNL A   1      41.958  28.013  28.231  1.00  0.00    -0.354 N 
ATOM     48  C   UNL A   1      41.305  29.060  32.581  1.00  0.00     0.074 A 
ATOM     49  C   UNL A   1      40.121  28.258  32.711  1.00  0.00     0.031 C 
ATOM     50  C   UNL A   1      41.168  27.603  26.182  1.00  0.00     0.029 A 
ATOM     51  C   UNL A   1      42.270  27.297  27.076  1.00  0.00     0.049 A 
ATOM     52  H   UNL A   1      42.576  28.092  28.993  1.00  0.00     0.167 HD
ATOM     53  C   UNL A   1      42.486  29.054  33.263  1.00  0.00     0.037 A 
ATOM     54  C   UNL A   1      43.350  26.502  26.871  1.00  0.00     0.037 A 
ATOM     55  C   UNL A   1      43.418  29.962  32.635  1.00  0.00     0.049 A 
ATOM     56  C   UNL A   1      44.389  26.934  27.830  1.00  0.00     0.074 A 
ATOM     57  C   UNL A   1      43.524  31.323  32.445  1.00  0.00     0.029 A 
ATOM     58  N   UNL A   1      44.219  29.358  31.704  1.00  0.00    -0.354 N 
ATOM     59  N   UNL A   1      45.000  28.085  27.761  1.00  0.00    -0.248 NA
ATOM     60  C   UNL A   1      44.513  26.235  29.101  1.00  0.00     0.031 C 
ATOM     61  C   UNL A   1      44.231  31.489  31.214  1.00  0.00     0.029 A 
ATOM     62  C   UNL A   1      44.594  30.233  30.728  1.00  0.00     0.049 A 
ATOM     63  H   UNL A   1      44.492  28.413  31.736  1.00  0.00     0.167 HD
ATOM     64  C   UNL A   1      45.167  28.455  29.081  1.00  0.00     0.074 A 
ATOM     65  C   UNL A   1      45.032  27.217  29.842  1.00  0.00     0.031 C 
ATOM     66  C   UNL A   1      45.057  29.767  29.440  1.00  0.00     0.037 A 
BRANCH  53  67
ATOM     67  C   UNL A   1      43.008  27.874  34.075  1.00  0.00     0.064 A 
ATOM     68  C   UNL A   1      43.331  28.093  35.435  1.00  0.00     0.173 A 
ATOM     69  C   UNL A   1      43.539  26.690  33.519  1.00  0.00     0.173 A 
ATOM     70  F   UNL A   1      42.892  29.188  36.073  1.00  0.00    -0.203 F 
ATOM     71  C   UNL A   1      44.204  27.255  36.136  1.00  0.00     0.198 A 
ATOM     72  C   UNL A   1      44.373  25.833  34.237  1.00  0.00     0.198 A 
ATOM     73  F   UNL A   1      43.378  26.361  32.234  1.00  0.00    -0.203 F 
ATOM     74  F   UNL A   1      44.594  27.586  37.374  1.00  0.00    -0.200 F 
ATOM     75  C   UNL A   1      44.734  26.132  35.532  1.00  0.00     0.200 A 
ATOM     76  F   UNL A   1      44.894  24.760  33.625  1.00  0.00    -0.200 F 
ATOM     77  F   UNL A   1      45.627  25.368  36.174  1.00  0.00    -0.200 F 
ENDBRANCH  53  67
BRANCH  54  78
ATOM     78  C   UNL A   1      43.492  25.258  26.072  1.00  0.00     0.064 A 
ATOM     79  C   UNL A   1      44.609  25.058  25.238  1.00  0.00     0.173 A 
ATOM     80  C   UNL A   1      42.710  24.120  26.346  1.00  0.00     0.173 A 
ATOM     81  F   UNL A   1      45.426  26.080  24.946  1.00  0.00    -0.203 F 
ATOM     82  C   UNL A   1      44.956  23.790  24.760  1.00  0.00     0.198 A 
ATOM     83  C   UNL A   1      43.055  22.855  25.861  1.00  0.00     0.198 A 
ATOM     84  F   UNL A   1      41.656  24.193  27.169  1.00  0.00    -0.203 F 
ATOM     85  F   UNL A   1      46.075  23.629  24.041  1.00  0.00    -0.200 F 
ATOM     86  C   UNL A   1      44.188  22.686  25.088  1.00  0.00     0.200 A 
ATOM     87  F   UNL A   1      42.321  21.788  26.211  1.00  0.00    -0.200 F 
ATOM     88  F   UNL A   1      44.562  21.460  24.698  1.00  0.00    -0.200 F 
ENDBRANCH  54  78
BRANCH  66  89
ATOM     89  C   UNL A   1      45.294  30.796  28.377  1.00  0.00     0.064 A 
ATOM     90  C   UNL A   1      44.314  31.295  27.503  1.00  0.00     0.173 A 
ATOM     91  C   UNL A   1      46.575  31.361  28.308  1.00  0.00     0.173 A 
ATOM     92  F   UNL A   1      43.048  30.865  27.562  1.00  0.00    -0.203 F 
ATOM     93  C   UNL A   1      44.624  32.289  26.575  1.00  0.00     0.198 A 
ATOM     94  C   UNL A   1      46.868  32.380  27.410  1.00  0.00     0.198 A 
ATOM     95  F   UNL A   1      47.538  30.947  29.146  1.00  0.00    -0.203 F 
ATOM     96  F   UNL A   1      43.681  32.738  25.733  1.00  0.00    -0.200 F 
ATOM     97  C   UNL A   1      45.897  32.835  26.535  1.00  0.00     0.200 A 
ATOM     98  F   UNL A   1      48.089  32.933  27.409  1.00  0.00    -0.200 F 
ATOM     99  F   UNL A   1      46.183  33.816  25.668  1.00  0.00    -0.200 F 
ENDBRANCH  66  89
ENDBRANCH  40  41
ENDBRANCH  32  35
ENDBRANCH  30  31
ENDBRANCH  29  30
ENDBRANCH   1  29
TORSDOF 14
ENDMDL
MODEL 3
REMARK VINA RESULT:     -12.6      4.350      9.812
REMARK SMILES NS(=O)(=O)c1ccc(-n2nc(C(=O)NCCCNC(=O)c3ccc(-c4c5nc(c(-c6c(F)c(F)c(F)c(F)c6F)c6ccc([nH]6)c(-c6c(F)c(F)c(F)c(F)c6F)c6nc(c(-c7c(F)c(F)c(F)c(F)c7F)c7ccc4[nH]7)C=C6)C=C5)cc3)cc2-c2ccc(Cl)s2)cc1
REMARK SMILES IDX 15 1 14 2 12 3 13 4 11 6 9 7 10 8 85 9 84 10 8 11 5 12 6 13
REMARK SMILES IDX 93 14 7 15 92 16 2 17 3 18 4 19 1 20 86 23 87 24 91 25 88 26
REMARK SMILES IDX 89 27 90 28 16 29 17 30 18 31 19 32 20 34 21 35 22 36 83 37
REMARK SMILES IDX 23 38 82 39 24 40 25 41 26 42 76 43 27 44 81 45 75 46 77 47
REMARK SMILES IDX 28 48 80 49 74 50 73 51 29 53 61 54 41 55 60 56 42 57 45 58
REMARK SMILES IDX 59 59 78 60 43 61 44 62 58 64 79 65 46 66 30 67 31 68 39 69
REMARK SMILES IDX 32 70 33 71 37 72 40 73 34 74 35 75 38 76 36 77 62 78 63 79
REMARK SMILES IDX 71 80 64 81 65 82 69 83 72 84 66 85 67 86 70 87 68 88 47 89
REMARK SMILES IDX 48 90 56 91 49 92 50 93 54 94 57 95 51 96 52 97 55 98 53 99
REMARK H PARENT 14 5 1 21 1 22 18 33 77 52 45 63
REMARK Flexibility Score: inf
ROOT
ATOM      1  C   UNL A   1      32.682  33.410  27.639  1.00  0.00     0.118 C 
ENDROOT
BRANCH   1   2
ATOM      2  N   UNL A   1      33.742  32.547  28.130  1.00  0.00    -0.351 N 
ATOM      3  C   UNL A   1      34.051  31.222  27.901  1.00  0.00     0.271 C 
ATOM      4  O   UNL A   1      35.073  30.812  28.456  1.00  0.00    -0.267 OA
ATOM      5  H   UNL A   1      34.363  32.997  28.747  1.00  0.00     0.163 HD
BRANCH   3   6
ATOM      6  C   UNL A   1      33.222  30.364  27.024  1.00  0.00     0.151 A 
ATOM      7  N   UNL A   1      32.430  28.528  26.213  1.00  0.00    -0.231 N 
ATOM      8  N   UNL A   1      33.100  29.042  27.272  1.00  0.00    -0.162 NA
ATOM      9  C   UNL A   1      31.975  29.520  25.367  1.00  0.00     0.085 A 
ATOM     10  C   UNL A   1      32.441  30.701  25.894  1.00  0.00     0.066 A 
BRANCH   7  11
ATOM     11  C   UNL A   1      32.246  27.130  26.079  1.00  0.00     0.065 A 
ATOM     12  C   UNL A   1      31.939  24.368  26.144  1.00  0.00     0.082 A 
ATOM     13  C   UNL A   1      30.815  25.187  26.270  1.00  0.00     0.024 A 
ATOM     14  C   UNL A   1      33.207  24.921  25.918  1.00  0.00     0.024 A 
ATOM     15  C   UNL A   1      30.971  26.572  26.252  1.00  0.00     0.030 A 
ATOM     16  C   UNL A   1      33.358  26.310  25.858  1.00  0.00     0.030 A 
BRANCH  12  17
ATOM     17  S   UNL A   1      31.807  22.612  26.308  1.00  0.00     0.238 S 
ATOM     18  O   UNL A   1      32.862  22.009  25.521  1.00  0.00    -0.207 OA
ATOM     19  O   UNL A   1      30.423  22.239  26.182  1.00  0.00    -0.207 OA
BRANCH  17  20
ATOM     20  N   UNL A   1      32.213  22.300  27.911  1.00  0.00    -0.225 NA
ATOM     21  H   UNL A   1      32.045  21.316  28.118  1.00  0.00     0.137 HD
ATOM     22  H   UNL A   1      31.641  22.880  28.526  1.00  0.00     0.137 HD
ENDBRANCH  17  20
ENDBRANCH  12  17
ENDBRANCH   7  11
BRANCH   9  23
ATOM     23  C   UNL A   1      31.107  29.374  24.240  1.00  0.00     0.054 A 
ATOM     24  C   UNL A   1      31.240  28.457  23.213  1.00  0.00     0.024 A 
ATOM     25  S   UNL A   1      29.799  30.447  23.965  1.00  0.00    -0.122 S 
ATOM     26  C   UNL A   1      30.252  28.639  22.200  1.00  0.00     0.033 A 
ATOM     27  C   UNL A   1      29.425  29.690  22.500  1.00  0.00     0.094 A 
ATOM     28  Cl  UNL A   1      28.122  30.272  21.547  1.00  0.00    -0.072 Cl
ENDBRANCH   9  23
ENDBRANCH   3   6
ENDBRANCH   1   2
BRANCH   1  29
ATOM     29  C   UNL A   1      32.649  34.757  28.370  1.00  0.00     0.042 C 
BRANCH  29  30
ATOM     30  C   UNL A   1      33.783  34.881  29.381  1.00  0.00     0.118 C 
BRANCH  30  31
ATOM     31  N   UNL A   1      33.314  35.411  30.663  1.00  0.00    -0.352 N 
ATOM     32  C   UNL A   1      33.615  34.976  31.936  1.00  0.00     0.251 C 
ATOM     33  H   UNL A   1      32.703  36.180  30.608  1.00  0.00     0.163 HD
ATOM     34  O   UNL A   1      32.891  35.269  32.881  1.00  0.00    -0.269 OA
BRANCH  32  35
ATOM     35  C   UNL A   1      34.811  34.146  32.147  1.00  0.00     0.039 A 
ATOM     36  C   UNL A   1      34.716  32.754  32.132  1.00  0.00     0.014 A 
ATOM     37  C   UNL A   1      36.040  34.778  32.336  1.00  0.00     0.014 A 
ATOM     38  C   UNL A   1      35.883  32.004  32.208  1.00  0.00     0.010 A 
ATOM     39  C   UNL A   1      37.203  34.043  32.287  1.00  0.00     0.010 A 
ATOM     40  C   UNL A   1      37.130  32.656  32.244  1.00  0.00    -0.014 A 
BRANCH  40  41
ATOM     41  C   UNL A   1      38.354  31.887  32.026  1.00  0.00     0.031 A 
ATOM     42  C   UNL A   1      39.042  31.535  33.296  1.00  0.00     0.074 A 
ATOM     43  C   UNL A   1      38.736  31.376  30.834  1.00  0.00     0.049 A 
ATOM     44  N   UNL A   1      40.146  32.035  33.739  1.00  0.00    -0.248 NA
ATOM     45  C   UNL A   1      38.348  30.681  34.276  1.00  0.00     0.031 C 
ATOM     46  C   UNL A   1      37.986  31.400  29.574  1.00  0.00     0.029 A 
ATOM     47  N   UNL A   1      39.837  30.635  30.510  1.00  0.00    -0.354 N 
ATOM     48  C   UNL A   1      40.413  31.373  34.934  1.00  0.00     0.074 A 
ATOM     49  C   UNL A   1      39.188  30.729  35.315  1.00  0.00     0.031 C 
ATOM     50  C   UNL A   1      38.525  30.516  28.706  1.00  0.00     0.029 A 
ATOM     51  C   UNL A   1      39.750  29.988  29.278  1.00  0.00     0.049 A 
ATOM     52  H   UNL A   1      40.624  30.563  31.097  1.00  0.00     0.167 HD
ATOM     53  C   UNL A   1      41.708  31.149  35.298  1.00  0.00     0.037 A 
ATOM     54  C   UNL A   1      40.617  29.077  28.768  1.00  0.00     0.037 A 
ATOM     55  C   UNL A   1      42.589  31.976  34.505  1.00  0.00     0.049 A 
ATOM     56  C   UNL A   1      41.909  29.280  29.459  1.00  0.00     0.074 A 
ATOM     57  C   UNL A   1      42.850  33.322  34.365  1.00  0.00     0.029 A 
ATOM     58  N   UNL A   1      43.042  31.355  33.373  1.00  0.00    -0.354 N 
ATOM     59  N   UNL A   1      42.652  30.340  29.299  1.00  0.00    -0.248 NA
ATOM     60  C   UNL A   1      42.227  28.461  30.620  1.00  0.00     0.031 C 
ATOM     61  C   UNL A   1      43.258  33.500  33.007  1.00  0.00     0.029 A 
ATOM     62  C   UNL A   1      43.300  32.254  32.381  1.00  0.00     0.049 A 
ATOM     63  H   UNL A   1      43.168  30.383  33.286  1.00  0.00     0.167 HD
ATOM     64  C   UNL A   1      43.184  30.567  30.553  1.00  0.00     0.074 A 
ATOM     65  C   UNL A   1      43.051  29.296  31.258  1.00  0.00     0.031 C 
ATOM     66  C   UNL A   1      43.364  31.845  30.996  1.00  0.00     0.037 A 
BRANCH  53  67
ATOM     67  C   UNL A   1      42.225  29.844  35.891  1.00  0.00     0.064 A 
ATOM     68  C   UNL A   1      43.245  29.914  36.869  1.00  0.00     0.173 A 
ATOM     69  C   UNL A   1      42.048  28.571  35.305  1.00  0.00     0.173 A 
ATOM     70  F   UNL A   1      43.515  31.072  37.491  1.00  0.00    -0.203 F 
ATOM     71  C   UNL A   1      44.084  28.831  37.148  1.00  0.00     0.198 A 
ATOM     72  C   UNL A   1      42.859  27.481  35.621  1.00  0.00     0.198 A 
ATOM     73  F   UNL A   1      41.168  28.344  34.326  1.00  0.00    -0.203 F 
ATOM     74  F   UNL A   1      45.127  28.992  37.974  1.00  0.00    -0.200 F 
ATOM     75  C   UNL A   1      43.898  27.619  36.514  1.00  0.00     0.200 A 
ATOM     76  F   UNL A   1      42.675  26.320  34.978  1.00  0.00    -0.200 F 
ATOM     77  F   UNL A   1      44.744  26.601  36.722  1.00  0.00    -0.200 F 
ENDBRANCH  53  67
BRANCH  54  78
ATOM     78  C   UNL A   1      40.372  27.900  27.896  1.00  0.00     0.064 A 
ATOM     79  C   UNL A   1      41.118  27.707  26.717  1.00  0.00     0.173 A 
ATOM     80  C   UNL A   1      39.638  26.789  28.354  1.00  0.00     0.173 A 
ATOM     81  F   UNL A   1      41.869  28.701  26.222  1.00  0.00    -0.203 F 
ATOM     82  C   UNL A   1      41.173  26.468  26.072  1.00  0.00     0.198 A 
ATOM     83  C   UNL A   1      39.689  25.553  27.704  1.00  0.00     0.198 A 
ATOM     84  F   UNL A   1      38.938  26.852  29.494  1.00  0.00    -0.203 F 
ATOM     85  F   UNL A   1      41.962  26.304  25.001  1.00  0.00    -0.200 F 
ATOM     86  C   UNL A   1      40.472  25.386  26.577  1.00  0.00     0.200 A 
ATOM     87  F   UNL A   1      39.031  24.504  28.220  1.00  0.00    -0.200 F 
ATOM     88  F   UNL A   1      40.587  24.178  26.008  1.00  0.00    -0.200 F 
ENDBRANCH  54  78
BRANCH  66  89
ATOM     89  C   UNL A   1      43.492  32.923  29.962  1.00  0.00     0.064 A 
ATOM     90  C   UNL A   1      44.637  33.165  29.185  1.00  0.00     0.173 A 
ATOM     91  C   UNL A   1      42.351  33.693  29.696  1.00  0.00     0.173 A 
ATOM     92  F   UNL A   1      45.740  32.418  29.323  1.00  0.00    -0.203 F 
ATOM     93  C   UNL A   1      44.643  34.165  28.213  1.00  0.00     0.198 A 
ATOM     94  C   UNL A   1      42.349  34.659  28.698  1.00  0.00     0.198 A 
ATOM     95  F   UNL A   1      41.219  33.476  30.384  1.00  0.00    -0.203 F 
ATOM     96  F   UNL A   1      45.753  34.396  27.495  1.00  0.00    -0.200 F 
ATOM     97  C   UNL A   1      43.497  34.904  27.966  1.00  0.00     0.200 A 
ATOM     98  F   UNL A   1      41.224  35.339  28.435  1.00  0.00    -0.200 F 
ATOM     99  F   UNL A   1      43.493  35.839  27.005  1.00  0.00    -0.200 F 
ENDBRANCH  66  89
ENDBRANCH  40  41
ENDBRANCH  32  35
ENDBRANCH  30  31
ENDBRANCH  29  30
ENDBRANCH   1  29
TORSDOF 14
ENDMDL
