MODEL 1
REMARK VINA RESULT:     -12.3      0.000      0.000
REMARK SMILES NC(=O)CC[N@@H+]1[C@@H](C(=O)NCCCNC(=O)c2ccc(-c3c4nc(c(-c5c(F)c(F)c(F)c(F)c5F)c5ccc([nH]5)c(-c5c(F)c(F)c(F)c(F)c5F)c5nc(c(-c6c(F)c(F)c(F)c(F)c6F)c6ccc3[nH]6)C=C5)C=C4)cc2)CC[C@@H]2CCCC[C@H]21
REMARK SMILES IDX 11 1 10 2 8 3 9 4 7 6 6 7 87 8 80 10 82 11 86 12 81 13 83 14
REMARK SMILES IDX 85 15 84 16 5 17 4 18 2 19 1 20 3 23 12 24 13 25 14 26 15 27
REMARK SMILES IDX 16 29 17 30 18 31 79 32 19 33 78 34 20 35 21 36 22 37 72 38
REMARK SMILES IDX 23 39 77 40 71 41 73 42 24 43 76 44 70 45 69 46 25 48 57 49
REMARK SMILES IDX 37 50 56 51 38 52 41 53 55 54 74 55 39 56 40 57 54 59 75 60
REMARK SMILES IDX 42 61 26 62 27 63 35 64 28 65 29 66 33 67 36 68 30 69 31 70
REMARK SMILES IDX 34 71 32 72 58 73 59 74 67 75 60 76 61 77 65 78 68 79 62 80
REMARK SMILES IDX 63 81 66 82 64 83 43 84 44 85 52 86 45 87 46 88 50 89 53 90
REMARK SMILES IDX 47 91 48 92 51 93 49 94
REMARK H PARENT 10 5 6 9 1 21 1 22 14 28 73 47 41 58
REMARK Flexibility Score: inf
ROOT
ATOM      1  C   UNL A   1      31.976  30.332  26.400  1.00  0.00     0.118 C 
ENDROOT
BRANCH   1   2
ATOM      2  N   UNL A   1      31.242  29.756  25.292  1.00  0.00    -0.351 N 
ATOM      3  C   UNL A   1      31.091  28.450  24.934  1.00  0.00     0.278 C 
ATOM      4  O   UNL A   1      30.356  28.204  23.972  1.00  0.00    -0.268 OA
ATOM      5  H   UNL A   1      30.783  30.405  24.711  1.00  0.00     0.163 HD
BRANCH   3   6
ATOM      6  C   UNL A   1      31.835  27.308  25.665  1.00  0.00     0.274 C 
ATOM      7  N   UNL A   1      32.924  26.668  24.831  1.00  0.00    -0.322 N 
ATOM      8  C   UNL A   1      33.556  25.565  25.631  1.00  0.00     0.187 C 
ATOM      9  H   UNL A   1      32.548  26.251  23.979  1.00  0.00     0.349 HD
ATOM     10  C   UNL A   1      30.775  26.325  26.181  1.00  0.00     0.076 C 
ATOM     11  C   UNL A   1      32.479  24.513  26.021  1.00  0.00     0.048 C 
ATOM     12  C   UNL A   1      34.732  24.867  24.916  1.00  0.00     0.065 C 
ATOM     13  C   UNL A   1      31.400  25.149  26.899  1.00  0.00     0.016 C 
ATOM     14  C   UNL A   1      33.065  23.302  26.758  1.00  0.00     0.010 C 
ATOM     15  C   UNL A   1      35.273  23.649  25.659  1.00  0.00     0.006 C 
ATOM     16  C   UNL A   1      34.177  22.643  25.959  1.00  0.00     0.001 C 
BRANCH   7  17
ATOM     17  C   UNL A   1      33.898  27.718  24.411  1.00  0.00     0.273 C 
BRANCH  17  18
ATOM     18  C   UNL A   1      33.997  28.035  22.911  1.00  0.00     0.161 C 
BRANCH  18  19
ATOM     19  C   UNL A   1      33.322  27.029  22.012  1.00  0.00     0.223 C 
ATOM     20  N   UNL A   1      32.049  27.343  21.638  1.00  0.00    -0.369 N 
ATOM     21  H   UNL A   1      31.545  26.733  21.050  1.00  0.00     0.159 HD
ATOM     22  H   UNL A   1      31.635  28.178  21.953  1.00  0.00     0.159 HD
ATOM     23  O   UNL A   1      33.842  25.979  21.655  1.00  0.00    -0.275 OA
ENDBRANCH  18  19
ENDBRANCH  17  18
ENDBRANCH   7  17
ENDBRANCH   3   6
ENDBRANCH   1   2
BRANCH   1  24
ATOM     24  C   UNL A   1      31.703  31.818  26.570  1.00  0.00     0.042 C 
BRANCH  24  25
ATOM     25  C   UNL A   1      32.790  32.543  27.353  1.00  0.00     0.118 C 
BRANCH  25  26
ATOM     26  N   UNL A   1      32.459  33.940  27.616  1.00  0.00    -0.352 N 
ATOM     27  C   UNL A   1      32.978  34.820  28.536  1.00  0.00     0.251 C 
ATOM     28  H   UNL A   1      31.752  34.313  27.041  1.00  0.00     0.163 HD
ATOM     29  O   UNL A   1      32.425  35.897  28.738  1.00  0.00    -0.269 OA
BRANCH  27  30
ATOM     30  C   UNL A   1      34.181  34.458  29.314  1.00  0.00     0.039 A 
ATOM     31  C   UNL A   1      34.023  33.934  30.600  1.00  0.00     0.014 A 
ATOM     32  C   UNL A   1      35.459  34.623  28.777  1.00  0.00     0.014 A 
ATOM     33  C   UNL A   1      35.138  33.473  31.301  1.00  0.00     0.010 A 
ATOM     34  C   UNL A   1      36.559  34.088  29.438  1.00  0.00     0.010 A 
ATOM     35  C   UNL A   1      36.406  33.489  30.698  1.00  0.00    -0.014 A 
BRANCH  35  36
ATOM     36  C   UNL A   1      37.578  32.838  31.335  1.00  0.00     0.031 A 
ATOM     37  C   UNL A   1      38.239  31.660  30.681  1.00  0.00     0.074 A 
ATOM     38  C   UNL A   1      37.974  33.246  32.556  1.00  0.00     0.049 A 
ATOM     39  N   UNL A   1      39.180  30.878  31.144  1.00  0.00    -0.248 NA
ATOM     40  C   UNL A   1      37.759  31.294  29.339  1.00  0.00     0.031 C 
ATOM     41  C   UNL A   1      37.380  34.351  33.312  1.00  0.00     0.029 A 
ATOM     42  N   UNL A   1      38.954  32.766  33.388  1.00  0.00    -0.354 N 
ATOM     43  C   UNL A   1      39.393  29.921  30.161  1.00  0.00     0.074 A 
ATOM     44  C   UNL A   1      38.453  30.192  29.095  1.00  0.00     0.031 C 
ATOM     45  C   UNL A   1      38.014  34.472  34.488  1.00  0.00     0.029 A 
ATOM     46  C   UNL A   1      39.026  33.425  34.592  1.00  0.00     0.049 A 
ATOM     47  H   UNL A   1      39.550  32.021  33.146  1.00  0.00     0.167 HD
ATOM     48  C   UNL A   1      40.306  28.921  30.144  1.00  0.00     0.037 A 
ATOM     49  C   UNL A   1      39.802  33.196  35.668  1.00  0.00     0.037 A 
ATOM     50  C   UNL A   1      41.254  28.670  31.197  1.00  0.00     0.049 A 
ATOM     51  C   UNL A   1      40.784  32.058  35.634  1.00  0.00     0.074 A 
ATOM     52  C   UNL A   1      42.270  27.732  31.239  1.00  0.00     0.029 A 
ATOM     53  N   UNL A   1      41.296  29.360  32.400  1.00  0.00    -0.354 N 
ATOM     54  N   UNL A   1      41.027  31.205  34.671  1.00  0.00    -0.248 NA
ATOM     55  C   UNL A   1      41.595  31.847  36.842  1.00  0.00     0.031 C 
ATOM     56  C   UNL A   1      42.894  27.820  32.488  1.00  0.00     0.029 A 
ATOM     57  C   UNL A   1      42.299  28.843  33.206  1.00  0.00     0.049 A 
ATOM     58  H   UNL A   1      40.703  30.106  32.646  1.00  0.00     0.167 HD
ATOM     59  C   UNL A   1      42.025  30.366  35.145  1.00  0.00     0.074 A 
ATOM     60  C   UNL A   1      42.359  30.827  36.477  1.00  0.00     0.031 C 
ATOM     61  C   UNL A   1      42.612  29.309  34.533  1.00  0.00     0.037 A 
BRANCH  48  62
ATOM     62  C   UNL A   1      40.327  28.020  28.944  1.00  0.00     0.064 A 
ATOM     63  C   UNL A   1      41.084  28.331  27.804  1.00  0.00     0.173 A 
ATOM     64  C   UNL A   1      39.616  26.810  28.950  1.00  0.00     0.173 A 
ATOM     65  F   UNL A   1      41.772  29.479  27.744  1.00  0.00    -0.203 F 
ATOM     66  C   UNL A   1      41.108  27.475  26.704  1.00  0.00     0.198 A 
ATOM     67  C   UNL A   1      39.666  25.944  27.860  1.00  0.00     0.198 A 
ATOM     68  F   UNL A   1      38.882  26.461  30.017  1.00  0.00    -0.203 F 
ATOM     69  F   UNL A   1      41.803  27.815  25.610  1.00  0.00    -0.200 F 
ATOM     70  C   UNL A   1      40.405  26.280  26.736  1.00  0.00     0.200 A 
ATOM     71  F   UNL A   1      38.997  24.783  27.898  1.00  0.00    -0.200 F 
ATOM     72  F   UNL A   1      40.437  25.455  25.681  1.00  0.00    -0.200 F 
ENDBRANCH  48  62
BRANCH  49  73
ATOM     73  C   UNL A   1      39.681  34.065  36.868  1.00  0.00     0.064 A 
ATOM     74  C   UNL A   1      40.377  35.279  36.947  1.00  0.00     0.173 A 
ATOM     75  C   UNL A   1      38.871  33.703  37.955  1.00  0.00     0.173 A 
ATOM     76  F   UNL A   1      41.180  35.656  35.943  1.00  0.00    -0.203 F 
ATOM     77  C   UNL A   1      40.278  36.092  38.075  1.00  0.00     0.198 A 
ATOM     78  C   UNL A   1      38.752  34.531  39.069  1.00  0.00     0.198 A 
ATOM     79  F   UNL A   1      38.181  32.554  37.926  1.00  0.00    -0.203 F 
ATOM     80  F   UNL A   1      40.986  37.228  38.142  1.00  0.00    -0.200 F 
ATOM     81  C   UNL A   1      39.461  35.721  39.132  1.00  0.00     0.200 A 
ATOM     82  F   UNL A   1      37.949  34.175  40.082  1.00  0.00    -0.200 F 
ATOM     83  F   UNL A   1      39.362  36.506  40.213  1.00  0.00    -0.200 F 
ENDBRANCH  49  73
BRANCH  61  84
ATOM     84  C   UNL A   1      43.680  28.581  35.294  1.00  0.00     0.064 A 
ATOM     85  C   UNL A   1      45.032  28.934  35.172  1.00  0.00     0.173 A 
ATOM     86  C   UNL A   1      43.345  27.554  36.189  1.00  0.00     0.173 A 
ATOM     87  F   UNL A   1      45.404  29.896  34.314  1.00  0.00    -0.203 F 
ATOM     88  C   UNL A   1      46.012  28.273  35.908  1.00  0.00     0.198 A 
ATOM     89  C   UNL A   1      44.324  26.916  36.944  1.00  0.00     0.198 A 
ATOM     90  F   UNL A   1      42.065  27.184  36.343  1.00  0.00    -0.203 F 
ATOM     91  F   UNL A   1      47.301  28.599  35.747  1.00  0.00    -0.200 F 
ATOM     92  C   UNL A   1      45.657  27.272  36.799  1.00  0.00     0.200 A 
ATOM     93  F   UNL A   1      43.978  25.957  37.813  1.00  0.00    -0.200 F 
ATOM     94  F   UNL A   1      46.600  26.645  37.515  1.00  0.00    -0.200 F 
ENDBRANCH  61  84
ENDBRANCH  35  36
ENDBRANCH  27  30
ENDBRANCH  25  26
ENDBRANCH  24  25
ENDBRANCH   1  24
TORSDOF 13
ENDMDL
MODEL 2
REMARK VINA RESULT:     -12.3      1.811      2.567
REMARK SMILES NC(=O)CC[N@@H+]1[C@@H](C(=O)NCCCNC(=O)c2ccc(-c3c4nc(c(-c5c(F)c(F)c(F)c(F)c5F)c5ccc([nH]5)c(-c5c(F)c(F)c(F)c(F)c5F)c5nc(c(-c6c(F)c(F)c(F)c(F)c6F)c6ccc3[nH]6)C=C5)C=C4)cc2)CC[C@@H]2CCCC[C@H]21
REMARK SMILES IDX 11 1 10 2 8 3 9 4 7 6 6 7 87 8 80 10 82 11 86 12 81 13 83 14
REMARK SMILES IDX 85 15 84 16 5 17 4 18 2 19 1 20 3 23 12 24 13 25 14 26 15 27
REMARK SMILES IDX 16 29 17 30 18 31 79 32 19 33 78 34 20 35 21 36 22 37 72 38
REMARK SMILES IDX 23 39 77 40 71 41 73 42 24 43 76 44 70 45 69 46 25 48 57 49
REMARK SMILES IDX 37 50 56 51 38 52 41 53 55 54 74 55 39 56 40 57 54 59 75 60
REMARK SMILES IDX 42 61 26 62 27 63 35 64 28 65 29 66 33 67 36 68 30 69 31 70
REMARK SMILES IDX 34 71 32 72 58 73 59 74 67 75 60 76 61 77 65 78 68 79 62 80
REMARK SMILES IDX 63 81 66 82 64 83 43 84 44 85 52 86 45 87 46 88 50 89 53 90
REMARK SMILES IDX 47 91 48 92 51 93 49 94
REMARK H PARENT 10 5 6 9 1 21 1 22 14 28 73 47 41 58
REMARK Flexibility Score: inf
ROOT
ATOM      1  C   UNL A   1      32.108  27.650  27.162  1.00  0.00     0.118 C 
ENDROOT
BRANCH   1   2
ATOM      2  N   UNL A   1      31.278  26.899  26.243  1.00  0.00    -0.351 N 
ATOM      3  C   UNL A   1      31.453  25.645  25.740  1.00  0.00     0.278 C 
ATOM      4  O   UNL A   1      30.563  25.194  25.010  1.00  0.00    -0.268 OA
ATOM      5  H   UNL A   1      30.466  27.364  25.937  1.00  0.00     0.163 HD
BRANCH   3   6
ATOM      6  C   UNL A   1      32.727  24.817  26.023  1.00  0.00     0.274 C 
ATOM      7  N   UNL A   1      33.581  24.584  24.795  1.00  0.00    -0.322 N 
ATOM      8  C   UNL A   1      34.771  23.755  25.187  1.00  0.00     0.187 C 
ATOM      9  H   UNL A   1      33.071  24.069  24.077  1.00  0.00     0.349 HD
ATOM     10  C   UNL A   1      32.291  23.533  26.743  1.00  0.00     0.076 C 
ATOM     11  C   UNL A   1      34.295  22.400  25.785  1.00  0.00     0.048 C 
ATOM     12  C   UNL A   1      35.761  23.496  24.032  1.00  0.00     0.065 C 
ATOM     13  C   UNL A   1      33.468  22.633  27.050  1.00  0.00     0.016 C 
ATOM     14  C   UNL A   1      35.455  21.454  26.120  1.00  0.00     0.010 C 
ATOM     15  C   UNL A   1      36.886  22.529  24.387  1.00  0.00     0.006 C 
ATOM     16  C   UNL A   1      36.347  21.212  24.914  1.00  0.00     0.001 C 
BRANCH   7  17
ATOM     17  C   UNL A   1      33.955  25.902  24.203  1.00  0.00     0.273 C 
BRANCH  17  18
ATOM     18  C   UNL A   1      33.523  26.179  22.756  1.00  0.00     0.161 C 
BRANCH  18  19
ATOM     19  C   UNL A   1      32.765  25.051  22.102  1.00  0.00     0.223 C 
ATOM     20  N   UNL A   1      31.407  25.177  22.112  1.00  0.00    -0.369 N 
ATOM     21  H   UNL A   1      30.845  24.480  21.703  1.00  0.00     0.159 HD
ATOM     22  H   UNL A   1      30.989  25.966  22.528  1.00  0.00     0.159 HD
ATOM     23  O   UNL A   1      33.301  24.062  21.617  1.00  0.00    -0.275 OA
ENDBRANCH  18  19
ENDBRANCH  17  18
ENDBRANCH   7  17
ENDBRANCH   3   6
ENDBRANCH   1   2
BRANCH   1  24
ATOM     24  C   UNL A   1      31.745  29.126  27.202  1.00  0.00     0.042 C 
BRANCH  24  25
ATOM     25  C   UNL A   1      32.672  29.994  26.360  1.00  0.00     0.118 C 
BRANCH  25  26
ATOM     26  N   UNL A   1      32.559  31.414  26.680  1.00  0.00    -0.352 N 
ATOM     27  C   UNL A   1      33.359  32.219  27.455  1.00  0.00     0.251 C 
ATOM     28  H   UNL A   1      31.785  31.869  26.275  1.00  0.00     0.163 HD
ATOM     29  O   UNL A   1      32.983  33.345  27.767  1.00  0.00    -0.269 OA
BRANCH  27  30
ATOM     30  C   UNL A   1      34.659  31.719  27.947  1.00  0.00     0.039 A 
ATOM     31  C   UNL A   1      35.744  32.599  28.005  1.00  0.00     0.014 A 
ATOM     32  C   UNL A   1      34.810  30.395  28.362  1.00  0.00     0.014 A 
ATOM     33  C   UNL A   1      36.944  32.181  28.581  1.00  0.00     0.010 A 
ATOM     34  C   UNL A   1      35.975  30.003  29.010  1.00  0.00     0.010 A 
ATOM     35  C   UNL A   1      37.047  30.899  29.145  1.00  0.00    -0.014 A 
BRANCH  35  36
ATOM     36  C   UNL A   1      38.238  30.487  29.929  1.00  0.00     0.031 A 
ATOM     37  C   UNL A   1      39.205  29.486  29.369  1.00  0.00     0.074 A 
ATOM     38  C   UNL A   1      38.382  30.936  31.191  1.00  0.00     0.049 A 
ATOM     39  N   UNL A   1      40.221  28.902  29.951  1.00  0.00    -0.248 NA
ATOM     40  C   UNL A   1      38.986  29.063  27.977  1.00  0.00     0.031 C 
ATOM     41  C   UNL A   1      37.482  31.876  31.861  1.00  0.00     0.029 A 
ATOM     42  N   UNL A   1      39.327  30.647  32.144  1.00  0.00    -0.354 N 
ATOM     43  C   UNL A   1      40.751  28.034  29.005  1.00  0.00     0.074 A 
ATOM     44  C   UNL A   1      39.918  28.133  27.826  1.00  0.00     0.031 C 
ATOM     45  C   UNL A   1      37.922  32.096  33.110  1.00  0.00     0.029 A 
ATOM     46  C   UNL A   1      39.107  31.276  33.346  1.00  0.00     0.049 A 
ATOM     47  H   UNL A   1      40.089  30.046  31.982  1.00  0.00     0.167 HD
ATOM     48  C   UNL A   1      41.844  27.243  29.109  1.00  0.00     0.037 A 
ATOM     49  C   UNL A   1      39.770  31.184  34.513  1.00  0.00     0.037 A 
ATOM     50  C   UNL A   1      42.682  27.166  30.277  1.00  0.00     0.049 A 
ATOM     51  C   UNL A   1      40.962  30.273  34.609  1.00  0.00     0.074 A 
ATOM     52  C   UNL A   1      43.856  26.455  30.451  1.00  0.00     0.029 A 
ATOM     53  N   UNL A   1      42.428  27.819  31.474  1.00  0.00    -0.354 N 
ATOM     54  N   UNL A   1      41.497  29.512  33.687  1.00  0.00    -0.248 NA
ATOM     55  C   UNL A   1      41.639  30.203  35.912  1.00  0.00     0.031 C 
ATOM     56  C   UNL A   1      44.285  26.638  31.770  1.00  0.00     0.029 A 
ATOM     57  C   UNL A   1      43.405  27.499  32.404  1.00  0.00     0.049 A 
ATOM     58  H   UNL A   1      41.667  28.422  31.639  1.00  0.00     0.167 HD
ATOM     59  C   UNL A   1      42.579  28.885  34.288  1.00  0.00     0.074 A 
ATOM     60  C   UNL A   1      42.638  29.371  35.651  1.00  0.00     0.031 C 
ATOM     61  C   UNL A   1      43.444  27.986  33.759  1.00  0.00     0.037 A 
BRANCH  48  62
ATOM     62  C   UNL A   1      42.204  26.396  27.923  1.00  0.00     0.064 A 
ATOM     63  C   UNL A   1      43.154  26.816  26.980  1.00  0.00     0.173 A 
ATOM     64  C   UNL A   1      41.623  25.130  27.751  1.00  0.00     0.173 A 
ATOM     65  F   UNL A   1      43.729  28.021  27.093  1.00  0.00    -0.203 F 
ATOM     66  C   UNL A   1      43.490  26.011  25.894  1.00  0.00     0.198 A 
ATOM     67  C   UNL A   1      41.984  24.315  26.680  1.00  0.00     0.198 A 
ATOM     68  F   UNL A   1      40.715  24.677  28.627  1.00  0.00    -0.203 F 
ATOM     69  F   UNL A   1      44.368  26.453  24.982  1.00  0.00    -0.200 F 
ATOM     70  C   UNL A   1      42.911  24.759  25.749  1.00  0.00     0.200 A 
ATOM     71  F   UNL A   1      41.433  23.101  26.549  1.00  0.00    -0.200 F 
ATOM     72  F   UNL A   1      43.242  23.982  24.709  1.00  0.00    -0.200 F 
ENDBRANCH  48  62
BRANCH  49  73
ATOM     73  C   UNL A   1      39.321  31.979  35.686  1.00  0.00     0.064 A 
ATOM     74  C   UNL A   1      39.838  33.260  35.925  1.00  0.00     0.173 A 
ATOM     75  C   UNL A   1      38.369  31.480  36.588  1.00  0.00     0.173 A 
ATOM     76  F   UNL A   1      40.766  33.771  35.103  1.00  0.00    -0.203 F 
ATOM     77  C   UNL A   1      39.431  34.006  37.029  1.00  0.00     0.198 A 
ATOM     78  C   UNL A   1      37.943  32.239  37.676  1.00  0.00     0.198 A 
ATOM     79  F   UNL A   1      37.840  30.262  36.401  1.00  0.00    -0.203 F 
ATOM     80  F   UNL A   1      39.972  35.211  37.257  1.00  0.00    -0.200 F 
ATOM     81  C   UNL A   1      38.479  33.497  37.901  1.00  0.00     0.200 A 
ATOM     82  F   UNL A   1      37.012  31.750  38.506  1.00  0.00    -0.200 F 
ATOM     83  F   UNL A   1      38.084  34.217  38.959  1.00  0.00    -0.200 F 
ENDBRANCH  49  73
BRANCH  61  84
ATOM     84  C   UNL A   1      44.534  27.474  34.653  1.00  0.00     0.064 A 
ATOM     85  C   UNL A   1      45.747  28.164  34.794  1.00  0.00     0.173 A 
ATOM     86  C   UNL A   1      44.346  26.309  35.412  1.00  0.00     0.173 A 
ATOM     87  F   UNL A   1      45.980  29.272  34.075  1.00  0.00    -0.203 F 
ATOM     88  C   UNL A   1      46.738  27.697  35.652  1.00  0.00     0.198 A 
ATOM     89  C   UNL A   1      45.328  25.862  36.290  1.00  0.00     0.198 A 
ATOM     90  F   UNL A   1      43.202  25.617  35.314  1.00  0.00    -0.203 F 
ATOM     91  F   UNL A   1      47.905  28.350  35.742  1.00  0.00    -0.200 F 
ATOM     92  C   UNL A   1      46.525  26.552  36.406  1.00  0.00     0.200 A 
ATOM     93  F   UNL A   1      45.116  24.762  37.026  1.00  0.00    -0.200 F 
ATOM     94  F   UNL A   1      47.477  26.111  37.239  1.00  0.00    -0.200 F 
ENDBRANCH  61  84
ENDBRANCH  35  36
ENDBRANCH  27  30
ENDBRANCH  25  26
ENDBRANCH  24  25
ENDBRANCH   1  24
TORSDOF 13
ENDMDL
MODEL 3
REMARK VINA RESULT:     -12.2      0.213      1.624
REMARK SMILES NC(=O)CC[N@@H+]1[C@@H](C(=O)NCCCNC(=O)c2ccc(-c3c4nc(c(-c5c(F)c(F)c(F)c(F)c5F)c5ccc([nH]5)c(-c5c(F)c(F)c(F)c(F)c5F)c5nc(c(-c6c(F)c(F)c(F)c(F)c6F)c6ccc3[nH]6)C=C5)C=C4)cc2)CC[C@@H]2CCCC[C@H]21
REMARK SMILES IDX 11 1 10 2 8 3 9 4 7 6 6 7 87 8 80 10 82 11 86 12 81 13 83 14
REMARK SMILES IDX 85 15 84 16 5 17 4 18 2 19 1 20 3 23 12 24 13 25 14 26 15 27
REMARK SMILES IDX 16 29 17 30 18 31 79 32 19 33 78 34 20 35 21 36 22 37 72 38
REMARK SMILES IDX 23 39 77 40 71 41 73 42 24 43 76 44 70 45 69 46 25 48 57 49
REMARK SMILES IDX 37 50 56 51 38 52 41 53 55 54 74 55 39 56 40 57 54 59 75 60
REMARK SMILES IDX 42 61 26 62 27 63 35 64 28 65 29 66 33 67 36 68 30 69 31 70
REMARK SMILES IDX 34 71 32 72 58 73 59 74 67 75 60 76 61 77 65 78 68 79 62 80
REMARK SMILES IDX 63 81 66 82 64 83 43 84 44 85 52 86 45 87 46 88 50 89 53 90
REMARK SMILES IDX 47 91 48 92 51 93 49 94
REMARK H PARENT 10 5 6 9 1 21 1 22 14 28 73 47 41 58
REMARK Flexibility Score: inf
ROOT
ATOM      1  C   UNL A   1      32.037  30.120  26.309  1.00  0.00     0.118 C 
ENDROOT
BRANCH   1   2
ATOM      2  N   UNL A   1      31.237  29.537  25.252  1.00  0.00    -0.351 N 
ATOM      3  C   UNL A   1      31.060  28.228  24.917  1.00  0.00     0.278 C 
ATOM      4  O   UNL A   1      30.270  27.975  24.001  1.00  0.00    -0.268 OA
ATOM      5  H   UNL A   1      30.748  30.182  24.692  1.00  0.00     0.163 HD
BRANCH   3   6
ATOM      6  C   UNL A   1      31.840  27.090  25.615  1.00  0.00     0.274 C 
ATOM      7  N   UNL A   1      32.916  26.474  24.745  1.00  0.00    -0.322 N 
ATOM      8  C   UNL A   1      33.585  25.372  25.516  1.00  0.00     0.187 C 
ATOM      9  H   UNL A   1      32.522  26.061  23.899  1.00  0.00     0.349 HD
ATOM     10  C   UNL A   1      30.809  26.086  26.150  1.00  0.00     0.076 C 
ATOM     11  C   UNL A   1      32.534  24.300  25.924  1.00  0.00     0.048 C 
ATOM     12  C   UNL A   1      34.750  24.699  24.762  1.00  0.00     0.065 C 
ATOM     13  C   UNL A   1      31.470  24.911  26.837  1.00  0.00     0.016 C 
ATOM     14  C   UNL A   1      33.157  23.091  26.632  1.00  0.00     0.010 C 
ATOM     15  C   UNL A   1      35.330  23.482  25.477  1.00  0.00     0.006 C 
ATOM     16  C   UNL A   1      34.257  22.457  25.796  1.00  0.00     0.001 C 
BRANCH   7  17
ATOM     17  C   UNL A   1      33.862  27.543  24.310  1.00  0.00     0.273 C 
BRANCH  17  18
ATOM     18  C   UNL A   1      34.026  27.774  22.800  1.00  0.00     0.161 C 
BRANCH  18  19
ATOM     19  C   UNL A   1      33.231  26.831  21.932  1.00  0.00     0.223 C 
ATOM     20  N   UNL A   1      31.967  27.242  21.628  1.00  0.00    -0.369 N 
ATOM     21  H   UNL A   1      31.388  26.678  21.064  1.00  0.00     0.159 HD
ATOM     22  H   UNL A   1      31.633  28.102  21.971  1.00  0.00     0.159 HD
ATOM     23  O   UNL A   1      33.652  25.749  21.540  1.00  0.00    -0.275 OA
ENDBRANCH  18  19
ENDBRANCH  17  18
ENDBRANCH   7  17
ENDBRANCH   3   6
ENDBRANCH   1   2
BRANCH   1  24
ATOM     24  C   UNL A   1      31.738  31.596  26.519  1.00  0.00     0.042 C 
BRANCH  24  25
ATOM     25  C   UNL A   1      32.834  32.328  27.283  1.00  0.00     0.118 C 
BRANCH  25  26
ATOM     26  N   UNL A   1      32.528  33.740  27.493  1.00  0.00    -0.352 N 
ATOM     27  C   UNL A   1      33.046  34.638  28.395  1.00  0.00     0.251 C 
ATOM     28  H   UNL A   1      31.842  34.108  26.891  1.00  0.00     0.163 HD
ATOM     29  O   UNL A   1      32.513  35.733  28.549  1.00  0.00    -0.269 OA
BRANCH  27  30
ATOM     30  C   UNL A   1      34.223  34.277  29.211  1.00  0.00     0.039 A 
ATOM     31  C   UNL A   1      34.025  33.658  30.449  1.00  0.00     0.014 A 
ATOM     32  C   UNL A   1      35.518  34.535  28.757  1.00  0.00     0.014 A 
ATOM     33  C   UNL A   1      35.124  33.199  31.177  1.00  0.00     0.010 A 
ATOM     34  C   UNL A   1      36.607  34.005  29.439  1.00  0.00     0.010 A 
ATOM     35  C   UNL A   1      36.419  33.314  30.646  1.00  0.00    -0.014 A 
BRANCH  35  36
ATOM     36  C   UNL A   1      37.587  32.673  31.300  1.00  0.00     0.031 A 
ATOM     37  C   UNL A   1      38.276  31.509  30.649  1.00  0.00     0.074 A 
ATOM     38  C   UNL A   1      37.953  33.075  32.533  1.00  0.00     0.049 A 
ATOM     39  N   UNL A   1      39.218  30.735  31.125  1.00  0.00    -0.248 NA
ATOM     40  C   UNL A   1      37.827  31.149  29.295  1.00  0.00     0.031 C 
ATOM     41  C   UNL A   1      37.330  34.165  33.286  1.00  0.00     0.029 A 
ATOM     42  N   UNL A   1      38.923  32.601  33.380  1.00  0.00    -0.354 N 
ATOM     43  C   UNL A   1      39.464  29.790  30.137  1.00  0.00     0.074 A 
ATOM     44  C   UNL A   1      38.541  30.058  29.055  1.00  0.00     0.031 C 
ATOM     45  C   UNL A   1      37.939  34.284  34.476  1.00  0.00     0.029 A 
ATOM     46  C   UNL A   1      38.962  33.250  34.590  1.00  0.00     0.049 A 
ATOM     47  H   UNL A   1      39.533  31.865  33.143  1.00  0.00     0.167 HD
ATOM     48  C   UNL A   1      40.389  28.802  30.130  1.00  0.00     0.037 A 
ATOM     49  C   UNL A   1      39.719  33.021  35.679  1.00  0.00     0.037 A 
ATOM     50  C   UNL A   1      41.320  28.555  31.200  1.00  0.00     0.049 A 
ATOM     51  C   UNL A   1      40.717  31.897  35.655  1.00  0.00     0.074 A 
ATOM     52  C   UNL A   1      42.347  27.629  31.254  1.00  0.00     0.029 A 
ATOM     53  N   UNL A   1      41.329  29.234  32.409  1.00  0.00    -0.354 N 
ATOM     54  N   UNL A   1      40.990  31.055  34.690  1.00  0.00    -0.248 NA
ATOM     55  C   UNL A   1      41.507  31.686  36.878  1.00  0.00     0.031 C 
ATOM     56  C   UNL A   1      42.946  27.714  32.516  1.00  0.00     0.029 A 
ATOM     57  C   UNL A   1      42.322  28.724  33.231  1.00  0.00     0.049 A 
ATOM     58  H   UNL A   1      40.721  29.970  32.649  1.00  0.00     0.167 HD
ATOM     59  C   UNL A   1      41.991  30.226  35.176  1.00  0.00     0.074 A 
ATOM     60  C   UNL A   1      42.292  30.679  36.519  1.00  0.00     0.031 C 
ATOM     61  C   UNL A   1      42.603  29.182  34.567  1.00  0.00     0.037 A 
BRANCH  48  62
ATOM     62  C   UNL A   1      40.446  27.912  28.923  1.00  0.00     0.064 A 
ATOM     63  C   UNL A   1      39.689  26.734  28.842  1.00  0.00     0.173 A 
ATOM     64  C   UNL A   1      41.235  28.263  27.816  1.00  0.00     0.173 A 
ATOM     65  F   UNL A   1      38.928  26.348  29.876  1.00  0.00    -0.203 F 
ATOM     66  C   UNL A   1      39.739  25.927  27.707  1.00  0.00     0.198 A 
ATOM     67  C   UNL A   1      41.259  27.469  26.673  1.00  0.00     0.198 A 
ATOM     68  F   UNL A   1      41.973  29.383  27.839  1.00  0.00    -0.203 F 
ATOM     69  F   UNL A   1      39.041  24.783  27.671  1.00  0.00    -0.200 F 
ATOM     70  C   UNL A   1      40.518  26.299  26.622  1.00  0.00     0.200 A 
ATOM     71  F   UNL A   1      42.002  27.836  25.619  1.00  0.00    -0.200 F 
ATOM     72  F   UNL A   1      40.558  25.525  25.528  1.00  0.00    -0.200 F 
ENDBRANCH  48  62
BRANCH  49  73
ATOM     73  C   UNL A   1      39.563  33.878  36.884  1.00  0.00     0.064 A 
ATOM     74  C   UNL A   1      40.232  35.106  36.982  1.00  0.00     0.173 A 
ATOM     75  C   UNL A   1      38.746  33.491  37.957  1.00  0.00     0.173 A 
ATOM     76  F   UNL A   1      41.040  35.509  35.992  1.00  0.00    -0.203 F 
ATOM     77  C   UNL A   1      40.100  35.908  38.115  1.00  0.00     0.198 A 
ATOM     78  C   UNL A   1      38.594  34.307  39.076  1.00  0.00     0.198 A 
ATOM     79  F   UNL A   1      38.082  32.327  37.910  1.00  0.00    -0.203 F 
ATOM     80  F   UNL A   1      40.782  37.058  38.200  1.00  0.00    -0.200 F 
ATOM     81  C   UNL A   1      39.276  35.511  39.158  1.00  0.00     0.200 A 
ATOM     82  F   UNL A   1      37.786  33.926  40.074  1.00  0.00    -0.200 F 
ATOM     83  F   UNL A   1      39.146  36.285  40.243  1.00  0.00    -0.200 F 
ENDBRANCH  49  73
BRANCH  61  84
ATOM     84  C   UNL A   1      43.666  28.461  35.343  1.00  0.00     0.064 A 
ATOM     85  C   UNL A   1      43.356  27.359  36.154  1.00  0.00     0.173 A 
ATOM     86  C   UNL A   1      45.011  28.845  35.238  1.00  0.00     0.173 A 
ATOM     87  F   UNL A   1      42.081  26.967  36.301  1.00  0.00    -0.203 F 
ATOM     88  C   UNL A   1      44.354  26.677  36.843  1.00  0.00     0.198 A 
ATOM     89  C   UNL A   1      46.009  28.143  35.906  1.00  0.00     0.198 A 
ATOM     90  F   UNL A   1      45.357  29.890  34.472  1.00  0.00    -0.203 F 
ATOM     91  F   UNL A   1      44.032  25.652  37.643  1.00  0.00    -0.200 F 
ATOM     92  C   UNL A   1      45.680  27.063  36.712  1.00  0.00     0.200 A 
ATOM     93  F   UNL A   1      47.291  28.509  35.769  1.00  0.00    -0.200 F 
ATOM     94  F   UNL A   1      46.640  26.398  37.368  1.00  0.00    -0.200 F 
ENDBRANCH  61  84
ENDBRANCH  35  36
ENDBRANCH  27  30
ENDBRANCH  25  26
ENDBRANCH  24  25
ENDBRANCH   1  24
TORSDOF 13
ENDMDL
