MODEL 1
REMARK VINA RESULT:     -12.5      0.000      0.000
REMARK SMILES Cc1ccc(C)c(OCc2ccc(C(=O)NCCCNC(=O)c3ccc(-c4c5nc(c(-c6c(F)c(F)c(F)c(F)c6F)c6ccc([nH]6)c(-c6c(F)c(F)c(F)c(F)c6F)c6nc(c(-c7c(F)c(F)c(F)c(F)c7F)c7ccc4[nH]7)C=C6)C=C5)cc3)cc2)c1C
REMARK SMILES IDX 17 1 16 2 14 3 15 4 13 6 10 7 11 8 87 9 12 10 86 11 9 12
REMARK SMILES IDX 8 13 7 14 1 15 2 16 3 17 88 18 4 19 89 20 5 21 6 22 18 23
REMARK SMILES IDX 19 24 20 25 21 26 22 28 23 29 24 30 85 31 25 32 84 33 26 34
REMARK SMILES IDX 27 35 28 36 78 37 29 38 83 39 77 40 79 41 30 42 82 43 76 44
REMARK SMILES IDX 75 45 31 47 63 48 43 49 62 50 44 51 47 52 61 53 80 54 45 55
REMARK SMILES IDX 46 56 60 58 81 59 48 60 32 61 33 62 41 63 34 64 35 65 39 66
REMARK SMILES IDX 42 67 36 68 37 69 40 70 38 71 64 72 65 73 73 74 66 75 67 76
REMARK SMILES IDX 71 77 74 78 68 79 69 80 72 81 70 82 49 83 50 84 58 85 51 86
REMARK SMILES IDX 52 87 56 88 59 89 53 90 54 91 57 92 55 93
REMARK H PARENT 16 5 20 27 79 46 47 57
REMARK Flexibility Score: inf
ROOT
ATOM      1  C   UNL A   1      31.413  30.769  26.193  1.00  0.00     0.118 C 
ENDROOT
BRANCH   1   2
ATOM      2  N   UNL A   1      30.870  30.493  24.881  1.00  0.00    -0.352 N 
ATOM      3  C   UNL A   1      30.821  29.365  24.109  1.00  0.00     0.251 C 
ATOM      4  O   UNL A   1      30.381  29.505  22.966  1.00  0.00    -0.269 OA
ATOM      5  H   UNL A   1      30.450  31.275  24.457  1.00  0.00     0.163 HD
BRANCH   3   6
ATOM      6  C   UNL A   1      31.185  27.999  24.589  1.00  0.00     0.039 A 
ATOM      7  C   UNL A   1      31.485  25.380  25.672  1.00  0.00    -0.011 A 
ATOM      8  C   UNL A   1      30.379  25.723  24.890  1.00  0.00     0.008 A 
ATOM      9  C   UNL A   1      32.491  26.348  25.813  1.00  0.00     0.008 A 
ATOM     10  C   UNL A   1      30.228  27.007  24.364  1.00  0.00     0.014 A 
ATOM     11  C   UNL A   1      32.351  27.631  25.262  1.00  0.00     0.014 A 
BRANCH   7  12
ATOM     12  C   UNL A   1      31.555  24.113  26.513  1.00  0.00     0.265 C 
BRANCH  12  13
ATOM     13  O   UNL A   1      32.150  22.925  25.993  1.00  0.00    -0.488 OA
BRANCH  13  14
ATOM     14  C   UNL A   1      33.203  22.980  25.123  1.00  0.00     0.125 A 
ATOM     15  C   UNL A   1      36.988  23.413  25.621  1.00  0.00     0.045 C 
ATOM     16  C   UNL A   1      35.629  23.270  24.994  1.00  0.00    -0.044 A 
ATOM     17  C   UNL A   1      35.517  23.336  23.602  1.00  0.00     0.004 A 
ATOM     18  C   UNL A   1      34.467  23.063  25.763  1.00  0.00    -0.006 A 
ATOM     19  C   UNL A   1      34.285  23.160  22.975  1.00  0.00     0.007 A 
ATOM     20  C   UNL A   1      34.522  22.969  27.271  1.00  0.00     0.049 C 
ATOM     21  C   UNL A   1      33.115  22.942  23.720  1.00  0.00    -0.009 A 
ATOM     22  C   UNL A   1      31.840  22.728  22.956  1.00  0.00     0.048 C 
ENDBRANCH  13  14
ENDBRANCH  12  13
ENDBRANCH   7  12
ENDBRANCH   3   6
ENDBRANCH   1   2
BRANCH   1  23
ATOM     23  C   UNL A   1      31.361  32.267  26.488  1.00  0.00     0.042 C 
BRANCH  23  24
ATOM     24  C   UNL A   1      32.684  32.811  27.019  1.00  0.00     0.118 C 
BRANCH  24  25
ATOM     25  N   UNL A   1      32.526  34.138  27.593  1.00  0.00    -0.352 N 
ATOM     26  C   UNL A   1      33.105  34.681  28.709  1.00  0.00     0.251 C 
ATOM     27  H   UNL A   1      31.914  34.735  27.106  1.00  0.00     0.163 HD
ATOM     28  O   UNL A   1      32.647  35.716  29.190  1.00  0.00    -0.269 OA
BRANCH  26  29
ATOM     29  C   UNL A   1      34.275  34.034  29.336  1.00  0.00     0.039 A 
ATOM     30  C   UNL A   1      35.554  34.425  28.932  1.00  0.00     0.014 A 
ATOM     31  C   UNL A   1      34.118  33.001  30.266  1.00  0.00     0.014 A 
ATOM     32  C   UNL A   1      36.675  33.800  29.478  1.00  0.00     0.010 A 
ATOM     33  C   UNL A   1      35.236  32.425  30.862  1.00  0.00     0.010 A 
ATOM     34  C   UNL A   1      36.524  32.805  30.457  1.00  0.00    -0.014 A 
BRANCH  34  35
ATOM     35  C   UNL A   1      37.707  32.132  31.041  1.00  0.00     0.031 A 
ATOM     36  C   UNL A   1      38.173  32.488  32.424  1.00  0.00     0.074 A 
ATOM     37  C   UNL A   1      38.381  31.227  30.310  1.00  0.00     0.049 A 
ATOM     38  N   UNL A   1      39.185  32.012  33.106  1.00  0.00    -0.248 NA
ATOM     39  C   UNL A   1      37.419  33.538  33.124  1.00  0.00     0.031 C 
ATOM     40  C   UNL A   1      38.049  30.836  28.939  1.00  0.00     0.029 A 
ATOM     41  N   UNL A   1      39.482  30.470  30.617  1.00  0.00    -0.354 N 
ATOM     42  C   UNL A   1      39.194  32.712  34.305  1.00  0.00     0.074 A 
ATOM     43  C   UNL A   1      38.124  33.684  34.235  1.00  0.00     0.031 C 
ATOM     44  C   UNL A   1      38.904  29.882  28.537  1.00  0.00     0.029 A 
ATOM     45  C   UNL A   1      39.858  29.617  29.611  1.00  0.00     0.049 A 
ATOM     46  H   UNL A   1      39.958  30.533  31.476  1.00  0.00     0.167 HD
ATOM     47  C   UNL A   1      40.007  32.545  35.375  1.00  0.00     0.037 A 
ATOM     48  C   UNL A   1      40.853  28.713  29.567  1.00  0.00     0.037 A 
ATOM     49  C   UNL A   1      41.056  31.562  35.446  1.00  0.00     0.049 A 
ATOM     50  C   UNL A   1      41.739  28.540  30.768  1.00  0.00     0.074 A 
ATOM     51  C   UNL A   1      41.895  31.264  36.505  1.00  0.00     0.029 A 
ATOM     52  N   UNL A   1      41.411  30.716  34.406  1.00  0.00    -0.354 N 
ATOM     53  N   UNL A   1      41.697  29.157  31.923  1.00  0.00    -0.248 NA
ATOM     54  C   UNL A   1      42.808  27.538  30.658  1.00  0.00     0.031 C 
ATOM     55  C   UNL A   1      42.784  30.264  36.091  1.00  0.00     0.029 A 
ATOM     56  C   UNL A   1      42.473  29.910  34.788  1.00  0.00     0.049 A 
ATOM     57  H   UNL A   1      40.975  30.691  33.524  1.00  0.00     0.167 HD
ATOM     58  C   UNL A   1      42.715  28.607  32.687  1.00  0.00     0.074 A 
ATOM     59  C   UNL A   1      43.349  27.593  31.867  1.00  0.00     0.031 C 
ATOM     60  C   UNL A   1      43.092  28.912  33.954  1.00  0.00     0.037 A 
BRANCH  47  61
ATOM     61  C   UNL A   1      39.787  33.454  36.551  1.00  0.00     0.064 A 
ATOM     62  C   UNL A   1      38.885  33.127  37.576  1.00  0.00     0.173 A 
ATOM     63  C   UNL A   1      40.481  34.668  36.653  1.00  0.00     0.173 A 
ATOM     64  F   UNL A   1      38.186  31.984  37.521  1.00  0.00    -0.203 F 
ATOM     65  C   UNL A   1      38.653  34.002  38.634  1.00  0.00     0.198 A 
ATOM     66  C   UNL A   1      40.271  35.527  37.729  1.00  0.00     0.198 A 
ATOM     67  F   UNL A   1      41.360  35.029  35.705  1.00  0.00    -0.203 F 
ATOM     68  F   UNL A   1      37.739  33.698  39.565  1.00  0.00    -0.200 F 
ATOM     69  C   UNL A   1      39.348  35.200  38.712  1.00  0.00     0.200 A 
ATOM     70  F   UNL A   1      40.949  36.680  37.808  1.00  0.00    -0.200 F 
ATOM     71  F   UNL A   1      39.120  36.043  39.728  1.00  0.00    -0.200 F 
ENDBRANCH  47  61
BRANCH  48  72
ATOM     72  C   UNL A   1      41.015  27.859  28.363  1.00  0.00     0.064 A 
ATOM     73  C   UNL A   1      41.856  28.259  27.316  1.00  0.00     0.173 A 
ATOM     74  C   UNL A   1      40.365  26.623  28.247  1.00  0.00     0.173 A 
ATOM     75  F   UNL A   1      42.485  29.441  27.378  1.00  0.00    -0.203 F 
ATOM     76  C   UNL A   1      42.037  27.455  26.193  1.00  0.00     0.198 A 
ATOM     77  C   UNL A   1      40.562  25.810  27.133  1.00  0.00     0.198 A 
ATOM     78  F   UNL A   1      39.554  26.195  29.226  1.00  0.00    -0.203 F 
ATOM     79  F   UNL A   1      42.827  27.872  25.194  1.00  0.00    -0.200 F 
ATOM     80  C   UNL A   1      41.396  26.228  26.105  1.00  0.00     0.200 A 
ATOM     81  F   UNL A   1      39.954  24.620  27.057  1.00  0.00    -0.200 F 
ATOM     82  F   UNL A   1      41.579  25.450  25.031  1.00  0.00    -0.200 F 
ENDBRANCH  48  72
BRANCH  60  83
ATOM     83  C   UNL A   1      44.231  28.124  34.530  1.00  0.00     0.064 A 
ATOM     84  C   UNL A   1      45.556  28.573  34.434  1.00  0.00     0.173 A 
ATOM     85  C   UNL A   1      43.993  26.914  35.198  1.00  0.00     0.173 A 
ATOM     86  F   UNL A   1      45.837  29.716  33.789  1.00  0.00    -0.203 F 
ATOM     87  C   UNL A   1      46.605  27.824  34.960  1.00  0.00     0.198 A 
ATOM     88  C   UNL A   1      45.041  26.181  35.747  1.00  0.00     0.198 A 
ATOM     89  F   UNL A   1      42.743  26.443  35.320  1.00  0.00    -0.203 F 
ATOM     90  F   UNL A   1      47.868  28.246  34.812  1.00  0.00    -0.200 F 
ATOM     91  C   UNL A   1      46.347  26.632  35.621  1.00  0.00     0.200 A 
ATOM     92  F   UNL A   1      44.790  25.033  36.392  1.00  0.00    -0.200 F 
ATOM     93  F   UNL A   1      47.357  25.912  36.125  1.00  0.00    -0.200 F 
ENDBRANCH  60  83
ENDBRANCH  34  35
ENDBRANCH  26  29
ENDBRANCH  24  25
ENDBRANCH  23  24
ENDBRANCH   1  23
TORSDOF 13
ENDMDL
MODEL 2
REMARK VINA RESULT:     -12.5      1.260      2.433
REMARK SMILES Cc1ccc(C)c(OCc2ccc(C(=O)NCCCNC(=O)c3ccc(-c4c5nc(c(-c6c(F)c(F)c(F)c(F)c6F)c6ccc([nH]6)c(-c6c(F)c(F)c(F)c(F)c6F)c6nc(c(-c7c(F)c(F)c(F)c(F)c7F)c7ccc4[nH]7)C=C6)C=C5)cc3)cc2)c1C
REMARK SMILES IDX 17 1 16 2 14 3 15 4 13 6 10 7 11 8 87 9 12 10 86 11 9 12
REMARK SMILES IDX 8 13 7 14 1 15 2 16 3 17 88 18 4 19 89 20 5 21 6 22 18 23
REMARK SMILES IDX 19 24 20 25 21 26 22 28 23 29 24 30 85 31 25 32 84 33 26 34
REMARK SMILES IDX 27 35 28 36 78 37 29 38 83 39 77 40 79 41 30 42 82 43 76 44
REMARK SMILES IDX 75 45 31 47 63 48 43 49 62 50 44 51 47 52 61 53 80 54 45 55
REMARK SMILES IDX 46 56 60 58 81 59 48 60 32 61 33 62 41 63 34 64 35 65 39 66
REMARK SMILES IDX 42 67 36 68 37 69 40 70 38 71 64 72 65 73 73 74 66 75 67 76
REMARK SMILES IDX 71 77 74 78 68 79 69 80 72 81 70 82 49 83 50 84 58 85 51 86
REMARK SMILES IDX 52 87 56 88 59 89 53 90 54 91 57 92 55 93
REMARK H PARENT 16 5 20 27 79 46 47 57
REMARK Flexibility Score: inf
ROOT
ATOM      1  C   UNL A   1      31.773  30.592  26.785  1.00  0.00     0.118 C 
ENDROOT
BRANCH   1   2
ATOM      2  N   UNL A   1      33.161  30.327  27.092  1.00  0.00    -0.352 N 
ATOM      3  C   UNL A   1      34.026  29.334  26.722  1.00  0.00     0.251 C 
ATOM      4  O   UNL A   1      35.131  29.342  27.269  1.00  0.00    -0.269 OA
ATOM      5  H   UNL A   1      33.567  30.997  27.688  1.00  0.00     0.163 HD
BRANCH   3   6
ATOM      6  C   UNL A   1      33.741  28.319  25.665  1.00  0.00     0.039 A 
ATOM      7  C   UNL A   1      33.487  26.136  23.851  1.00  0.00    -0.011 A 
ATOM      8  C   UNL A   1      33.405  25.948  25.233  1.00  0.00     0.008 A 
ATOM      9  C   UNL A   1      33.594  27.457  23.393  1.00  0.00     0.008 A 
ATOM     10  C   UNL A   1      33.536  27.015  26.123  1.00  0.00     0.014 A 
ATOM     11  C   UNL A   1      33.699  28.534  24.287  1.00  0.00     0.014 A 
BRANCH   7  12
ATOM     12  C   UNL A   1      33.656  24.993  22.859  1.00  0.00     0.265 C 
BRANCH  12  13
ATOM     13  O   UNL A   1      34.777  24.115  22.945  1.00  0.00    -0.488 OA
BRANCH  13  14
ATOM     14  C   UNL A   1      34.785  23.056  23.810  1.00  0.00     0.125 A 
ATOM     15  C   UNL A   1      32.425  20.065  24.309  1.00  0.00     0.045 C 
ATOM     16  C   UNL A   1      33.542  21.058  24.479  1.00  0.00    -0.044 A 
ATOM     17  C   UNL A   1      34.414  20.914  25.562  1.00  0.00     0.004 A 
ATOM     18  C   UNL A   1      33.743  22.122  23.577  1.00  0.00    -0.006 A 
ATOM     19  C   UNL A   1      35.492  21.781  25.731  1.00  0.00     0.007 A 
ATOM     20  C   UNL A   1      32.844  22.324  22.379  1.00  0.00     0.049 C 
ATOM     21  C   UNL A   1      35.719  22.842  24.840  1.00  0.00    -0.009 A 
ATOM     22  C   UNL A   1      36.925  23.703  25.083  1.00  0.00     0.048 C 
ENDBRANCH  13  14
ENDBRANCH  12  13
ENDBRANCH   7  12
ENDBRANCH   3   6
ENDBRANCH   1   2
BRANCH   1  23
ATOM     23  C   UNL A   1      31.481  32.088  26.876  1.00  0.00     0.042 C 
BRANCH  23  24
ATOM     24  C   UNL A   1      32.749  32.937  26.908  1.00  0.00     0.118 C 
BRANCH  24  25
ATOM     25  N   UNL A   1      32.527  34.207  27.581  1.00  0.00    -0.352 N 
ATOM     26  C   UNL A   1      33.040  34.669  28.763  1.00  0.00     0.251 C 
ATOM     27  H   UNL A   1      31.919  34.827  27.118  1.00  0.00     0.163 HD
ATOM     28  O   UNL A   1      32.532  35.648  29.306  1.00  0.00    -0.269 OA
BRANCH  26  29
ATOM     29  C   UNL A   1      34.201  34.003  29.388  1.00  0.00     0.039 A 
ATOM     30  C   UNL A   1      35.486  34.414  29.026  1.00  0.00     0.014 A 
ATOM     31  C   UNL A   1      34.030  32.933  30.273  1.00  0.00     0.014 A 
ATOM     32  C   UNL A   1      36.598  33.771  29.570  1.00  0.00     0.010 A 
ATOM     33  C   UNL A   1      35.138  32.338  30.868  1.00  0.00     0.010 A 
ATOM     34  C   UNL A   1      36.432  32.738  30.505  1.00  0.00    -0.014 A 
BRANCH  34  35
ATOM     35  C   UNL A   1      37.606  32.047  31.086  1.00  0.00     0.031 A 
ATOM     36  C   UNL A   1      38.067  32.379  32.477  1.00  0.00     0.074 A 
ATOM     37  C   UNL A   1      38.277  31.147  30.346  1.00  0.00     0.049 A 
ATOM     38  N   UNL A   1      39.071  31.885  33.157  1.00  0.00    -0.248 NA
ATOM     39  C   UNL A   1      37.317  33.425  33.188  1.00  0.00     0.031 C 
ATOM     40  C   UNL A   1      37.950  30.778  28.967  1.00  0.00     0.029 A 
ATOM     41  N   UNL A   1      39.370  30.376  30.648  1.00  0.00    -0.354 N 
ATOM     42  C   UNL A   1      39.079  32.568  34.367  1.00  0.00     0.074 A 
ATOM     43  C   UNL A   1      38.018  33.549  34.304  1.00  0.00     0.031 C 
ATOM     44  C   UNL A   1      38.799  29.823  28.557  1.00  0.00     0.029 A 
ATOM     45  C   UNL A   1      39.744  29.534  29.632  1.00  0.00     0.049 A 
ATOM     46  H   UNL A   1      39.841  30.423  31.511  1.00  0.00     0.167 HD
ATOM     47  C   UNL A   1      39.884  32.378  35.439  1.00  0.00     0.037 A 
ATOM     48  C   UNL A   1      40.732  28.623  29.580  1.00  0.00     0.037 A 
ATOM     49  C   UNL A   1      40.925  31.386  35.502  1.00  0.00     0.049 A 
ATOM     50  C   UNL A   1      41.610  28.426  30.784  1.00  0.00     0.074 A 
ATOM     51  C   UNL A   1      41.755  31.065  36.561  1.00  0.00     0.029 A 
ATOM     52  N   UNL A   1      41.279  30.551  34.451  1.00  0.00    -0.354 N 
ATOM     53  N   UNL A   1      41.566  29.027  31.948  1.00  0.00    -0.248 NA
ATOM     54  C   UNL A   1      42.671  27.417  30.666  1.00  0.00     0.031 C 
ATOM     55  C   UNL A   1      42.638  30.064  36.137  1.00  0.00     0.029 A 
ATOM     56  C   UNL A   1      42.331  29.731  34.828  1.00  0.00     0.049 A 
ATOM     57  H   UNL A   1      40.847  30.543  33.566  1.00  0.00     0.167 HD
ATOM     58  C   UNL A   1      42.575  28.456  32.710  1.00  0.00     0.074 A 
ATOM     59  C   UNL A   1      43.205  27.449  31.878  1.00  0.00     0.031 C 
ATOM     60  C   UNL A   1      42.947  28.740  33.983  1.00  0.00     0.037 A 
BRANCH  47  61
ATOM     61  C   UNL A   1      39.665  33.271  36.627  1.00  0.00     0.064 A 
ATOM     62  C   UNL A   1      40.382  34.467  36.792  1.00  0.00     0.173 A 
ATOM     63  C   UNL A   1      38.732  32.927  37.615  1.00  0.00     0.173 A 
ATOM     64  F   UNL A   1      41.296  34.837  35.882  1.00  0.00    -0.203 F 
ATOM     65  C   UNL A   1      40.205  35.260  37.923  1.00  0.00     0.198 A 
ATOM     66  C   UNL A   1      38.534  33.738  38.730  1.00  0.00     0.198 A 
ATOM     67  F   UNL A   1      38.015  31.798  37.506  1.00  0.00    -0.203 F 
ATOM     68  F   UNL A   1      40.949  36.362  38.089  1.00  0.00    -0.200 F 
ATOM     69  C   UNL A   1      39.280  34.897  38.889  1.00  0.00     0.200 A 
ATOM     70  F   UNL A   1      37.633  33.391  39.659  1.00  0.00    -0.200 F 
ATOM     71  F   UNL A   1      39.115  35.658  39.979  1.00  0.00    -0.200 F 
ENDBRANCH  47  61
BRANCH  48  72
ATOM     72  C   UNL A   1      40.894  27.785  28.365  1.00  0.00     0.064 A 
ATOM     73  C   UNL A   1      41.743  28.194  27.328  1.00  0.00     0.173 A 
ATOM     74  C   UNL A   1      40.236  26.555  28.228  1.00  0.00     0.173 A 
ATOM     75  F   UNL A   1      42.380  29.371  27.409  1.00  0.00    -0.203 F 
ATOM     76  C   UNL A   1      41.924  27.405  26.194  1.00  0.00     0.198 A 
ATOM     77  C   UNL A   1      40.433  25.758  27.104  1.00  0.00     0.198 A 
ATOM     78  F   UNL A   1      39.418  26.120  29.197  1.00  0.00    -0.203 F 
ATOM     79  F   UNL A   1      42.721  27.831  25.206  1.00  0.00    -0.200 F 
ATOM     80  C   UNL A   1      41.275  26.185  26.086  1.00  0.00     0.200 A 
ATOM     81  F   UNL A   1      39.817  24.572  27.008  1.00  0.00    -0.200 F 
ATOM     82  F   UNL A   1      41.458  25.420  25.002  1.00  0.00    -0.200 F 
ENDBRANCH  48  72
BRANCH  60  83
ATOM     83  C   UNL A   1      44.077  27.935  34.553  1.00  0.00     0.064 A 
ATOM     84  C   UNL A   1      43.857  26.688  35.155  1.00  0.00     0.173 A 
ATOM     85  C   UNL A   1      45.395  28.410  34.484  1.00  0.00     0.173 A 
ATOM     86  F   UNL A   1      42.612  26.199  35.262  1.00  0.00    -0.203 F 
ATOM     87  C   UNL A   1      44.914  25.958  35.694  1.00  0.00     0.198 A 
ATOM     88  C   UNL A   1      46.452  27.665  34.999  1.00  0.00     0.198 A 
ATOM     89  F   UNL A   1      45.658  29.596  33.915  1.00  0.00    -0.203 F 
ATOM     90  F   UNL A   1      44.675  24.792  36.311  1.00  0.00    -0.200 F 
ATOM     91  C   UNL A   1      46.210  26.444  35.611  1.00  0.00     0.200 A 
ATOM     92  F   UNL A   1      47.705  28.132  34.910  1.00  0.00    -0.200 F 
ATOM     93  F   UNL A   1      47.225  25.742  36.131  1.00  0.00    -0.200 F 
ENDBRANCH  60  83
ENDBRANCH  34  35
ENDBRANCH  26  29
ENDBRANCH  24  25
ENDBRANCH  23  24
ENDBRANCH   1  23
TORSDOF 13
ENDMDL
MODEL 3
REMARK VINA RESULT:     -12.5      1.286      7.550
REMARK SMILES Cc1ccc(C)c(OCc2ccc(C(=O)NCCCNC(=O)c3ccc(-c4c5nc(c(-c6c(F)c(F)c(F)c(F)c6F)c6ccc([nH]6)c(-c6c(F)c(F)c(F)c(F)c6F)c6nc(c(-c7c(F)c(F)c(F)c(F)c7F)c7ccc4[nH]7)C=C6)C=C5)cc3)cc2)c1C
REMARK SMILES IDX 17 1 16 2 14 3 15 4 13 6 10 7 11 8 87 9 12 10 86 11 9 12
REMARK SMILES IDX 8 13 7 14 1 15 2 16 3 17 88 18 4 19 89 20 5 21 6 22 18 23
REMARK SMILES IDX 19 24 20 25 21 26 22 28 23 29 24 30 85 31 25 32 84 33 26 34
REMARK SMILES IDX 27 35 28 36 78 37 29 38 83 39 77 40 79 41 30 42 82 43 76 44
REMARK SMILES IDX 75 45 31 47 63 48 43 49 62 50 44 51 47 52 61 53 80 54 45 55
REMARK SMILES IDX 46 56 60 58 81 59 48 60 32 61 33 62 41 63 34 64 35 65 39 66
REMARK SMILES IDX 42 67 36 68 37 69 40 70 38 71 64 72 65 73 73 74 66 75 67 76
REMARK SMILES IDX 71 77 74 78 68 79 69 80 72 81 70 82 49 83 50 84 58 85 51 86
REMARK SMILES IDX 52 87 56 88 59 89 53 90 54 91 57 92 55 93
REMARK H PARENT 16 5 20 27 79 46 47 57
REMARK Flexibility Score: inf
ROOT
ATOM      1  C   UNL A   1      31.555  31.074  26.501  1.00  0.00     0.118 C 
ENDROOT
BRANCH   1   2
ATOM      2  N   UNL A   1      32.829  30.566  26.960  1.00  0.00    -0.352 N 
ATOM      3  C   UNL A   1      33.356  29.306  27.043  1.00  0.00     0.251 C 
ATOM      4  O   UNL A   1      34.449  29.209  27.604  1.00  0.00    -0.269 OA
ATOM      5  H   UNL A   1      33.441  31.268  27.278  1.00  0.00     0.163 HD
BRANCH   3   6
ATOM      6  C   UNL A   1      32.736  28.091  26.436  1.00  0.00     0.039 A 
ATOM      7  C   UNL A   1      31.592  25.978  24.904  1.00  0.00    -0.011 A 
ATOM      8  C   UNL A   1      32.812  26.559  24.548  1.00  0.00     0.008 A 
ATOM      9  C   UNL A   1      31.008  26.408  26.105  1.00  0.00     0.008 A 
ATOM     10  C   UNL A   1      33.371  27.598  25.294  1.00  0.00     0.014 A 
ATOM     11  C   UNL A   1      31.583  27.435  26.869  1.00  0.00     0.014 A 
BRANCH   7  12
ATOM     12  C   UNL A   1      30.796  25.070  23.978  1.00  0.00     0.265 C 
BRANCH  12  13
ATOM     13  O   UNL A   1      30.970  23.654  24.019  1.00  0.00    -0.488 OA
BRANCH  13  14
ATOM     14  C   UNL A   1      32.178  23.096  24.331  1.00  0.00     0.125 A 
ATOM     15  C   UNL A   1      33.675  21.754  27.604  1.00  0.00     0.045 C 
ATOM     16  C   UNL A   1      33.505  22.190  26.176  1.00  0.00    -0.044 A 
ATOM     17  C   UNL A   1      34.604  22.124  25.313  1.00  0.00     0.004 A 
ATOM     18  C   UNL A   1      32.272  22.654  25.675  1.00  0.00    -0.006 A 
ATOM     19  C   UNL A   1      34.479  22.472  23.969  1.00  0.00     0.007 A 
ATOM     20  C   UNL A   1      31.044  22.737  26.552  1.00  0.00     0.049 C 
ATOM     21  C   UNL A   1      33.259  22.927  23.446  1.00  0.00    -0.009 A 
ATOM     22  C   UNL A   1      33.212  23.244  21.979  1.00  0.00     0.048 C 
ENDBRANCH  13  14
ENDBRANCH  12  13
ENDBRANCH   7  12
ENDBRANCH   3   6
ENDBRANCH   1   2
BRANCH   1  23
ATOM     23  C   UNL A   1      31.449  32.573  26.775  1.00  0.00     0.042 C 
BRANCH  23  24
ATOM     24  C   UNL A   1      32.768  33.187  27.234  1.00  0.00     0.118 C 
BRANCH  24  25
ATOM     25  N   UNL A   1      32.579  34.522  27.777  1.00  0.00    -0.352 N 
ATOM     26  C   UNL A   1      33.081  35.077  28.924  1.00  0.00     0.251 C 
ATOM     27  H   UNL A   1      32.006  35.116  27.241  1.00  0.00     0.163 HD
ATOM     28  O   UNL A   1      32.597  36.121  29.358  1.00  0.00    -0.269 OA
BRANCH  26  29
ATOM     29  C   UNL A   1      34.201  34.433  29.640  1.00  0.00     0.039 A 
ATOM     30  C   UNL A   1      35.492  34.562  29.121  1.00  0.00     0.014 A 
ATOM     31  C   UNL A   1      33.976  33.649  30.777  1.00  0.00     0.014 A 
ATOM     32  C   UNL A   1      36.560  33.928  29.755  1.00  0.00     0.010 A 
ATOM     33  C   UNL A   1      35.051  33.073  31.448  1.00  0.00     0.010 A 
ATOM     34  C   UNL A   1      36.349  33.190  30.931  1.00  0.00    -0.014 A 
BRANCH  34  35
ATOM     35  C   UNL A   1      37.476  32.510  31.610  1.00  0.00     0.031 A 
ATOM     36  C   UNL A   1      38.200  31.383  30.930  1.00  0.00     0.074 A 
ATOM     37  C   UNL A   1      37.821  32.886  32.854  1.00  0.00     0.049 A 
ATOM     38  N   UNL A   1      39.207  30.665  31.361  1.00  0.00    -0.248 NA
ATOM     39  C   UNL A   1      37.710  30.992  29.600  1.00  0.00     0.031 C 
ATOM     40  C   UNL A   1      37.160  33.935  33.632  1.00  0.00     0.029 A 
ATOM     41  N   UNL A   1      38.815  32.432  33.683  1.00  0.00    -0.354 N 
ATOM     42  C   UNL A   1      39.460  29.734  30.363  1.00  0.00     0.074 A 
ATOM     43  C   UNL A   1      38.467  29.940  29.331  1.00  0.00     0.031 C 
ATOM     44  C   UNL A   1      37.792  34.072  34.808  1.00  0.00     0.029 A 
ATOM     45  C   UNL A   1      38.882  33.102  34.877  1.00  0.00     0.049 A 
ATOM     46  H   UNL A   1      39.422  31.694  33.443  1.00  0.00     0.167 HD
ATOM     47  C   UNL A   1      40.445  28.806  30.302  1.00  0.00     0.037 A 
ATOM     48  C   UNL A   1      39.736  32.958  35.906  1.00  0.00     0.037 A 
ATOM     49  C   UNL A   1      41.443  28.620  31.323  1.00  0.00     0.049 A 
ATOM     50  C   UNL A   1      40.825  31.926  35.815  1.00  0.00     0.074 A 
ATOM     51  C   UNL A   1      42.523  27.756  31.333  1.00  0.00     0.029 A 
ATOM     52  N   UNL A   1      41.478  29.316  32.523  1.00  0.00    -0.354 N 
ATOM     53  N   UNL A   1      41.100  31.097  34.837  1.00  0.00    -0.248 NA
ATOM     54  C   UNL A   1      41.725  31.816  36.970  1.00  0.00     0.031 C 
ATOM     55  C   UNL A   1      43.188  27.900  32.557  1.00  0.00     0.029 A 
ATOM     56  C   UNL A   1      42.547  28.885  33.292  1.00  0.00     0.049 A 
ATOM     57  H   UNL A   1      40.836  30.014  32.790  1.00  0.00     0.167 HD
ATOM     58  C   UNL A   1      42.216  30.383  35.246  1.00  0.00     0.074 A 
ATOM     59  C   UNL A   1      42.576  30.888  36.557  1.00  0.00     0.031 C 
ATOM     60  C   UNL A   1      42.884  29.397  34.596  1.00  0.00     0.037 A 
BRANCH  47  61
ATOM     61  C   UNL A   1      40.480  27.922  29.088  1.00  0.00     0.064 A 
ATOM     62  C   UNL A   1      41.246  28.251  27.958  1.00  0.00     0.173 A 
ATOM     63  C   UNL A   1      39.735  26.734  29.049  1.00  0.00     0.173 A 
ATOM     64  F   UNL A   1      41.966  29.383  27.939  1.00  0.00    -0.203 F 
ATOM     65  C   UNL A   1      41.229  27.449  26.821  1.00  0.00     0.198 A 
ATOM     66  C   UNL A   1      39.744  25.917  27.921  1.00  0.00     0.198 A 
ATOM     67  F   UNL A   1      38.989  26.368  30.103  1.00  0.00    -0.203 F 
ATOM     68  F   UNL A   1      41.916  27.819  25.732  1.00  0.00    -0.200 F 
ATOM     69  C   UNL A   1      40.481  26.282  26.804  1.00  0.00     0.200 A 
ATOM     70  F   UNL A   1      39.029  24.785  27.909  1.00  0.00    -0.200 F 
ATOM     71  F   UNL A   1      40.462  25.513  25.706  1.00  0.00    -0.200 F 
ENDBRANCH  47  61
BRANCH  48  72
ATOM     72  C   UNL A   1      39.631  33.862  37.078  1.00  0.00     0.064 A 
ATOM     73  C   UNL A   1      40.246  35.121  37.063  1.00  0.00     0.173 A 
ATOM     74  C   UNL A   1      38.893  33.506  38.216  1.00  0.00     0.173 A 
ATOM     75  F   UNL A   1      40.975  35.496  36.002  1.00  0.00    -0.203 F 
ATOM     76  C   UNL A   1      40.132  35.990  38.146  1.00  0.00     0.198 A 
ATOM     77  C   UNL A   1      38.763  34.384  39.290  1.00  0.00     0.198 A 
ATOM     78  F   UNL A   1      38.282  32.314  38.275  1.00  0.00    -0.203 F 
ATOM     79  F   UNL A   1      40.752  37.178  38.116  1.00  0.00    -0.200 F 
ATOM     80  C   UNL A   1      39.385  35.624  39.255  1.00  0.00     0.200 A 
ATOM     81  F   UNL A   1      38.029  34.034  40.354  1.00  0.00    -0.200 F 
ATOM     82  F   UNL A   1      39.266  36.464  40.291  1.00  0.00    -0.200 F 
ENDBRANCH  48  72
BRANCH  60  83
ATOM     83  C   UNL A   1      44.080  28.817  35.291  1.00  0.00     0.064 A 
ATOM     84  C   UNL A   1      43.967  27.718  36.153  1.00  0.00     0.173 A 
ATOM     85  C   UNL A   1      45.357  29.359  35.079  1.00  0.00     0.173 A 
ATOM     86  F   UNL A   1      42.765  27.176  36.402  1.00  0.00    -0.203 F 
ATOM     87  C   UNL A   1      45.084  27.200  36.803  1.00  0.00     0.198 A 
ATOM     88  C   UNL A   1      46.476  28.822  35.709  1.00  0.00     0.198 A 
ATOM     89  F   UNL A   1      45.519  30.409  34.260  1.00  0.00    -0.203 F 
ATOM     90  F   UNL A   1      44.946  26.182  37.663  1.00  0.00    -0.200 F 
ATOM     91  C   UNL A   1      46.338  27.748  36.576  1.00  0.00     0.200 A 
ATOM     92  F   UNL A   1      47.688  29.348  35.482  1.00  0.00    -0.200 F 
ATOM     93  F   UNL A   1      47.412  27.250  37.202  1.00  0.00    -0.200 F 
ENDBRANCH  60  83
ENDBRANCH  34  35
ENDBRANCH  26  29
ENDBRANCH  24  25
ENDBRANCH  23  24
ENDBRANCH   1  23
TORSDOF 13
ENDMDL
