MODEL 1
REMARK VINA RESULT:     -11.1      0.000      0.000
REMARK SMILES COCC1=C(C(=O)NCCCNC(=O)c2ccc(-c3c4nc(c(-c5c(F)c(F)c(F)c(F)c5F)c5ccc([nH]5)c(-c5c(F)c(F)c(F)c(F)c5F)c5nc(c(-c6c(F)c(F)c(F)c(F)c6F)c6ccc3[nH]6)C=C5)C=C4)cc2)[C@H](C)N=N1
REMARK SMILES IDX 10 1 9 2 8 3 6 4 7 5 5 7 4 8 81 9 78 10 80 11 79 12 3 13
REMARK SMILES IDX 2 14 1 15 11 16 12 17 13 18 14 20 15 21 16 22 77 23 17 24
REMARK SMILES IDX 76 25 18 26 19 27 20 28 70 29 21 30 75 31 69 32 71 33 22 34
REMARK SMILES IDX 74 35 68 36 67 37 23 39 55 40 35 41 54 42 36 43 39 44 53 45
REMARK SMILES IDX 72 46 37 47 38 48 52 50 73 51 40 52 24 53 25 54 33 55 26 56
REMARK SMILES IDX 27 57 31 58 34 59 28 60 29 61 32 62 30 63 56 64 57 65 65 66
REMARK SMILES IDX 58 67 59 68 63 69 66 70 60 71 61 72 64 73 62 74 41 75 42 76
REMARK SMILES IDX 50 77 43 78 44 79 48 80 51 81 45 82 46 83 49 84 47 85
REMARK H PARENT 8 6 12 19 71 38 39 49
REMARK Flexibility Score: inf
ROOT
ATOM      1  C   UNL A   1      44.430  22.374  24.855  1.00  0.00     0.042 C 
ENDROOT
BRANCH   1   2
ATOM      2  C   UNL A   1      45.606  23.201  24.318  1.00  0.00     0.118 C 
BRANCH   2   3
ATOM      3  N   UNL A   1      46.508  23.642  25.372  1.00  0.00    -0.352 N 
ATOM      4  C   UNL A   1      47.004  24.850  25.731  1.00  0.00     0.251 C 
ATOM      5  O   UNL A   1      47.679  24.897  26.760  1.00  0.00    -0.270 OA
ATOM      6  H   UNL A   1      46.824  22.907  25.946  1.00  0.00     0.163 HD
BRANCH   4   7
ATOM      7  C   UNL A   1      46.744  26.107  25.008  1.00  0.00     0.069 C 
ATOM      8  C   UNL A   1      47.383  26.859  24.100  1.00  0.00     0.099 C 
ATOM      9  N   UNL A   1      46.729  28.052  23.871  1.00  0.00    -0.157 NA
ATOM     10  C   UNL A   1      45.641  26.989  25.517  1.00  0.00     0.163 C 
ATOM     11  N   UNL A   1      45.742  28.180  24.637  1.00  0.00    -0.181 NA
ATOM     12  C   UNL A   1      44.226  26.443  25.418  1.00  0.00     0.041 C 
BRANCH   8  13
ATOM     13  C   UNL A   1      48.692  26.711  23.385  1.00  0.00     0.218 C 
BRANCH  13  14
ATOM     14  O   UNL A   1      49.483  27.872  23.126  1.00  0.00    -0.378 OA
ATOM     15  C   UNL A   1      50.610  27.754  22.278  1.00  0.00     0.195 C 
ENDBRANCH  13  14
ENDBRANCH   8  13
ENDBRANCH   4   7
ENDBRANCH   2   3
ENDBRANCH   1   2
BRANCH   1  16
ATOM     16  C   UNL A   1      43.119  23.130  24.894  1.00  0.00     0.118 C 
BRANCH  16  17
ATOM     17  N   UNL A   1      42.025  22.377  25.508  1.00  0.00    -0.352 N 
ATOM     18  C   UNL A   1      41.295  22.734  26.638  1.00  0.00     0.251 C 
ATOM     19  H   UNL A   1      41.778  21.528  25.076  1.00  0.00     0.163 HD
ATOM     20  O   UNL A   1      40.701  21.907  27.300  1.00  0.00    -0.269 OA
BRANCH  18  21
ATOM     21  C   UNL A   1      41.250  24.166  27.000  1.00  0.00     0.039 A 
ATOM     22  C   UNL A   1      40.366  25.074  26.412  1.00  0.00     0.014 A 
ATOM     23  C   UNL A   1      42.121  24.578  28.000  1.00  0.00     0.014 A 
ATOM     24  C   UNL A   1      40.359  26.386  26.882  1.00  0.00     0.010 A 
ATOM     25  C   UNL A   1      41.908  25.758  28.641  1.00  0.00     0.010 A 
ATOM     26  C   UNL A   1      41.137  26.711  28.006  1.00  0.00    -0.014 A 
BRANCH  26  27
ATOM     27  C   UNL A   1      41.141  28.029  28.614  1.00  0.00     0.031 A 
ATOM     28  C   UNL A   1      42.262  28.883  28.169  1.00  0.00     0.074 A 
ATOM     29  C   UNL A   1      40.108  28.497  29.352  1.00  0.00     0.049 A 
ATOM     30  N   UNL A   1      43.285  29.227  28.873  1.00  0.00    -0.248 NA
ATOM     31  C   UNL A   1      42.358  29.251  26.749  1.00  0.00     0.031 C 
ATOM     32  C   UNL A   1      38.810  27.870  29.638  1.00  0.00     0.029 A 
ATOM     33  N   UNL A   1      39.980  29.708  29.952  1.00  0.00    -0.354 N 
ATOM     34  C   UNL A   1      44.063  30.029  28.049  1.00  0.00     0.074 A 
ATOM     35  C   UNL A   1      43.551  29.853  26.715  1.00  0.00     0.031 C 
ATOM     36  C   UNL A   1      37.961  28.786  30.160  1.00  0.00     0.029 A 
ATOM     37  C   UNL A   1      38.698  30.010  30.404  1.00  0.00     0.049 A 
ATOM     38  H   UNL A   1      40.738  30.327  30.060  1.00  0.00     0.167 HD
ATOM     39  C   UNL A   1      44.904  30.951  28.592  1.00  0.00     0.037 A 
ATOM     40  C   UNL A   1      38.290  31.193  30.933  1.00  0.00     0.037 A 
ATOM     41  C   UNL A   1      45.086  30.709  30.005  1.00  0.00     0.049 A 
ATOM     42  C   UNL A   1      39.511  31.897  31.403  1.00  0.00     0.074 A 
ATOM     43  C   UNL A   1      45.588  29.654  30.742  1.00  0.00     0.029 A 
ATOM     44  N   UNL A   1      44.329  31.450  30.880  1.00  0.00    -0.354 N 
ATOM     45  N   UNL A   1      40.228  31.482  32.411  1.00  0.00    -0.248 NA
ATOM     46  C   UNL A   1      40.208  32.744  30.446  1.00  0.00     0.031 C 
ATOM     47  C   UNL A   1      44.719  29.543  31.867  1.00  0.00     0.029 A 
ATOM     48  C   UNL A   1      43.796  30.588  31.806  1.00  0.00     0.049 A 
ATOM     49  H   UNL A   1      44.192  32.424  30.848  1.00  0.00     0.167 HD
ATOM     50  C   UNL A   1      41.542  31.628  31.990  1.00  0.00     0.074 A 
ATOM     51  C   UNL A   1      41.470  32.479  30.803  1.00  0.00     0.031 C 
ATOM     52  C   UNL A   1      42.523  30.800  32.454  1.00  0.00     0.037 A 
BRANCH  39  53
ATOM     53  C   UNL A   1      45.250  32.273  27.962  1.00  0.00     0.064 A 
ATOM     54  C   UNL A   1      44.222  33.211  27.744  1.00  0.00     0.173 A 
ATOM     55  C   UNL A   1      46.466  32.535  27.296  1.00  0.00     0.173 A 
ATOM     56  F   UNL A   1      43.020  33.054  28.320  1.00  0.00    -0.203 F 
ATOM     57  C   UNL A   1      44.373  34.276  26.853  1.00  0.00     0.198 A 
ATOM     58  C   UNL A   1      46.631  33.629  26.450  1.00  0.00     0.198 A 
ATOM     59  F   UNL A   1      47.501  31.689  27.340  1.00  0.00    -0.203 F 
ATOM     60  F   UNL A   1      43.325  35.064  26.575  1.00  0.00    -0.200 F 
ATOM     61  C   UNL A   1      45.574  34.479  26.200  1.00  0.00     0.200 A 
ATOM     62  F   UNL A   1      47.797  33.797  25.812  1.00  0.00    -0.200 F 
ATOM     63  F   UNL A   1      45.702  35.458  25.297  1.00  0.00    -0.200 F 
ENDBRANCH  39  53
BRANCH  40  64
ATOM     64  C   UNL A   1      36.974  31.871  30.822  1.00  0.00     0.064 A 
ATOM     65  C   UNL A   1      36.072  31.898  31.899  1.00  0.00     0.173 A 
ATOM     66  C   UNL A   1      36.701  32.755  29.760  1.00  0.00     0.173 A 
ATOM     67  F   UNL A   1      36.278  31.120  32.972  1.00  0.00    -0.203 F 
ATOM     68  C   UNL A   1      34.982  32.777  31.927  1.00  0.00     0.198 A 
ATOM     69  C   UNL A   1      35.613  33.632  29.788  1.00  0.00     0.198 A 
ATOM     70  F   UNL A   1      37.540  32.855  28.718  1.00  0.00    -0.203 F 
ATOM     71  F   UNL A   1      34.181  32.818  33.001  1.00  0.00    -0.200 F 
ATOM     72  C   UNL A   1      34.763  33.653  30.877  1.00  0.00     0.200 A 
ATOM     73  F   UNL A   1      35.434  34.501  28.783  1.00  0.00    -0.200 F 
ATOM     74  F   UNL A   1      33.761  34.543  30.932  1.00  0.00    -0.200 F 
ENDBRANCH  40  64
BRANCH  52  75
ATOM     75  C   UNL A   1      42.183  29.885  33.602  1.00  0.00     0.064 A 
ATOM     76  C   UNL A   1      41.718  28.566  33.454  1.00  0.00     0.173 A 
ATOM     77  C   UNL A   1      42.474  30.318  34.902  1.00  0.00     0.173 A 
ATOM     78  F   UNL A   1      41.514  28.037  32.243  1.00  0.00    -0.203 F 
ATOM     79  C   UNL A   1      41.508  27.740  34.558  1.00  0.00     0.198 A 
ATOM     80  C   UNL A   1      42.299  29.480  36.000  1.00  0.00     0.198 A 
ATOM     81  F   UNL A   1      42.975  31.546  35.103  1.00  0.00    -0.203 F 
ATOM     82  F   UNL A   1      41.052  26.491  34.388  1.00  0.00    -0.200 F 
ATOM     83  C   UNL A   1      41.805  28.197  35.830  1.00  0.00     0.200 A 
ATOM     84  F   UNL A   1      42.638  29.910  37.224  1.00  0.00    -0.200 F 
ATOM     85  F   UNL A   1      41.641  27.393  36.890  1.00  0.00    -0.200 F 
ENDBRANCH  52  75
ENDBRANCH  26  27
ENDBRANCH  18  21
ENDBRANCH  16  17
ENDBRANCH   1  16
TORSDOF 12
ENDMDL
MODEL 2
REMARK VINA RESULT:     -10.9      0.931      1.956
REMARK SMILES COCC1=C(C(=O)NCCCNC(=O)c2ccc(-c3c4nc(c(-c5c(F)c(F)c(F)c(F)c5F)c5ccc([nH]5)c(-c5c(F)c(F)c(F)c(F)c5F)c5nc(c(-c6c(F)c(F)c(F)c(F)c6F)c6ccc3[nH]6)C=C5)C=C4)cc2)[C@H](C)N=N1
REMARK SMILES IDX 10 1 9 2 8 3 6 4 7 5 5 7 4 8 81 9 78 10 80 11 79 12 3 13
REMARK SMILES IDX 2 14 1 15 11 16 12 17 13 18 14 20 15 21 16 22 77 23 17 24
REMARK SMILES IDX 76 25 18 26 19 27 20 28 70 29 21 30 75 31 69 32 71 33 22 34
REMARK SMILES IDX 74 35 68 36 67 37 23 39 55 40 35 41 54 42 36 43 39 44 53 45
REMARK SMILES IDX 72 46 37 47 38 48 52 50 73 51 40 52 24 53 25 54 33 55 26 56
REMARK SMILES IDX 27 57 31 58 34 59 28 60 29 61 32 62 30 63 56 64 57 65 65 66
REMARK SMILES IDX 58 67 59 68 63 69 66 70 60 71 61 72 64 73 62 74 41 75 42 76
REMARK SMILES IDX 50 77 43 78 44 79 48 80 51 81 45 82 46 83 49 84 47 85
REMARK H PARENT 8 6 12 19 71 38 39 49
REMARK Flexibility Score: inf
ROOT
ATOM      1  C   UNL A   1      43.671  23.342  24.764  1.00  0.00     0.042 C 
ENDROOT
BRANCH   1   2
ATOM      2  C   UNL A   1      45.101  22.986  24.336  1.00  0.00     0.118 C 
BRANCH   2   3
ATOM      3  N   UNL A   1      46.069  23.175  25.407  1.00  0.00    -0.352 N 
ATOM      4  C   UNL A   1      46.790  24.238  25.836  1.00  0.00     0.251 C 
ATOM      5  O   UNL A   1      47.460  24.086  26.859  1.00  0.00    -0.270 OA
ATOM      6  H   UNL A   1      46.236  22.357  25.929  1.00  0.00     0.163 HD
BRANCH   4   7
ATOM      7  C   UNL A   1      46.781  25.565  25.197  1.00  0.00     0.069 C 
ATOM      8  C   UNL A   1      45.905  26.570  25.049  1.00  0.00     0.099 C 
ATOM      9  N   UNL A   1      46.387  27.550  24.204  1.00  0.00    -0.157 NA
ATOM     10  C   UNL A   1      47.878  25.875  24.220  1.00  0.00     0.163 C 
ATOM     11  N   UNL A   1      47.492  27.215  23.710  1.00  0.00    -0.181 NA
ATOM     12  C   UNL A   1      49.288  25.968  24.780  1.00  0.00     0.041 C 
BRANCH   8  13
ATOM     13  C   UNL A   1      44.499  26.781  25.521  1.00  0.00     0.218 C 
BRANCH  13  14
ATOM     14  O   UNL A   1      44.063  26.146  26.724  1.00  0.00    -0.378 OA
ATOM     15  C   UNL A   1      44.698  26.485  27.943  1.00  0.00     0.195 C 
ENDBRANCH  13  14
ENDBRANCH   8  13
ENDBRANCH   4   7
ENDBRANCH   2   3
ENDBRANCH   1   2
BRANCH   1  16
ATOM     16  C   UNL A   1      43.238  22.682  26.056  1.00  0.00     0.118 C 
BRANCH  16  17
ATOM     17  N   UNL A   1      41.856  22.202  26.037  1.00  0.00    -0.352 N 
ATOM     18  C   UNL A   1      40.762  22.775  26.678  1.00  0.00     0.251 C 
ATOM     19  H   UNL A   1      41.681  21.387  25.514  1.00  0.00     0.163 HD
ATOM     20  O   UNL A   1      39.768  22.128  26.941  1.00  0.00    -0.269 OA
BRANCH  18  21
ATOM     21  C   UNL A   1      40.841  24.211  27.016  1.00  0.00     0.039 A 
ATOM     22  C   UNL A   1      40.384  25.220  26.165  1.00  0.00     0.014 A 
ATOM     23  C   UNL A   1      41.370  24.525  28.261  1.00  0.00     0.014 A 
ATOM     24  C   UNL A   1      40.440  26.539  26.616  1.00  0.00     0.010 A 
ATOM     25  C   UNL A   1      41.154  25.755  28.799  1.00  0.00     0.010 A 
ATOM     26  C   UNL A   1      40.826  26.788  27.944  1.00  0.00    -0.014 A 
BRANCH  26  27
ATOM     27  C   UNL A   1      40.845  28.117  28.529  1.00  0.00     0.031 A 
ATOM     28  C   UNL A   1      41.934  28.973  28.015  1.00  0.00     0.074 A 
ATOM     29  C   UNL A   1      39.844  28.587  29.307  1.00  0.00     0.049 A 
ATOM     30  N   UNL A   1      42.986  29.340  28.661  1.00  0.00    -0.248 NA
ATOM     31  C   UNL A   1      41.957  29.317  26.585  1.00  0.00     0.031 C 
ATOM     32  C   UNL A   1      38.568  27.953  29.667  1.00  0.00     0.029 A 
ATOM     33  N   UNL A   1      39.732  29.808  29.892  1.00  0.00    -0.354 N 
ATOM     34  C   UNL A   1      43.715  30.134  27.788  1.00  0.00     0.074 A 
ATOM     35  C   UNL A   1      43.140  29.930  26.483  1.00  0.00     0.031 C 
ATOM     36  C   UNL A   1      37.736  28.870  30.214  1.00  0.00     0.029 A 
ATOM     37  C   UNL A   1      38.471  30.106  30.400  1.00  0.00     0.049 A 
ATOM     38  H   UNL A   1      40.488  30.437  29.952  1.00  0.00     0.167 HD
ATOM     39  C   UNL A   1      44.571  31.075  28.273  1.00  0.00     0.037 A 
ATOM     40  C   UNL A   1      38.076  31.294  30.927  1.00  0.00     0.037 A 
ATOM     41  C   UNL A   1      44.824  30.859  29.678  1.00  0.00     0.049 A 
ATOM     42  C   UNL A   1      39.311  32.018  31.325  1.00  0.00     0.074 A 
ATOM     43  C   UNL A   1      45.373  29.823  30.409  1.00  0.00     0.029 A 
ATOM     44  N   UNL A   1      44.102  31.608  30.577  1.00  0.00    -0.354 N 
ATOM     45  N   UNL A   1      40.080  31.628  32.304  1.00  0.00    -0.248 NA
ATOM     46  C   UNL A   1      39.952  32.855  30.321  1.00  0.00     0.031 C 
ATOM     47  C   UNL A   1      44.560  29.723  31.577  1.00  0.00     0.029 A 
ATOM     48  C   UNL A   1      43.624  30.758  31.543  1.00  0.00     0.049 A 
ATOM     49  H   UNL A   1      43.953  32.581  30.535  1.00  0.00     0.167 HD
ATOM     50  C   UNL A   1      41.370  31.779  31.817  1.00  0.00     0.074 A 
ATOM     51  C   UNL A   1      41.232  32.608  30.620  1.00  0.00     0.031 C 
ATOM     52  C   UNL A   1      42.382  30.970  32.248  1.00  0.00     0.037 A 
BRANCH  39  53
ATOM     53  C   UNL A   1      44.873  32.388  27.603  1.00  0.00     0.064 A 
ATOM     54  C   UNL A   1      46.096  32.536  26.920  1.00  0.00     0.173 A 
ATOM     55  C   UNL A   1      44.167  33.583  27.857  1.00  0.00     0.173 A 
ATOM     56  F   UNL A   1      46.854  31.466  26.636  1.00  0.00    -0.203 F 
ATOM     57  C   UNL A   1      46.614  33.793  26.600  1.00  0.00     0.198 A 
ATOM     58  C   UNL A   1      44.662  34.832  27.488  1.00  0.00     0.198 A 
ATOM     59  F   UNL A   1      43.037  33.608  28.571  1.00  0.00    -0.203 F 
ATOM     60  F   UNL A   1      47.841  33.891  26.071  1.00  0.00    -0.200 F 
ATOM     61  C   UNL A   1      45.900  34.940  26.892  1.00  0.00     0.200 A 
ATOM     62  F   UNL A   1      43.964  35.934  27.798  1.00  0.00    -0.200 F 
ATOM     63  F   UNL A   1      46.423  36.148  26.647  1.00  0.00    -0.200 F 
ENDBRANCH  39  53
BRANCH  40  64
ATOM     64  C   UNL A   1      36.749  31.957  30.868  1.00  0.00     0.064 A 
ATOM     65  C   UNL A   1      35.947  32.091  32.014  1.00  0.00     0.173 A 
ATOM     66  C   UNL A   1      36.374  32.731  29.753  1.00  0.00     0.173 A 
ATOM     67  F   UNL A   1      36.255  31.423  33.136  1.00  0.00    -0.203 F 
ATOM     68  C   UNL A   1      34.856  32.968  32.053  1.00  0.00     0.198 A 
ATOM     69  C   UNL A   1      35.285  33.605  29.792  1.00  0.00     0.198 A 
ATOM     70  F   UNL A   1      37.116  32.727  28.636  1.00  0.00    -0.203 F 
ATOM     71  F   UNL A   1      34.153  33.115  33.185  1.00  0.00    -0.200 F 
ATOM     72  C   UNL A   1      34.535  33.735  30.945  1.00  0.00     0.200 A 
ATOM     73  F   UNL A   1      35.009  34.370  28.726  1.00  0.00    -0.200 F 
ATOM     74  F   UNL A   1      33.534  34.625  31.003  1.00  0.00    -0.200 F 
ENDBRANCH  40  64
BRANCH  52  75
ATOM     75  C   UNL A   1      42.107  30.072  33.427  1.00  0.00     0.064 A 
ATOM     76  C   UNL A   1      41.679  28.737  33.324  1.00  0.00     0.173 A 
ATOM     77  C   UNL A   1      42.427  30.544  34.706  1.00  0.00     0.173 A 
ATOM     78  F   UNL A   1      41.453  28.173  32.133  1.00  0.00    -0.203 F 
ATOM     79  C   UNL A   1      41.531  27.931  34.452  1.00  0.00     0.198 A 
ATOM     80  C   UNL A   1      42.313  29.728  35.828  1.00  0.00     0.198 A 
ATOM     81  F   UNL A   1      42.895  31.792  34.863  1.00  0.00    -0.203 F 
ATOM     82  F   UNL A   1      41.108  26.664  34.325  1.00  0.00    -0.200 F 
ATOM     83  C   UNL A   1      41.854  28.427  35.704  1.00  0.00     0.200 A 
ATOM     84  F   UNL A   1      42.677  30.196  37.030  1.00  0.00    -0.200 F 
ATOM     85  F   UNL A   1      41.749  27.643  36.786  1.00  0.00    -0.200 F 
ENDBRANCH  52  75
ENDBRANCH  26  27
ENDBRANCH  18  21
ENDBRANCH  16  17
ENDBRANCH   1  16
TORSDOF 12
ENDMDL
MODEL 3
REMARK VINA RESULT:     -10.8      4.201     11.159
REMARK SMILES COCC1=C(C(=O)NCCCNC(=O)c2ccc(-c3c4nc(c(-c5c(F)c(F)c(F)c(F)c5F)c5ccc([nH]5)c(-c5c(F)c(F)c(F)c(F)c5F)c5nc(c(-c6c(F)c(F)c(F)c(F)c6F)c6ccc3[nH]6)C=C5)C=C4)cc2)[C@H](C)N=N1
REMARK SMILES IDX 10 1 9 2 8 3 6 4 7 5 5 7 4 8 81 9 78 10 80 11 79 12 3 13
REMARK SMILES IDX 2 14 1 15 11 16 12 17 13 18 14 20 15 21 16 22 77 23 17 24
REMARK SMILES IDX 76 25 18 26 19 27 20 28 70 29 21 30 75 31 69 32 71 33 22 34
REMARK SMILES IDX 74 35 68 36 67 37 23 39 55 40 35 41 54 42 36 43 39 44 53 45
REMARK SMILES IDX 72 46 37 47 38 48 52 50 73 51 40 52 24 53 25 54 33 55 26 56
REMARK SMILES IDX 27 57 31 58 34 59 28 60 29 61 32 62 30 63 56 64 57 65 65 66
REMARK SMILES IDX 58 67 59 68 63 69 66 70 60 71 61 72 64 73 62 74 41 75 42 76
REMARK SMILES IDX 50 77 43 78 44 79 48 80 51 81 45 82 46 83 49 84 47 85
REMARK H PARENT 8 6 12 19 71 38 39 49
REMARK Flexibility Score: inf
ROOT
ATOM      1  C   UNL A   1      34.721  33.610  32.013  1.00  0.00     0.042 C 
ENDROOT
BRANCH   1   2
ATOM      2  C   UNL A   1      35.143  33.345  33.465  1.00  0.00     0.118 C 
BRANCH   2   3
ATOM      3  N   UNL A   1      36.302  34.132  33.863  1.00  0.00    -0.352 N 
ATOM      4  C   UNL A   1      37.438  33.842  34.540  1.00  0.00     0.251 C 
ATOM      5  O   UNL A   1      38.285  34.734  34.623  1.00  0.00    -0.270 OA
ATOM      6  H   UNL A   1      36.247  35.073  33.581  1.00  0.00     0.163 HD
BRANCH   4   7
ATOM      7  C   UNL A   1      37.748  32.528  35.128  1.00  0.00     0.069 C 
ATOM      8  C   UNL A   1      37.810  32.002  36.361  1.00  0.00     0.099 C 
ATOM      9  N   UNL A   1      38.311  30.716  36.345  1.00  0.00    -0.157 NA
ATOM     10  C   UNL A   1      38.422  31.513  34.252  1.00  0.00     0.163 C 
ATOM     11  N   UNL A   1      38.671  30.387  35.187  1.00  0.00    -0.181 NA
ATOM     12  C   UNL A   1      37.622  30.985  33.073  1.00  0.00     0.041 C 
BRANCH   8  13
ATOM     13  C   UNL A   1      37.552  32.561  37.727  1.00  0.00     0.218 C 
BRANCH  13  14
ATOM     14  O   UNL A   1      36.748  31.818  38.645  1.00  0.00    -0.378 OA
ATOM     15  C   UNL A   1      35.863  32.520  39.499  1.00  0.00     0.195 C 
ENDBRANCH  13  14
ENDBRANCH   8  13
ENDBRANCH   4   7
ENDBRANCH   2   3
ENDBRANCH   1   2
BRANCH   1  16
ATOM     16  C   UNL A   1      34.773  32.383  31.127  1.00  0.00     0.118 C 
BRANCH  16  17
ATOM     17  N   UNL A   1      34.598  32.677  29.705  1.00  0.00    -0.352 N 
ATOM     18  C   UNL A   1      35.539  32.508  28.694  1.00  0.00     0.251 C 
ATOM     19  H   UNL A   1      33.721  33.032  29.433  1.00  0.00     0.163 HD
ATOM     20  O   UNL A   1      35.469  33.124  27.649  1.00  0.00    -0.269 OA
BRANCH  18  21
ATOM     21  C   UNL A   1      36.625  31.533  28.925  1.00  0.00     0.039 A 
ATOM     22  C   UNL A   1      36.528  30.186  28.571  1.00  0.00     0.014 A 
ATOM     23  C   UNL A   1      37.792  32.031  29.491  1.00  0.00     0.014 A 
ATOM     24  C   UNL A   1      37.642  29.370  28.768  1.00  0.00     0.010 A 
ATOM     25  C   UNL A   1      38.945  31.314  29.409  1.00  0.00     0.010 A 
ATOM     26  C   UNL A   1      38.849  29.956  29.186  1.00  0.00    -0.014 A 
BRANCH  26  27
ATOM     27  C   UNL A   1      40.081  29.205  29.348  1.00  0.00     0.031 A 
ATOM     28  C   UNL A   1      40.405  28.897  30.757  1.00  0.00     0.074 A 
ATOM     29  C   UNL A   1      40.749  28.664  28.304  1.00  0.00     0.049 A 
ATOM     30  N   UNL A   1      41.352  29.423  31.453  1.00  0.00    -0.248 NA
ATOM     31  C   UNL A   1      39.483  28.057  31.534  1.00  0.00     0.031 C 
ATOM     32  C   UNL A   1      40.392  28.644  26.879  1.00  0.00     0.029 A 
ATOM     33  N   UNL A   1      41.891  27.928  28.324  1.00  0.00    -0.354 N 
ATOM     34  C   UNL A   1      41.280  28.831  32.706  1.00  0.00     0.074 A 
ATOM     35  C   UNL A   1      40.011  28.152  32.758  1.00  0.00     0.031 C 
ATOM     36  C   UNL A   1      41.173  27.757  26.220  1.00  0.00     0.029 A 
ATOM     37  C   UNL A   1      42.191  27.274  27.132  1.00  0.00     0.049 A 
ATOM     38  H   UNL A   1      42.464  27.862  29.122  1.00  0.00     0.167 HD
ATOM     39  C   UNL A   1      42.390  28.757  33.491  1.00  0.00     0.037 A 
ATOM     40  C   UNL A   1      43.208  26.395  26.931  1.00  0.00     0.037 A 
ATOM     41  C   UNL A   1      43.427  29.631  32.994  1.00  0.00     0.049 A 
ATOM     42  C   UNL A   1      44.205  26.641  28.005  1.00  0.00     0.074 A 
ATOM     43  C   UNL A   1      43.521  30.995  32.798  1.00  0.00     0.029 A 
ATOM     44  N   UNL A   1      44.412  29.072  32.215  1.00  0.00    -0.354 N 
ATOM     45  N   UNL A   1      44.917  27.732  28.079  1.00  0.00    -0.248 NA
ATOM     46  C   UNL A   1      44.036  25.917  29.257  1.00  0.00     0.031 C 
ATOM     47  C   UNL A   1      44.209  31.142  31.556  1.00  0.00     0.029 A 
ATOM     48  C   UNL A   1      44.578  29.872  31.112  1.00  0.00     0.049 A 
ATOM     49  H   UNL A   1      44.908  28.245  32.412  1.00  0.00     0.167 HD
ATOM     50  C   UNL A   1      44.899  28.071  29.424  1.00  0.00     0.074 A 
ATOM     51  C   UNL A   1      44.405  26.878  30.112  1.00  0.00     0.031 C 
ATOM     52  C   UNL A   1      44.988  29.374  29.821  1.00  0.00     0.037 A 
BRANCH  39  53
ATOM     53  C   UNL A   1      42.686  27.640  34.456  1.00  0.00     0.064 A 
ATOM     54  C   UNL A   1      43.256  26.450  33.961  1.00  0.00     0.173 A 
ATOM     55  C   UNL A   1      42.165  27.570  35.765  1.00  0.00     0.173 A 
ATOM     56  F   UNL A   1      43.772  26.402  32.723  1.00  0.00    -0.203 F 
ATOM     57  C   UNL A   1      43.220  25.258  34.689  1.00  0.00     0.198 A 
ATOM     58  C   UNL A   1      42.180  26.392  36.509  1.00  0.00     0.198 A 
ATOM     59  F   UNL A   1      41.519  28.593  36.333  1.00  0.00    -0.203 F 
ATOM     60  F   UNL A   1      43.652  24.123  34.126  1.00  0.00    -0.200 F 
ATOM     61  C   UNL A   1      42.675  25.229  35.959  1.00  0.00     0.200 A 
ATOM     62  F   UNL A   1      41.629  26.380  37.731  1.00  0.00    -0.200 F 
ATOM     63  F   UNL A   1      42.579  24.076  36.632  1.00  0.00    -0.200 F 
ENDBRANCH  39  53
BRANCH  40  64
ATOM     64  C   UNL A   1      43.259  25.196  26.057  1.00  0.00     0.064 A 
ATOM     65  C   UNL A   1      44.345  24.965  25.196  1.00  0.00     0.173 A 
ATOM     66  C   UNL A   1      42.388  24.109  26.265  1.00  0.00     0.173 A 
ATOM     67  F   UNL A   1      45.248  25.931  24.974  1.00  0.00    -0.203 F 
ATOM     68  C   UNL A   1      44.564  23.715  24.605  1.00  0.00     0.198 A 
ATOM     69  C   UNL A   1      42.606  22.862  25.675  1.00  0.00     0.198 A 
ATOM     70  F   UNL A   1      41.362  24.208  27.124  1.00  0.00    -0.203 F 
ATOM     71  F   UNL A   1      45.647  23.514  23.840  1.00  0.00    -0.200 F 
ATOM     72  C   UNL A   1      43.701  22.661  24.856  1.00  0.00     0.200 A 
ATOM     73  F   UNL A   1      41.786  21.840  25.957  1.00  0.00    -0.200 F 
ATOM     74  F   UNL A   1      43.948  21.445  24.346  1.00  0.00    -0.200 F 
ENDBRANCH  40  64
BRANCH  52  75
ATOM     75  C   UNL A   1      45.339  30.401  28.776  1.00  0.00     0.064 A 
ATOM     76  C   UNL A   1      44.396  31.078  27.981  1.00  0.00     0.173 A 
ATOM     77  C   UNL A   1      46.673  30.816  28.677  1.00  0.00     0.173 A 
ATOM     78  F   UNL A   1      43.089  30.819  28.088  1.00  0.00    -0.203 F 
ATOM     79  C   UNL A   1      44.780  32.084  27.095  1.00  0.00     0.198 A 
ATOM     80  C   UNL A   1      47.049  31.845  27.819  1.00  0.00     0.198 A 
ATOM     81  F   UNL A   1      47.611  30.248  29.451  1.00  0.00    -0.203 F 
ATOM     82  F   UNL A   1      43.861  32.704  26.340  1.00  0.00    -0.200 F 
ATOM     83  C   UNL A   1      46.107  32.471  27.020  1.00  0.00     0.200 A 
ATOM     84  F   UNL A   1      48.327  32.251  27.789  1.00  0.00    -0.200 F 
ATOM     85  F   UNL A   1      46.473  33.464  26.197  1.00  0.00    -0.200 F 
ENDBRANCH  52  75
ENDBRANCH  26  27
ENDBRANCH  18  21
ENDBRANCH  16  17
ENDBRANCH   1  16
TORSDOF 12
ENDMDL
