MODEL 1
REMARK VINA RESULT:     -13.6      0.000      0.000
REMARK SMILES Cc1ccccc1NC(=O)NC[C@@H]1CC[C@@H](C(=O)NCCCNC(=O)c2ccc(-c3c4nc(c(-c5c(F)c(F)c(F)c(F)c5F)c5ccc([nH]5)c(-c5c(F)c(F)c(F)c(F)c5F)c5nc(c(-c6c(F)c(F)c(F)c(F)c6F)c6ccc3[nH]6)C=C5)C=C4)cc2)O1
REMARK SMILES IDX 20 1 19 2 17 3 18 4 16 6 13 7 14 8 89 9 15 10 12 11 11 12
REMARK SMILES IDX 8 13 9 14 10 16 7 18 1 19 2 20 3 21 4 22 6 23 5 24 21 25
REMARK SMILES IDX 22 26 23 27 24 28 25 30 26 31 27 32 88 33 28 34 87 35 29 36
REMARK SMILES IDX 30 37 31 38 81 39 32 40 86 41 80 42 82 43 33 44 85 45 79 46
REMARK SMILES IDX 78 47 34 49 66 50 46 51 65 52 47 53 50 54 64 55 83 56 48 57
REMARK SMILES IDX 49 58 63 60 84 61 51 62 35 63 36 64 44 65 37 66 38 67 42 68
REMARK SMILES IDX 45 69 39 70 40 71 43 72 41 73 67 74 68 75 76 76 69 77 70 78
REMARK SMILES IDX 74 79 77 80 71 81 72 82 75 83 73 84 52 85 53 86 61 87 54 88
REMARK SMILES IDX 55 89 59 90 62 91 56 92 57 93 60 94 58 95
REMARK H PARENT 19 5 8 15 11 17 23 29 82 48 50 59
REMARK Flexibility Score: inf
ROOT
ATOM      1  C   UNL A   1      31.840  30.479  26.587  1.00  0.00     0.117 C 
ENDROOT
BRANCH   1   2
ATOM      2  N   UNL A   1      31.479  30.176  25.208  1.00  0.00    -0.354 N 
ATOM      3  C   UNL A   1      31.666  29.041  24.460  1.00  0.00     0.249 C 
ATOM      4  O   UNL A   1      31.248  29.068  23.300  1.00  0.00    -0.272 OA
ATOM      5  H   UNL A   1      31.023  30.908  24.735  1.00  0.00     0.163 HD
BRANCH   3   6
ATOM      6  C   UNL A   1      32.328  27.778  25.072  1.00  0.00     0.207 C 
ATOM      7  C   UNL A   1      32.848  25.756  23.992  1.00  0.00     0.138 C 
ATOM      8  C   UNL A   1      34.064  26.207  24.770  1.00  0.00     0.037 C 
ATOM      9  O   UNL A   1      31.775  26.521  24.590  1.00  0.00    -0.363 OA
ATOM     10  C   UNL A   1      33.819  27.686  24.796  1.00  0.00     0.045 C 
BRANCH   7  11
ATOM     11  C   UNL A   1      32.629  24.231  24.034  1.00  0.00     0.149 C 
BRANCH  11  12
ATOM     12  N   UNL A   1      32.102  23.809  25.329  1.00  0.00    -0.335 N 
ATOM     13  N   UNL A   1      33.844  23.077  26.826  1.00  0.00    -0.308 N 
ATOM     14  C   UNL A   1      32.588  23.423  26.511  1.00  0.00     0.319 C 
ATOM     15  H   UNL A   1      33.970  23.100  27.803  1.00  0.00     0.171 HD
ATOM     16  O   UNL A   1      31.780  23.432  27.451  1.00  0.00    -0.249 OA
ATOM     17  H   UNL A   1      31.119  23.810  25.332  1.00  0.00     0.165 HD
BRANCH  13  18
ATOM     18  C   UNL A   1      35.038  22.691  26.191  1.00  0.00     0.045 A 
ATOM     19  C   UNL A   1      33.981  20.488  25.352  1.00  0.00     0.046 C 
ATOM     20  C   UNL A   1      35.140  21.427  25.566  1.00  0.00    -0.027 A 
ATOM     21  C   UNL A   1      36.369  21.029  24.992  1.00  0.00     0.005 A 
ATOM     22  C   UNL A   1      37.478  21.867  25.011  1.00  0.00     0.000 A 
ATOM     23  C   UNL A   1      36.121  23.550  26.073  1.00  0.00     0.026 A 
ATOM     24  C   UNL A   1      37.344  23.143  25.530  1.00  0.00     0.002 A 
ENDBRANCH  13  18
ENDBRANCH  11  12
ENDBRANCH   7  11
ENDBRANCH   3   6
ENDBRANCH   1   2
BRANCH   1  25
ATOM     25  C   UNL A   1      33.312  30.880  26.731  1.00  0.00     0.042 C 
BRANCH  25  26
ATOM     26  C   UNL A   1      33.989  30.336  27.980  1.00  0.00     0.118 C 
BRANCH  26  27
ATOM     27  N   UNL A   1      34.777  31.325  28.715  1.00  0.00    -0.352 N 
ATOM     28  C   UNL A   1      36.038  31.156  29.263  1.00  0.00     0.251 C 
ATOM     29  H   UNL A   1      34.365  32.211  28.834  1.00  0.00     0.163 HD
ATOM     30  O   UNL A   1      36.614  32.067  29.843  1.00  0.00    -0.269 OA
BRANCH  28  31
ATOM     31  C   UNL A   1      36.713  29.864  29.026  1.00  0.00     0.039 A 
ATOM     32  C   UNL A   1      37.073  29.106  30.142  1.00  0.00     0.014 A 
ATOM     33  C   UNL A   1      37.261  29.607  27.770  1.00  0.00     0.014 A 
ATOM     34  C   UNL A   1      38.173  28.260  30.050  1.00  0.00     0.010 A 
ATOM     35  C   UNL A   1      38.405  28.837  27.702  1.00  0.00     0.010 A 
ATOM     36  C   UNL A   1      38.908  28.235  28.863  1.00  0.00    -0.014 A 
BRANCH  36  37
ATOM     37  C   UNL A   1      40.278  27.730  28.798  1.00  0.00     0.031 A 
ATOM     38  C   UNL A   1      40.546  26.312  28.484  1.00  0.00     0.074 A 
ATOM     39  C   UNL A   1      41.314  28.580  28.977  1.00  0.00     0.049 A 
ATOM     40  N   UNL A   1      41.654  25.701  28.737  1.00  0.00    -0.248 NA
ATOM     41  C   UNL A   1      39.525  25.439  27.924  1.00  0.00     0.031 C 
ATOM     42  C   UNL A   1      42.726  28.327  28.705  1.00  0.00     0.029 A 
ATOM     43  N   UNL A   1      41.309  29.802  29.675  1.00  0.00    -0.354 N 
ATOM     44  C   UNL A   1      41.600  24.457  28.151  1.00  0.00     0.074 A 
ATOM     45  C   UNL A   1      40.220  24.312  27.754  1.00  0.00     0.031 C 
ATOM     46  C   UNL A   1      43.464  29.136  29.480  1.00  0.00     0.029 A 
ATOM     47  C   UNL A   1      42.549  29.836  30.363  1.00  0.00     0.049 A 
ATOM     48  H   UNL A   1      40.600  30.484  29.684  1.00  0.00     0.167 HD
ATOM     49  C   UNL A   1      42.764  23.761  27.973  1.00  0.00     0.037 A 
ATOM     50  C   UNL A   1      42.603  29.830  31.726  1.00  0.00     0.037 A 
ATOM     51  C   UNL A   1      43.867  24.381  28.717  1.00  0.00     0.049 A 
ATOM     52  C   UNL A   1      43.342  28.654  32.328  1.00  0.00     0.074 A 
ATOM     53  C   UNL A   1      44.947  25.182  28.381  1.00  0.00     0.029 A 
ATOM     54  N   UNL A   1      43.795  24.405  30.102  1.00  0.00    -0.354 N 
ATOM     55  N   UNL A   1      43.806  27.650  31.639  1.00  0.00    -0.248 NA
ATOM     56  C   UNL A   1      43.513  28.468  33.771  1.00  0.00     0.031 C 
ATOM     57  C   UNL A   1      45.493  25.719  29.583  1.00  0.00     0.029 A 
ATOM     58  C   UNL A   1      44.749  25.243  30.646  1.00  0.00     0.049 A 
ATOM     59  H   UNL A   1      43.144  23.890  30.630  1.00  0.00     0.167 HD
ATOM     60  C   UNL A   1      44.269  26.693  32.500  1.00  0.00     0.074 A 
ATOM     61  C   UNL A   1      44.071  27.247  33.824  1.00  0.00     0.031 C 
ATOM     62  C   UNL A   1      44.743  25.489  32.076  1.00  0.00     0.037 A 
BRANCH  49  63
ATOM     63  C   UNL A   1      42.981  22.642  26.961  1.00  0.00     0.064 A 
ATOM     64  C   UNL A   1      42.318  21.402  27.117  1.00  0.00     0.173 A 
ATOM     65  C   UNL A   1      43.881  22.672  25.877  1.00  0.00     0.173 A 
ATOM     66  F   UNL A   1      41.362  21.229  28.039  1.00  0.00    -0.203 F 
ATOM     67  C   UNL A   1      42.609  20.279  26.331  1.00  0.00     0.198 A 
ATOM     68  C   UNL A   1      44.192  21.544  25.108  1.00  0.00     0.198 A 
ATOM     69  F   UNL A   1      44.469  23.793  25.466  1.00  0.00    -0.203 F 
ATOM     70  F   UNL A   1      41.959  19.128  26.549  1.00  0.00    -0.200 F 
ATOM     71  C   UNL A   1      43.569  20.343  25.344  1.00  0.00     0.200 A 
ATOM     72  F   UNL A   1      45.107  21.645  24.132  1.00  0.00    -0.200 F 
ATOM     73  F   UNL A   1      43.871  19.265  24.610  1.00  0.00    -0.200 F 
ENDBRANCH  49  63
BRANCH  50  74
ATOM     74  C   UNL A   1      41.444  30.515  32.356  1.00  0.00     0.064 A 
ATOM     75  C   UNL A   1      41.369  31.919  32.274  1.00  0.00     0.173 A 
ATOM     76  C   UNL A   1      40.280  29.822  32.702  1.00  0.00     0.173 A 
ATOM     77  F   UNL A   1      42.457  32.632  31.940  1.00  0.00    -0.203 F 
ATOM     78  C   UNL A   1      40.156  32.587  32.409  1.00  0.00     0.198 A 
ATOM     79  C   UNL A   1      39.070  30.498  32.859  1.00  0.00     0.198 A 
ATOM     80  F   UNL A   1      40.280  28.484  32.772  1.00  0.00    -0.203 F 
ATOM     81  F   UNL A   1      40.093  33.909  32.197  1.00  0.00    -0.200 F 
ATOM     82  C   UNL A   1      39.002  31.872  32.677  1.00  0.00     0.200 A 
ATOM     83  F   UNL A   1      37.946  29.803  33.087  1.00  0.00    -0.200 F 
ATOM     84  F   UNL A   1      37.817  32.498  32.712  1.00  0.00    -0.200 F 
ENDBRANCH  50  74
BRANCH  62  85
ATOM     85  C   UNL A   1      45.248  24.449  33.020  1.00  0.00     0.064 A 
ATOM     86  C   UNL A   1      44.457  23.356  33.406  1.00  0.00     0.173 A 
ATOM     87  C   UNL A   1      46.496  24.587  33.654  1.00  0.00     0.173 A 
ATOM     88  F   UNL A   1      43.246  23.165  32.863  1.00  0.00    -0.203 F 
ATOM     89  C   UNL A   1      44.899  22.444  34.365  1.00  0.00     0.198 A 
ATOM     90  C   UNL A   1      46.917  23.699  34.640  1.00  0.00     0.198 A 
ATOM     91  F   UNL A   1      47.338  25.575  33.312  1.00  0.00    -0.203 F 
ATOM     92  F   UNL A   1      44.135  21.390  34.684  1.00  0.00    -0.200 F 
ATOM     93  C   UNL A   1      46.122  22.625  34.992  1.00  0.00     0.200 A 
ATOM     94  F   UNL A   1      48.098  23.888  35.246  1.00  0.00    -0.200 F 
ATOM     95  F   UNL A   1      46.533  21.761  35.930  1.00  0.00    -0.200 F 
ENDBRANCH  62  85
ENDBRANCH  36  37
ENDBRANCH  28  31
ENDBRANCH  26  27
ENDBRANCH  25  26
ENDBRANCH   1  25
TORSDOF 13
ENDMDL
MODEL 2
REMARK VINA RESULT:     -13.5      3.737     10.182
REMARK SMILES Cc1ccccc1NC(=O)NC[C@@H]1CC[C@@H](C(=O)NCCCNC(=O)c2ccc(-c3c4nc(c(-c5c(F)c(F)c(F)c(F)c5F)c5ccc([nH]5)c(-c5c(F)c(F)c(F)c(F)c5F)c5nc(c(-c6c(F)c(F)c(F)c(F)c6F)c6ccc3[nH]6)C=C5)C=C4)cc2)O1
REMARK SMILES IDX 20 1 19 2 17 3 18 4 16 6 13 7 14 8 89 9 15 10 12 11 11 12
REMARK SMILES IDX 8 13 9 14 10 16 7 18 1 19 2 20 3 21 4 22 6 23 5 24 21 25
REMARK SMILES IDX 22 26 23 27 24 28 25 30 26 31 27 32 88 33 28 34 87 35 29 36
REMARK SMILES IDX 30 37 31 38 81 39 32 40 86 41 80 42 82 43 33 44 85 45 79 46
REMARK SMILES IDX 78 47 34 49 66 50 46 51 65 52 47 53 50 54 64 55 83 56 48 57
REMARK SMILES IDX 49 58 63 60 84 61 51 62 35 63 36 64 44 65 37 66 38 67 42 68
REMARK SMILES IDX 45 69 39 70 40 71 43 72 41 73 67 74 68 75 76 76 69 77 70 78
REMARK SMILES IDX 74 79 77 80 71 81 72 82 75 83 73 84 52 85 53 86 61 87 54 88
REMARK SMILES IDX 55 89 59 90 62 91 56 92 57 93 60 94 58 95
REMARK H PARENT 19 5 8 15 11 17 23 29 82 48 50 59
REMARK Flexibility Score: inf
ROOT
ATOM      1  C   UNL A   1      37.452  21.377  25.396  1.00  0.00     0.117 C 
ENDROOT
BRANCH   1   2
ATOM      2  N   UNL A   1      37.112  22.117  24.188  1.00  0.00    -0.354 N 
ATOM      3  C   UNL A   1      35.907  22.595  23.737  1.00  0.00     0.249 C 
ATOM      4  O   UNL A   1      35.919  23.197  22.661  1.00  0.00    -0.272 OA
ATOM      5  H   UNL A   1      37.875  22.306  23.596  1.00  0.00     0.163 HD
BRANCH   3   6
ATOM      6  C   UNL A   1      34.613  22.422  24.574  1.00  0.00     0.207 C 
ATOM      7  C   UNL A   1      32.387  22.632  23.849  1.00  0.00     0.138 C 
ATOM      8  C   UNL A   1      32.514  21.342  24.628  1.00  0.00     0.037 C 
ATOM      9  O   UNL A   1      33.561  23.375  24.252  1.00  0.00    -0.363 OA
ATOM     10  C   UNL A   1      33.970  21.055  24.414  1.00  0.00     0.045 C 
BRANCH   7  11
ATOM     11  C   UNL A   1      31.059  23.371  24.106  1.00  0.00     0.149 C 
BRANCH  11  12
ATOM     12  N   UNL A   1      30.620  23.201  25.489  1.00  0.00    -0.335 N 
ATOM     13  N   UNL A   1      30.091  25.304  26.541  1.00  0.00    -0.308 N 
ATOM     14  C   UNL A   1      30.135  23.966  26.468  1.00  0.00     0.319 C 
ATOM     15  H   UNL A   1      29.449  25.588  27.232  1.00  0.00     0.171 HD
ATOM     16  O   UNL A   1      29.610  23.359  27.413  1.00  0.00    -0.249 OA
ATOM     17  H   UNL A   1      30.707  22.265  25.778  1.00  0.00     0.165 HD
BRANCH  13  18
ATOM     18  C   UNL A   1      30.679  26.428  25.932  1.00  0.00     0.045 A 
ATOM     19  C   UNL A   1      28.933  26.418  24.028  1.00  0.00     0.046 C 
ATOM     20  C   UNL A   1      30.193  26.909  24.695  1.00  0.00    -0.027 A 
ATOM     21  C   UNL A   1      30.840  27.996  24.066  1.00  0.00     0.005 A 
ATOM     22  C   UNL A   1      31.936  28.618  24.650  1.00  0.00     0.000 A 
ATOM     23  C   UNL A   1      31.688  27.156  26.547  1.00  0.00     0.026 A 
ATOM     24  C   UNL A   1      32.344  28.212  25.908  1.00  0.00     0.002 A 
ENDBRANCH  13  18
ENDBRANCH  11  12
ENDBRANCH   7  11
ENDBRANCH   3   6
ENDBRANCH   1   2
BRANCH   1  25
ATOM     25  C   UNL A   1      38.939  21.492  25.752  1.00  0.00     0.042 C 
BRANCH  25  26
ATOM     26  C   UNL A   1      39.319  22.802  26.427  1.00  0.00     0.118 C 
BRANCH  26  27
ATOM     27  N   UNL A   1      40.758  23.064  26.460  1.00  0.00    -0.352 N 
ATOM     28  C   UNL A   1      41.386  24.287  26.634  1.00  0.00     0.251 C 
ATOM     29  H   UNL A   1      41.347  22.284  26.345  1.00  0.00     0.163 HD
ATOM     30  O   UNL A   1      42.606  24.384  26.665  1.00  0.00    -0.269 OA
BRANCH  28  31
ATOM     31  C   UNL A   1      40.527  25.459  26.894  1.00  0.00     0.039 A 
ATOM     32  C   UNL A   1      40.843  26.652  26.239  1.00  0.00     0.014 A 
ATOM     33  C   UNL A   1      39.675  25.443  27.997  1.00  0.00     0.014 A 
ATOM     34  C   UNL A   1      40.511  27.858  26.849  1.00  0.00     0.010 A 
ATOM     35  C   UNL A   1      39.423  26.637  28.645  1.00  0.00     0.010 A 
ATOM     36  C   UNL A   1      39.918  27.835  28.113  1.00  0.00    -0.014 A 
BRANCH  36  37
ATOM     37  C   UNL A   1      39.917  28.996  29.001  1.00  0.00     0.031 A 
ATOM     38  C   UNL A   1      38.891  30.048  28.866  1.00  0.00     0.074 A 
ATOM     39  C   UNL A   1      40.837  29.083  29.988  1.00  0.00     0.049 A 
ATOM     40  N   UNL A   1      38.997  31.243  29.345  1.00  0.00    -0.248 NA
ATOM     41  C   UNL A   1      37.675  29.846  28.091  1.00  0.00     0.031 C 
ATOM     42  C   UNL A   1      40.844  30.016  31.113  1.00  0.00     0.029 A 
ATOM     43  N   UNL A   1      42.102  28.469  30.040  1.00  0.00    -0.354 N 
ATOM     44  C   UNL A   1      37.787  31.878  29.180  1.00  0.00     0.074 A 
ATOM     45  C   UNL A   1      37.044  31.004  28.304  1.00  0.00     0.031 C 
ATOM     46  C   UNL A   1      42.108  30.170  31.533  1.00  0.00     0.029 A 
ATOM     47  C   UNL A   1      42.960  29.443  30.609  1.00  0.00     0.049 A 
ATOM     48  H   UNL A   1      42.339  27.560  29.744  1.00  0.00     0.167 HD
ATOM     49  C   UNL A   1      37.532  33.009  29.905  1.00  0.00     0.037 A 
ATOM     50  C   UNL A   1      43.994  29.978  29.898  1.00  0.00     0.037 A 
ATOM     51  C   UNL A   1      38.754  33.506  30.551  1.00  0.00     0.049 A 
ATOM     52  C   UNL A   1      43.924  31.477  29.703  1.00  0.00     0.074 A 
ATOM     53  C   UNL A   1      39.267  33.467  31.838  1.00  0.00     0.029 A 
ATOM     54  N   UNL A   1      39.790  33.951  29.744  1.00  0.00    -0.354 N 
ATOM     55  N   UNL A   1      42.917  32.218  30.071  1.00  0.00    -0.248 NA
ATOM     56  C   UNL A   1      44.940  32.239  28.972  1.00  0.00     0.031 C 
ATOM     57  C   UNL A   1      40.638  33.854  31.782  1.00  0.00     0.029 A 
ATOM     58  C   UNL A   1      40.954  34.131  30.465  1.00  0.00     0.049 A 
ATOM     59  H   UNL A   1      39.706  34.116  28.778  1.00  0.00     0.167 HD
ATOM     60  C   UNL A   1      43.103  33.490  29.604  1.00  0.00     0.074 A 
ATOM     61  C   UNL A   1      44.383  33.461  28.926  1.00  0.00     0.031 C 
ATOM     62  C   UNL A   1      42.176  34.475  29.762  1.00  0.00     0.037 A 
BRANCH  49  63
ATOM     63  C   UNL A   1      36.149  33.564  30.224  1.00  0.00     0.064 A 
ATOM     64  C   UNL A   1      35.344  34.107  29.195  1.00  0.00     0.173 A 
ATOM     65  C   UNL A   1      35.583  33.684  31.509  1.00  0.00     0.173 A 
ATOM     66  F   UNL A   1      35.688  33.996  27.904  1.00  0.00    -0.203 F 
ATOM     67  C   UNL A   1      34.149  34.792  29.444  1.00  0.00     0.198 A 
ATOM     68  C   UNL A   1      34.402  34.390  31.763  1.00  0.00     0.198 A 
ATOM     69  F   UNL A   1      36.104  33.087  32.579  1.00  0.00    -0.203 F 
ATOM     70  F   UNL A   1      33.448  35.302  28.422  1.00  0.00    -0.200 F 
ATOM     71  C   UNL A   1      33.691  34.959  30.734  1.00  0.00     0.200 A 
ATOM     72  F   UNL A   1      33.963  34.508  33.026  1.00  0.00    -0.200 F 
ATOM     73  F   UNL A   1      32.564  35.638  30.980  1.00  0.00    -0.200 F 
ENDBRANCH  49  63
BRANCH  50  74
ATOM     74  C   UNL A   1      44.584  29.023  28.924  1.00  0.00     0.064 A 
ATOM     75  C   UNL A   1      45.435  28.012  29.407  1.00  0.00     0.173 A 
ATOM     76  C   UNL A   1      44.060  28.870  27.636  1.00  0.00     0.173 A 
ATOM     77  F   UNL A   1      45.960  28.106  30.639  1.00  0.00    -0.203 F 
ATOM     78  C   UNL A   1      45.652  26.842  28.684  1.00  0.00     0.198 A 
ATOM     79  C   UNL A   1      44.298  27.706  26.904  1.00  0.00     0.198 A 
ATOM     80  F   UNL A   1      43.223  29.786  27.128  1.00  0.00    -0.203 F 
ATOM     81  F   UNL A   1      46.362  25.842  29.226  1.00  0.00    -0.200 F 
ATOM     82  C   UNL A   1      45.061  26.680  27.443  1.00  0.00     0.200 A 
ATOM     83  F   UNL A   1      43.701  27.535  25.716  1.00  0.00    -0.200 F 
ATOM     84  F   UNL A   1      45.187  25.519  26.786  1.00  0.00    -0.200 F 
ENDBRANCH  50  74
BRANCH  62  85
ATOM     85  C   UNL A   1      42.385  35.861  29.251  1.00  0.00     0.064 A 
ATOM     86  C   UNL A   1      41.832  36.291  28.036  1.00  0.00     0.173 A 
ATOM     87  C   UNL A   1      43.245  36.758  29.912  1.00  0.00     0.173 A 
ATOM     88  F   UNL A   1      41.019  35.487  27.334  1.00  0.00    -0.203 F 
ATOM     89  C   UNL A   1      42.115  37.555  27.517  1.00  0.00     0.198 A 
ATOM     90  C   UNL A   1      43.557  38.003  29.372  1.00  0.00     0.198 A 
ATOM     91  F   UNL A   1      43.779  36.450  31.104  1.00  0.00    -0.203 F 
ATOM     92  F   UNL A   1      41.541  37.948  26.371  1.00  0.00    -0.200 F 
ATOM     93  C   UNL A   1      42.989  38.403  28.177  1.00  0.00     0.200 A 
ATOM     94  F   UNL A   1      44.410  38.813  30.016  1.00  0.00    -0.200 F 
ATOM     95  F   UNL A   1      43.278  39.607  27.665  1.00  0.00    -0.200 F 
ENDBRANCH  62  85
ENDBRANCH  36  37
ENDBRANCH  28  31
ENDBRANCH  26  27
ENDBRANCH  25  26
ENDBRANCH   1  25
TORSDOF 13
ENDMDL
MODEL 3
REMARK VINA RESULT:     -13.4      0.992      1.757
REMARK SMILES Cc1ccccc1NC(=O)NC[C@@H]1CC[C@@H](C(=O)NCCCNC(=O)c2ccc(-c3c4nc(c(-c5c(F)c(F)c(F)c(F)c5F)c5ccc([nH]5)c(-c5c(F)c(F)c(F)c(F)c5F)c5nc(c(-c6c(F)c(F)c(F)c(F)c6F)c6ccc3[nH]6)C=C5)C=C4)cc2)O1
REMARK SMILES IDX 20 1 19 2 17 3 18 4 16 6 13 7 14 8 89 9 15 10 12 11 11 12
REMARK SMILES IDX 8 13 9 14 10 16 7 18 1 19 2 20 3 21 4 22 6 23 5 24 21 25
REMARK SMILES IDX 22 26 23 27 24 28 25 30 26 31 27 32 88 33 28 34 87 35 29 36
REMARK SMILES IDX 30 37 31 38 81 39 32 40 86 41 80 42 82 43 33 44 85 45 79 46
REMARK SMILES IDX 78 47 34 49 66 50 46 51 65 52 47 53 50 54 64 55 83 56 48 57
REMARK SMILES IDX 49 58 63 60 84 61 51 62 35 63 36 64 44 65 37 66 38 67 42 68
REMARK SMILES IDX 45 69 39 70 40 71 43 72 41 73 67 74 68 75 76 76 69 77 70 78
REMARK SMILES IDX 74 79 77 80 71 81 72 82 75 83 73 84 52 85 53 86 61 87 54 88
REMARK SMILES IDX 55 89 59 90 62 91 56 92 57 93 60 94 58 95
REMARK H PARENT 19 5 8 15 11 17 23 29 82 48 50 59
REMARK Flexibility Score: inf
ROOT
ATOM      1  C   UNL A   1      31.767  29.598  26.303  1.00  0.00     0.117 C 
ENDROOT
BRANCH   1   2
ATOM      2  N   UNL A   1      32.038  29.586  24.871  1.00  0.00    -0.354 N 
ATOM      3  C   UNL A   1      32.388  28.558  24.032  1.00  0.00     0.249 C 
ATOM      4  O   UNL A   1      32.554  28.847  22.845  1.00  0.00    -0.272 OA
ATOM      5  H   UNL A   1      31.955  30.463  24.433  1.00  0.00     0.163 HD
BRANCH   3   6
ATOM      6  C   UNL A   1      32.515  27.104  24.555  1.00  0.00     0.207 C 
ATOM      7  C   UNL A   1      31.830  25.123  23.492  1.00  0.00     0.138 C 
ATOM      8  C   UNL A   1      33.249  24.935  23.981  1.00  0.00     0.037 C 
ATOM      9  O   UNL A   1      31.368  26.260  24.259  1.00  0.00    -0.363 OA
ATOM     10  C   UNL A   1      33.711  26.361  23.985  1.00  0.00     0.045 C 
BRANCH   7  11
ATOM     11  C   UNL A   1      30.958  23.863  23.651  1.00  0.00     0.149 C 
BRANCH  11  12
ATOM     12  N   UNL A   1      30.350  23.806  24.979  1.00  0.00    -0.335 N 
ATOM     13  N   UNL A   1      31.713  22.593  26.554  1.00  0.00    -0.308 N 
ATOM     14  C   UNL A   1      30.684  23.373  26.196  1.00  0.00     0.319 C 
ATOM     15  H   UNL A   1      31.870  22.657  27.524  1.00  0.00     0.171 HD
ATOM     16  O   UNL A   1      29.976  23.788  27.125  1.00  0.00    -0.249 OA
ATOM     17  H   UNL A   1      29.446  24.194  24.974  1.00  0.00     0.165 HD
BRANCH  13  18
ATOM     18  C   UNL A   1      32.639  21.711  25.968  1.00  0.00     0.045 A 
ATOM     19  C   UNL A   1      34.635  22.980  27.009  1.00  0.00     0.046 C 
ATOM     20  C   UNL A   1      34.029  21.938  26.105  1.00  0.00    -0.027 A 
ATOM     21  C   UNL A   1      34.943  21.080  25.453  1.00  0.00     0.005 A 
ATOM     22  C   UNL A   1      34.504  20.002  24.694  1.00  0.00     0.000 A 
ATOM     23  C   UNL A   1      32.244  20.552  25.317  1.00  0.00     0.026 A 
ATOM     24  C   UNL A   1      33.150  19.722  24.649  1.00  0.00     0.002 A 
ENDBRANCH  13  18
ENDBRANCH  11  12
ENDBRANCH   7  11
ENDBRANCH   3   6
ENDBRANCH   1   2
BRANCH   1  25
ATOM     25  C   UNL A   1      32.513  30.722  27.030  1.00  0.00     0.042 C 
BRANCH  25  26
ATOM     26  C   UNL A   1      33.840  30.297  27.640  1.00  0.00     0.118 C 
BRANCH  26  27
ATOM     27  N   UNL A   1      34.438  31.293  28.529  1.00  0.00    -0.352 N 
ATOM     28  C   UNL A   1      35.620  31.181  29.243  1.00  0.00     0.251 C 
ATOM     29  H   UNL A   1      33.945  32.139  28.631  1.00  0.00     0.163 HD
ATOM     30  O   UNL A   1      36.036  32.094  29.946  1.00  0.00    -0.269 OA
BRANCH  28  31
ATOM     31  C   UNL A   1      36.421  29.957  29.041  1.00  0.00     0.039 A 
ATOM     32  C   UNL A   1      36.825  29.252  30.177  1.00  0.00     0.014 A 
ATOM     33  C   UNL A   1      37.020  29.738  27.802  1.00  0.00     0.014 A 
ATOM     34  C   UNL A   1      38.004  28.515  30.123  1.00  0.00     0.010 A 
ATOM     35  C   UNL A   1      38.234  29.080  27.771  1.00  0.00     0.010 A 
ATOM     36  C   UNL A   1      38.766  28.544  28.953  1.00  0.00    -0.014 A 
BRANCH  36  37
ATOM     37  C   UNL A   1      40.179  28.173  28.925  1.00  0.00     0.031 A 
ATOM     38  C   UNL A   1      40.596  26.824  28.495  1.00  0.00     0.074 A 
ATOM     39  C   UNL A   1      41.118  29.090  29.251  1.00  0.00     0.049 A 
ATOM     40  N   UNL A   1      41.743  26.291  28.756  1.00  0.00    -0.248 NA
ATOM     41  C   UNL A   1      39.694  25.925  27.789  1.00  0.00     0.031 C 
ATOM     42  C   UNL A   1      42.561  28.992  29.045  1.00  0.00     0.029 A 
ATOM     43  N   UNL A   1      40.960  30.229  30.061  1.00  0.00    -0.354 N 
ATOM     44  C   UNL A   1      41.839  25.114  28.051  1.00  0.00     0.074 A 
ATOM     45  C   UNL A   1      40.502  24.887  27.556  1.00  0.00     0.031 C 
ATOM     46  C   UNL A   1      43.175  29.780  29.939  1.00  0.00     0.029 A 
ATOM     47  C   UNL A   1      42.152  30.303  30.826  1.00  0.00     0.049 A 
ATOM     48  H   UNL A   1      40.189  30.840  30.091  1.00  0.00     0.167 HD
ATOM     49  C   UNL A   1      43.070  24.546  27.881  1.00  0.00     0.037 A 
ATOM     50  C   UNL A   1      42.132  30.163  32.183  1.00  0.00     0.037 A 
ATOM     51  C   UNL A   1      44.068  25.183  28.749  1.00  0.00     0.049 A 
ATOM     52  C   UNL A   1      42.946  29.003  32.714  1.00  0.00     0.074 A 
ATOM     53  C   UNL A   1      45.084  26.107  28.561  1.00  0.00     0.029 A 
ATOM     54  N   UNL A   1      43.920  25.060  30.122  1.00  0.00    -0.354 N 
ATOM     55  N   UNL A   1      43.540  28.119  31.963  1.00  0.00    -0.248 NA
ATOM     56  C   UNL A   1      43.057  28.687  34.141  1.00  0.00     0.031 C 
ATOM     57  C   UNL A   1      45.511  26.566  29.841  1.00  0.00     0.029 A 
ATOM     58  C   UNL A   1      44.760  25.919  30.803  1.00  0.00     0.049 A 
ATOM     59  H   UNL A   1      43.293  24.438  30.557  1.00  0.00     0.167 HD
ATOM     60  C   UNL A   1      44.045  27.125  32.754  1.00  0.00     0.074 A 
ATOM     61  C   UNL A   1      43.724  27.522  34.111  1.00  0.00     0.031 C 
ATOM     62  C   UNL A   1      44.653  26.017  32.248  1.00  0.00     0.037 A 
BRANCH  49  63
ATOM     63  C   UNL A   1      43.447  23.559  26.782  1.00  0.00     0.064 A 
ATOM     64  C   UNL A   1      43.021  22.212  26.857  1.00  0.00     0.173 A 
ATOM     65  C   UNL A   1      44.288  23.827  25.684  1.00  0.00     0.173 A 
ATOM     66  F   UNL A   1      42.144  21.804  27.784  1.00  0.00    -0.203 F 
ATOM     67  C   UNL A   1      43.479  21.219  25.981  1.00  0.00     0.198 A 
ATOM     68  C   UNL A   1      44.767  22.832  24.824  1.00  0.00     0.198 A 
ATOM     69  F   UNL A   1      44.653  25.062  25.347  1.00  0.00    -0.203 F 
ATOM     70  F   UNL A   1      43.052  19.957  26.125  1.00  0.00    -0.200 F 
ATOM     71  C   UNL A   1      44.376  21.524  24.981  1.00  0.00     0.200 A 
ATOM     72  F   UNL A   1      45.615  23.165  23.838  1.00  0.00    -0.200 F 
ATOM     73  F   UNL A   1      44.840  20.574  24.160  1.00  0.00    -0.200 F 
ENDBRANCH  49  63
BRANCH  50  74
ATOM     74  C   UNL A   1      40.882  30.675  32.802  1.00  0.00     0.064 A 
ATOM     75  C   UNL A   1      40.659  32.065  32.813  1.00  0.00     0.173 A 
ATOM     76  C   UNL A   1      39.786  29.840  33.042  1.00  0.00     0.173 A 
ATOM     77  F   UNL A   1      41.676  32.911  32.581  1.00  0.00    -0.203 F 
ATOM     78  C   UNL A   1      39.376  32.591  32.934  1.00  0.00     0.198 A 
ATOM     79  C   UNL A   1      38.505  30.372  33.187  1.00  0.00     0.198 A 
ATOM     80  F   UNL A   1      39.928  28.507  33.019  1.00  0.00    -0.203 F 
ATOM     81  F   UNL A   1      39.180  33.911  32.811  1.00  0.00    -0.200 F 
ATOM     82  C   UNL A   1      38.296  31.740  33.096  1.00  0.00     0.200 A 
ATOM     83  F   UNL A   1      37.454  29.548  33.311  1.00  0.00    -0.200 F 
ATOM     84  F   UNL A   1      37.051  32.235  33.117  1.00  0.00    -0.200 F 
ENDBRANCH  50  74
BRANCH  62  85
ATOM     85  C   UNL A   1      45.203  24.936  33.117  1.00  0.00     0.064 A 
ATOM     86  C   UNL A   1      46.543  24.932  33.532  1.00  0.00     0.173 A 
ATOM     87  C   UNL A   1      44.428  23.812  33.458  1.00  0.00     0.173 A 
ATOM     88  F   UNL A   1      47.353  25.958  33.229  1.00  0.00    -0.203 F 
ATOM     89  C   UNL A   1      47.074  23.867  34.260  1.00  0.00     0.198 A 
ATOM     90  C   UNL A   1      44.971  22.732  34.149  1.00  0.00     0.198 A 
ATOM     91  F   UNL A   1      43.124  23.752  33.145  1.00  0.00    -0.203 F 
ATOM     92  F   UNL A   1      48.349  23.913  34.673  1.00  0.00    -0.200 F 
ATOM     93  C   UNL A   1      46.292  22.762  34.554  1.00  0.00     0.200 A 
ATOM     94  F   UNL A   1      44.208  21.665  34.422  1.00  0.00    -0.200 F 
ATOM     95  F   UNL A   1      46.811  21.729  35.232  1.00  0.00    -0.200 F 
ENDBRANCH  62  85
ENDBRANCH  36  37
ENDBRANCH  28  31
ENDBRANCH  26  27
ENDBRANCH  25  26
ENDBRANCH   1  25
TORSDOF 13
ENDMDL
