MODEL 1
REMARK VINA RESULT:     -11.7      0.000      0.000
REMARK SMILES COC(=O)c1ccc([C@H]([NH3+])CC(=O)NCCCNC(=O)c2ccc(-c3c4nc(c(-c5c(F)c(F)c(F)c(F)c5F)c5ccc([nH]5)c(-c5c(F)c(F)c(F)c(F)c5F)c5nc(c(-c6c(F)c(F)c(F)c(F)c6F)c6ccc3[nH]6)C=C5)C=C4)cc2)cc1
REMARK SMILES IDX 15 1 14 2 12 3 13 4 11 6 9 7 8 8 5 9 6 10 85 11 7 12 84 13
REMARK SMILES IDX 3 14 4 15 2 16 1 17 10 18 16 22 17 23 18 24 19 25 20 27
REMARK SMILES IDX 21 28 22 29 83 30 23 31 82 32 24 33 25 34 26 35 76 36 27 37
REMARK SMILES IDX 81 38 75 39 77 40 28 41 80 42 74 43 73 44 29 46 61 47 41 48
REMARK SMILES IDX 60 49 42 50 45 51 59 52 78 53 43 54 44 55 58 57 79 58 46 59
REMARK SMILES IDX 30 60 31 61 39 62 32 63 33 64 37 65 40 66 34 67 35 68 38 69
REMARK SMILES IDX 36 70 62 71 63 72 71 73 64 74 65 75 69 76 72 77 66 78 67 79
REMARK SMILES IDX 70 80 68 81 47 82 48 83 56 84 49 85 50 86 54 87 57 88 51 89
REMARK SMILES IDX 52 90 55 91 53 92
REMARK H PARENT 14 5 10 19 10 20 10 21 18 26 77 45 45 56
REMARK Flexibility Score: inf
ROOT
ATOM      1  C   UNL A   1      35.840  21.253  24.901  1.00  0.00     0.117 C 
ENDROOT
BRANCH   1   2
ATOM      2  N   UNL A   1      35.633  22.239  23.856  1.00  0.00    -0.356 N 
ATOM      3  C   UNL A   1      34.460  22.783  23.419  1.00  0.00     0.226 C 
ATOM      4  O   UNL A   1      34.475  23.477  22.401  1.00  0.00    -0.275 OA
ATOM      5  H   UNL A   1      36.447  22.559  23.404  1.00  0.00     0.163 HD
BRANCH   3   6
ATOM      6  C   UNL A   1      33.191  22.574  24.211  1.00  0.00     0.170 C 
BRANCH   6   7
ATOM      7  C   UNL A   1      32.169  21.664  23.515  1.00  0.00     0.221 C 
BRANCH   7   8
ATOM      8  C   UNL A   1      32.442  20.208  23.858  1.00  0.00     0.010 A 
ATOM      9  C   UNL A   1      32.828  17.507  24.504  1.00  0.00     0.060 A 
ATOM     10  C   UNL A   1      32.775  18.472  25.517  1.00  0.00     0.016 A 
ATOM     11  C   UNL A   1      32.682  17.888  23.167  1.00  0.00     0.016 A 
ATOM     12  C   UNL A   1      32.586  19.816  25.195  1.00  0.00     0.011 A 
ATOM     13  C   UNL A   1      32.493  19.229  22.848  1.00  0.00     0.011 A 
BRANCH   9  14
ATOM     14  C   UNL A   1      33.027  16.088  24.884  1.00  0.00     0.337 C 
ATOM     15  O   UNL A   1      32.250  15.455  25.574  1.00  0.00    -0.246 OA
BRANCH  14  16
ATOM     16  O   UNL A   1      34.209  15.651  24.384  1.00  0.00    -0.465 OA
ATOM     17  C   UNL A   1      35.311  15.786  25.280  1.00  0.00     0.282 C 
ENDBRANCH  14  16
ENDBRANCH   9  14
ENDBRANCH   7   8
BRANCH   7  18
ATOM     18  N   UNL A   1      32.146  21.779  22.054  1.00  0.00    -0.351 N 
ATOM     19  H   UNL A   1      31.232  21.492  21.705  1.00  0.00     0.345 HD
ATOM     20  H   UNL A   1      32.868  21.179  21.655  1.00  0.00     0.345 HD
ATOM     21  H   UNL A   1      32.323  22.748  21.786  1.00  0.00     0.345 HD
ENDBRANCH   7  18
ENDBRANCH   6   7
ENDBRANCH   3   6
ENDBRANCH   1   2
BRANCH   1  22
ATOM     22  C   UNL A   1      37.192  20.564  24.757  1.00  0.00     0.042 C 
BRANCH  22  23
ATOM     23  C   UNL A   1      38.337  21.320  25.403  1.00  0.00     0.118 C 
BRANCH  23  24
ATOM     24  N   UNL A   1      39.182  20.456  26.210  1.00  0.00    -0.352 N 
ATOM     25  C   UNL A   1      40.323  20.743  26.914  1.00  0.00     0.251 C 
ATOM     26  H   UNL A   1      38.889  19.517  26.257  1.00  0.00     0.163 HD
ATOM     27  O   UNL A   1      41.014  19.823  27.343  1.00  0.00    -0.269 OA
BRANCH  25  28
ATOM     28  C   UNL A   1      40.738  22.145  27.149  1.00  0.00     0.039 A 
ATOM     29  C   UNL A   1      41.638  22.409  28.186  1.00  0.00     0.014 A 
ATOM     30  C   UNL A   1      40.226  23.201  26.391  1.00  0.00     0.014 A 
ATOM     31  C   UNL A   1      42.061  23.719  28.424  1.00  0.00     0.010 A 
ATOM     32  C   UNL A   1      40.722  24.490  26.563  1.00  0.00     0.010 A 
ATOM     33  C   UNL A   1      41.634  24.766  27.591  1.00  0.00    -0.014 A 
BRANCH  33  34
ATOM     34  C   UNL A   1      42.128  26.151  27.791  1.00  0.00     0.031 A 
ATOM     35  C   UNL A   1      43.472  26.564  27.258  1.00  0.00     0.074 A 
ATOM     36  C   UNL A   1      41.386  27.024  28.497  1.00  0.00     0.049 A 
ATOM     37  N   UNL A   1      44.087  27.716  27.362  1.00  0.00    -0.248 NA
ATOM     38  C   UNL A   1      44.242  25.539  26.537  1.00  0.00     0.031 C 
ATOM     39  C   UNL A   1      40.091  26.727  29.111  1.00  0.00     0.029 A 
ATOM     40  N   UNL A   1      41.615  28.338  28.823  1.00  0.00    -0.354 N 
ATOM     41  C   UNL A   1      45.311  27.550  26.729  1.00  0.00     0.074 A 
ATOM     42  C   UNL A   1      45.382  26.169  26.303  1.00  0.00     0.031 C 
ATOM     43  C   UNL A   1      39.627  27.832  29.716  1.00  0.00     0.029 A 
ATOM     44  C   UNL A   1      40.609  28.902  29.570  1.00  0.00     0.049 A 
ATOM     45  H   UNL A   1      42.423  28.829  28.549  1.00  0.00     0.167 HD
ATOM     46  C   UNL A   1      46.278  28.472  26.499  1.00  0.00     0.037 A 
ATOM     47  C   UNL A   1      40.495  30.139  30.086  1.00  0.00     0.037 A 
ATOM     48  C   UNL A   1      46.197  29.847  26.920  1.00  0.00     0.049 A 
ATOM     49  C   UNL A   1      41.587  31.143  29.832  1.00  0.00     0.074 A 
ATOM     50  C   UNL A   1      47.095  30.874  26.691  1.00  0.00     0.029 A 
ATOM     51  N   UNL A   1      45.159  30.384  27.668  1.00  0.00    -0.354 N 
ATOM     52  N   UNL A   1      42.706  30.997  29.166  1.00  0.00    -0.248 NA
ATOM     53  C   UNL A   1      41.396  32.485  30.397  1.00  0.00     0.031 C 
ATOM     54  C   UNL A   1      46.632  32.016  27.351  1.00  0.00     0.029 A 
ATOM     55  C   UNL A   1      45.411  31.721  27.937  1.00  0.00     0.049 A 
ATOM     56  H   UNL A   1      44.363  29.889  27.966  1.00  0.00     0.167 HD
ATOM     57  C   UNL A   1      43.342  32.230  29.210  1.00  0.00     0.074 A 
ATOM     58  C   UNL A   1      42.471  33.118  29.952  1.00  0.00     0.031 C 
ATOM     59  C   UNL A   1      44.537  32.593  28.683  1.00  0.00     0.037 A 
BRANCH  46  60
ATOM     60  C   UNL A   1      47.508  28.016  25.764  1.00  0.00     0.064 A 
ATOM     61  C   UNL A   1      48.703  27.716  26.439  1.00  0.00     0.173 A 
ATOM     62  C   UNL A   1      47.492  27.864  24.369  1.00  0.00     0.173 A 
ATOM     63  F   UNL A   1      48.778  27.852  27.771  1.00  0.00    -0.203 F 
ATOM     64  C   UNL A   1      49.843  27.323  25.743  1.00  0.00     0.198 A 
ATOM     65  C   UNL A   1      48.623  27.434  23.680  1.00  0.00     0.198 A 
ATOM     66  F   UNL A   1      46.376  28.129  23.673  1.00  0.00    -0.203 F 
ATOM     67  F   UNL A   1      50.989  27.105  26.404  1.00  0.00    -0.200 F 
ATOM     68  C   UNL A   1      49.801  27.176  24.364  1.00  0.00     0.200 A 
ATOM     69  F   UNL A   1      48.576  27.279  22.350  1.00  0.00    -0.200 F 
ATOM     70  F   UNL A   1      50.897  26.796  23.695  1.00  0.00    -0.200 F 
ENDBRANCH  46  60
BRANCH  47  71
ATOM     71  C   UNL A   1      39.287  30.499  30.874  1.00  0.00     0.064 A 
ATOM     72  C   UNL A   1      39.234  30.281  32.257  1.00  0.00     0.173 A 
ATOM     73  C   UNL A   1      38.170  31.088  30.262  1.00  0.00     0.173 A 
ATOM     74  F   UNL A   1      40.270  29.704  32.883  1.00  0.00    -0.203 F 
ATOM     75  C   UNL A   1      38.104  30.626  32.997  1.00  0.00     0.198 A 
ATOM     76  C   UNL A   1      37.053  31.460  31.009  1.00  0.00     0.198 A 
ATOM     77  F   UNL A   1      38.172  31.326  28.943  1.00  0.00    -0.203 F 
ATOM     78  F   UNL A   1      38.065  30.371  34.311  1.00  0.00    -0.200 F 
ATOM     79  C   UNL A   1      37.019  31.223  32.374  1.00  0.00     0.200 A 
ATOM     80  F   UNL A   1      36.015  32.055  30.406  1.00  0.00    -0.200 F 
ATOM     81  F   UNL A   1      35.938  31.565  33.088  1.00  0.00    -0.200 F 
ENDBRANCH  47  71
BRANCH  59  82
ATOM     82  C   UNL A   1      44.965  34.022  28.869  1.00  0.00     0.064 A 
ATOM     83  C   UNL A   1      45.745  34.423  29.963  1.00  0.00     0.173 A 
ATOM     84  C   UNL A   1      44.615  34.996  27.921  1.00  0.00     0.173 A 
ATOM     85  F   UNL A   1      46.094  33.535  30.907  1.00  0.00    -0.203 F 
ATOM     86  C   UNL A   1      46.134  35.752  30.117  1.00  0.00     0.198 A 
ATOM     87  C   UNL A   1      45.036  36.316  28.059  1.00  0.00     0.198 A 
ATOM     88  F   UNL A   1      43.876  34.666  26.851  1.00  0.00    -0.203 F 
ATOM     89  F   UNL A   1      46.832  36.123  31.200  1.00  0.00    -0.200 F 
ATOM     90  C   UNL A   1      45.786  36.695  29.162  1.00  0.00     0.200 A 
ATOM     91  F   UNL A   1      44.712  37.221  27.126  1.00  0.00    -0.200 F 
ATOM     92  F   UNL A   1      46.167  37.971  29.309  1.00  0.00    -0.200 F 
ENDBRANCH  59  82
ENDBRANCH  33  34
ENDBRANCH  25  28
ENDBRANCH  23  24
ENDBRANCH  22  23
ENDBRANCH   1  22
TORSDOF 15
ENDMDL
MODEL 2
REMARK VINA RESULT:     -11.6      5.896     11.306
REMARK SMILES COC(=O)c1ccc([C@H]([NH3+])CC(=O)NCCCNC(=O)c2ccc(-c3c4nc(c(-c5c(F)c(F)c(F)c(F)c5F)c5ccc([nH]5)c(-c5c(F)c(F)c(F)c(F)c5F)c5nc(c(-c6c(F)c(F)c(F)c(F)c6F)c6ccc3[nH]6)C=C5)C=C4)cc2)cc1
REMARK SMILES IDX 15 1 14 2 12 3 13 4 11 6 9 7 8 8 5 9 6 10 85 11 7 12 84 13
REMARK SMILES IDX 3 14 4 15 2 16 1 17 10 18 16 22 17 23 18 24 19 25 20 27
REMARK SMILES IDX 21 28 22 29 83 30 23 31 82 32 24 33 25 34 26 35 76 36 27 37
REMARK SMILES IDX 81 38 75 39 77 40 28 41 80 42 74 43 73 44 29 46 61 47 41 48
REMARK SMILES IDX 60 49 42 50 45 51 59 52 78 53 43 54 44 55 58 57 79 58 46 59
REMARK SMILES IDX 30 60 31 61 39 62 32 63 33 64 37 65 40 66 34 67 35 68 38 69
REMARK SMILES IDX 36 70 62 71 63 72 71 73 64 74 65 75 69 76 72 77 66 78 67 79
REMARK SMILES IDX 70 80 68 81 47 82 48 83 56 84 49 85 50 86 54 87 57 88 51 89
REMARK SMILES IDX 52 90 55 91 53 92
REMARK H PARENT 14 5 10 19 10 20 10 21 18 26 77 45 45 56
REMARK Flexibility Score: inf
ROOT
ATOM      1  C   UNL A   1      35.564  33.681  30.574  1.00  0.00     0.117 C 
ENDROOT
BRANCH   1   2
ATOM      2  N   UNL A   1      35.056  34.817  31.321  1.00  0.00    -0.356 N 
ATOM      3  C   UNL A   1      35.496  35.320  32.511  1.00  0.00     0.226 C 
ATOM      4  O   UNL A   1      34.823  36.186  33.072  1.00  0.00    -0.275 OA
ATOM      5  H   UNL A   1      34.293  35.289  30.914  1.00  0.00     0.163 HD
BRANCH   3   6
ATOM      6  C   UNL A   1      36.813  34.853  33.085  1.00  0.00     0.170 C 
BRANCH   6   7
ATOM      7  C   UNL A   1      36.666  33.906  34.283  1.00  0.00     0.221 C 
BRANCH   7   8
ATOM      8  C   UNL A   1      37.416  32.609  34.024  1.00  0.00     0.010 A 
ATOM      9  C   UNL A   1      38.756  30.174  33.647  1.00  0.00     0.060 A 
ATOM     10  C   UNL A   1      39.356  31.200  34.388  1.00  0.00     0.016 A 
ATOM     11  C   UNL A   1      37.484  30.359  33.100  1.00  0.00     0.016 A 
ATOM     12  C   UNL A   1      38.690  32.413  34.572  1.00  0.00     0.011 A 
ATOM     13  C   UNL A   1      36.822  31.570  33.284  1.00  0.00     0.011 A 
BRANCH   9  14
ATOM     14  C   UNL A   1      39.492  28.899  33.476  1.00  0.00     0.337 C 
ATOM     15  O   UNL A   1      39.101  27.976  32.786  1.00  0.00    -0.246 OA
BRANCH  14  16
ATOM     16  O   UNL A   1      40.615  28.924  34.236  1.00  0.00    -0.465 OA
ATOM     17  C   UNL A   1      41.664  28.084  33.758  1.00  0.00     0.282 C 
ENDBRANCH  14  16
ENDBRANCH   9  14
ENDBRANCH   7   8
BRANCH   7  18
ATOM     18  N   UNL A   1      35.282  33.558  34.618  1.00  0.00    -0.351 N 
ATOM     19  H   UNL A   1      35.096  33.803  35.591  1.00  0.00     0.345 HD
ATOM     20  H   UNL A   1      35.142  32.556  34.488  1.00  0.00     0.345 HD
ATOM     21  H   UNL A   1      34.645  34.072  34.010  1.00  0.00     0.345 HD
ENDBRANCH   7  18
ENDBRANCH   6   7
ENDBRANCH   3   6
ENDBRANCH   1   2
BRANCH   1  22
ATOM     22  C   UNL A   1      34.430  32.832  30.011  1.00  0.00     0.042 C 
BRANCH  22  23
ATOM     23  C   UNL A   1      34.514  32.611  28.513  1.00  0.00     0.118 C 
BRANCH  23  24
ATOM     24  N   UNL A   1      33.904  31.356  28.108  1.00  0.00    -0.352 N 
ATOM     25  C   UNL A   1      34.478  30.137  27.850  1.00  0.00     0.251 C 
ATOM     26  H   UNL A   1      32.926  31.386  28.001  1.00  0.00     0.163 HD
ATOM     27  O   UNL A   1      33.815  29.263  27.298  1.00  0.00    -0.269 OA
BRANCH  25  28
ATOM     28  C   UNL A   1      35.888  29.869  28.214  1.00  0.00     0.039 A 
ATOM     29  C   UNL A   1      36.165  29.378  29.493  1.00  0.00     0.014 A 
ATOM     30  C   UNL A   1      36.938  30.130  27.330  1.00  0.00     0.014 A 
ATOM     31  C   UNL A   1      37.483  29.101  29.862  1.00  0.00     0.010 A 
ATOM     32  C   UNL A   1      38.239  29.761  27.661  1.00  0.00     0.010 A 
ATOM     33  C   UNL A   1      38.528  29.257  28.937  1.00  0.00    -0.014 A 
BRANCH  33  34
ATOM     34  C   UNL A   1      39.925  28.903  29.294  1.00  0.00     0.031 A 
ATOM     35  C   UNL A   1      40.756  29.834  30.133  1.00  0.00     0.074 A 
ATOM     36  C   UNL A   1      40.462  27.763  28.819  1.00  0.00     0.049 A 
ATOM     37  N   UNL A   1      42.002  29.714  30.519  1.00  0.00    -0.248 NA
ATOM     38  C   UNL A   1      40.111  31.080  30.575  1.00  0.00     0.031 C 
ATOM     39  C   UNL A   1      39.775  26.806  27.951  1.00  0.00     0.029 A 
ATOM     40  N   UNL A   1      41.709  27.218  28.994  1.00  0.00    -0.354 N 
ATOM     41  C   UNL A   1      42.288  30.865  31.238  1.00  0.00     0.074 A 
ATOM     42  C   UNL A   1      41.110  31.703  31.179  1.00  0.00     0.031 C 
ATOM     43  C   UNL A   1      40.600  25.779  27.691  1.00  0.00     0.029 A 
ATOM     44  C   UNL A   1      41.885  26.025  28.337  1.00  0.00     0.049 A 
ATOM     45  H   UNL A   1      42.412  27.643  29.537  1.00  0.00     0.167 HD
ATOM     46  C   UNL A   1      43.421  31.185  31.910  1.00  0.00     0.037 A 
ATOM     47  C   UNL A   1      42.963  25.223  28.258  1.00  0.00     0.037 A 
ATOM     48  C   UNL A   1      44.587  30.342  31.970  1.00  0.00     0.049 A 
ATOM     49  C   UNL A   1      44.215  25.604  28.999  1.00  0.00     0.074 A 
ATOM     50  C   UNL A   1      45.765  30.547  32.667  1.00  0.00     0.029 A 
ATOM     51  N   UNL A   1      44.726  29.136  31.298  1.00  0.00    -0.354 N 
ATOM     52  N   UNL A   1      44.450  26.660  29.739  1.00  0.00    -0.248 NA
ATOM     53  C   UNL A   1      45.351  24.679  28.898  1.00  0.00     0.031 C 
ATOM     54  C   UNL A   1      46.639  29.496  32.368  1.00  0.00     0.029 A 
ATOM     55  C   UNL A   1      45.982  28.601  31.538  1.00  0.00     0.049 A 
ATOM     56  H   UNL A   1      44.034  28.722  30.733  1.00  0.00     0.167 HD
ATOM     57  C   UNL A   1      45.748  26.516  30.211  1.00  0.00     0.074 A 
ATOM     58  C   UNL A   1      46.241  25.259  29.689  1.00  0.00     0.031 C 
ATOM     59  C   UNL A   1      46.464  27.350  31.006  1.00  0.00     0.037 A 
BRANCH  46  60
ATOM     60  C   UNL A   1      43.451  32.507  32.627  1.00  0.00     0.064 A 
ATOM     61  C   UNL A   1      43.031  32.633  33.962  1.00  0.00     0.173 A 
ATOM     62  C   UNL A   1      43.917  33.660  31.979  1.00  0.00     0.173 A 
ATOM     63  F   UNL A   1      42.567  31.565  34.628  1.00  0.00    -0.203 F 
ATOM     64  C   UNL A   1      43.037  33.869  34.604  1.00  0.00     0.198 A 
ATOM     65  C   UNL A   1      43.958  34.887  32.636  1.00  0.00     0.198 A 
ATOM     66  F   UNL A   1      44.338  33.598  30.707  1.00  0.00    -0.203 F 
ATOM     67  F   UNL A   1      42.570  33.975  35.856  1.00  0.00    -0.200 F 
ATOM     68  C   UNL A   1      43.506  34.994  33.943  1.00  0.00     0.200 A 
ATOM     69  F   UNL A   1      44.426  35.970  32.001  1.00  0.00    -0.200 F 
ATOM     70  F   UNL A   1      43.514  36.182  34.561  1.00  0.00    -0.200 F 
ENDBRANCH  46  60
BRANCH  47  71
ATOM     71  C   UNL A   1      42.890  23.969  27.463  1.00  0.00     0.064 A 
ATOM     72  C   UNL A   1      43.260  23.947  26.112  1.00  0.00     0.173 A 
ATOM     73  C   UNL A   1      42.469  22.764  28.045  1.00  0.00     0.173 A 
ATOM     74  F   UNL A   1      43.652  25.078  25.507  1.00  0.00    -0.203 F 
ATOM     75  C   UNL A   1      43.200  22.769  25.368  1.00  0.00     0.198 A 
ATOM     76  C   UNL A   1      42.438  21.581  27.308  1.00  0.00     0.198 A 
ATOM     77  F   UNL A   1      42.112  22.729  29.337  1.00  0.00    -0.203 F 
ATOM     78  F   UNL A   1      43.522  22.784  24.069  1.00  0.00    -0.200 F 
ATOM     79  C   UNL A   1      42.797  21.586  25.970  1.00  0.00     0.200 A 
ATOM     80  F   UNL A   1      42.068  20.437  27.898  1.00  0.00    -0.200 F 
ATOM     81  F   UNL A   1      42.751  20.453  25.257  1.00  0.00    -0.200 F 
ENDBRANCH  47  71
BRANCH  59  82
ATOM     82  C   UNL A   1      47.853  26.917  31.380  1.00  0.00     0.064 A 
ATOM     83  C   UNL A   1      48.979  27.340  30.658  1.00  0.00     0.173 A 
ATOM     84  C   UNL A   1      48.063  26.094  32.497  1.00  0.00     0.173 A 
ATOM     85  F   UNL A   1      48.833  28.115  29.572  1.00  0.00    -0.203 F 
ATOM     86  C   UNL A   1      50.259  26.930  31.022  1.00  0.00     0.198 A 
ATOM     87  C   UNL A   1      49.347  25.716  32.879  1.00  0.00     0.198 A 
ATOM     88  F   UNL A   1      47.022  25.666  33.228  1.00  0.00    -0.203 F 
ATOM     89  F   UNL A   1      51.315  27.301  30.283  1.00  0.00    -0.200 F 
ATOM     90  C   UNL A   1      50.443  26.125  32.136  1.00  0.00     0.200 A 
ATOM     91  F   UNL A   1      49.523  24.951  33.966  1.00  0.00    -0.200 F 
ATOM     92  F   UNL A   1      51.677  25.738  32.488  1.00  0.00    -0.200 F 
ENDBRANCH  59  82
ENDBRANCH  33  34
ENDBRANCH  25  28
ENDBRANCH  23  24
ENDBRANCH  22  23
ENDBRANCH   1  22
TORSDOF 15
ENDMDL
MODEL 3
REMARK VINA RESULT:     -11.6      4.007      6.993
REMARK SMILES COC(=O)c1ccc([C@H]([NH3+])CC(=O)NCCCNC(=O)c2ccc(-c3c4nc(c(-c5c(F)c(F)c(F)c(F)c5F)c5ccc([nH]5)c(-c5c(F)c(F)c(F)c(F)c5F)c5nc(c(-c6c(F)c(F)c(F)c(F)c6F)c6ccc3[nH]6)C=C5)C=C4)cc2)cc1
REMARK SMILES IDX 15 1 14 2 12 3 13 4 11 6 9 7 8 8 5 9 6 10 85 11 7 12 84 13
REMARK SMILES IDX 3 14 4 15 2 16 1 17 10 18 16 22 17 23 18 24 19 25 20 27
REMARK SMILES IDX 21 28 22 29 83 30 23 31 82 32 24 33 25 34 26 35 76 36 27 37
REMARK SMILES IDX 81 38 75 39 77 40 28 41 80 42 74 43 73 44 29 46 61 47 41 48
REMARK SMILES IDX 60 49 42 50 45 51 59 52 78 53 43 54 44 55 58 57 79 58 46 59
REMARK SMILES IDX 30 60 31 61 39 62 32 63 33 64 37 65 40 66 34 67 35 68 38 69
REMARK SMILES IDX 36 70 62 71 63 72 71 73 64 74 65 75 69 76 72 77 66 78 67 79
REMARK SMILES IDX 70 80 68 81 47 82 48 83 56 84 49 85 50 86 54 87 57 88 51 89
REMARK SMILES IDX 52 90 55 91 53 92
REMARK H PARENT 14 5 10 19 10 20 10 21 18 26 77 45 45 56
REMARK Flexibility Score: inf
ROOT
ATOM      1  C   UNL A   1      41.377  19.446  26.209  1.00  0.00     0.117 C 
ENDROOT
BRANCH   1   2
ATOM      2  N   UNL A   1      42.611  18.706  26.016  1.00  0.00    -0.356 N 
ATOM      3  C   UNL A   1      43.730  19.081  25.331  1.00  0.00     0.226 C 
ATOM      4  O   UNL A   1      44.610  18.241  25.134  1.00  0.00    -0.275 OA
ATOM      5  H   UNL A   1      42.645  17.817  26.437  1.00  0.00     0.163 HD
BRANCH   3   6
ATOM      6  C   UNL A   1      43.894  20.513  24.881  1.00  0.00     0.170 C 
BRANCH   6   7
ATOM      7  C   UNL A   1      45.264  21.115  25.219  1.00  0.00     0.221 C 
BRANCH   7   8
ATOM      8  C   UNL A   1      45.188  22.634  25.212  1.00  0.00     0.010 A 
ATOM      9  C   UNL A   1      45.044  25.431  25.081  1.00  0.00     0.060 A 
ATOM     10  C   UNL A   1      46.286  24.787  25.022  1.00  0.00     0.016 A 
ATOM     11  C   UNL A   1      43.872  24.679  25.198  1.00  0.00     0.016 A 
ATOM     12  C   UNL A   1      46.357  23.395  25.090  1.00  0.00     0.011 A 
ATOM     13  C   UNL A   1      43.945  23.291  25.267  1.00  0.00     0.011 A 
BRANCH   9  14
ATOM     14  C   UNL A   1      45.007  26.910  25.002  1.00  0.00     0.337 C 
ATOM     15  O   UNL A   1      44.107  27.593  25.454  1.00  0.00    -0.246 OA
BRANCH  14  16
ATOM     16  O   UNL A   1      46.092  27.350  24.317  1.00  0.00    -0.465 OA
ATOM     17  C   UNL A   1      46.825  28.379  24.980  1.00  0.00     0.282 C 
ENDBRANCH  14  16
ENDBRANCH   9  14
ENDBRANCH   7   8
BRANCH   7  18
ATOM     18  N   UNL A   1      46.344  20.721  24.308  1.00  0.00    -0.351 N 
ATOM     19  H   UNL A   1      47.230  20.716  24.814  1.00  0.00     0.345 HD
ATOM     20  H   UNL A   1      46.396  21.385  23.536  1.00  0.00     0.345 HD
ATOM     21  H   UNL A   1      46.156  19.788  23.942  1.00  0.00     0.345 HD
ENDBRANCH   7  18
ENDBRANCH   6   7
ENDBRANCH   3   6
ENDBRANCH   1   2
BRANCH   1  22
ATOM     22  C   UNL A   1      41.335  20.112  27.581  1.00  0.00     0.042 C 
BRANCH  22  23
ATOM     23  C   UNL A   1      40.836  21.544  27.551  1.00  0.00     0.118 C 
BRANCH  23  24
ATOM     24  N   UNL A   1      39.717  21.717  26.641  1.00  0.00    -0.352 N 
ATOM     25  C   UNL A   1      38.937  22.819  26.400  1.00  0.00     0.251 C 
ATOM     26  H   UNL A   1      39.481  20.919  26.117  1.00  0.00     0.163 HD
ATOM     27  O   UNL A   1      37.896  22.693  25.761  1.00  0.00    -0.269 OA
BRANCH  25  28
ATOM     28  C   UNL A   1      39.325  24.153  26.913  1.00  0.00     0.039 A 
ATOM     29  C   UNL A   1      38.986  24.487  28.227  1.00  0.00     0.014 A 
ATOM     30  C   UNL A   1      39.981  25.088  26.109  1.00  0.00     0.014 A 
ATOM     31  C   UNL A   1      39.352  25.730  28.747  1.00  0.00     0.010 A 
ATOM     32  C   UNL A   1      40.432  26.286  26.655  1.00  0.00     0.010 A 
ATOM     33  C   UNL A   1      40.109  26.627  27.976  1.00  0.00    -0.014 A 
BRANCH  33  34
ATOM     34  C   UNL A   1      40.561  27.925  28.538  1.00  0.00     0.031 A 
ATOM     35  C   UNL A   1      42.005  28.136  28.900  1.00  0.00     0.074 A 
ATOM     36  C   UNL A   1      39.659  28.898  28.769  1.00  0.00     0.049 A 
ATOM     37  N   UNL A   1      42.583  29.184  29.432  1.00  0.00    -0.248 NA
ATOM     38  C   UNL A   1      42.920  27.008  28.659  1.00  0.00     0.031 C 
ATOM     39  C   UNL A   1      38.223  28.794  28.511  1.00  0.00     0.029 A 
ATOM     40  N   UNL A   1      39.816  30.163  29.278  1.00  0.00    -0.354 N 
ATOM     41  C   UNL A   1      43.917  28.840  29.594  1.00  0.00     0.074 A 
ATOM     42  C   UNL A   1      44.053  27.464  29.168  1.00  0.00     0.031 C 
ATOM     43  C   UNL A   1      37.633  29.955  28.838  1.00  0.00     0.029 A 
ATOM     44  C   UNL A   1      38.641  30.868  29.366  1.00  0.00     0.049 A 
ATOM     45  H   UNL A   1      40.687  30.529  29.554  1.00  0.00     0.167 HD
ATOM     46  C   UNL A   1      44.943  29.610  30.032  1.00  0.00     0.037 A 
ATOM     47  C   UNL A   1      38.401  32.109  29.829  1.00  0.00     0.037 A 
ATOM     48  C   UNL A   1      44.802  30.981  30.448  1.00  0.00     0.049 A 
ATOM     49  C   UNL A   1      39.551  32.940  30.327  1.00  0.00     0.074 A 
ATOM     50  C   UNL A   1      45.784  31.865  30.858  1.00  0.00     0.029 A 
ATOM     51  N   UNL A   1      43.596  31.665  30.518  1.00  0.00    -0.354 N 
ATOM     52  N   UNL A   1      40.823  32.632  30.404  1.00  0.00    -0.248 NA
ATOM     53  C   UNL A   1      39.234  34.296  30.795  1.00  0.00     0.031 C 
ATOM     54  C   UNL A   1      45.167  33.063  31.233  1.00  0.00     0.029 A 
ATOM     55  C   UNL A   1      43.807  32.950  30.995  1.00  0.00     0.049 A 
ATOM     56  H   UNL A   1      42.720  31.292  30.267  1.00  0.00     0.167 HD
ATOM     57  C   UNL A   1      41.461  33.758  30.906  1.00  0.00     0.074 A 
ATOM     58  C   UNL A   1      40.437  34.764  31.095  1.00  0.00     0.031 C 
ATOM     59  C   UNL A   1      42.776  33.941  31.184  1.00  0.00     0.037 A 
BRANCH  46  60
ATOM     60  C   UNL A   1      46.307  28.978  30.090  1.00  0.00     0.064 A 
ATOM     61  C   UNL A   1      46.741  28.260  31.217  1.00  0.00     0.173 A 
ATOM     62  C   UNL A   1      47.188  29.079  29.003  1.00  0.00     0.173 A 
ATOM     63  F   UNL A   1      45.944  28.139  32.289  1.00  0.00    -0.203 F 
ATOM     64  C   UNL A   1      48.017  27.705  31.268  1.00  0.00     0.198 A 
ATOM     65  C   UNL A   1      48.449  28.490  29.042  1.00  0.00     0.198 A 
ATOM     66  F   UNL A   1      46.824  29.746  27.897  1.00  0.00    -0.203 F 
ATOM     67  F   UNL A   1      48.431  27.081  32.380  1.00  0.00    -0.200 F 
ATOM     68  C   UNL A   1      48.868  27.815  30.179  1.00  0.00     0.200 A 
ATOM     69  F   UNL A   1      49.264  28.585  27.983  1.00  0.00    -0.200 F 
ATOM     70  F   UNL A   1      50.095  27.279  30.227  1.00  0.00    -0.200 F 
ENDBRANCH  46  60
BRANCH  47  71
ATOM     71  C   UNL A   1      37.013  32.642  29.819  1.00  0.00     0.064 A 
ATOM     72  C   UNL A   1      36.171  32.487  30.928  1.00  0.00     0.173 A 
ATOM     73  C   UNL A   1      36.510  33.337  28.709  1.00  0.00     0.173 A 
ATOM     74  F   UNL A   1      36.600  31.814  32.006  1.00  0.00    -0.203 F 
ATOM     75  C   UNL A   1      34.872  32.994  30.922  1.00  0.00     0.198 A 
ATOM     76  C   UNL A   1      35.223  33.870  28.716  1.00  0.00     0.198 A 
ATOM     77  F   UNL A   1      37.279  33.521  27.626  1.00  0.00    -0.203 F 
ATOM     78  F   UNL A   1      34.075  32.797  31.980  1.00  0.00    -0.200 F 
ATOM     79  C   UNL A   1      34.403  33.692  29.820  1.00  0.00     0.200 A 
ATOM     80  F   UNL A   1      34.780  34.562  27.658  1.00  0.00    -0.200 F 
ATOM     81  F   UNL A   1      33.159  34.190  29.820  1.00  0.00    -0.200 F 
ENDBRANCH  47  71
BRANCH  59  82
ATOM     82  C   UNL A   1      43.187  35.291  31.700  1.00  0.00     0.064 A 
ATOM     83  C   UNL A   1      43.121  35.612  33.064  1.00  0.00     0.173 A 
ATOM     84  C   UNL A   1      43.685  36.265  30.821  1.00  0.00     0.173 A 
ATOM     85  F   UNL A   1      42.639  34.722  33.946  1.00  0.00    -0.203 F 
ATOM     86  C   UNL A   1      43.509  36.868  33.524  1.00  0.00     0.198 A 
ATOM     87  C   UNL A   1      44.106  37.507  31.289  1.00  0.00     0.198 A 
ATOM     88  F   UNL A   1      43.776  36.009  29.507  1.00  0.00    -0.203 F 
ATOM     89  F   UNL A   1      43.384  37.171  34.824  1.00  0.00    -0.200 F 
ATOM     90  C   UNL A   1      44.009  37.811  32.638  1.00  0.00     0.200 A 
ATOM     91  F   UNL A   1      44.603  38.410  30.433  1.00  0.00    -0.200 F 
ATOM     92  F   UNL A   1      44.388  39.016  33.085  1.00  0.00    -0.200 F 
ENDBRANCH  59  82
ENDBRANCH  33  34
ENDBRANCH  25  28
ENDBRANCH  23  24
ENDBRANCH  22  23
ENDBRANCH   1  22
TORSDOF 15
ENDMDL
