MODEL 1
REMARK VINA RESULT:     -12.8      0.000      0.000
REMARK SMILES Cc1cc(=O)oc2cc(O[C@@H](C)C(=O)N[C@H](CC(C)C)C(=O)NCCCNC(=O)c3ccc(-c4c5nc(c(-c6c(F)c(F)c(F)c(F)c6F)c6ccc([nH]6)c(-c6c(F)c(F)c(F)c(F)c6F)c6nc(c(-c7c(F)c(F)c(F)c(F)c7F)c7ccc4[nH]7)C=C6)C=C5)cc3)ccc12
REMARK SMILES IDX 24 1 23 2 21 3 22 4 16 6 15 7 13 8 14 9 11 11 12 12 10 13
REMARK SMILES IDX 9 14 1 15 2 16 3 17 95 18 4 19 7 20 94 21 5 22 6 23 8 24
REMARK SMILES IDX 93 25 17 26 18 27 19 28 20 29 25 30 26 31 27 32 28 33 29 35
REMARK SMILES IDX 30 36 31 37 92 38 32 39 91 40 33 41 34 42 35 43 85 44 36 45
REMARK SMILES IDX 90 46 84 47 86 48 37 49 89 50 83 51 82 52 38 54 70 55 50 56
REMARK SMILES IDX 69 57 51 58 54 59 68 60 87 61 52 62 53 63 67 65 88 66 55 67
REMARK SMILES IDX 39 68 40 69 48 70 41 71 42 72 46 73 49 74 43 75 44 76 47 77
REMARK SMILES IDX 45 78 71 79 72 80 80 81 73 82 74 83 78 84 81 85 75 86 76 87
REMARK SMILES IDX 79 88 77 89 56 90 57 91 65 92 58 93 59 94 63 95 66 96 60 97
REMARK SMILES IDX 61 98 64 99 62 100
REMARK H PARENT 23 5 15 10 27 34 86 53 54 64
REMARK Flexibility Score: inf
ROOT
ATOM      1  C   UNL A   1      31.716  30.829  26.074  1.00  0.00     0.117 C 
ENDROOT
BRANCH   1   2
ATOM      2  N   UNL A   1      31.791  29.890  27.180  1.00  0.00    -0.354 N 
ATOM      3  C   UNL A   1      31.725  28.534  27.165  1.00  0.00     0.242 C 
ATOM      4  O   UNL A   1      31.035  27.983  28.021  1.00  0.00    -0.273 OA
ATOM      5  H   UNL A   1      31.906  30.297  28.069  1.00  0.00     0.163 HD
BRANCH   3   6
ATOM      6  C   UNL A   1      32.220  27.730  25.986  1.00  0.00     0.171 C 
BRANCH   6   7
ATOM      7  N   UNL A   1      31.625  28.296  24.781  1.00  0.00    -0.341 N 
ATOM      8  C   UNL A   1      31.933  28.129  23.454  1.00  0.00     0.261 C 
ATOM      9  O   UNL A   1      31.174  28.743  22.685  1.00  0.00    -0.271 OA
ATOM     10  H   UNL A   1      30.871  28.906  24.950  1.00  0.00     0.164 HD
BRANCH   8  11
ATOM     11  C   UNL A   1      33.101  27.230  22.802  1.00  0.00     0.258 C 
ATOM     12  C   UNL A   1      34.037  28.100  21.968  1.00  0.00     0.064 C 
BRANCH  11  13
ATOM     13  O   UNL A   1      33.068  25.833  22.475  1.00  0.00    -0.481 OA
BRANCH  13  14
ATOM     14  C   UNL A   1      33.698  24.820  23.136  1.00  0.00     0.124 A 
ATOM     15  C   UNL A   1      34.318  22.591  27.747  1.00  0.00     0.045 C 
ATOM     16  C   UNL A   1      34.019  22.128  26.351  1.00  0.00    -0.033 A 
ATOM     17  C   UNL A   1      33.258  21.040  26.147  1.00  0.00     0.098 A 
ATOM     18  C   UNL A   1      34.310  22.985  25.182  1.00  0.00     0.021 A 
ATOM     19  C   UNL A   1      32.784  20.615  24.816  1.00  0.00     0.336 A 
ATOM     20  C   UNL A   1      33.845  22.565  23.930  1.00  0.00     0.142 A 
ATOM     21  C   UNL A   1      34.749  24.307  25.286  1.00  0.00     0.016 A 
ATOM     22  O   UNL A   1      31.990  19.700  24.694  1.00  0.00    -0.246 OA
ATOM     23  O   UNL A   1      33.340  21.267  23.729  1.00  0.00    -0.423 OA
ATOM     24  C   UNL A   1      33.574  23.465  22.892  1.00  0.00     0.094 A 
ATOM     25  C   UNL A   1      34.450  25.218  24.254  1.00  0.00     0.047 A 
ENDBRANCH  13  14
ENDBRANCH  11  13
ENDBRANCH   8  11
ENDBRANCH   6   7
BRANCH   6  26
ATOM     26  C   UNL A   1      31.773  26.334  26.511  1.00  0.00     0.038 C 
BRANCH  26  27
ATOM     27  C   UNL A   1      31.059  25.234  25.737  1.00  0.00    -0.015 C 
ATOM     28  C   UNL A   1      30.939  23.929  26.502  1.00  0.00     0.007 C 
ATOM     29  C   UNL A   1      29.643  25.787  25.436  1.00  0.00     0.007 C 
ENDBRANCH  26  27
ENDBRANCH   6  26
ENDBRANCH   3   6
ENDBRANCH   1   2
BRANCH   1  30
ATOM     30  C   UNL A   1      31.423  32.200  26.665  1.00  0.00     0.042 C 
BRANCH  30  31
ATOM     31  C   UNL A   1      32.677  32.808  27.281  1.00  0.00     0.118 C 
BRANCH  31  32
ATOM     32  N   UNL A   1      32.471  34.207  27.613  1.00  0.00    -0.352 N 
ATOM     33  C   UNL A   1      33.016  34.921  28.647  1.00  0.00     0.251 C 
ATOM     34  H   UNL A   1      31.863  34.705  27.019  1.00  0.00     0.163 HD
ATOM     35  O   UNL A   1      32.545  36.003  28.977  1.00  0.00    -0.269 OA
BRANCH  33  36
ATOM     36  C   UNL A   1      34.174  34.362  29.371  1.00  0.00     0.039 A 
ATOM     37  C   UNL A   1      33.953  33.631  30.539  1.00  0.00     0.014 A 
ATOM     38  C   UNL A   1      35.473  34.560  28.891  1.00  0.00     0.014 A 
ATOM     39  C   UNL A   1      35.036  33.060  31.206  1.00  0.00     0.010 A 
ATOM     40  C   UNL A   1      36.542  33.925  29.512  1.00  0.00     0.010 A 
ATOM     41  C   UNL A   1      36.335  33.182  30.683  1.00  0.00    -0.014 A 
BRANCH  41  42
ATOM     42  C   UNL A   1      37.494  32.559  31.364  1.00  0.00     0.031 A 
ATOM     43  C   UNL A   1      38.238  31.435  30.699  1.00  0.00     0.074 A 
ATOM     44  C   UNL A   1      37.840  32.965  32.600  1.00  0.00     0.049 A 
ATOM     45  N   UNL A   1      39.231  30.715  31.155  1.00  0.00    -0.248 NA
ATOM     46  C   UNL A   1      37.786  31.050  29.351  1.00  0.00     0.031 C 
ATOM     47  C   UNL A   1      37.164  34.014  33.365  1.00  0.00     0.029 A 
ATOM     48  N   UNL A   1      38.841  32.538  33.434  1.00  0.00    -0.354 N 
ATOM     49  C   UNL A   1      39.512  29.787  30.161  1.00  0.00     0.074 A 
ATOM     50  C   UNL A   1      38.552  29.998  29.099  1.00  0.00     0.031 C 
ATOM     51  C   UNL A   1      37.785  34.164  34.546  1.00  0.00     0.029 A 
ATOM     52  C   UNL A   1      38.877  33.200  34.635  1.00  0.00     0.049 A 
ATOM     53  H   UNL A   1      39.474  31.822  33.193  1.00  0.00     0.167 HD
ATOM     54  C   UNL A   1      40.497  28.860  30.127  1.00  0.00     0.037 A 
ATOM     55  C   UNL A   1      39.698  33.043  35.690  1.00  0.00     0.037 A 
ATOM     56  C   UNL A   1      41.471  28.676  31.170  1.00  0.00     0.049 A 
ATOM     57  C   UNL A   1      40.790  32.009  35.623  1.00  0.00     0.074 A 
ATOM     58  C   UNL A   1      42.544  27.804  31.205  1.00  0.00     0.029 A 
ATOM     59  N   UNL A   1      41.490  29.384  32.363  1.00  0.00    -0.354 N 
ATOM     60  N   UNL A   1      41.083  31.179  34.653  1.00  0.00    -0.248 NA
ATOM     61  C   UNL A   1      41.667  31.897  36.796  1.00  0.00     0.031 C 
ATOM     62  C   UNL A   1      43.191  27.957  32.435  1.00  0.00     0.029 A 
ATOM     63  C   UNL A   1      42.548  28.956  33.148  1.00  0.00     0.049 A 
ATOM     64  H   UNL A   1      40.848  30.087  32.614  1.00  0.00     0.167 HD
ATOM     65  C   UNL A   1      42.193  30.466  35.084  1.00  0.00     0.074 A 
ATOM     66  C   UNL A   1      42.528  30.971  36.399  1.00  0.00     0.031 C 
ATOM     67  C   UNL A   1      42.872  29.480  34.449  1.00  0.00     0.037 A 
BRANCH  54  68
ATOM     68  C   UNL A   1      40.576  27.976  28.916  1.00  0.00     0.064 A 
ATOM     69  C   UNL A   1      39.840  26.786  28.828  1.00  0.00     0.173 A 
ATOM     70  C   UNL A   1      41.366  28.344  27.816  1.00  0.00     0.173 A 
ATOM     71  F   UNL A   1      39.081  26.383  29.858  1.00  0.00    -0.203 F 
ATOM     72  C   UNL A   1      39.911  25.982  27.693  1.00  0.00     0.198 A 
ATOM     73  C   UNL A   1      41.413  27.552  26.673  1.00  0.00     0.198 A 
ATOM     74  F   UNL A   1      42.086  29.475  27.850  1.00  0.00    -0.203 F 
ATOM     75  F   UNL A   1      39.235  24.825  27.650  1.00  0.00    -0.200 F 
ATOM     76  C   UNL A   1      40.692  26.369  26.614  1.00  0.00     0.200 A 
ATOM     77  F   UNL A   1      42.159  27.933  25.627  1.00  0.00    -0.200 F 
ATOM     78  F   UNL A   1      40.754  25.598  25.520  1.00  0.00    -0.200 F 
ENDBRANCH  54  68
BRANCH  55  79
ATOM     79  C   UNL A   1      39.539  33.905  36.889  1.00  0.00     0.064 A 
ATOM     80  C   UNL A   1      40.135  35.172  36.948  1.00  0.00     0.173 A 
ATOM     81  C   UNL A   1      38.793  33.481  37.999  1.00  0.00     0.173 A 
ATOM     82  F   UNL A   1      40.874  35.612  35.918  1.00  0.00    -0.203 F 
ATOM     83  C   UNL A   1      40.010  35.975  38.080  1.00  0.00     0.198 A 
ATOM     84  C   UNL A   1      38.647  34.296  39.119  1.00  0.00     0.198 A 
ATOM     85  F   UNL A   1      38.199  32.280  37.989  1.00  0.00    -0.203 F 
ATOM     86  F   UNL A   1      40.627  37.163  38.126  1.00  0.00    -0.200 F 
ATOM     87  C   UNL A   1      39.262  35.538  39.162  1.00  0.00     0.200 A 
ATOM     88  F   UNL A   1      37.912  33.876  40.158  1.00  0.00    -0.200 F 
ATOM     89  F   UNL A   1      39.140  36.312  40.250  1.00  0.00    -0.200 F 
ENDBRANCH  55  79
BRANCH  67  90
ATOM     90  C   UNL A   1      44.068  28.908  35.153  1.00  0.00     0.064 A 
ATOM     91  C   UNL A   1      45.352  29.440  34.968  1.00  0.00     0.173 A 
ATOM     92  C   UNL A   1      43.917  27.843  36.052  1.00  0.00     0.173 A 
ATOM     93  F   UNL A   1      45.547  30.449  34.106  1.00  0.00    -0.203 F 
ATOM     94  C   UNL A   1      46.447  28.908  35.643  1.00  0.00     0.198 A 
ATOM     95  C   UNL A   1      45.010  27.332  36.747  1.00  0.00     0.198 A 
ATOM     96  F   UNL A   1      42.707  27.304  36.268  1.00  0.00    -0.203 F 
ATOM     97  F   UNL A   1      47.673  29.402  35.419  1.00  0.00    -0.200 F 
ATOM     98  C   UNL A   1      46.275  27.861  36.536  1.00  0.00     0.200 A 
ATOM     99  F   UNL A   1      44.840  26.328  37.618  1.00  0.00    -0.200 F 
ATOM    100  F   UNL A   1      47.330  27.356  37.189  1.00  0.00    -0.200 F 
ENDBRANCH  67  90
ENDBRANCH  41  42
ENDBRANCH  33  36
ENDBRANCH  31  32
ENDBRANCH  30  31
ENDBRANCH   1  30
TORSDOF 16
ENDMDL
MODEL 2
REMARK VINA RESULT:     -12.8      5.428     10.888
REMARK SMILES Cc1cc(=O)oc2cc(O[C@@H](C)C(=O)N[C@H](CC(C)C)C(=O)NCCCNC(=O)c3ccc(-c4c5nc(c(-c6c(F)c(F)c(F)c(F)c6F)c6ccc([nH]6)c(-c6c(F)c(F)c(F)c(F)c6F)c6nc(c(-c7c(F)c(F)c(F)c(F)c7F)c7ccc4[nH]7)C=C6)C=C5)cc3)ccc12
REMARK SMILES IDX 24 1 23 2 21 3 22 4 16 6 15 7 13 8 14 9 11 11 12 12 10 13
REMARK SMILES IDX 9 14 1 15 2 16 3 17 95 18 4 19 7 20 94 21 5 22 6 23 8 24
REMARK SMILES IDX 93 25 17 26 18 27 19 28 20 29 25 30 26 31 27 32 28 33 29 35
REMARK SMILES IDX 30 36 31 37 92 38 32 39 91 40 33 41 34 42 35 43 85 44 36 45
REMARK SMILES IDX 90 46 84 47 86 48 37 49 89 50 83 51 82 52 38 54 70 55 50 56
REMARK SMILES IDX 69 57 51 58 54 59 68 60 87 61 52 62 53 63 67 65 88 66 55 67
REMARK SMILES IDX 39 68 40 69 48 70 41 71 42 72 46 73 49 74 43 75 44 76 47 77
REMARK SMILES IDX 45 78 71 79 72 80 80 81 73 82 74 83 78 84 81 85 75 86 76 87
REMARK SMILES IDX 79 88 77 89 56 90 57 91 65 92 58 93 59 94 63 95 66 96 60 97
REMARK SMILES IDX 61 98 64 99 62 100
REMARK H PARENT 23 5 15 10 27 34 86 53 54 64
REMARK Flexibility Score: inf
ROOT
ATOM      1  C   UNL A   1      36.942  20.474  25.019  1.00  0.00     0.117 C 
ENDROOT
BRANCH   1   2
ATOM      2  N   UNL A   1      37.366  21.681  24.332  1.00  0.00    -0.354 N 
ATOM      3  C   UNL A   1      36.626  22.582  23.636  1.00  0.00     0.242 C 
ATOM      4  O   UNL A   1      37.071  22.984  22.563  1.00  0.00    -0.273 OA
ATOM      5  H   UNL A   1      38.331  21.874  24.379  1.00  0.00     0.163 HD
BRANCH   3   6
ATOM      6  C   UNL A   1      35.185  22.865  23.991  1.00  0.00     0.171 C 
BRANCH   6   7
ATOM      7  N   UNL A   1      34.577  23.556  22.860  1.00  0.00    -0.341 N 
ATOM      8  C   UNL A   1      33.276  23.612  22.424  1.00  0.00     0.261 C 
ATOM      9  O   UNL A   1      33.113  24.347  21.435  1.00  0.00    -0.271 OA
ATOM     10  H   UNL A   1      35.211  24.074  22.313  1.00  0.00     0.164 HD
BRANCH   8  11
ATOM     11  C   UNL A   1      31.980  22.887  23.050  1.00  0.00     0.258 C 
ATOM     12  C   UNL A   1      31.940  21.420  22.634  1.00  0.00     0.064 C 
BRANCH  11  13
ATOM     13  O   UNL A   1      30.726  23.480  23.422  1.00  0.00    -0.481 OA
BRANCH  13  14
ATOM     14  C   UNL A   1      30.514  24.764  23.831  1.00  0.00     0.124 A 
ATOM     15  C   UNL A   1      31.694  28.241  27.454  1.00  0.00     0.045 C 
ATOM     16  C   UNL A   1      31.649  28.211  25.954  1.00  0.00    -0.033 A 
ATOM     17  C   UNL A   1      32.503  28.960  25.236  1.00  0.00     0.098 A 
ATOM     18  C   UNL A   1      30.876  27.178  25.232  1.00  0.00     0.021 A 
ATOM     19  C   UNL A   1      32.634  28.867  23.770  1.00  0.00     0.336 A 
ATOM     20  C   UNL A   1      31.021  27.104  23.842  1.00  0.00     0.142 A 
ATOM     21  C   UNL A   1      30.253  26.099  25.864  1.00  0.00     0.016 A 
ATOM     22  O   UNL A   1      33.511  29.470  23.177  1.00  0.00    -0.246 OA
ATOM     23  O   UNL A   1      31.673  28.116  23.114  1.00  0.00    -0.423 OA
ATOM     24  C   UNL A   1      30.807  25.918  23.129  1.00  0.00     0.094 A 
ATOM     25  C   UNL A   1      30.063  24.897  25.155  1.00  0.00     0.047 A 
ENDBRANCH  13  14
ENDBRANCH  11  13
ENDBRANCH   8  11
ENDBRANCH   6   7
BRANCH   6  26
ATOM     26  C   UNL A   1      35.465  23.617  25.324  1.00  0.00     0.038 C 
BRANCH  26  27
ATOM     27  C   UNL A   1      34.498  24.475  26.128  1.00  0.00    -0.015 C 
ATOM     28  C   UNL A   1      34.114  25.772  25.439  1.00  0.00     0.007 C 
ATOM     29  C   UNL A   1      33.231  23.605  26.327  1.00  0.00     0.007 C 
ENDBRANCH  26  27
ENDBRANCH   6  26
ENDBRANCH   3   6
ENDBRANCH   1   2
BRANCH   1  30
ATOM     30  C   UNL A   1      38.112  19.501  24.985  1.00  0.00     0.042 C 
BRANCH  30  31
ATOM     31  C   UNL A   1      39.304  20.051  25.759  1.00  0.00     0.118 C 
BRANCH  31  32
ATOM     32  N   UNL A   1      40.312  19.026  25.965  1.00  0.00    -0.352 N 
ATOM     33  C   UNL A   1      41.664  19.186  26.109  1.00  0.00     0.251 C 
ATOM     34  H   UNL A   1      39.981  18.100  26.007  1.00  0.00     0.163 HD
ATOM     35  O   UNL A   1      42.424  18.231  25.994  1.00  0.00    -0.269 OA
BRANCH  33  36
ATOM     36  C   UNL A   1      42.199  20.532  26.393  1.00  0.00     0.039 A 
ATOM     37  C   UNL A   1      42.590  21.344  25.327  1.00  0.00     0.014 A 
ATOM     38  C   UNL A   1      42.311  20.987  27.712  1.00  0.00     0.014 A 
ATOM     39  C   UNL A   1      43.055  22.634  25.582  1.00  0.00     0.010 A 
ATOM     40  C   UNL A   1      42.698  22.299  27.958  1.00  0.00     0.010 A 
ATOM     41  C   UNL A   1      43.088  23.128  26.897  1.00  0.00    -0.014 A 
BRANCH  41  42
ATOM     42  C   UNL A   1      43.553  24.506  27.183  1.00  0.00     0.031 A 
ATOM     43  C   UNL A   1      42.589  25.524  27.725  1.00  0.00     0.074 A 
ATOM     44  C   UNL A   1      44.823  24.853  26.904  1.00  0.00     0.049 A 
ATOM     45  N   UNL A   1      42.781  26.794  27.977  1.00  0.00    -0.248 NA
ATOM     46  C   UNL A   1      41.218  25.060  27.993  1.00  0.00     0.031 C 
ATOM     47  C   UNL A   1      45.837  23.965  26.333  1.00  0.00     0.029 A 
ATOM     48  N   UNL A   1      45.476  26.050  27.054  1.00  0.00    -0.354 N 
ATOM     49  C   UNL A   1      41.557  27.281  28.416  1.00  0.00     0.074 A 
ATOM     50  C   UNL A   1      40.615  26.185  28.348  1.00  0.00     0.031 C 
ATOM     51  C   UNL A   1      46.989  24.642  26.203  1.00  0.00     0.029 A 
ATOM     52  C   UNL A   1      46.786  26.017  26.648  1.00  0.00     0.049 A 
ATOM     53  H   UNL A   1      45.045  26.857  27.418  1.00  0.00     0.167 HD
ATOM     54  C   UNL A   1      41.253  28.523  28.860  1.00  0.00     0.037 A 
ATOM     55  C   UNL A   1      47.717  26.989  26.633  1.00  0.00     0.037 A 
ATOM     56  C   UNL A   1      42.201  29.601  28.958  1.00  0.00     0.049 A 
ATOM     57  C   UNL A   1      47.354  28.359  27.138  1.00  0.00     0.074 A 
ATOM     58  C   UNL A   1      42.007  30.879  29.450  1.00  0.00     0.029 A 
ATOM     59  N   UNL A   1      43.528  29.521  28.559  1.00  0.00    -0.354 N 
ATOM     60  N   UNL A   1      46.210  28.791  27.609  1.00  0.00    -0.248 NA
ATOM     61  C   UNL A   1      48.416  29.374  27.117  1.00  0.00     0.031 C 
ATOM     62  C   UNL A   1      43.206  31.586  29.314  1.00  0.00     0.029 A 
ATOM     63  C   UNL A   1      44.159  30.734  28.779  1.00  0.00     0.049 A 
ATOM     64  H   UNL A   1      43.957  28.722  28.178  1.00  0.00     0.167 HD
ATOM     65  C   UNL A   1      46.419  30.116  27.964  1.00  0.00     0.074 A 
ATOM     66  C   UNL A   1      47.805  30.414  27.667  1.00  0.00     0.031 C 
ATOM     67  C   UNL A   1      45.543  31.007  28.488  1.00  0.00     0.037 A 
BRANCH  54  68
ATOM     68  C   UNL A   1      39.837  28.781  29.282  1.00  0.00     0.064 A 
ATOM     69  C   UNL A   1      38.878  29.262  28.378  1.00  0.00     0.173 A 
ATOM     70  C   UNL A   1      39.423  28.508  30.594  1.00  0.00     0.173 A 
ATOM     71  F   UNL A   1      39.226  29.552  27.115  1.00  0.00    -0.203 F 
ATOM     72  C   UNL A   1      37.563  29.484  28.779  1.00  0.00     0.198 A 
ATOM     73  C   UNL A   1      38.102  28.705  30.984  1.00  0.00     0.198 A 
ATOM     74  F   UNL A   1      40.301  28.043  31.497  1.00  0.00    -0.203 F 
ATOM     75  F   UNL A   1      36.676  29.988  27.910  1.00  0.00    -0.200 F 
ATOM     76  C   UNL A   1      37.174  29.199  30.079  1.00  0.00     0.200 A 
ATOM     77  F   UNL A   1      37.725  28.418  32.238  1.00  0.00    -0.200 F 
ATOM     78  F   UNL A   1      35.907  29.406  30.461  1.00  0.00    -0.200 F 
ENDBRANCH  54  68
BRANCH  55  79
ATOM     79  C   UNL A   1      49.090  26.695  26.148  1.00  0.00     0.064 A 
ATOM     80  C   UNL A   1      49.461  26.980  24.827  1.00  0.00     0.173 A 
ATOM     81  C   UNL A   1      50.054  26.121  26.990  1.00  0.00     0.173 A 
ATOM     82  F   UNL A   1      48.567  27.511  23.981  1.00  0.00    -0.203 F 
ATOM     83  C   UNL A   1      50.740  26.684  24.360  1.00  0.00     0.198 A 
ATOM     84  C   UNL A   1      51.340  25.851  26.528  1.00  0.00     0.198 A 
ATOM     85  F   UNL A   1      49.749  25.836  28.263  1.00  0.00    -0.203 F 
ATOM     86  F   UNL A   1      51.055  26.927  23.080  1.00  0.00    -0.200 F 
ATOM     87  C   UNL A   1      51.679  26.124  25.212  1.00  0.00     0.200 A 
ATOM     88  F   UNL A   1      52.249  25.322  27.358  1.00  0.00    -0.200 F 
ATOM     89  F   UNL A   1      52.910  25.841  24.762  1.00  0.00    -0.200 F 
ENDBRANCH  55  79
BRANCH  67  90
ATOM     90  C   UNL A   1      46.065  32.376  28.807  1.00  0.00     0.064 A 
ATOM     91  C   UNL A   1      46.008  33.420  27.873  1.00  0.00     0.173 A 
ATOM     92  C   UNL A   1      46.592  32.655  30.077  1.00  0.00     0.173 A 
ATOM     93  F   UNL A   1      45.527  33.197  26.641  1.00  0.00    -0.203 F 
ATOM     94  C   UNL A   1      46.481  34.689  28.193  1.00  0.00     0.198 A 
ATOM     95  C   UNL A   1      47.039  33.933  30.402  1.00  0.00     0.198 A 
ATOM     96  F   UNL A   1      46.662  31.691  31.008  1.00  0.00    -0.203 F 
ATOM     97  F   UNL A   1      46.458  35.663  27.271  1.00  0.00    -0.200 F 
ATOM     98  C   UNL A   1      46.989  34.947  29.458  1.00  0.00     0.200 A 
ATOM     99  F   UNL A   1      47.518  34.182  31.629  1.00  0.00    -0.200 F 
ATOM    100  F   UNL A   1      47.438  36.171  29.765  1.00  0.00    -0.200 F 
ENDBRANCH  67  90
ENDBRANCH  41  42
ENDBRANCH  33  36
ENDBRANCH  31  32
ENDBRANCH  30  31
ENDBRANCH   1  30
TORSDOF 16
ENDMDL
MODEL 3
REMARK VINA RESULT:     -12.6      1.026      2.351
REMARK SMILES Cc1cc(=O)oc2cc(O[C@@H](C)C(=O)N[C@H](CC(C)C)C(=O)NCCCNC(=O)c3ccc(-c4c5nc(c(-c6c(F)c(F)c(F)c(F)c6F)c6ccc([nH]6)c(-c6c(F)c(F)c(F)c(F)c6F)c6nc(c(-c7c(F)c(F)c(F)c(F)c7F)c7ccc4[nH]7)C=C6)C=C5)cc3)ccc12
REMARK SMILES IDX 24 1 23 2 21 3 22 4 16 6 15 7 13 8 14 9 11 11 12 12 10 13
REMARK SMILES IDX 9 14 1 15 2 16 3 17 95 18 4 19 7 20 94 21 5 22 6 23 8 24
REMARK SMILES IDX 93 25 17 26 18 27 19 28 20 29 25 30 26 31 27 32 28 33 29 35
REMARK SMILES IDX 30 36 31 37 92 38 32 39 91 40 33 41 34 42 35 43 85 44 36 45
REMARK SMILES IDX 90 46 84 47 86 48 37 49 89 50 83 51 82 52 38 54 70 55 50 56
REMARK SMILES IDX 69 57 51 58 54 59 68 60 87 61 52 62 53 63 67 65 88 66 55 67
REMARK SMILES IDX 39 68 40 69 48 70 41 71 42 72 46 73 49 74 43 75 44 76 47 77
REMARK SMILES IDX 45 78 71 79 72 80 80 81 73 82 74 83 78 84 81 85 75 86 76 87
REMARK SMILES IDX 79 88 77 89 56 90 57 91 65 92 58 93 59 94 63 95 66 96 60 97
REMARK SMILES IDX 61 98 64 99 62 100
REMARK H PARENT 23 5 15 10 27 34 86 53 54 64
REMARK Flexibility Score: inf
ROOT
ATOM      1  C   UNL A   1      31.344  30.939  26.822  1.00  0.00     0.117 C 
ENDROOT
BRANCH   1   2
ATOM      2  N   UNL A   1      32.668  30.343  26.799  1.00  0.00    -0.354 N 
ATOM      3  C   UNL A   1      33.040  29.079  26.469  1.00  0.00     0.242 C 
ATOM      4  O   UNL A   1      33.865  28.518  27.186  1.00  0.00    -0.273 OA
ATOM      5  H   UNL A   1      33.404  30.944  27.061  1.00  0.00     0.163 HD
BRANCH   3   6
ATOM      6  C   UNL A   1      32.270  28.268  25.452  1.00  0.00     0.171 C 
BRANCH   6   7
ATOM      7  N   UNL A   1      31.633  27.163  26.157  1.00  0.00    -0.341 N 
ATOM      8  C   UNL A   1      30.850  26.130  25.704  1.00  0.00     0.261 C 
ATOM      9  O   UNL A   1      30.512  25.332  26.595  1.00  0.00    -0.271 OA
ATOM     10  H   UNL A   1      31.793  27.156  27.128  1.00  0.00     0.164 HD
BRANCH   8  11
ATOM     11  C   UNL A   1      30.368  25.826  24.197  1.00  0.00     0.258 C 
ATOM     12  C   UNL A   1      29.331  26.855  23.755  1.00  0.00     0.064 C 
BRANCH  11  13
ATOM     13  O   UNL A   1      30.352  24.567  23.507  1.00  0.00    -0.481 OA
BRANCH  13  14
ATOM     14  C   UNL A   1      31.321  23.607  23.531  1.00  0.00     0.124 A 
ATOM     15  C   UNL A   1      36.418  22.812  23.493  1.00  0.00     0.045 C 
ATOM     16  C   UNL A   1      35.251  22.326  24.302  1.00  0.00    -0.033 A 
ATOM     17  C   UNL A   1      35.410  22.010  25.598  1.00  0.00     0.098 A 
ATOM     18  C   UNL A   1      33.867  22.436  23.792  1.00  0.00     0.021 A 
ATOM     19  C   UNL A   1      34.290  21.682  26.500  1.00  0.00     0.336 A 
ATOM     20  C   UNL A   1      32.820  22.126  24.667  1.00  0.00     0.142 A 
ATOM     21  C   UNL A   1      33.532  23.104  22.612  1.00  0.00     0.016 A 
ATOM     22  O   UNL A   1      34.468  21.531  27.696  1.00  0.00    -0.246 OA
ATOM     23  O   UNL A   1      33.055  21.493  25.903  1.00  0.00    -0.423 OA
ATOM     24  C   UNL A   1      31.539  22.672  24.525  1.00  0.00     0.094 A 
ATOM     25  C   UNL A   1      32.253  23.677  22.481  1.00  0.00     0.047 A 
ENDBRANCH  13  14
ENDBRANCH  11  13
ENDBRANCH   8  11
ENDBRANCH   6   7
BRANCH   6  26
ATOM     26  C   UNL A   1      33.459  28.011  24.480  1.00  0.00     0.038 C 
BRANCH  26  27
ATOM     27  C   UNL A   1      33.499  28.253  22.978  1.00  0.00    -0.015 C 
ATOM     28  C   UNL A   1      33.579  26.979  22.157  1.00  0.00     0.007 C 
ATOM     29  C   UNL A   1      32.186  29.002  22.639  1.00  0.00     0.007 C 
ENDBRANCH  26  27
ENDBRANCH   6  26
ENDBRANCH   3   6
ENDBRANCH   1   2
BRANCH   1  30
ATOM     30  C   UNL A   1      31.513  32.427  26.548  1.00  0.00     0.042 C 
BRANCH  30  31
ATOM     31  C   UNL A   1      32.719  32.985  27.294  1.00  0.00     0.118 C 
BRANCH  31  32
ATOM     32  N   UNL A   1      32.507  34.374  27.662  1.00  0.00    -0.352 N 
ATOM     33  C   UNL A   1      33.041  35.060  28.721  1.00  0.00     0.251 C 
ATOM     34  H   UNL A   1      31.904  34.888  27.076  1.00  0.00     0.163 HD
ATOM     35  O   UNL A   1      32.565  36.132  29.077  1.00  0.00    -0.269 OA
BRANCH  33  36
ATOM     36  C   UNL A   1      34.193  34.482  29.440  1.00  0.00     0.039 A 
ATOM     37  C   UNL A   1      33.974  33.829  30.655  1.00  0.00     0.014 A 
ATOM     38  C   UNL A   1      35.484  34.585  28.911  1.00  0.00     0.014 A 
ATOM     39  C   UNL A   1      35.049  33.241  31.320  1.00  0.00     0.010 A 
ATOM     40  C   UNL A   1      36.539  33.929  29.534  1.00  0.00     0.010 A 
ATOM     41  C   UNL A   1      36.334  33.265  30.752  1.00  0.00    -0.014 A 
BRANCH  41  42
ATOM     42  C   UNL A   1      37.482  32.621  31.432  1.00  0.00     0.031 A 
ATOM     43  C   UNL A   1      38.205  31.484  30.766  1.00  0.00     0.074 A 
ATOM     44  C   UNL A   1      37.836  33.021  32.667  1.00  0.00     0.049 A 
ATOM     45  N   UNL A   1      39.186  30.747  31.221  1.00  0.00    -0.248 NA
ATOM     46  C   UNL A   1      37.746  31.107  29.419  1.00  0.00     0.031 C 
ATOM     47  C   UNL A   1      37.179  34.081  33.434  1.00  0.00     0.029 A 
ATOM     48  N   UNL A   1      38.830  32.575  33.501  1.00  0.00    -0.354 N 
ATOM     49  C   UNL A   1      39.449  29.814  30.227  1.00  0.00     0.074 A 
ATOM     50  C   UNL A   1      38.492  30.042  29.166  1.00  0.00     0.031 C 
ATOM     51  C   UNL A   1      37.804  34.220  34.615  1.00  0.00     0.029 A 
ATOM     52  C   UNL A   1      38.879  33.236  34.702  1.00  0.00     0.049 A 
ATOM     53  H   UNL A   1      39.450  31.849  33.260  1.00  0.00     0.167 HD
ATOM     54  C   UNL A   1      40.417  28.869  30.192  1.00  0.00     0.037 A 
ATOM     55  C   UNL A   1      39.698  33.065  35.756  1.00  0.00     0.037 A 
ATOM     56  C   UNL A   1      41.388  28.667  31.234  1.00  0.00     0.049 A 
ATOM     57  C   UNL A   1      40.770  32.011  35.689  1.00  0.00     0.074 A 
ATOM     58  C   UNL A   1      42.446  27.776  31.268  1.00  0.00     0.029 A 
ATOM     59  N   UNL A   1      41.421  29.375  32.427  1.00  0.00    -0.354 N 
ATOM     60  N   UNL A   1      41.048  31.176  34.718  1.00  0.00    -0.248 NA
ATOM     61  C   UNL A   1      41.646  31.883  36.861  1.00  0.00     0.031 C 
ATOM     62  C   UNL A   1      43.097  27.918  32.498  1.00  0.00     0.029 A 
ATOM     63  C   UNL A   1      42.471  28.927  33.212  1.00  0.00     0.049 A 
ATOM     64  H   UNL A   1      40.792  30.089  32.679  1.00  0.00     0.167 HD
ATOM     65  C   UNL A   1      42.145  30.443  35.148  1.00  0.00     0.074 A 
ATOM     66  C   UNL A   1      42.490  30.941  36.463  1.00  0.00     0.031 C 
ATOM     67  C   UNL A   1      42.806  29.445  34.513  1.00  0.00     0.037 A 
BRANCH  54  68
ATOM     68  C   UNL A   1      40.479  27.985  28.981  1.00  0.00     0.064 A 
ATOM     69  C   UNL A   1      39.748  26.791  28.906  1.00  0.00     0.173 A 
ATOM     70  C   UNL A   1      41.249  28.354  27.868  1.00  0.00     0.173 A 
ATOM     71  F   UNL A   1      39.007  26.386  29.949  1.00  0.00    -0.203 F 
ATOM     72  C   UNL A   1      39.803  25.986  27.771  1.00  0.00     0.198 A 
ATOM     73  C   UNL A   1      41.280  27.561  26.724  1.00  0.00     0.198 A 
ATOM     74  F   UNL A   1      41.966  29.488  27.887  1.00  0.00    -0.203 F 
ATOM     75  F   UNL A   1      39.131  24.826  27.740  1.00  0.00    -0.200 F 
ATOM     76  C   UNL A   1      40.563  26.375  26.679  1.00  0.00     0.200 A 
ATOM     77  F   UNL A   1      42.007  27.944  25.665  1.00  0.00    -0.200 F 
ATOM     78  F   UNL A   1      40.610  25.604  25.584  1.00  0.00    -0.200 F 
ENDBRANCH  54  68
BRANCH  55  79
ATOM     79  C   UNL A   1      39.554  33.929  36.956  1.00  0.00     0.064 A 
ATOM     80  C   UNL A   1      38.804  33.504  38.062  1.00  0.00     0.173 A 
ATOM     81  C   UNL A   1      40.157  35.194  37.022  1.00  0.00     0.173 A 
ATOM     82  F   UNL A   1      38.194  32.309  38.037  1.00  0.00    -0.203 F 
ATOM     83  C   UNL A   1      38.646  34.320  39.180  1.00  0.00     0.198 A 
ATOM     84  C   UNL A   1      40.019  35.997  38.151  1.00  0.00     0.198 A 
ATOM     85  F   UNL A   1      40.888  35.642  35.992  1.00  0.00    -0.203 F 
ATOM     86  F   UNL A   1      37.888  33.907  40.205  1.00  0.00    -0.200 F 
ATOM     87  C   UNL A   1      39.257  35.563  39.225  1.00  0.00     0.200 A 
ATOM     88  F   UNL A   1      40.622  37.192  38.197  1.00  0.00    -0.200 F 
ATOM     89  F   UNL A   1      39.105  36.347  40.302  1.00  0.00    -0.200 F 
ENDBRANCH  55  79
BRANCH  67  90
ATOM     90  C   UNL A   1      43.991  28.852  35.215  1.00  0.00     0.064 A 
ATOM     91  C   UNL A   1      43.861  27.750  36.072  1.00  0.00     0.173 A 
ATOM     92  C   UNL A   1      45.277  29.369  34.995  1.00  0.00     0.173 A 
ATOM     93  F   UNL A   1      42.651  27.232  36.325  1.00  0.00    -0.203 F 
ATOM     94  C   UNL A   1      44.975  27.201  36.701  1.00  0.00     0.198 A 
ATOM     95  C   UNL A   1      46.392  28.800  35.604  1.00  0.00     0.198 A 
ATOM     96  F   UNL A   1      45.454  30.419  34.178  1.00  0.00    -0.203 F 
ATOM     97  F   UNL A   1      44.823  26.175  37.551  1.00  0.00    -0.200 F 
ATOM     98  C   UNL A   1      46.239  27.721  36.462  1.00  0.00     0.200 A 
ATOM     99  F   UNL A   1      47.613  29.296  35.362  1.00  0.00    -0.200 F 
ATOM    100  F   UNL A   1      47.309  27.186  37.064  1.00  0.00    -0.200 F 
ENDBRANCH  67  90
ENDBRANCH  41  42
ENDBRANCH  33  36
ENDBRANCH  31  32
ENDBRANCH  30  31
ENDBRANCH   1  30
TORSDOF 16
ENDMDL
