MODEL 1
REMARK VINA RESULT:     -12.1      0.000      0.000
REMARK SMILES O=C(NCCCNC(=O)C1CCN(C(=O)CSCc2ccccc2)CC1)c1ccc(-c2c3nc(c(-c4c(F)c(F)c(F)c(F)c4F)c4ccc([nH]4)c(-c4c(F)c(F)c(F)c(F)c4F)c4nc(c(-c5c(F)c(F)c(F)c(F)c5F)c5ccc2[nH]5)C=C4)C=C3)cc1
REMARK SMILES IDX 6 1 5 2 4 3 3 4 1 5 2 6 27 8 28 9 89 10 29 11 88 12 30 13
REMARK SMILES IDX 31 14 32 15 82 16 33 17 87 18 81 19 83 20 34 21 86 22 80 23
REMARK SMILES IDX 79 24 35 26 67 27 47 28 66 29 48 30 51 31 65 32 84 33 49 34
REMARK SMILES IDX 50 35 64 37 85 38 52 39 36 40 37 41 45 42 38 43 39 44 43 45
REMARK SMILES IDX 46 46 40 47 41 48 44 49 42 50 68 51 69 52 77 53 70 54 71 55
REMARK SMILES IDX 75 56 78 57 72 58 73 59 76 60 74 61 53 62 54 63 62 64 55 65
REMARK SMILES IDX 56 66 60 67 63 68 57 69 58 70 61 71 59 72 7 73 8 74 9 76
REMARK SMILES IDX 10 77 11 78 26 79 12 80 25 81 13 82 14 83 15 84 16 85 17 86
REMARK SMILES IDX 18 87 19 88 20 89 24 90 21 91 23 92 22 93
REMARK H PARENT 3 7 83 25 51 36 7 75
REMARK Flexibility Score: inf
ROOT
ATOM      1  C   UNL A   1      36.890  20.442  25.003  1.00  0.00     0.117 C 
ENDROOT
BRANCH   1   2
ATOM      2  C   UNL A   1      38.082  19.487  25.010  1.00  0.00     0.042 C 
BRANCH   2   3
ATOM      3  C   UNL A   1      39.262  19.939  25.869  1.00  0.00     0.118 C 
BRANCH   3   4
ATOM      4  N   UNL A   1      40.398  19.028  25.824  1.00  0.00    -0.352 N 
ATOM      5  O   UNL A   1      42.532  18.328  25.821  1.00  0.00    -0.269 OA
ATOM      6  C   UNL A   1      41.738  19.243  26.032  1.00  0.00     0.251 C 
ATOM      7  H   UNL A   1      40.164  18.097  25.605  1.00  0.00     0.163 HD
BRANCH   6   8
ATOM      8  C   UNL A   1      42.247  20.561  26.469  1.00  0.00     0.039 A 
ATOM      9  C   UNL A   1      42.276  20.928  27.815  1.00  0.00     0.014 A 
ATOM     10  C   UNL A   1      42.744  21.444  25.501  1.00  0.00     0.014 A 
ATOM     11  C   UNL A   1      42.635  22.224  28.174  1.00  0.00     0.010 A 
ATOM     12  C   UNL A   1      43.187  22.717  25.873  1.00  0.00     0.010 A 
ATOM     13  C   UNL A   1      43.091  23.137  27.207  1.00  0.00    -0.014 A 
BRANCH  13  14
ATOM     14  C   UNL A   1      43.471  24.513  27.623  1.00  0.00     0.031 A 
ATOM     15  C   UNL A   1      44.908  24.962  27.593  1.00  0.00     0.074 A 
ATOM     16  C   UNL A   1      42.506  25.380  27.987  1.00  0.00     0.049 A 
ATOM     17  N   UNL A   1      45.409  26.144  27.851  1.00  0.00    -0.248 NA
ATOM     18  C   UNL A   1      45.916  23.952  27.237  1.00  0.00     0.031 C 
ATOM     19  C   UNL A   1      41.081  25.060  28.077  1.00  0.00     0.029 A 
ATOM     20  N   UNL A   1      42.571  26.708  28.322  1.00  0.00    -0.354 N 
ATOM     21  C   UNL A   1      46.784  26.015  27.712  1.00  0.00     0.074 A 
ATOM     22  C   UNL A   1      47.045  24.633  27.370  1.00  0.00     0.031 C 
ATOM     23  C   UNL A   1      40.399  26.173  28.387  1.00  0.00     0.029 A 
ATOM     24  C   UNL A   1      41.343  27.272  28.564  1.00  0.00     0.049 A 
ATOM     25  H   UNL A   1      43.417  27.208  28.385  1.00  0.00     0.167 HD
ATOM     26  C   UNL A   1      47.743  26.965  27.844  1.00  0.00     0.037 A 
ATOM     27  C   UNL A   1      41.011  28.536  28.888  1.00  0.00     0.037 A 
ATOM     28  C   UNL A   1      47.482  28.348  28.153  1.00  0.00     0.049 A 
ATOM     29  C   UNL A   1      42.093  29.568  29.025  1.00  0.00     0.074 A 
ATOM     30  C   UNL A   1      48.381  29.395  28.251  1.00  0.00     0.029 A 
ATOM     31  N   UNL A   1      46.227  28.875  28.417  1.00  0.00    -0.354 N 
ATOM     32  N   UNL A   1      43.384  29.443  28.836  1.00  0.00    -0.248 NA
ATOM     33  C   UNL A   1      41.670  30.918  29.420  1.00  0.00     0.031 C 
ATOM     34  C   UNL A   1      47.677  30.548  28.616  1.00  0.00     0.029 A 
ATOM     35  C   UNL A   1      46.331  30.228  28.701  1.00  0.00     0.049 A 
ATOM     36  H   UNL A   1      45.385  28.364  28.404  1.00  0.00     0.167 HD
ATOM     37  C   UNL A   1      43.926  30.700  29.069  1.00  0.00     0.074 A 
ATOM     38  C   UNL A   1      42.820  31.577  29.394  1.00  0.00     0.031 C 
ATOM     39  C   UNL A   1      45.222  31.090  29.019  1.00  0.00     0.037 A 
BRANCH  26  40
ATOM     40  C   UNL A   1      49.172  26.543  27.668  1.00  0.00     0.064 A 
ATOM     41  C   UNL A   1      49.752  26.405  26.399  1.00  0.00     0.173 A 
ATOM     42  C   UNL A   1      49.987  26.316  28.789  1.00  0.00     0.173 A 
ATOM     43  F   UNL A   1      49.014  26.598  25.295  1.00  0.00    -0.203 F 
ATOM     44  C   UNL A   1      51.087  26.032  26.257  1.00  0.00     0.198 A 
ATOM     45  C   UNL A   1      51.328  25.970  28.644  1.00  0.00     0.198 A 
ATOM     46  F   UNL A   1      49.484  26.441  30.027  1.00  0.00    -0.203 F 
ATOM     47  F   UNL A   1      51.608  25.865  25.033  1.00  0.00    -0.200 F 
ATOM     48  C   UNL A   1      51.875  25.822  27.379  1.00  0.00     0.200 A 
ATOM     49  F   UNL A   1      52.091  25.778  29.729  1.00  0.00    -0.200 F 
ATOM     50  F   UNL A   1      53.161  25.470  27.240  1.00  0.00    -0.200 F 
ENDBRANCH  26  40
BRANCH  27  51
ATOM     51  C   UNL A   1      39.583  28.896  29.081  1.00  0.00     0.064 A 
ATOM     52  C   UNL A   1      38.809  29.363  28.010  1.00  0.00     0.173 A 
ATOM     53  C   UNL A   1      38.962  28.771  30.332  1.00  0.00     0.173 A 
ATOM     54  F   UNL A   1      39.366  29.518  26.799  1.00  0.00    -0.203 F 
ATOM     55  C   UNL A   1      37.470  29.703  28.186  1.00  0.00     0.198 A 
ATOM     56  C   UNL A   1      37.616  29.086  30.500  1.00  0.00     0.198 A 
ATOM     57  F   UNL A   1      39.661  28.326  31.386  1.00  0.00    -0.203 F 
ATOM     58  F   UNL A   1      36.762  30.182  27.154  1.00  0.00    -0.200 F 
ATOM     59  C   UNL A   1      36.872  29.557  29.429  1.00  0.00     0.200 A 
ATOM     60  F   UNL A   1      37.039  28.929  31.700  1.00  0.00    -0.200 F 
ATOM     61  F   UNL A   1      35.582  29.877  29.595  1.00  0.00    -0.200 F 
ENDBRANCH  27  51
BRANCH  39  62
ATOM     62  C   UNL A   1      45.510  32.537  29.295  1.00  0.00     0.064 A 
ATOM     63  C   UNL A   1      45.819  32.992  30.585  1.00  0.00     0.173 A 
ATOM     64  C   UNL A   1      45.495  33.475  28.251  1.00  0.00     0.173 A 
ATOM     65  F   UNL A   1      45.829  32.135  31.617  1.00  0.00    -0.203 F 
ATOM     66  C   UNL A   1      46.073  34.339  30.826  1.00  0.00     0.198 A 
ATOM     67  C   UNL A   1      45.776  34.816  28.491  1.00  0.00     0.198 A 
ATOM     68  F   UNL A   1      45.210  33.088  26.999  1.00  0.00    -0.203 F 
ATOM     69  F   UNL A   1      46.315  34.760  32.075  1.00  0.00    -0.200 F 
ATOM     70  C   UNL A   1      46.056  35.249  29.779  1.00  0.00     0.200 A 
ATOM     71  F   UNL A   1      45.770  35.693  27.477  1.00  0.00    -0.200 F 
ATOM     72  F   UNL A   1      46.302  36.545  30.013  1.00  0.00    -0.200 F 
ENDBRANCH  39  62
ENDBRANCH  13  14
ENDBRANCH   6   8
ENDBRANCH   3   4
ENDBRANCH   2   3
ENDBRANCH   1   2
BRANCH   1  73
ATOM     73  N   UNL A   1      37.033  21.495  24.017  1.00  0.00    -0.356 N 
ATOM     74  C   UNL A   1      36.251  22.584  23.780  1.00  0.00     0.223 C 
ATOM     75  H   UNL A   1      37.818  21.410  23.428  1.00  0.00     0.163 HD
ATOM     76  O   UNL A   1      36.503  23.258  22.783  1.00  0.00    -0.275 OA
BRANCH  74  77
ATOM     77  C   UNL A   1      35.149  22.950  24.768  1.00  0.00     0.082 C 
ATOM     78  C   UNL A   1      33.893  22.088  24.554  1.00  0.00     0.035 C 
ATOM     79  C   UNL A   1      34.824  24.449  24.662  1.00  0.00     0.035 C 
ATOM     80  C   UNL A   1      33.078  22.501  23.330  1.00  0.00     0.120 C 
ATOM     81  C   UNL A   1      34.003  24.776  23.413  1.00  0.00     0.120 C 
ATOM     82  N   UNL A   1      32.810  23.935  23.352  1.00  0.00    -0.342 N 
ATOM     83  C   UNL A   1      31.495  24.373  23.273  1.00  0.00     0.232 C 
ATOM     84  O   UNL A   1      30.561  23.574  23.144  1.00  0.00    -0.274 OA
BRANCH  83  85
ATOM     85  C   UNL A   1      31.191  25.861  23.349  1.00  0.00     0.169 C 
BRANCH  85  86
ATOM     86  S   UNL A   1      30.035  26.289  24.698  1.00  0.00    -0.147 SA
BRANCH  86  87
ATOM     87  C   UNL A   1      31.098  26.046  26.156  1.00  0.00     0.105 C 
BRANCH  87  88
ATOM     88  C   UNL A   1      31.969  27.227  26.495  1.00  0.00    -0.038 A 
ATOM     89  C   UNL A   1      31.422  28.387  27.063  1.00  0.00     0.004 A 
ATOM     90  C   UNL A   1      33.341  27.202  26.209  1.00  0.00     0.004 A 
ATOM     91  C   UNL A   1      32.231  29.491  27.342  1.00  0.00     0.000 A 
ATOM     92  C   UNL A   1      34.150  28.303  26.491  1.00  0.00     0.000 A 
ATOM     93  C   UNL A   1      33.594  29.448  27.055  1.00  0.00     0.000 A 
ENDBRANCH  87  88
ENDBRANCH  86  87
ENDBRANCH  85  86
ENDBRANCH  83  85
ENDBRANCH  74  77
ENDBRANCH   1  73
TORSDOF 14
ENDMDL
MODEL 2
REMARK VINA RESULT:     -12.1      5.517     10.959
REMARK SMILES O=C(NCCCNC(=O)C1CCN(C(=O)CSCc2ccccc2)CC1)c1ccc(-c2c3nc(c(-c4c(F)c(F)c(F)c(F)c4F)c4ccc([nH]4)c(-c4c(F)c(F)c(F)c(F)c4F)c4nc(c(-c5c(F)c(F)c(F)c(F)c5F)c5ccc2[nH]5)C=C4)C=C3)cc1
REMARK SMILES IDX 6 1 5 2 4 3 3 4 1 5 2 6 27 8 28 9 89 10 29 11 88 12 30 13
REMARK SMILES IDX 31 14 32 15 82 16 33 17 87 18 81 19 83 20 34 21 86 22 80 23
REMARK SMILES IDX 79 24 35 26 67 27 47 28 66 29 48 30 51 31 65 32 84 33 49 34
REMARK SMILES IDX 50 35 64 37 85 38 52 39 36 40 37 41 45 42 38 43 39 44 43 45
REMARK SMILES IDX 46 46 40 47 41 48 44 49 42 50 68 51 69 52 77 53 70 54 71 55
REMARK SMILES IDX 75 56 78 57 72 58 73 59 76 60 74 61 53 62 54 63 62 64 55 65
REMARK SMILES IDX 56 66 60 67 63 68 57 69 58 70 61 71 59 72 7 73 8 74 9 76
REMARK SMILES IDX 10 77 11 78 26 79 12 80 25 81 13 82 14 83 15 84 16 85 17 86
REMARK SMILES IDX 18 87 19 88 20 89 24 90 21 91 23 92 22 93
REMARK H PARENT 3 7 83 25 51 36 7 75
REMARK Flexibility Score: inf
ROOT
ATOM      1  C   UNL A   1      31.670  30.613  26.343  1.00  0.00     0.117 C 
ENDROOT
BRANCH   1   2
ATOM      2  C   UNL A   1      31.414  32.078  26.687  1.00  0.00     0.042 C 
BRANCH   2   3
ATOM      3  C   UNL A   1      32.668  32.894  26.995  1.00  0.00     0.118 C 
BRANCH   3   4
ATOM      4  N   UNL A   1      32.386  34.194  27.589  1.00  0.00    -0.352 N 
ATOM      5  O   UNL A   1      32.490  35.913  29.031  1.00  0.00    -0.269 OA
ATOM      6  C   UNL A   1      32.985  34.862  28.629  1.00  0.00     0.251 C 
ATOM      7  H   UNL A   1      31.636  34.677  27.174  1.00  0.00     0.163 HD
BRANCH   6   8
ATOM      8  C   UNL A   1      34.192  34.325  29.296  1.00  0.00     0.039 A 
ATOM      9  C   UNL A   1      35.476  34.610  28.831  1.00  0.00     0.014 A 
ATOM     10  C   UNL A   1      34.030  33.539  30.443  1.00  0.00     0.014 A 
ATOM     11  C   UNL A   1      36.577  33.978  29.402  1.00  0.00     0.010 A 
ATOM     12  C   UNL A   1      35.145  32.974  31.071  1.00  0.00     0.010 A 
ATOM     13  C   UNL A   1      36.426  33.148  30.527  1.00  0.00    -0.014 A 
BRANCH  13  14
ATOM     14  C   UNL A   1      37.622  32.492  31.117  1.00  0.00     0.031 A 
ATOM     15  C   UNL A   1      38.082  32.828  32.510  1.00  0.00     0.074 A 
ATOM     16  C   UNL A   1      38.271  31.549  30.405  1.00  0.00     0.049 A 
ATOM     17  N   UNL A   1      39.058  32.301  33.207  1.00  0.00    -0.248 NA
ATOM     18  C   UNL A   1      37.361  33.902  33.210  1.00  0.00     0.031 C 
ATOM     19  C   UNL A   1      37.937  31.149  29.038  1.00  0.00     0.029 A 
ATOM     20  N   UNL A   1      39.327  30.741  30.740  1.00  0.00    -0.354 N 
ATOM     21  C   UNL A   1      39.083  32.991  34.412  1.00  0.00     0.074 A 
ATOM     22  C   UNL A   1      38.040  33.993  34.345  1.00  0.00     0.031 C 
ATOM     23  C   UNL A   1      38.732  30.134  28.670  1.00  0.00     0.029 A 
ATOM     24  C   UNL A   1      39.662  29.842  29.756  1.00  0.00     0.049 A 
ATOM     25  H   UNL A   1      39.801  30.799  31.601  1.00  0.00     0.167 HD
ATOM     26  C   UNL A   1      39.893  32.798  35.482  1.00  0.00     0.037 A 
ATOM     27  C   UNL A   1      40.610  28.888  29.731  1.00  0.00     0.037 A 
ATOM     28  C   UNL A   1      40.909  31.780  35.562  1.00  0.00     0.049 A 
ATOM     29  C   UNL A   1      41.491  28.695  30.933  1.00  0.00     0.074 A 
ATOM     30  C   UNL A   1      41.740  31.471  36.625  1.00  0.00     0.029 A 
ATOM     31  N   UNL A   1      41.236  30.908  34.535  1.00  0.00    -0.354 N 
ATOM     32  N   UNL A   1      41.466  29.318  32.085  1.00  0.00    -0.248 NA
ATOM     33  C   UNL A   1      42.532  27.664  30.828  1.00  0.00     0.031 C 
ATOM     34  C   UNL A   1      42.598  30.440  36.227  1.00  0.00     0.029 A 
ATOM     35  C   UNL A   1      42.271  30.075  34.931  1.00  0.00     0.049 A 
ATOM     36  H   UNL A   1      40.797  30.883  33.653  1.00  0.00     0.167 HD
ATOM     37  C   UNL A   1      42.472  28.743  32.850  1.00  0.00     0.074 A 
ATOM     38  C   UNL A   1      43.074  27.708  32.036  1.00  0.00     0.031 C 
ATOM     39  C   UNL A   1      42.860  29.047  34.113  1.00  0.00     0.037 A 
BRANCH  26  40
ATOM     40  C   UNL A   1      39.725  33.716  36.658  1.00  0.00     0.064 A 
ATOM     41  C   UNL A   1      38.890  33.391  37.736  1.00  0.00     0.173 A 
ATOM     42  C   UNL A   1      40.445  34.919  36.726  1.00  0.00     0.173 A 
ATOM     43  F   UNL A   1      38.170  32.259  37.716  1.00  0.00    -0.203 F 
ATOM     44  C   UNL A   1      38.764  34.247  38.829  1.00  0.00     0.198 A 
ATOM     45  C   UNL A   1      40.337  35.759  37.830  1.00  0.00     0.198 A 
ATOM     46  F   UNL A   1      41.264  35.275  35.723  1.00  0.00    -0.203 F 
ATOM     47  F   UNL A   1      37.927  33.936  39.829  1.00  0.00    -0.200 F 
ATOM     48  C   UNL A   1      39.492  35.426  38.878  1.00  0.00     0.200 A 
ATOM     49  F   UNL A   1      41.051  36.893  37.882  1.00  0.00    -0.200 F 
ATOM     50  F   UNL A   1      39.375  36.245  39.933  1.00  0.00    -0.200 F 
ENDBRANCH  26  40
BRANCH  27  51
ATOM     51  C   UNL A   1      40.756  28.025  28.531  1.00  0.00     0.064 A 
ATOM     52  C   UNL A   1      40.120  26.777  28.463  1.00  0.00     0.173 A 
ATOM     53  C   UNL A   1      41.520  28.433  27.429  1.00  0.00     0.173 A 
ATOM     54  F   UNL A   1      39.395  26.337  29.502  1.00  0.00    -0.203 F 
ATOM     55  C   UNL A   1      40.254  25.964  27.340  1.00  0.00     0.198 A 
ATOM     56  C   UNL A   1      41.630  27.630  26.296  1.00  0.00     0.198 A 
ATOM     57  F   UNL A   1      42.144  29.619  27.447  1.00  0.00    -0.203 F 
ATOM     58  F   UNL A   1      39.667  24.760  27.314  1.00  0.00    -0.200 F 
ATOM     59  C   UNL A   1      41.003  26.394  26.254  1.00  0.00     0.200 A 
ATOM     60  F   UNL A   1      42.343  28.056  25.243  1.00  0.00    -0.200 F 
ATOM     61  F   UNL A   1      41.125  25.614  25.172  1.00  0.00    -0.200 F 
ENDBRANCH  27  51
BRANCH  39  62
ATOM     62  C   UNL A   1      43.972  28.228  34.699  1.00  0.00     0.064 A 
ATOM     63  C   UNL A   1      45.308  28.652  34.637  1.00  0.00     0.173 A 
ATOM     64  C   UNL A   1      43.694  27.016  35.348  1.00  0.00     0.173 A 
ATOM     65  F   UNL A   1      45.624  29.796  34.013  1.00  0.00    -0.203 F 
ATOM     66  C   UNL A   1      46.329  27.876  35.177  1.00  0.00     0.198 A 
ATOM     67  C   UNL A   1      44.715  26.255  35.910  1.00  0.00     0.198 A 
ATOM     68  F   UNL A   1      42.432  26.570  35.438  1.00  0.00    -0.203 F 
ATOM     69  F   UNL A   1      47.603  28.274  35.062  1.00  0.00    -0.200 F 
ATOM     70  C   UNL A   1      46.032  26.681  35.818  1.00  0.00     0.200 A 
ATOM     71  F   UNL A   1      44.426  25.107  36.538  1.00  0.00    -0.200 F 
ATOM     72  F   UNL A   1      47.017  25.936  36.338  1.00  0.00    -0.200 F 
ENDBRANCH  39  62
ENDBRANCH  13  14
ENDBRANCH   6   8
ENDBRANCH   3   4
ENDBRANCH   2   3
ENDBRANCH   1   2
BRANCH   1  73
ATOM     73  N   UNL A   1      31.150  30.254  25.038  1.00  0.00    -0.356 N 
ATOM     74  C   UNL A   1      31.582  29.316  24.151  1.00  0.00     0.223 C 
ATOM     75  H   UNL A   1      30.360  30.767  24.749  1.00  0.00     0.163 HD
ATOM     76  O   UNL A   1      31.058  29.301  23.039  1.00  0.00    -0.275 OA
BRANCH  74  77
ATOM     77  C   UNL A   1      32.640  28.305  24.579  1.00  0.00     0.082 C 
ATOM     78  C   UNL A   1      33.608  27.983  23.429  1.00  0.00     0.035 C 
ATOM     79  C   UNL A   1      31.965  27.032  25.115  1.00  0.00     0.035 C 
ATOM     80  C   UNL A   1      33.004  27.061  22.370  1.00  0.00     0.120 C 
ATOM     81  C   UNL A   1      31.392  26.164  23.993  1.00  0.00     0.120 C 
ATOM     82  N   UNL A   1      32.419  25.879  22.993  1.00  0.00    -0.342 N 
ATOM     83  C   UNL A   1      32.836  24.623  22.573  1.00  0.00     0.232 C 
ATOM     84  O   UNL A   1      33.658  24.494  21.661  1.00  0.00    -0.274 OA
BRANCH  83  85
ATOM     85  C   UNL A   1      32.277  23.380  23.248  1.00  0.00     0.169 C 
BRANCH  85  86
ATOM     86  S   UNL A   1      33.564  22.362  24.052  1.00  0.00    -0.147 SA
BRANCH  86  87
ATOM     87  C   UNL A   1      32.571  20.959  24.653  1.00  0.00     0.105 C 
BRANCH  87  88
ATOM     88  C   UNL A   1      33.011  19.616  24.132  1.00  0.00    -0.038 A 
ATOM     89  C   UNL A   1      32.287  18.961  23.124  1.00  0.00     0.004 A 
ATOM     90  C   UNL A   1      34.134  18.977  24.676  1.00  0.00     0.004 A 
ATOM     91  C   UNL A   1      32.682  17.700  22.671  1.00  0.00     0.000 A 
ATOM     92  C   UNL A   1      34.530  17.719  24.221  1.00  0.00     0.000 A 
ATOM     93  C   UNL A   1      33.803  17.080  23.220  1.00  0.00     0.000 A 
ENDBRANCH  87  88
ENDBRANCH  86  87
ENDBRANCH  85  86
ENDBRANCH  83  85
ENDBRANCH  74  77
ENDBRANCH   1  73
TORSDOF 14
ENDMDL
MODEL 3
REMARK VINA RESULT:     -12.1      5.523     10.919
REMARK SMILES O=C(NCCCNC(=O)C1CCN(C(=O)CSCc2ccccc2)CC1)c1ccc(-c2c3nc(c(-c4c(F)c(F)c(F)c(F)c4F)c4ccc([nH]4)c(-c4c(F)c(F)c(F)c(F)c4F)c4nc(c(-c5c(F)c(F)c(F)c(F)c5F)c5ccc2[nH]5)C=C4)C=C3)cc1
REMARK SMILES IDX 6 1 5 2 4 3 3 4 1 5 2 6 27 8 28 9 89 10 29 11 88 12 30 13
REMARK SMILES IDX 31 14 32 15 82 16 33 17 87 18 81 19 83 20 34 21 86 22 80 23
REMARK SMILES IDX 79 24 35 26 67 27 47 28 66 29 48 30 51 31 65 32 84 33 49 34
REMARK SMILES IDX 50 35 64 37 85 38 52 39 36 40 37 41 45 42 38 43 39 44 43 45
REMARK SMILES IDX 46 46 40 47 41 48 44 49 42 50 68 51 69 52 77 53 70 54 71 55
REMARK SMILES IDX 75 56 78 57 72 58 73 59 76 60 74 61 53 62 54 63 62 64 55 65
REMARK SMILES IDX 56 66 60 67 63 68 57 69 58 70 61 71 59 72 7 73 8 74 9 76
REMARK SMILES IDX 10 77 11 78 26 79 12 80 25 81 13 82 14 83 15 84 16 85 17 86
REMARK SMILES IDX 18 87 19 88 20 89 24 90 21 91 23 92 22 93
REMARK H PARENT 3 7 83 25 51 36 7 75
REMARK Flexibility Score: inf
ROOT
ATOM      1  C   UNL A   1      31.537  30.673  26.309  1.00  0.00     0.117 C 
ENDROOT
BRANCH   1   2
ATOM      2  C   UNL A   1      31.399  32.179  26.522  1.00  0.00     0.042 C 
BRANCH   2   3
ATOM      3  C   UNL A   1      32.645  32.867  27.075  1.00  0.00     0.118 C 
BRANCH   3   4
ATOM      4  N   UNL A   1      32.381  34.183  27.643  1.00  0.00    -0.352 N 
ATOM      5  O   UNL A   1      32.518  35.934  29.042  1.00  0.00    -0.269 OA
ATOM      6  C   UNL A   1      33.000  34.871  28.657  1.00  0.00     0.251 C 
ATOM      7  H   UNL A   1      31.627  34.660  27.228  1.00  0.00     0.163 HD
BRANCH   6   8
ATOM      8  C   UNL A   1      34.213  34.341  29.319  1.00  0.00     0.039 A 
ATOM      9  C   UNL A   1      35.490  34.583  28.812  1.00  0.00     0.014 A 
ATOM     10  C   UNL A   1      34.066  33.608  30.503  1.00  0.00     0.014 A 
ATOM     11  C   UNL A   1      36.594  33.956  29.385  1.00  0.00     0.010 A 
ATOM     12  C   UNL A   1      35.186  33.050  31.128  1.00  0.00     0.010 A 
ATOM     13  C   UNL A   1      36.455  33.178  30.547  1.00  0.00    -0.014 A 
BRANCH  13  14
ATOM     14  C   UNL A   1      37.654  32.526  31.137  1.00  0.00     0.031 A 
ATOM     15  C   UNL A   1      38.113  32.863  32.530  1.00  0.00     0.074 A 
ATOM     16  C   UNL A   1      38.307  31.586  30.426  1.00  0.00     0.049 A 
ATOM     17  N   UNL A   1      39.091  32.340  33.227  1.00  0.00    -0.248 NA
ATOM     18  C   UNL A   1      37.388  33.934  33.231  1.00  0.00     0.031 C 
ATOM     19  C   UNL A   1      37.974  31.185  29.058  1.00  0.00     0.029 A 
ATOM     20  N   UNL A   1      39.366  30.781  30.760  1.00  0.00    -0.354 N 
ATOM     21  C   UNL A   1      39.113  33.029  34.432  1.00  0.00     0.074 A 
ATOM     22  C   UNL A   1      38.067  34.027  34.365  1.00  0.00     0.031 C 
ATOM     23  C   UNL A   1      38.772  30.172  28.690  1.00  0.00     0.029 A 
ATOM     24  C   UNL A   1      39.704  29.884  29.776  1.00  0.00     0.049 A 
ATOM     25  H   UNL A   1      39.839  30.841  31.621  1.00  0.00     0.167 HD
ATOM     26  C   UNL A   1      39.924  32.840  35.502  1.00  0.00     0.037 A 
ATOM     27  C   UNL A   1      40.656  28.933  29.751  1.00  0.00     0.037 A 
ATOM     28  C   UNL A   1      40.944  31.826  35.582  1.00  0.00     0.049 A 
ATOM     29  C   UNL A   1      41.537  28.743  30.952  1.00  0.00     0.074 A 
ATOM     30  C   UNL A   1      41.776  31.519  36.645  1.00  0.00     0.029 A 
ATOM     31  N   UNL A   1      41.274  30.954  34.555  1.00  0.00    -0.354 N 
ATOM     32  N   UNL A   1      41.510  29.366  32.105  1.00  0.00    -0.248 NA
ATOM     33  C   UNL A   1      42.582  27.716  30.848  1.00  0.00     0.031 C 
ATOM     34  C   UNL A   1      42.638  30.491  36.247  1.00  0.00     0.029 A 
ATOM     35  C   UNL A   1      42.313  30.125  34.950  1.00  0.00     0.049 A 
ATOM     36  H   UNL A   1      40.835  30.928  33.673  1.00  0.00     0.167 HD
ATOM     37  C   UNL A   1      42.518  28.794  32.870  1.00  0.00     0.074 A 
ATOM     38  C   UNL A   1      43.124  27.761  32.056  1.00  0.00     0.031 C 
ATOM     39  C   UNL A   1      42.905  29.100  34.132  1.00  0.00     0.037 A 
BRANCH  26  40
ATOM     40  C   UNL A   1      39.752  33.757  36.678  1.00  0.00     0.064 A 
ATOM     41  C   UNL A   1      40.390  35.004  36.743  1.00  0.00     0.173 A 
ATOM     42  C   UNL A   1      38.900  33.401  37.736  1.00  0.00     0.173 A 
ATOM     43  F   UNL A   1      41.224  35.387  35.764  1.00  0.00    -0.203 F 
ATOM     44  C   UNL A   1      40.201  35.850  37.833  1.00  0.00     0.198 A 
ATOM     45  C   UNL A   1      38.693  34.260  38.811  1.00  0.00     0.198 A 
ATOM     46  F   UNL A   1      38.260  32.221  37.720  1.00  0.00    -0.203 F 
ATOM     47  F   UNL A   1      40.854  37.019  37.893  1.00  0.00    -0.200 F 
ATOM     48  C   UNL A   1      39.349  35.481  38.862  1.00  0.00     0.200 A 
ATOM     49  F   UNL A   1      37.860  33.906  39.799  1.00  0.00    -0.200 F 
ATOM     50  F   UNL A   1      39.163  36.300  39.908  1.00  0.00    -0.200 F 
ENDBRANCH  26  40
BRANCH  27  51
ATOM     51  C   UNL A   1      40.804  28.071  28.551  1.00  0.00     0.064 A 
ATOM     52  C   UNL A   1      40.153  26.832  28.471  1.00  0.00     0.173 A 
ATOM     53  C   UNL A   1      41.587  28.471  27.458  1.00  0.00     0.173 A 
ATOM     54  F   UNL A   1      39.409  26.399  29.500  1.00  0.00    -0.203 F 
ATOM     55  C   UNL A   1      40.290  26.019  27.349  1.00  0.00     0.198 A 
ATOM     56  C   UNL A   1      41.701  27.669  26.325  1.00  0.00     0.198 A 
ATOM     57  F   UNL A   1      42.227  29.648  27.487  1.00  0.00    -0.203 F 
ATOM     58  F   UNL A   1      39.687  24.823  27.312  1.00  0.00    -0.200 F 
ATOM     59  C   UNL A   1      41.058  26.442  26.273  1.00  0.00     0.200 A 
ATOM     60  F   UNL A   1      42.433  28.087  25.283  1.00  0.00    -0.200 F 
ATOM     61  F   UNL A   1      41.182  25.663  25.190  1.00  0.00    -0.200 F 
ENDBRANCH  27  51
BRANCH  39  62
ATOM     62  C   UNL A   1      44.020  28.285  34.719  1.00  0.00     0.064 A 
ATOM     63  C   UNL A   1      43.778  27.065  35.366  1.00  0.00     0.173 A 
ATOM     64  C   UNL A   1      45.349  28.723  34.614  1.00  0.00     0.173 A 
ATOM     65  F   UNL A   1      42.522  26.613  35.505  1.00  0.00    -0.203 F 
ATOM     66  C   UNL A   1      44.823  26.326  35.914  1.00  0.00     0.198 A 
ATOM     67  C   UNL A   1      46.394  27.970  35.140  1.00  0.00     0.198 A 
ATOM     68  F   UNL A   1      45.632  29.882  34.001  1.00  0.00    -0.203 F 
ATOM     69  F   UNL A   1      44.564  25.189  36.573  1.00  0.00    -0.200 F 
ATOM     70  C   UNL A   1      46.130  26.777  35.796  1.00  0.00     0.200 A 
ATOM     71  F   UNL A   1      47.657  28.400  35.016  1.00  0.00    -0.200 F 
ATOM     72  F   UNL A   1      47.135  26.064  36.324  1.00  0.00    -0.200 F 
ENDBRANCH  39  62
ENDBRANCH  13  14
ENDBRANCH   6   8
ENDBRANCH   3   4
ENDBRANCH   2   3
ENDBRANCH   1   2
BRANCH   1  73
ATOM     73  N   UNL A   1      31.111  30.262  24.986  1.00  0.00    -0.356 N 
ATOM     74  C   UNL A   1      31.564  29.251  24.195  1.00  0.00     0.223 C 
ATOM     75  H   UNL A   1      30.379  30.796  24.600  1.00  0.00     0.163 HD
ATOM     76  O   UNL A   1      31.137  29.194  23.044  1.00  0.00    -0.275 OA
BRANCH  74  77
ATOM     77  C   UNL A   1      32.523  28.215  24.772  1.00  0.00     0.082 C 
ATOM     78  C   UNL A   1      33.655  27.885  23.784  1.00  0.00     0.035 C 
ATOM     79  C   UNL A   1      31.751  26.951  25.181  1.00  0.00     0.035 C 
ATOM     80  C   UNL A   1      33.208  26.984  22.633  1.00  0.00     0.120 C 
ATOM     81  C   UNL A   1      31.345  26.104  23.973  1.00  0.00     0.120 C 
ATOM     82  N   UNL A   1      32.511  25.808  23.143  1.00  0.00    -0.342 N 
ATOM     83  C   UNL A   1      32.966  24.548  22.779  1.00  0.00     0.232 C 
ATOM     84  O   UNL A   1      33.919  24.411  22.004  1.00  0.00    -0.274 OA
BRANCH  83  85
ATOM     85  C   UNL A   1      32.286  23.310  23.343  1.00  0.00     0.169 C 
BRANCH  85  86
ATOM     86  S   UNL A   1      33.330  22.400  24.535  1.00  0.00    -0.147 SA
BRANCH  86  87
ATOM     87  C   UNL A   1      32.294  20.938  24.858  1.00  0.00     0.105 C 
BRANCH  87  88
ATOM     88  C   UNL A   1      32.783  19.673  24.203  1.00  0.00    -0.038 A 
ATOM     89  C   UNL A   1      32.165  19.174  23.046  1.00  0.00     0.004 A 
ATOM     90  C   UNL A   1      33.842  18.947  24.765  1.00  0.00     0.004 A 
ATOM     91  C   UNL A   1      32.601  17.981  22.466  1.00  0.00     0.000 A 
ATOM     92  C   UNL A   1      34.281  17.757  24.183  1.00  0.00     0.000 A 
ATOM     93  C   UNL A   1      33.659  17.274  23.035  1.00  0.00     0.000 A 
ENDBRANCH  87  88
ENDBRANCH  86  87
ENDBRANCH  85  86
ENDBRANCH  83  85
ENDBRANCH  74  77
ENDBRANCH   1  73
TORSDOF 14
ENDMDL
