MODEL 1
REMARK VINA RESULT:     -13.0      0.000      0.000
REMARK SMILES Cc1cnn([C@H]2CC[C@@]([NH3+])(C(=O)NCCCNC(=O)c3ccc(-c4c5nc(c(-c6c(F)c(F)c(F)c(F)c6F)c6ccc([nH]6)c(-c6c(F)c(F)c(F)c(F)c6F)c6nc(c(-c7c(F)c(F)c(F)c(F)c7F)c7ccc4[nH]7)C=C6)C=C5)cc3)C2)c1
REMARK SMILES IDX 15 1 14 2 13 3 11 4 12 5 9 7 6 8 7 9 83 10 8 11 5 12 1 13
REMARK SMILES IDX 2 14 3 15 84 16 4 17 10 18 16 22 17 23 18 24 19 26 20 27
REMARK SMILES IDX 21 28 82 29 22 30 81 31 23 32 24 33 25 34 75 35 26 36 80 37
REMARK SMILES IDX 74 38 76 39 27 40 79 41 73 42 72 43 28 45 60 46 40 47 59 48
REMARK SMILES IDX 41 49 44 50 58 51 77 52 42 53 43 54 57 56 78 57 45 58 29 59
REMARK SMILES IDX 30 60 38 61 31 62 32 63 36 64 39 65 33 66 34 67 37 68 35 69
REMARK SMILES IDX 61 70 62 71 70 72 63 73 64 74 68 75 71 76 65 77 66 78 69 79
REMARK SMILES IDX 67 80 46 81 47 82 55 83 48 84 49 85 53 86 56 87 50 88 51 89
REMARK SMILES IDX 54 90 52 91
REMARK H PARENT 13 6 10 19 10 20 10 21 17 25 76 44 44 55
REMARK Flexibility Score: inf
ROOT
ATOM      1  C   UNL A   1      37.772  22.274  25.036  1.00  0.00     0.042 C 
ENDROOT
BRANCH   1   2
ATOM      2  C   UNL A   1      36.671  21.223  25.182  1.00  0.00     0.118 C 
BRANCH   2   3
ATOM      3  N   UNL A   1      35.891  21.326  26.409  1.00  0.00    -0.351 N 
ATOM      4  C   UNL A   1      34.588  21.718  26.576  1.00  0.00     0.281 C 
ATOM      5  O   UNL A   1      34.022  21.341  27.603  1.00  0.00    -0.268 OA
ATOM      6  H   UNL A   1      36.367  21.080  27.235  1.00  0.00     0.163 HD
BRANCH   4   7
ATOM      7  C   UNL A   1      33.840  22.520  25.459  1.00  0.00     0.176 C 
ATOM      8  C   UNL A   1      32.694  20.889  24.020  1.00  0.00     0.114 C 
ATOM      9  C   UNL A   1      31.617  21.645  24.820  1.00  0.00     0.034 C 
ATOM     10  C   UNL A   1      33.887  21.854  24.070  1.00  0.00     0.106 C 
ATOM     11  C   UNL A   1      32.337  22.630  25.747  1.00  0.00     0.081 C 
BRANCH   8  12
ATOM     12  N   UNL A   1      32.939  19.533  24.486  1.00  0.00    -0.269 N 
ATOM     13  C   UNL A   1      34.712  16.382  24.839  1.00  0.00     0.048 C 
ATOM     14  C   UNL A   1      33.793  17.539  24.841  1.00  0.00    -0.013 A 
ATOM     15  C   UNL A   1      32.725  17.826  25.714  1.00  0.00     0.138 A 
ATOM     16  C   UNL A   1      33.805  18.611  23.977  1.00  0.00     0.112 A 
ATOM     17  N   UNL A   1      32.177  19.019  25.477  1.00  0.00    -0.181 NA
ENDBRANCH   8  12
BRANCH   7  18
ATOM     18  N   UNL A   1      34.507  23.838  25.366  1.00  0.00    -0.345 N 
ATOM     19  H   UNL A   1      34.061  24.394  24.636  1.00  0.00     0.345 HD
ATOM     20  H   UNL A   1      35.493  23.706  25.137  1.00  0.00     0.345 HD
ATOM     21  H   UNL A   1      34.427  24.324  26.260  1.00  0.00     0.345 HD
ENDBRANCH   7  18
ENDBRANCH   4   7
ENDBRANCH   2   3
ENDBRANCH   1   2
BRANCH   1  22
ATOM     22  C   UNL A   1      38.608  22.451  26.286  1.00  0.00     0.118 C 
BRANCH  22  23
ATOM     23  N   UNL A   1      40.013  22.071  26.123  1.00  0.00    -0.352 N 
ATOM     24  C   UNL A   1      41.132  22.879  26.263  1.00  0.00     0.251 C 
ATOM     25  H   UNL A   1      40.183  21.131  25.888  1.00  0.00     0.163 HD
ATOM     26  O   UNL A   1      42.209  22.559  25.796  1.00  0.00    -0.269 OA
BRANCH  24  27
ATOM     27  C   UNL A   1      40.979  24.150  26.998  1.00  0.00     0.039 A 
ATOM     28  C   UNL A   1      41.704  24.427  28.158  1.00  0.00     0.014 A 
ATOM     29  C   UNL A   1      40.121  25.098  26.454  1.00  0.00     0.014 A 
ATOM     30  C   UNL A   1      41.612  25.704  28.707  1.00  0.00     0.010 A 
ATOM     31  C   UNL A   1      40.210  26.401  26.853  1.00  0.00     0.010 A 
ATOM     32  C   UNL A   1      40.880  26.695  28.028  1.00  0.00    -0.014 A 
BRANCH  32  33
ATOM     33  C   UNL A   1      40.869  28.080  28.475  1.00  0.00     0.031 A 
ATOM     34  C   UNL A   1      41.981  28.888  27.927  1.00  0.00     0.074 A 
ATOM     35  C   UNL A   1      39.853  28.628  29.177  1.00  0.00     0.049 A 
ATOM     36  N   UNL A   1      43.050  29.248  28.551  1.00  0.00    -0.248 NA
ATOM     37  C   UNL A   1      42.005  29.186  26.487  1.00  0.00     0.031 C 
ATOM     38  C   UNL A   1      38.550  28.031  29.511  1.00  0.00     0.029 A 
ATOM     39  N   UNL A   1      39.740  29.888  29.689  1.00  0.00    -0.354 N 
ATOM     40  C   UNL A   1      43.771  30.028  27.654  1.00  0.00     0.074 A 
ATOM     41  C   UNL A   1      43.197  29.779  26.359  1.00  0.00     0.031 C 
ATOM     42  C   UNL A   1      37.711  28.984  29.969  1.00  0.00     0.029 A 
ATOM     43  C   UNL A   1      38.467  30.208  30.150  1.00  0.00     0.049 A 
ATOM     44  H   UNL A   1      40.496  30.517  29.729  1.00  0.00     0.167 HD
ATOM     45  C   UNL A   1      44.565  31.032  28.122  1.00  0.00     0.037 A 
ATOM     46  C   UNL A   1      38.065  31.388  30.679  1.00  0.00     0.037 A 
ATOM     47  C   UNL A   1      44.709  30.921  29.555  1.00  0.00     0.049 A 
ATOM     48  C   UNL A   1      39.275  32.070  31.186  1.00  0.00     0.074 A 
ATOM     49  C   UNL A   1      45.399  30.117  30.434  1.00  0.00     0.029 A 
ATOM     50  N   UNL A   1      43.685  31.508  30.252  1.00  0.00    -0.354 N 
ATOM     51  N   UNL A   1      39.971  31.628  32.196  1.00  0.00    -0.248 NA
ATOM     52  C   UNL A   1      39.948  33.049  30.342  1.00  0.00     0.031 C 
ATOM     53  C   UNL A   1      44.634  30.103  31.641  1.00  0.00     0.029 A 
ATOM     54  C   UNL A   1      43.527  30.935  31.484  1.00  0.00     0.049 A 
ATOM     55  H   UNL A   1      43.133  32.247  29.910  1.00  0.00     0.167 HD
ATOM     56  C   UNL A   1      41.278  31.924  31.863  1.00  0.00     0.074 A 
ATOM     57  C   UNL A   1      41.188  32.946  30.828  1.00  0.00     0.031 C 
ATOM     58  C   UNL A   1      42.290  31.081  32.217  1.00  0.00     0.037 A 
BRANCH  45  59
ATOM     59  C   UNL A   1      44.789  32.369  27.445  1.00  0.00     0.064 A 
ATOM     60  C   UNL A   1      46.007  32.582  26.762  1.00  0.00     0.173 A 
ATOM     61  C   UNL A   1      44.039  33.533  27.713  1.00  0.00     0.173 A 
ATOM     62  F   UNL A   1      46.811  31.550  26.459  1.00  0.00    -0.203 F 
ATOM     63  C   UNL A   1      46.475  33.864  26.458  1.00  0.00     0.198 A 
ATOM     64  C   UNL A   1      44.486  34.807  27.365  1.00  0.00     0.198 A 
ATOM     65  F   UNL A   1      42.905  33.506  28.421  1.00  0.00    -0.203 F 
ATOM     66  F   UNL A   1      47.694  34.021  25.925  1.00  0.00    -0.200 F 
ATOM     67  C   UNL A   1      45.716  34.977  26.769  1.00  0.00     0.200 A 
ATOM     68  F   UNL A   1      43.745  35.876  27.694  1.00  0.00    -0.200 F 
ATOM     69  F   UNL A   1      46.187  36.210  26.539  1.00  0.00    -0.200 F 
ENDBRANCH  45  59
BRANCH  46  70
ATOM     70  C   UNL A   1      36.748  32.053  30.618  1.00  0.00     0.064 A 
ATOM     71  C   UNL A   1      35.878  32.062  31.721  1.00  0.00     0.173 A 
ATOM     72  C   UNL A   1      36.455  32.950  29.576  1.00  0.00     0.173 A 
ATOM     73  F   UNL A   1      36.110  31.260  32.769  1.00  0.00    -0.203 F 
ATOM     74  C   UNL A   1      34.800  32.949  31.794  1.00  0.00     0.198 A 
ATOM     75  C   UNL A   1      35.379  33.837  29.650  1.00  0.00     0.198 A 
ATOM     76  F   UNL A   1      37.269  33.052  28.515  1.00  0.00    -0.203 F 
ATOM     77  F   UNL A   1      34.028  32.976  32.890  1.00  0.00    -0.200 F 
ATOM     78  C   UNL A   1      34.560  33.847  30.766  1.00  0.00     0.200 A 
ATOM     79  F   UNL A   1      35.182  34.728  28.669  1.00  0.00    -0.200 F 
ATOM     80  F   UNL A   1      33.573  34.747  30.869  1.00  0.00    -0.200 F 
ENDBRANCH  46  70
BRANCH  58  81
ATOM     81  C   UNL A   1      42.030  30.145  33.357  1.00  0.00     0.064 A 
ATOM     82  C   UNL A   1      41.626  28.808  33.217  1.00  0.00     0.173 A 
ATOM     83  C   UNL A   1      42.274  30.615  34.654  1.00  0.00     0.173 A 
ATOM     84  F   UNL A   1      41.444  28.265  32.007  1.00  0.00    -0.203 F 
ATOM     85  C   UNL A   1      41.436  27.992  34.332  1.00  0.00     0.198 A 
ATOM     86  C   UNL A   1      42.118  29.790  35.762  1.00  0.00     0.198 A 
ATOM     87  F   UNL A   1      42.699  31.874  34.842  1.00  0.00    -0.203 F 
ATOM     88  F   UNL A   1      41.030  26.723  34.175  1.00  0.00    -0.200 F 
ATOM     89  C   UNL A   1      41.689  28.483  35.602  1.00  0.00     0.200 A 
ATOM     90  F   UNL A   1      42.403  30.259  36.984  1.00  0.00    -0.200 F 
ATOM     91  F   UNL A   1      41.537  27.691  36.672  1.00  0.00    -0.200 F 
ENDBRANCH  58  81
ENDBRANCH  32  33
ENDBRANCH  24  27
ENDBRANCH  22  23
ENDBRANCH   1  22
TORSDOF 12
ENDMDL
MODEL 2
REMARK VINA RESULT:     -12.8      3.562      6.680
REMARK SMILES Cc1cnn([C@H]2CC[C@@]([NH3+])(C(=O)NCCCNC(=O)c3ccc(-c4c5nc(c(-c6c(F)c(F)c(F)c(F)c6F)c6ccc([nH]6)c(-c6c(F)c(F)c(F)c(F)c6F)c6nc(c(-c7c(F)c(F)c(F)c(F)c7F)c7ccc4[nH]7)C=C6)C=C5)cc3)C2)c1
REMARK SMILES IDX 15 1 14 2 13 3 11 4 12 5 9 7 6 8 7 9 83 10 8 11 5 12 1 13
REMARK SMILES IDX 2 14 3 15 84 16 4 17 10 18 16 22 17 23 18 24 19 26 20 27
REMARK SMILES IDX 21 28 82 29 22 30 81 31 23 32 24 33 25 34 75 35 26 36 80 37
REMARK SMILES IDX 74 38 76 39 27 40 79 41 73 42 72 43 28 45 60 46 40 47 59 48
REMARK SMILES IDX 41 49 44 50 58 51 77 52 42 53 43 54 57 56 78 57 45 58 29 59
REMARK SMILES IDX 30 60 38 61 31 62 32 63 36 64 39 65 33 66 34 67 37 68 35 69
REMARK SMILES IDX 61 70 62 71 70 72 63 73 64 74 68 75 71 76 65 77 66 78 69 79
REMARK SMILES IDX 67 80 46 81 47 82 55 83 48 84 49 85 53 86 56 87 50 88 51 89
REMARK SMILES IDX 54 90 52 91
REMARK H PARENT 13 6 10 19 10 20 10 21 17 25 76 44 44 55
REMARK Flexibility Score: inf
ROOT
ATOM      1  C   UNL A   1      44.344  22.807  25.872  1.00  0.00     0.042 C 
ENDROOT
BRANCH   1   2
ATOM      2  C   UNL A   1      44.831  23.498  27.146  1.00  0.00     0.118 C 
BRANCH   2   3
ATOM      3  N   UNL A   1      46.212  23.963  27.095  1.00  0.00    -0.351 N 
ATOM      4  C   UNL A   1      46.712  25.216  27.339  1.00  0.00     0.281 C 
ATOM      5  O   UNL A   1      47.904  25.288  27.643  1.00  0.00    -0.268 OA
ATOM      6  H   UNL A   1      46.879  23.282  26.851  1.00  0.00     0.163 HD
BRANCH   4   7
ATOM      7  C   UNL A   1      45.778  26.471  27.325  1.00  0.00     0.176 C 
ATOM      8  C   UNL A   1      46.653  28.027  25.635  1.00  0.00     0.114 C 
ATOM      9  C   UNL A   1      45.331  27.449  25.099  1.00  0.00     0.034 C 
ATOM     10  C   UNL A   1      46.525  27.808  27.149  1.00  0.00     0.106 C 
ATOM     11  C   UNL A   1      44.810  26.448  26.135  1.00  0.00     0.081 C 
BRANCH   8  12
ATOM     12  N   UNL A   1      47.842  27.479  25.001  1.00  0.00    -0.269 N 
ATOM     13  C   UNL A   1      51.325  26.488  24.706  1.00  0.00     0.048 C 
ATOM     14  C   UNL A   1      49.892  26.818  24.561  1.00  0.00    -0.013 A 
ATOM     15  C   UNL A   1      48.966  26.362  23.603  1.00  0.00     0.138 A 
ATOM     16  C   UNL A   1      49.145  27.649  25.366  1.00  0.00     0.112 A 
ATOM     17  N   UNL A   1      47.726  26.793  23.843  1.00  0.00    -0.181 NA
ENDBRANCH   8  12
BRANCH   7  18
ATOM     18  N   UNL A   1      45.083  26.496  28.632  1.00  0.00    -0.345 N 
ATOM     19  H   UNL A   1      45.749  26.731  29.368  1.00  0.00     0.345 HD
ATOM     20  H   UNL A   1      44.679  25.578  28.820  1.00  0.00     0.345 HD
ATOM     21  H   UNL A   1      44.340  27.195  28.609  1.00  0.00     0.345 HD
ENDBRANCH   7  18
ENDBRANCH   4   7
ENDBRANCH   2   3
ENDBRANCH   1   2
BRANCH   1  22
ATOM     22  C   UNL A   1      43.073  23.406  25.308  1.00  0.00     0.118 C 
BRANCH  22  23
ATOM     23  N   UNL A   1      41.886  22.567  25.487  1.00  0.00    -0.352 N 
ATOM     24  C   UNL A   1      40.910  22.676  26.467  1.00  0.00     0.251 C 
ATOM     25  H   UNL A   1      41.768  21.840  24.835  1.00  0.00     0.163 HD
ATOM     26  O   UNL A   1      40.160  21.753  26.723  1.00  0.00    -0.269 OA
BRANCH  24  27
ATOM     27  C   UNL A   1      40.806  23.954  27.199  1.00  0.00     0.039 A 
ATOM     28  C   UNL A   1      41.605  24.241  28.306  1.00  0.00     0.014 A 
ATOM     29  C   UNL A   1      39.916  24.898  26.702  1.00  0.00     0.014 A 
ATOM     30  C   UNL A   1      41.550  25.524  28.847  1.00  0.00     0.010 A 
ATOM     31  C   UNL A   1      40.031  26.205  27.081  1.00  0.00     0.010 A 
ATOM     32  C   UNL A   1      40.776  26.509  28.207  1.00  0.00    -0.014 A 
BRANCH  32  33
ATOM     33  C   UNL A   1      40.795  27.898  28.640  1.00  0.00     0.031 A 
ATOM     34  C   UNL A   1      41.896  28.689  28.045  1.00  0.00     0.074 A 
ATOM     35  C   UNL A   1      39.810  28.464  29.372  1.00  0.00     0.049 A 
ATOM     36  N   UNL A   1      42.990  29.044  28.628  1.00  0.00    -0.248 NA
ATOM     37  C   UNL A   1      41.872  28.974  26.602  1.00  0.00     0.031 C 
ATOM     38  C   UNL A   1      38.514  27.885  29.758  1.00  0.00     0.029 A 
ATOM     39  N   UNL A   1      39.728  29.730  29.875  1.00  0.00    -0.354 N 
ATOM     40  C   UNL A   1      43.687  29.808  27.698  1.00  0.00     0.074 A 
ATOM     41  C   UNL A   1      43.064  29.552  26.427  1.00  0.00     0.031 C 
ATOM     42  C   UNL A   1      37.701  28.851  30.236  1.00  0.00     0.029 A 
ATOM     43  C   UNL A   1      38.476  30.068  30.378  1.00  0.00     0.049 A 
ATOM     44  H   UNL A   1      40.492  30.352  29.882  1.00  0.00     0.167 HD
ATOM     45  C   UNL A   1      44.507  30.807  28.128  1.00  0.00     0.037 A 
ATOM     46  C   UNL A   1      38.106  31.257  30.909  1.00  0.00     0.037 A 
ATOM     47  C   UNL A   1      44.700  30.709  29.555  1.00  0.00     0.049 A 
ATOM     48  C   UNL A   1      39.340  31.931  31.366  1.00  0.00     0.074 A 
ATOM     49  C   UNL A   1      45.413  29.906  30.417  1.00  0.00     0.029 A 
ATOM     50  N   UNL A   1      43.708  31.313  30.282  1.00  0.00    -0.354 N 
ATOM     51  N   UNL A   1      40.066  31.492  32.356  1.00  0.00    -0.248 NA
ATOM     52  C   UNL A   1      39.992  32.895  30.489  1.00  0.00     0.031 C 
ATOM     53  C   UNL A   1      44.691  29.912  31.651  1.00  0.00     0.029 A 
ATOM     54  C   UNL A   1      43.588  30.754  31.525  1.00  0.00     0.049 A 
ATOM     55  H   UNL A   1      43.152  32.055  29.953  1.00  0.00     0.167 HD
ATOM     56  C   UNL A   1      41.364  31.770  31.973  1.00  0.00     0.074 A 
ATOM     57  C   UNL A   1      41.248  32.783  30.931  1.00  0.00     0.031 C 
ATOM     58  C   UNL A   1      42.379  30.921  32.300  1.00  0.00     0.037 A 
BRANCH  45  59
ATOM     59  C   UNL A   1      44.721  32.135  27.430  1.00  0.00     0.064 A 
ATOM     60  C   UNL A   1      45.937  32.347  26.744  1.00  0.00     0.173 A 
ATOM     61  C   UNL A   1      43.960  33.297  27.679  1.00  0.00     0.173 A 
ATOM     62  F   UNL A   1      46.750  31.318  26.458  1.00  0.00    -0.203 F 
ATOM     63  C   UNL A   1      46.394  33.628  26.420  1.00  0.00     0.198 A 
ATOM     64  C   UNL A   1      44.397  34.569  27.310  1.00  0.00     0.198 A 
ATOM     65  F   UNL A   1      42.826  33.272  28.386  1.00  0.00    -0.203 F 
ATOM     66  F   UNL A   1      47.613  33.787  25.886  1.00  0.00    -0.200 F 
ATOM     67  C   UNL A   1      45.626  34.740  26.713  1.00  0.00     0.200 A 
ATOM     68  F   UNL A   1      43.647  35.637  27.622  1.00  0.00    -0.200 F 
ATOM     69  F   UNL A   1      46.087  35.973  26.464  1.00  0.00    -0.200 F 
ENDBRANCH  45  59
BRANCH  46  70
ATOM     70  C   UNL A   1      36.794  31.935  30.888  1.00  0.00     0.064 A 
ATOM     71  C   UNL A   1      35.975  31.986  32.028  1.00  0.00     0.173 A 
ATOM     72  C   UNL A   1      36.464  32.807  29.835  1.00  0.00     0.173 A 
ATOM     73  F   UNL A   1      36.245  31.211  33.087  1.00  0.00    -0.203 F 
ATOM     74  C   UNL A   1      34.910  32.887  32.123  1.00  0.00     0.198 A 
ATOM     75  C   UNL A   1      35.402  33.708  29.932  1.00  0.00     0.198 A 
ATOM     76  F   UNL A   1      37.231  32.869  28.737  1.00  0.00    -0.203 F 
ATOM     77  F   UNL A   1      34.189  32.954  33.252  1.00  0.00    -0.200 F 
ATOM     78  C   UNL A   1      34.634  33.758  31.082  1.00  0.00     0.200 A 
ATOM     79  F   UNL A   1      35.170  34.574  28.935  1.00  0.00    -0.200 F 
ATOM     80  F   UNL A   1      33.662  34.672  31.203  1.00  0.00    -0.200 F 
ENDBRANCH  46  70
BRANCH  58  81
ATOM     81  C   UNL A   1      42.150  29.998  33.457  1.00  0.00     0.064 A 
ATOM     82  C   UNL A   1      41.720  28.666  33.345  1.00  0.00     0.173 A 
ATOM     83  C   UNL A   1      42.451  30.476  34.739  1.00  0.00     0.173 A 
ATOM     84  F   UNL A   1      41.483  28.116  32.148  1.00  0.00    -0.203 F 
ATOM     85  C   UNL A   1      41.563  27.863  34.474  1.00  0.00     0.198 A 
ATOM     86  C   UNL A   1      42.327  29.663  35.860  1.00  0.00     0.198 A 
ATOM     87  F   UNL A   1      42.903  31.729  34.899  1.00  0.00    -0.203 F 
ATOM     88  F   UNL A   1      41.131  26.599  34.346  1.00  0.00    -0.200 F 
ATOM     89  C   UNL A   1      41.872  28.361  35.729  1.00  0.00     0.200 A 
ATOM     90  F   UNL A   1      42.666  30.138  37.066  1.00  0.00    -0.200 F 
ATOM     91  F   UNL A   1      41.751  27.581  36.812  1.00  0.00    -0.200 F 
ENDBRANCH  58  81
ENDBRANCH  32  33
ENDBRANCH  24  27
ENDBRANCH  22  23
ENDBRANCH   1  22
TORSDOF 12
ENDMDL
MODEL 3
REMARK VINA RESULT:     -12.8      1.163      2.058
REMARK SMILES Cc1cnn([C@H]2CC[C@@]([NH3+])(C(=O)NCCCNC(=O)c3ccc(-c4c5nc(c(-c6c(F)c(F)c(F)c(F)c6F)c6ccc([nH]6)c(-c6c(F)c(F)c(F)c(F)c6F)c6nc(c(-c7c(F)c(F)c(F)c(F)c7F)c7ccc4[nH]7)C=C6)C=C5)cc3)C2)c1
REMARK SMILES IDX 15 1 14 2 13 3 11 4 12 5 9 7 6 8 7 9 83 10 8 11 5 12 1 13
REMARK SMILES IDX 2 14 3 15 84 16 4 17 10 18 16 22 17 23 18 24 19 26 20 27
REMARK SMILES IDX 21 28 82 29 22 30 81 31 23 32 24 33 25 34 75 35 26 36 80 37
REMARK SMILES IDX 74 38 76 39 27 40 79 41 73 42 72 43 28 45 60 46 40 47 59 48
REMARK SMILES IDX 41 49 44 50 58 51 77 52 42 53 43 54 57 56 78 57 45 58 29 59
REMARK SMILES IDX 30 60 38 61 31 62 32 63 36 64 39 65 33 66 34 67 37 68 35 69
REMARK SMILES IDX 61 70 62 71 70 72 63 73 64 74 68 75 71 76 65 77 66 78 69 79
REMARK SMILES IDX 67 80 46 81 47 82 55 83 48 84 49 85 53 86 56 87 50 88 51 89
REMARK SMILES IDX 54 90 52 91
REMARK H PARENT 13 6 10 19 10 20 10 21 17 25 76 44 44 55
REMARK Flexibility Score: inf
ROOT
ATOM      1  C   UNL A   1      38.473  21.933  25.758  1.00  0.00     0.042 C 
ENDROOT
BRANCH   1   2
ATOM      2  C   UNL A   1      37.413  23.029  25.648  1.00  0.00     0.118 C 
BRANCH   2   3
ATOM      3  N   UNL A   1      36.245  22.832  26.498  1.00  0.00    -0.351 N 
ATOM      4  C   UNL A   1      35.199  21.960  26.343  1.00  0.00     0.281 C 
ATOM      5  O   UNL A   1      34.562  21.671  27.357  1.00  0.00    -0.268 OA
ATOM      6  H   UNL A   1      36.202  23.406  27.297  1.00  0.00     0.163 HD
BRANCH   4   7
ATOM      7  C   UNL A   1      34.905  21.295  24.957  1.00  0.00     0.176 C 
ATOM      8  C   UNL A   1      32.810  22.258  24.105  1.00  0.00     0.114 C 
ATOM      9  C   UNL A   1      33.958  22.793  23.232  1.00  0.00     0.034 C 
ATOM     10  C   UNL A   1      33.416  20.984  24.713  1.00  0.00     0.106 C 
ATOM     11  C   UNL A   1      35.267  22.226  23.792  1.00  0.00     0.081 C 
BRANCH   8  12
ATOM     12  N   UNL A   1      32.273  23.230  25.045  1.00  0.00    -0.269 N 
ATOM     13  C   UNL A   1      31.711  26.499  26.526  1.00  0.00     0.048 C 
ATOM     14  C   UNL A   1      31.796  25.076  26.139  1.00  0.00    -0.013 A 
ATOM     15  C   UNL A   1      30.977  23.998  26.528  1.00  0.00     0.138 A 
ATOM     16  C   UNL A   1      32.708  24.501  25.282  1.00  0.00     0.112 A 
ATOM     17  N   UNL A   1      31.288  22.865  25.895  1.00  0.00    -0.181 NA
ENDBRANCH   8  12
BRANCH   7  18
ATOM     18  N   UNL A   1      35.657  20.020  24.931  1.00  0.00    -0.345 N 
ATOM     19  H   UNL A   1      35.897  19.787  23.967  1.00  0.00     0.345 HD
ATOM     20  H   UNL A   1      35.081  19.277  25.327  1.00  0.00     0.345 HD
ATOM     21  H   UNL A   1      36.511  20.118  25.481  1.00  0.00     0.345 HD
ENDBRANCH   7  18
ENDBRANCH   4   7
ENDBRANCH   2   3
ENDBRANCH   1   2
BRANCH   1  22
ATOM     22  C   UNL A   1      39.555  22.238  26.773  1.00  0.00     0.118 C 
BRANCH  22  23
ATOM     23  N   UNL A   1      40.913  22.205  26.227  1.00  0.00    -0.352 N 
ATOM     24  C   UNL A   1      41.788  23.269  26.063  1.00  0.00     0.251 C 
ATOM     25  H   UNL A   1      41.244  21.322  25.944  1.00  0.00     0.163 HD
ATOM     26  O   UNL A   1      42.745  23.195  25.315  1.00  0.00    -0.269 OA
BRANCH  24  27
ATOM     27  C   UNL A   1      41.523  24.505  26.826  1.00  0.00     0.039 A 
ATOM     28  C   UNL A   1      42.078  24.731  28.086  1.00  0.00     0.014 A 
ATOM     29  C   UNL A   1      40.741  25.474  26.210  1.00  0.00     0.014 A 
ATOM     30  C   UNL A   1      41.900  25.982  28.673  1.00  0.00     0.010 A 
ATOM     31  C   UNL A   1      40.761  26.759  26.674  1.00  0.00     0.010 A 
ATOM     32  C   UNL A   1      41.260  27.000  27.943  1.00  0.00    -0.014 A 
BRANCH  32  33
ATOM     33  C   UNL A   1      41.175  28.364  28.445  1.00  0.00     0.031 A 
ATOM     34  C   UNL A   1      42.281  29.234  27.987  1.00  0.00     0.074 A 
ATOM     35  C   UNL A   1      40.105  28.846  29.116  1.00  0.00     0.049 A 
ATOM     36  N   UNL A   1      43.304  29.605  28.679  1.00  0.00    -0.248 NA
ATOM     37  C   UNL A   1      42.365  29.594  26.563  1.00  0.00     0.031 C 
ATOM     38  C   UNL A   1      38.812  28.189  29.360  1.00  0.00     0.029 A 
ATOM     39  N   UNL A   1      39.920  30.077  29.673  1.00  0.00    -0.354 N 
ATOM     40  C   UNL A   1      44.038  30.448  27.852  1.00  0.00     0.074 A 
ATOM     41  C   UNL A   1      43.538  30.234  26.521  1.00  0.00     0.031 C 
ATOM     42  C   UNL A   1      37.915  29.091  29.813  1.00  0.00     0.029 A 
ATOM     43  C   UNL A   1      38.615  30.332  30.081  1.00  0.00     0.049 A 
ATOM     44  H   UNL A   1      40.649  30.731  29.777  1.00  0.00     0.167 HD
ATOM     45  C   UNL A   1      44.770  31.458  28.400  1.00  0.00     0.037 A 
ATOM     46  C   UNL A   1      38.143  31.473  30.637  1.00  0.00     0.037 A 
ATOM     47  C   UNL A   1      44.847  31.292  29.832  1.00  0.00     0.049 A 
ATOM     48  C   UNL A   1      39.301  32.175  31.232  1.00  0.00     0.074 A 
ATOM     49  C   UNL A   1      45.523  30.476  30.712  1.00  0.00     0.029 A 
ATOM     50  N   UNL A   1      43.769  31.811  30.500  1.00  0.00    -0.354 N 
ATOM     51  N   UNL A   1      39.962  31.717  32.258  1.00  0.00    -0.248 NA
ATOM     52  C   UNL A   1      39.976  33.213  30.464  1.00  0.00     0.031 C 
ATOM     53  C   UNL A   1      44.701  30.384  31.877  1.00  0.00     0.029 A 
ATOM     54  C   UNL A   1      43.573  31.181  31.699  1.00  0.00     0.049 A 
ATOM     55  H   UNL A   1      43.207  32.545  30.161  1.00  0.00     0.167 HD
ATOM     56  C   UNL A   1      41.272  32.072  32.003  1.00  0.00     0.074 A 
ATOM     57  C   UNL A   1      41.195  33.134  31.007  1.00  0.00     0.031 C 
ATOM     58  C   UNL A   1      42.296  31.252  32.374  1.00  0.00     0.037 A 
BRANCH  45  59
ATOM     59  C   UNL A   1      44.976  32.830  27.790  1.00  0.00     0.064 A 
ATOM     60  C   UNL A   1      46.276  33.193  27.373  1.00  0.00     0.173 A 
ATOM     61  C   UNL A   1      44.061  33.898  27.904  1.00  0.00     0.173 A 
ATOM     62  F   UNL A   1      47.235  32.264  27.237  1.00  0.00    -0.203 F 
ATOM     63  C   UNL A   1      46.649  34.527  27.179  1.00  0.00     0.198 A 
ATOM     64  C   UNL A   1      44.424  35.222  27.661  1.00  0.00     0.198 A 
ATOM     65  F   UNL A   1      42.817  33.729  28.363  1.00  0.00    -0.203 F 
ATOM     66  F   UNL A   1      47.926  34.830  26.909  1.00  0.00    -0.200 F 
ATOM     67  C   UNL A   1      45.723  35.542  27.332  1.00  0.00     0.200 A 
ATOM     68  F   UNL A   1      43.517  36.195  27.836  1.00  0.00    -0.200 F 
ATOM     69  F   UNL A   1      46.090  36.824  27.210  1.00  0.00    -0.200 F 
ENDBRANCH  45  59
BRANCH  46  70
ATOM     70  C   UNL A   1      36.807  32.092  30.537  1.00  0.00     0.064 A 
ATOM     71  C   UNL A   1      35.898  32.055  31.607  1.00  0.00     0.173 A 
ATOM     72  C   UNL A   1      36.520  32.994  29.497  1.00  0.00     0.173 A 
ATOM     73  F   UNL A   1      36.120  31.247  32.653  1.00  0.00    -0.203 F 
ATOM     74  C   UNL A   1      34.787  32.903  31.653  1.00  0.00     0.198 A 
ATOM     75  C   UNL A   1      35.412  33.842  29.544  1.00  0.00     0.198 A 
ATOM     76  F   UNL A   1      37.368  33.140  28.469  1.00  0.00    -0.203 F 
ATOM     77  F   UNL A   1      33.975  32.887  32.720  1.00  0.00    -0.200 F 
ATOM     78  C   UNL A   1      34.553  33.807  30.629  1.00  0.00     0.200 A 
ATOM     79  F   UNL A   1      35.219  34.740  28.568  1.00  0.00    -0.200 F 
ATOM     80  F   UNL A   1      33.532  34.670  30.707  1.00  0.00    -0.200 F 
ENDBRANCH  46  70
BRANCH  58  81
ATOM     81  C   UNL A   1      42.017  30.260  33.460  1.00  0.00     0.064 A 
ATOM     82  C   UNL A   1      41.634  28.926  33.244  1.00  0.00     0.173 A 
ATOM     83  C   UNL A   1      42.216  30.670  34.784  1.00  0.00     0.173 A 
ATOM     84  F   UNL A   1      41.494  28.439  32.005  1.00  0.00    -0.203 F 
ATOM     85  C   UNL A   1      41.424  28.056  34.313  1.00  0.00     0.198 A 
ATOM     86  C   UNL A   1      42.040  29.791  35.847  1.00  0.00     0.198 A 
ATOM     87  F   UNL A   1      42.620  31.923  35.044  1.00  0.00    -0.203 F 
ATOM     88  F   UNL A   1      41.039  26.791  34.085  1.00  0.00    -0.200 F 
ATOM     89  C   UNL A   1      41.633  28.488  35.612  1.00  0.00     0.200 A 
ATOM     90  F   UNL A   1      42.284  30.205  37.098  1.00  0.00    -0.200 F 
ATOM     91  F   UNL A   1      41.462  27.644  36.639  1.00  0.00    -0.200 F 
ENDBRANCH  58  81
ENDBRANCH  32  33
ENDBRANCH  24  27
ENDBRANCH  22  23
ENDBRANCH   1  22
TORSDOF 12
ENDMDL
