MODEL 1
REMARK VINA RESULT:     -13.3      0.000      0.000
REMARK SMILES Cc1nc(NC(=O)[C@@H]2CCC[C@@H](C(=O)NCCCNC(=O)c3ccc(-c4c5nc(c(-c6c(F)c(F)c(F)c(F)c6F)c6ccc([nH]6)c(-c6c(F)c(F)c(F)c(F)c6F)c6nc(c(-c7c(F)c(F)c(F)c(F)c7F)c7ccc4[nH]7)C=C6)C=C5)cc3)C2)ccc1Br
REMARK SMILES IDX 17 1 16 2 15 3 13 4 14 5 12 7 8 8 9 9 85 10 10 11 11 12 6 13
REMARK SMILES IDX 5 14 7 16 4 17 1 18 2 19 3 20 88 21 87 22 89 23 86 24 18 25
REMARK SMILES IDX 19 26 20 27 21 29 22 30 23 31 84 32 24 33 83 34 25 35 26 36
REMARK SMILES IDX 27 37 77 38 28 39 82 40 76 41 78 42 29 43 81 44 75 45 74 46
REMARK SMILES IDX 30 48 62 49 42 50 61 51 43 52 46 53 60 54 79 55 44 56 45 57
REMARK SMILES IDX 59 59 80 60 47 61 31 62 32 63 40 64 33 65 34 66 38 67 41 68
REMARK SMILES IDX 35 69 36 70 39 71 37 72 63 73 64 74 72 75 65 76 66 77 70 78
REMARK SMILES IDX 73 79 67 80 68 81 71 82 69 83 48 84 49 85 57 86 50 87 51 88
REMARK SMILES IDX 55 89 58 90 52 91 53 92 56 93 54 94
REMARK H PARENT 15 6 5 15 19 28 78 47 46 58
REMARK Flexibility Score: inf
ROOT
ATOM      1  C   UNL A   1      37.862  19.852  24.958  1.00  0.00     0.042 C 
ENDROOT
BRANCH   1   2
ATOM      2  C   UNL A   1      36.666  20.794  25.007  1.00  0.00     0.117 C 
BRANCH   2   3
ATOM      3  N   UNL A   1      35.425  20.044  25.025  1.00  0.00    -0.356 N 
ATOM      4  C   UNL A   1      34.116  20.371  25.042  1.00  0.00     0.223 C 
ATOM      5  O   UNL A   1      33.356  19.424  25.289  1.00  0.00    -0.275 OA
ATOM      6  H   UNL A   1      35.572  19.071  25.023  1.00  0.00     0.163 HD
BRANCH   4   7
ATOM      7  C   UNL A   1      33.512  21.734  24.682  1.00  0.00     0.079 C 
ATOM      8  C   UNL A   1      31.684  22.297  26.432  1.00  0.00     0.079 C 
ATOM      9  C   UNL A   1      32.744  23.111  27.187  1.00  0.00     0.013 C 
ATOM     10  C   UNL A   1      32.012  21.793  25.025  1.00  0.00     0.027 C 
ATOM     11  C   UNL A   1      33.997  23.559  26.438  1.00  0.00     0.002 C 
ATOM     12  C   UNL A   1      34.189  23.049  25.018  1.00  0.00     0.013 C 
BRANCH   8  13
ATOM     13  C   UNL A   1      30.251  22.858  26.539  1.00  0.00     0.228 C 
ATOM     14  N   UNL A   1      29.929  24.172  26.396  1.00  0.00    -0.310 N 
ATOM     15  H   UNL A   1      29.018  24.382  26.704  1.00  0.00     0.171 HD
ATOM     16  O   UNL A   1      29.334  22.082  26.839  1.00  0.00    -0.274 OA
BRANCH  14  17
ATOM     17  C   UNL A   1      30.611  25.279  25.908  1.00  0.00     0.132 A 
ATOM     18  C   UNL A   1      31.722  28.416  27.462  1.00  0.00     0.068 C 
ATOM     19  C   UNL A   1      31.548  27.349  26.423  1.00  0.00     0.054 A 
ATOM     20  N   UNL A   1      30.775  26.286  26.787  1.00  0.00    -0.235 NA
ATOM     21  C   UNL A   1      32.162  27.429  25.174  1.00  0.00     0.039 A 
ATOM     22  C   UNL A   1      31.881  26.440  24.244  1.00  0.00     0.021 A 
ATOM     23  Br  UNL A   1      33.361  28.806  24.683  1.00  0.00    -0.049 Br
ATOM     24  C   UNL A   1      31.069  25.370  24.612  1.00  0.00     0.048 A 
ENDBRANCH  14  17
ENDBRANCH   8  13
ENDBRANCH   4   7
ENDBRANCH   2   3
ENDBRANCH   1   2
BRANCH   1  25
ATOM     25  C   UNL A   1      38.998  20.327  25.853  1.00  0.00     0.118 C 
BRANCH  25  26
ATOM     26  N   UNL A   1      40.023  19.302  25.989  1.00  0.00    -0.352 N 
ATOM     27  C   UNL A   1      41.388  19.446  26.042  1.00  0.00     0.251 C 
ATOM     28  H   UNL A   1      39.692  18.378  26.052  1.00  0.00     0.163 HD
ATOM     29  O   UNL A   1      42.118  18.480  25.855  1.00  0.00    -0.269 OA
BRANCH  27  30
ATOM     30  C   UNL A   1      41.974  20.772  26.324  1.00  0.00     0.039 A 
ATOM     31  C   UNL A   1      42.191  21.159  27.649  1.00  0.00     0.014 A 
ATOM     32  C   UNL A   1      42.265  21.651  25.278  1.00  0.00     0.014 A 
ATOM     33  C   UNL A   1      42.728  22.419  27.920  1.00  0.00     0.010 A 
ATOM     34  C   UNL A   1      42.884  22.866  25.542  1.00  0.00     0.010 A 
ATOM     35  C   UNL A   1      43.083  23.276  26.867  1.00  0.00    -0.014 A 
BRANCH  35  36
ATOM     36  C   UNL A   1      43.556  24.654  27.131  1.00  0.00     0.031 A 
ATOM     37  C   UNL A   1      42.582  25.670  27.661  1.00  0.00     0.074 A 
ATOM     38  C   UNL A   1      44.833  24.994  26.880  1.00  0.00     0.049 A 
ATOM     39  N   UNL A   1      42.780  26.928  27.962  1.00  0.00    -0.248 NA
ATOM     40  C   UNL A   1      41.192  25.220  27.859  1.00  0.00     0.031 C 
ATOM     41  C   UNL A   1      45.851  24.101  26.330  1.00  0.00     0.029 A 
ATOM     42  N   UNL A   1      45.492  26.184  27.057  1.00  0.00    -0.354 N 
ATOM     43  C   UNL A   1      41.548  27.410  28.383  1.00  0.00     0.074 A 
ATOM     44  C   UNL A   1      40.591  26.341  28.226  1.00  0.00     0.031 C 
ATOM     45  C   UNL A   1      47.015  24.766  26.240  1.00  0.00     0.029 A 
ATOM     46  C   UNL A   1      46.818  26.137  26.704  1.00  0.00     0.049 A 
ATOM     47  H   UNL A   1      45.055  26.995  27.405  1.00  0.00     0.167 HD
ATOM     48  C   UNL A   1      41.251  28.624  28.897  1.00  0.00     0.037 A 
ATOM     49  C   UNL A   1      47.764  27.096  26.756  1.00  0.00     0.037 A 
ATOM     50  C   UNL A   1      42.215  29.673  29.080  1.00  0.00     0.049 A 
ATOM     51  C   UNL A   1      47.399  28.454  27.295  1.00  0.00     0.074 A 
ATOM     52  C   UNL A   1      42.033  30.918  29.653  1.00  0.00     0.029 A 
ATOM     53  N   UNL A   1      43.544  29.595  28.690  1.00  0.00    -0.354 N 
ATOM     54  N   UNL A   1      46.252  28.872  27.776  1.00  0.00    -0.248 NA
ATOM     55  C   UNL A   1      48.457  29.475  27.301  1.00  0.00     0.031 C 
ATOM     56  C   UNL A   1      43.240  31.614  29.563  1.00  0.00     0.029 A 
ATOM     57  C   UNL A   1      44.186  30.787  28.977  1.00  0.00     0.049 A 
ATOM     58  H   UNL A   1      43.966  28.811  28.272  1.00  0.00     0.167 HD
ATOM     59  C   UNL A   1      46.453  30.192  28.155  1.00  0.00     0.074 A 
ATOM     60  C   UNL A   1      47.838  30.503  27.869  1.00  0.00     0.031 C 
ATOM     61  C   UNL A   1      45.568  31.071  28.687  1.00  0.00     0.037 A 
BRANCH  48  62
ATOM     62  C   UNL A   1      39.836  28.875  29.328  1.00  0.00     0.064 A 
ATOM     63  C   UNL A   1      38.872  29.348  28.423  1.00  0.00     0.173 A 
ATOM     64  C   UNL A   1      39.425  28.588  30.637  1.00  0.00     0.173 A 
ATOM     65  F   UNL A   1      39.219  29.650  27.163  1.00  0.00    -0.203 F 
ATOM     66  C   UNL A   1      37.552  29.542  28.821  1.00  0.00     0.198 A 
ATOM     67  C   UNL A   1      38.098  28.754  31.022  1.00  0.00     0.198 A 
ATOM     68  F   UNL A   1      40.308  28.132  31.539  1.00  0.00    -0.203 F 
ATOM     69  F   UNL A   1      36.658  30.030  27.951  1.00  0.00    -0.200 F 
ATOM     70  C   UNL A   1      37.164  29.236  30.116  1.00  0.00     0.200 A 
ATOM     71  F   UNL A   1      37.721  28.446  32.271  1.00  0.00    -0.200 F 
ATOM     72  F   UNL A   1      35.890  29.406  30.493  1.00  0.00    -0.200 F 
ENDBRANCH  48  62
BRANCH  49  73
ATOM     73  C   UNL A   1      49.152  26.790  26.324  1.00  0.00     0.064 A 
ATOM     74  C   UNL A   1      50.095  26.293  27.235  1.00  0.00     0.173 A 
ATOM     75  C   UNL A   1      49.565  26.975  24.997  1.00  0.00     0.173 A 
ATOM     76  F   UNL A   1      49.755  26.118  28.521  1.00  0.00    -0.203 F 
ATOM     77  C   UNL A   1      51.399  26.004  26.838  1.00  0.00     0.198 A 
ATOM     78  C   UNL A   1      50.862  26.661  24.595  1.00  0.00     0.198 A 
ATOM     79  F   UNL A   1      48.702  27.445  24.084  1.00  0.00    -0.203 F 
ATOM     80  F   UNL A   1      52.289  25.563  27.738  1.00  0.00    -0.200 F 
ATOM     81  C   UNL A   1      51.780  26.181  25.517  1.00  0.00     0.200 A 
ATOM     82  F   UNL A   1      51.222  26.819  23.313  1.00  0.00    -0.200 F 
ATOM     83  F   UNL A   1      53.031  25.893  25.133  1.00  0.00    -0.200 F 
ENDBRANCH  49  73
BRANCH  61  84
ATOM     84  C   UNL A   1      46.052  32.457  28.992  1.00  0.00     0.064 A 
ATOM     85  C   UNL A   1      45.871  33.504  28.078  1.00  0.00     0.173 A 
ATOM     86  C   UNL A   1      46.587  32.765  30.252  1.00  0.00     0.173 A 
ATOM     87  F   UNL A   1      45.374  33.255  26.857  1.00  0.00    -0.203 F 
ATOM     88  C   UNL A   1      46.205  34.812  28.416  1.00  0.00     0.198 A 
ATOM     89  C   UNL A   1      46.892  34.078  30.597  1.00  0.00     0.198 A 
ATOM     90  F   UNL A   1      46.769  31.798  31.164  1.00  0.00    -0.203 F 
ATOM     91  F   UNL A   1      46.037  35.796  27.522  1.00  0.00    -0.200 F 
ATOM     92  C   UNL A   1      46.701  35.100  29.679  1.00  0.00     0.200 A 
ATOM     93  F   UNL A   1      47.352  34.358  31.825  1.00  0.00    -0.200 F 
ATOM     94  F   UNL A   1      46.990  36.365  30.013  1.00  0.00    -0.200 F 
ENDBRANCH  61  84
ENDBRANCH  35  36
ENDBRANCH  27  30
ENDBRANCH  25  26
ENDBRANCH   1  25
TORSDOF 12
ENDMDL
MODEL 2
REMARK VINA RESULT:     -13.3      0.823      1.806
REMARK SMILES Cc1nc(NC(=O)[C@@H]2CCC[C@@H](C(=O)NCCCNC(=O)c3ccc(-c4c5nc(c(-c6c(F)c(F)c(F)c(F)c6F)c6ccc([nH]6)c(-c6c(F)c(F)c(F)c(F)c6F)c6nc(c(-c7c(F)c(F)c(F)c(F)c7F)c7ccc4[nH]7)C=C6)C=C5)cc3)C2)ccc1Br
REMARK SMILES IDX 17 1 16 2 15 3 13 4 14 5 12 7 8 8 9 9 85 10 10 11 11 12 6 13
REMARK SMILES IDX 5 14 7 16 4 17 1 18 2 19 3 20 88 21 87 22 89 23 86 24 18 25
REMARK SMILES IDX 19 26 20 27 21 29 22 30 23 31 84 32 24 33 83 34 25 35 26 36
REMARK SMILES IDX 27 37 77 38 28 39 82 40 76 41 78 42 29 43 81 44 75 45 74 46
REMARK SMILES IDX 30 48 62 49 42 50 61 51 43 52 46 53 60 54 79 55 44 56 45 57
REMARK SMILES IDX 59 59 80 60 47 61 31 62 32 63 40 64 33 65 34 66 38 67 41 68
REMARK SMILES IDX 35 69 36 70 39 71 37 72 63 73 64 74 72 75 65 76 66 77 70 78
REMARK SMILES IDX 73 79 67 80 68 81 71 82 69 83 48 84 49 85 57 86 50 87 51 88
REMARK SMILES IDX 55 89 58 90 52 91 53 92 56 93 54 94
REMARK H PARENT 15 6 5 15 19 28 78 47 46 58
REMARK Flexibility Score: inf
ROOT
ATOM      1  C   UNL A   1      37.781  19.656  25.001  1.00  0.00     0.042 C 
ENDROOT
BRANCH   1   2
ATOM      2  C   UNL A   1      36.620  20.644  25.001  1.00  0.00     0.117 C 
BRANCH   2   3
ATOM      3  N   UNL A   1      35.352  19.942  25.001  1.00  0.00    -0.356 N 
ATOM      4  C   UNL A   1      34.057  20.318  24.954  1.00  0.00     0.223 C 
ATOM      5  O   UNL A   1      33.252  19.411  25.210  1.00  0.00    -0.275 OA
ATOM      6  H   UNL A   1      35.461  18.964  25.045  1.00  0.00     0.163 HD
BRANCH   4   7
ATOM      7  C   UNL A   1      33.520  21.686  24.515  1.00  0.00     0.079 C 
ATOM      8  C   UNL A   1      32.283  22.754  26.527  1.00  0.00     0.079 C 
ATOM      9  C   UNL A   1      33.580  23.510  26.845  1.00  0.00     0.013 C 
ATOM     10  C   UNL A   1      32.177  22.008  25.195  1.00  0.00     0.027 C 
ATOM     11  C   UNL A   1      34.631  23.659  25.748  1.00  0.00     0.002 C 
ATOM     12  C   UNL A   1      34.391  22.925  24.437  1.00  0.00     0.013 C 
BRANCH   8  13
ATOM     13  C   UNL A   1      30.992  23.523  26.876  1.00  0.00     0.228 C 
ATOM     14  N   UNL A   1      30.761  24.823  26.548  1.00  0.00    -0.310 N 
ATOM     15  H   UNL A   1      29.994  25.213  27.027  1.00  0.00     0.171 HD
ATOM     16  O   UNL A   1      30.130  22.953  27.557  1.00  0.00    -0.274 OA
BRANCH  14  17
ATOM     17  C   UNL A   1      31.375  25.717  25.680  1.00  0.00     0.132 A 
ATOM     18  C   UNL A   1      33.738  28.481  26.197  1.00  0.00     0.068 C 
ATOM     19  C   UNL A   1      32.879  27.485  25.476  1.00  0.00     0.054 A 
ATOM     20  N   UNL A   1      32.140  26.656  26.268  1.00  0.00    -0.235 NA
ATOM     21  C   UNL A   1      32.861  27.395  24.085  1.00  0.00     0.039 A 
ATOM     22  C   UNL A   1      31.976  26.503  23.500  1.00  0.00     0.021 A 
ATOM     23  Br  UNL A   1      33.981  28.419  22.956  1.00  0.00    -0.049 Br
ATOM     24  C   UNL A   1      31.203  25.678  24.313  1.00  0.00     0.048 A 
ENDBRANCH  14  17
ENDBRANCH   8  13
ENDBRANCH   4   7
ENDBRANCH   2   3
ENDBRANCH   1   2
BRANCH   1  25
ATOM     25  C   UNL A   1      39.023  20.238  25.659  1.00  0.00     0.118 C 
BRANCH  25  26
ATOM     26  N   UNL A   1      40.015  19.203  25.914  1.00  0.00    -0.352 N 
ATOM     27  C   UNL A   1      41.368  19.332  26.116  1.00  0.00     0.251 C 
ATOM     28  H   UNL A   1      39.669  18.282  25.948  1.00  0.00     0.163 HD
ATOM     29  O   UNL A   1      42.103  18.357  26.017  1.00  0.00    -0.269 OA
BRANCH  27  30
ATOM     30  C   UNL A   1      41.935  20.654  26.450  1.00  0.00     0.039 A 
ATOM     31  C   UNL A   1      42.027  21.043  27.790  1.00  0.00     0.014 A 
ATOM     32  C   UNL A   1      42.332  21.528  25.436  1.00  0.00     0.014 A 
ATOM     33  C   UNL A   1      42.545  22.299  28.109  1.00  0.00     0.010 A 
ATOM     34  C   UNL A   1      42.933  22.739  25.756  1.00  0.00     0.010 A 
ATOM     35  C   UNL A   1      43.008  23.150  27.093  1.00  0.00    -0.014 A 
BRANCH  35  36
ATOM     36  C   UNL A   1      43.464  24.525  27.400  1.00  0.00     0.031 A 
ATOM     37  C   UNL A   1      42.441  25.574  27.742  1.00  0.00     0.074 A 
ATOM     38  C   UNL A   1      44.773  24.833  27.351  1.00  0.00     0.049 A 
ATOM     39  N   UNL A   1      42.618  26.835  28.042  1.00  0.00    -0.248 NA
ATOM     40  C   UNL A   1      41.028  25.157  27.722  1.00  0.00     0.031 C 
ATOM     41  C   UNL A   1      45.845  23.906  26.992  1.00  0.00     0.029 A 
ATOM     42  N   UNL A   1      45.422  26.014  27.605  1.00  0.00    -0.354 N 
ATOM     43  C   UNL A   1      41.346  27.352  28.248  1.00  0.00     0.074 A 
ATOM     44  C   UNL A   1      40.402  26.298  27.962  1.00  0.00     0.031 C 
ATOM     45  C   UNL A   1      47.023  24.546  27.076  1.00  0.00     0.029 A 
ATOM     46  C   UNL A   1      46.786  25.932  27.472  1.00  0.00     0.049 A 
ATOM     47  H   UNL A   1      44.954  26.842  27.859  1.00  0.00     0.167 HD
ATOM     48  C   UNL A   1      40.999  28.585  28.679  1.00  0.00     0.037 A 
ATOM     49  C   UNL A   1      47.733  26.873  27.655  1.00  0.00     0.037 A 
ATOM     50  C   UNL A   1      41.945  29.619  28.992  1.00  0.00     0.049 A 
ATOM     51  C   UNL A   1      47.319  28.252  28.096  1.00  0.00     0.074 A 
ATOM     52  C   UNL A   1      41.703  30.882  29.500  1.00  0.00     0.029 A 
ATOM     53  N   UNL A   1      43.318  29.505  28.824  1.00  0.00    -0.354 N 
ATOM     54  N   UNL A   1      46.120  28.705  28.376  1.00  0.00    -0.248 NA
ATOM     55  C   UNL A   1      48.386  29.252  28.251  1.00  0.00     0.031 C 
ATOM     56  C   UNL A   1      42.925  31.551  29.591  1.00  0.00     0.029 A 
ATOM     57  C   UNL A   1      43.933  30.691  29.184  1.00  0.00     0.049 A 
ATOM     58  H   UNL A   1      43.783  28.701  28.497  1.00  0.00     0.167 HD
ATOM     59  C   UNL A   1      46.288  30.030  28.753  1.00  0.00     0.074 A 
ATOM     60  C   UNL A   1      47.708  30.306  28.688  1.00  0.00     0.031 C 
ATOM     61  C   UNL A   1      45.350  30.940  29.115  1.00  0.00     0.037 A 
BRANCH  48  62
ATOM     62  C   UNL A   1      39.540  28.874  28.870  1.00  0.00     0.064 A 
ATOM     63  C   UNL A   1      38.937  28.778  30.135  1.00  0.00     0.173 A 
ATOM     64  C   UNL A   1      38.749  29.305  27.796  1.00  0.00     0.173 A 
ATOM     65  F   UNL A   1      39.648  28.358  31.191  1.00  0.00    -0.203 F 
ATOM     66  C   UNL A   1      37.591  29.086  30.311  1.00  0.00     0.198 A 
ATOM     67  C   UNL A   1      37.411  29.641  27.982  1.00  0.00     0.198 A 
ATOM     68  F   UNL A   1      39.278  29.416  26.568  1.00  0.00    -0.203 F 
ATOM     69  F   UNL A   1      37.028  28.950  31.519  1.00  0.00    -0.200 F 
ATOM     70  C   UNL A   1      36.832  29.526  29.238  1.00  0.00     0.200 A 
ATOM     71  F   UNL A   1      36.681  30.078  26.947  1.00  0.00    -0.200 F 
ATOM     72  F   UNL A   1      35.541  29.838  29.413  1.00  0.00    -0.200 F 
ENDBRANCH  48  62
BRANCH  49  73
ATOM     73  C   UNL A   1      49.166  26.529  27.460  1.00  0.00     0.064 A 
ATOM     74  C   UNL A   1      49.710  26.428  26.171  1.00  0.00     0.173 A 
ATOM     75  C   UNL A   1      50.023  26.307  28.547  1.00  0.00     0.173 A 
ATOM     76  F   UNL A   1      48.928  26.612  25.098  1.00  0.00    -0.203 F 
ATOM     77  C   UNL A   1      51.053  26.107  25.979  1.00  0.00     0.198 A 
ATOM     78  C   UNL A   1      51.371  26.012  28.355  1.00  0.00     0.198 A 
ATOM     79  F   UNL A   1      49.553  26.395  29.801  1.00  0.00    -0.203 F 
ATOM     80  F   UNL A   1      51.539  25.982  24.736  1.00  0.00    -0.200 F 
ATOM     81  C   UNL A   1      51.884  25.906  27.071  1.00  0.00     0.200 A 
ATOM     82  F   UNL A   1      52.174  25.833  29.412  1.00  0.00    -0.200 F 
ATOM     83  F   UNL A   1      53.177  25.608  26.886  1.00  0.00    -0.200 F 
ENDBRANCH  49  73
BRANCH  61  84
ATOM     84  C   UNL A   1      45.812  32.323  29.463  1.00  0.00     0.064 A 
ATOM     85  C   UNL A   1      45.833  33.342  28.500  1.00  0.00     0.173 A 
ATOM     86  C   UNL A   1      46.114  32.662  30.791  1.00  0.00     0.173 A 
ATOM     87  F   UNL A   1      45.562  33.063  27.217  1.00  0.00    -0.203 F 
ATOM     88  C   UNL A   1      46.138  34.653  28.856  1.00  0.00     0.198 A 
ATOM     89  C   UNL A   1      46.390  33.978  31.147  1.00  0.00     0.198 A 
ATOM     90  F   UNL A   1      46.096  31.723  31.749  1.00  0.00    -0.203 F 
ATOM     91  F   UNL A   1      46.168  35.609  27.917  1.00  0.00    -0.200 F 
ATOM     92  C   UNL A   1      46.402  34.972  30.180  1.00  0.00     0.200 A 
ATOM     93  F   UNL A   1      46.624  34.290  32.430  1.00  0.00    -0.200 F 
ATOM     94  F   UNL A   1      46.663  36.241  30.524  1.00  0.00    -0.200 F 
ENDBRANCH  61  84
ENDBRANCH  35  36
ENDBRANCH  27  30
ENDBRANCH  25  26
ENDBRANCH   1  25
TORSDOF 12
ENDMDL
MODEL 3
REMARK VINA RESULT:     -13.2      0.477      7.417
REMARK SMILES Cc1nc(NC(=O)[C@@H]2CCC[C@@H](C(=O)NCCCNC(=O)c3ccc(-c4c5nc(c(-c6c(F)c(F)c(F)c(F)c6F)c6ccc([nH]6)c(-c6c(F)c(F)c(F)c(F)c6F)c6nc(c(-c7c(F)c(F)c(F)c(F)c7F)c7ccc4[nH]7)C=C6)C=C5)cc3)C2)ccc1Br
REMARK SMILES IDX 17 1 16 2 15 3 13 4 14 5 12 7 8 8 9 9 85 10 10 11 11 12 6 13
REMARK SMILES IDX 5 14 7 16 4 17 1 18 2 19 3 20 88 21 87 22 89 23 86 24 18 25
REMARK SMILES IDX 19 26 20 27 21 29 22 30 23 31 84 32 24 33 83 34 25 35 26 36
REMARK SMILES IDX 27 37 77 38 28 39 82 40 76 41 78 42 29 43 81 44 75 45 74 46
REMARK SMILES IDX 30 48 62 49 42 50 61 51 43 52 46 53 60 54 79 55 44 56 45 57
REMARK SMILES IDX 59 59 80 60 47 61 31 62 32 63 40 64 33 65 34 66 38 67 41 68
REMARK SMILES IDX 35 69 36 70 39 71 37 72 63 73 64 74 72 75 65 76 66 77 70 78
REMARK SMILES IDX 73 79 67 80 68 81 71 82 69 83 48 84 49 85 57 86 50 87 51 88
REMARK SMILES IDX 55 89 58 90 52 91 53 92 56 93 54 94
REMARK H PARENT 15 6 5 15 19 28 78 47 46 58
REMARK Flexibility Score: inf
ROOT
ATOM      1  C   UNL A   1      37.523  19.648  25.031  1.00  0.00     0.042 C 
ENDROOT
BRANCH   1   2
ATOM      2  C   UNL A   1      36.374  20.646  24.956  1.00  0.00     0.117 C 
BRANCH   2   3
ATOM      3  N   UNL A   1      35.099  19.970  25.099  1.00  0.00    -0.356 N 
ATOM      4  C   UNL A   1      33.816  20.372  25.203  1.00  0.00     0.223 C 
ATOM      5  O   UNL A   1      33.027  19.481  25.547  1.00  0.00    -0.275 OA
ATOM      6  H   UNL A   1      35.193  18.990  25.128  1.00  0.00     0.163 HD
BRANCH   4   7
ATOM      7  C   UNL A   1      33.260  21.753  24.832  1.00  0.00     0.079 C 
ATOM      8  C   UNL A   1      31.509  22.428  26.620  1.00  0.00     0.079 C 
ATOM      9  C   UNL A   1      32.623  23.209  27.329  1.00  0.00     0.013 C 
ATOM     10  C   UNL A   1      31.774  21.883  25.215  1.00  0.00     0.027 C 
ATOM     11  C   UNL A   1      33.872  23.588  26.537  1.00  0.00     0.002 C 
ATOM     12  C   UNL A   1      34.003  23.044  25.122  1.00  0.00     0.013 C 
BRANCH   8  13
ATOM     13  C   UNL A   1      30.105  23.052  26.754  1.00  0.00     0.228 C 
ATOM     14  N   UNL A   1      29.828  24.368  26.552  1.00  0.00    -0.310 N 
ATOM     15  H   UNL A   1      28.939  24.632  26.886  1.00  0.00     0.171 HD
ATOM     16  O   UNL A   1      29.172  22.332  27.135  1.00  0.00    -0.274 OA
BRANCH  14  17
ATOM     17  C   UNL A   1      30.530  25.419  25.975  1.00  0.00     0.132 A 
ATOM     18  C   UNL A   1      32.046  28.467  27.353  1.00  0.00     0.068 C 
ATOM     19  C   UNL A   1      31.674  27.413  26.353  1.00  0.00     0.054 A 
ATOM     20  N   UNL A   1      30.870  26.413  26.817  1.00  0.00    -0.235 NA
ATOM     21  C   UNL A   1      32.144  27.441  25.041  1.00  0.00     0.039 A 
ATOM     22  C   UNL A   1      31.683  26.473  24.162  1.00  0.00     0.021 A 
ATOM     23  Br  UNL A   1      33.378  28.722  24.399  1.00  0.00    -0.049 Br
ATOM     24  C   UNL A   1      30.841  25.470  24.634  1.00  0.00     0.048 A 
ENDBRANCH  14  17
ENDBRANCH   8  13
ENDBRANCH   4   7
ENDBRANCH   2   3
ENDBRANCH   1   2
BRANCH   1  25
ATOM     25  C   UNL A   1      38.803  20.291  25.542  1.00  0.00     0.118 C 
BRANCH  25  26
ATOM     26  N   UNL A   1      39.822  19.288  25.816  1.00  0.00    -0.352 N 
ATOM     27  C   UNL A   1      41.165  19.460  26.050  1.00  0.00     0.251 C 
ATOM     28  H   UNL A   1      39.505  18.356  25.836  1.00  0.00     0.163 HD
ATOM     29  O   UNL A   1      41.933  18.510  25.963  1.00  0.00    -0.269 OA
BRANCH  27  30
ATOM     30  C   UNL A   1      41.681  20.798  26.405  1.00  0.00     0.039 A 
ATOM     31  C   UNL A   1      41.898  21.115  27.748  1.00  0.00     0.014 A 
ATOM     32  C   UNL A   1      41.904  21.754  25.411  1.00  0.00     0.014 A 
ATOM     33  C   UNL A   1      42.367  22.384  28.089  1.00  0.00     0.010 A 
ATOM     34  C   UNL A   1      42.459  22.983  25.741  1.00  0.00     0.010 A 
ATOM     35  C   UNL A   1      42.657  23.323  27.086  1.00  0.00    -0.014 A 
BRANCH  35  36
ATOM     36  C   UNL A   1      43.056  24.707  27.429  1.00  0.00     0.031 A 
ATOM     37  C   UNL A   1      44.472  25.142  27.172  1.00  0.00     0.074 A 
ATOM     38  C   UNL A   1      42.167  25.553  27.981  1.00  0.00     0.049 A 
ATOM     39  N   UNL A   1      45.034  26.303  27.394  1.00  0.00    -0.248 NA
ATOM     40  C   UNL A   1      45.387  24.133  26.611  1.00  0.00     0.031 C 
ATOM     41  C   UNL A   1      40.781  25.224  28.310  1.00  0.00     0.029 A 
ATOM     42  N   UNL A   1      42.300  26.864  28.362  1.00  0.00    -0.354 N 
ATOM     43  C   UNL A   1      46.357  26.159  26.998  1.00  0.00     0.074 A 
ATOM     44  C   UNL A   1      46.540  24.784  26.598  1.00  0.00     0.031 C 
ATOM     45  C   UNL A   1      40.182  26.314  28.818  1.00  0.00     0.029 A 
ATOM     46  C   UNL A   1      41.148  27.408  28.872  1.00  0.00     0.049 A 
ATOM     47  H   UNL A   1      43.143  27.366  28.278  1.00  0.00     0.167 HD
ATOM     48  C   UNL A   1      47.323  27.103  26.933  1.00  0.00     0.037 A 
ATOM     49  C   UNL A   1      40.903  28.654  29.325  1.00  0.00     0.037 A 
ATOM     50  C   UNL A   1      47.125  28.476  27.303  1.00  0.00     0.049 A 
ATOM     51  C   UNL A   1      42.008  29.678  29.280  1.00  0.00     0.074 A 
ATOM     52  C   UNL A   1      48.018  29.528  27.213  1.00  0.00     0.029 A 
ATOM     53  N   UNL A   1      45.950  28.985  27.835  1.00  0.00    -0.354 N 
ATOM     54  N   UNL A   1      43.229  29.556  28.819  1.00  0.00    -0.248 NA
ATOM     55  C   UNL A   1      41.701  31.012  29.816  1.00  0.00     0.031 C 
ATOM     56  C   UNL A   1      47.399  30.664  27.739  1.00  0.00     0.029 A 
ATOM     57  C   UNL A   1      46.107  30.332  28.113  1.00  0.00     0.049 A 
ATOM     58  H   UNL A   1      45.128  28.467  27.991  1.00  0.00     0.167 HD
ATOM     59  C   UNL A   1      43.831  30.795  28.993  1.00  0.00     0.074 A 
ATOM     60  C   UNL A   1      42.834  31.664  29.583  1.00  0.00     0.031 C 
ATOM     61  C   UNL A   1      45.097  31.178  28.696  1.00  0.00     0.037 A 
BRANCH  48  62
ATOM     62  C   UNL A   1      48.669  26.692  26.414  1.00  0.00     0.064 A 
ATOM     63  C   UNL A   1      49.026  26.897  25.072  1.00  0.00     0.173 A 
ATOM     64  C   UNL A   1      49.630  26.142  27.274  1.00  0.00     0.173 A 
ATOM     65  F   UNL A   1      48.137  27.407  24.207  1.00  0.00    -0.203 F 
ATOM     66  C   UNL A   1      50.291  26.548  24.607  1.00  0.00     0.198 A 
ATOM     67  C   UNL A   1      50.904  25.822  26.812  1.00  0.00     0.198 A 
ATOM     68  F   UNL A   1      49.339  25.928  28.566  1.00  0.00    -0.203 F 
ATOM     69  F   UNL A   1      50.596  26.717  23.313  1.00  0.00    -0.200 F 
ATOM     70  C   UNL A   1      51.231  26.021  25.478  1.00  0.00     0.200 A 
ATOM     71  F   UNL A   1      51.816  25.325  27.658  1.00  0.00    -0.200 F 
ATOM     72  F   UNL A   1      52.454  25.701  25.033  1.00  0.00    -0.200 F 
ENDBRANCH  48  62
BRANCH  49  73
ATOM     73  C   UNL A   1      39.548  29.010  29.820  1.00  0.00     0.064 A 
ATOM     74  C   UNL A   1      38.597  29.578  28.962  1.00  0.00     0.173 A 
ATOM     75  C   UNL A   1      39.170  28.781  31.151  1.00  0.00     0.173 A 
ATOM     76  F   UNL A   1      38.916  29.836  27.685  1.00  0.00    -0.203 F 
ATOM     77  C   UNL A   1      37.323  29.915  29.419  1.00  0.00     0.198 A 
ATOM     78  C   UNL A   1      37.888  29.093  31.600  1.00  0.00     0.198 A 
ATOM     79  F   UNL A   1      40.041  28.235  32.013  1.00  0.00    -0.203 F 
ATOM     80  F   UNL A   1      36.445  30.490  28.585  1.00  0.00    -0.200 F 
ATOM     81  C   UNL A   1      36.967  29.665  30.735  1.00  0.00     0.200 A 
ATOM     82  F   UNL A   1      37.543  28.836  32.869  1.00  0.00    -0.200 F 
ATOM     83  F   UNL A   1      35.740  29.978  31.171  1.00  0.00    -0.200 F 
ENDBRANCH  49  73
BRANCH  61  84
ATOM     84  C   UNL A   1      45.494  32.590  29.007  1.00  0.00     0.064 A 
ATOM     85  C   UNL A   1      46.156  32.910  30.200  1.00  0.00     0.173 A 
ATOM     86  C   UNL A   1      45.323  33.605  28.052  1.00  0.00     0.173 A 
ATOM     87  F   UNL A   1      46.332  31.975  31.145  1.00  0.00    -0.203 F 
ATOM     88  C   UNL A   1      46.637  34.196  30.426  1.00  0.00     0.198 A 
ATOM     89  C   UNL A   1      45.832  34.882  28.270  1.00  0.00     0.198 A 
ATOM     90  F   UNL A   1      44.706  33.344  26.891  1.00  0.00    -0.203 F 
ATOM     91  F   UNL A   1      47.253  34.485  31.580  1.00  0.00    -0.200 F 
ATOM     92  C   UNL A   1      46.487  35.176  29.456  1.00  0.00     0.200 A 
ATOM     93  F   UNL A   1      45.705  35.823  27.323  1.00  0.00    -0.200 F 
ATOM     94  F   UNL A   1      46.980  36.405  29.663  1.00  0.00    -0.200 F 
ENDBRANCH  61  84
ENDBRANCH  35  36
ENDBRANCH  27  30
ENDBRANCH  25  26
ENDBRANCH   1  25
TORSDOF 12
ENDMDL
