MODEL 1
REMARK VINA RESULT:     -11.2      0.000      0.000
REMARK SMILES [NH3+][C@H](Cc1cc(F)c(F)c(F)c1)C(=O)NCCCNC(=O)c1ccc(-c2c3nc(c(-c4c(F)c(F)c(F)c(F)c4F)c4ccc([nH]4)c(-c4c(F)c(F)c(F)c(F)c4F)c4nc(c(-c5c(F)c(F)c(F)c(F)c5F)c5ccc2[nH]5)C=C4)C=C3)cc1
REMARK SMILES IDX 17 1 16 2 15 3 13 4 14 5 2 7 1 8 3 12 4 13 5 14 12 15 6 16
REMARK SMILES IDX 10 17 7 18 8 19 11 20 9 21 18 22 19 23 20 24 21 26 22 27
REMARK SMILES IDX 23 28 84 29 24 30 83 31 25 32 26 33 27 34 77 35 28 36 82 37
REMARK SMILES IDX 76 38 78 39 29 40 81 41 75 42 74 43 30 45 62 46 42 47 61 48
REMARK SMILES IDX 43 49 46 50 60 51 79 52 44 53 45 54 59 56 80 57 47 58 31 59
REMARK SMILES IDX 32 60 40 61 33 62 34 63 38 64 41 65 35 66 36 67 39 68 37 69
REMARK SMILES IDX 63 70 64 71 72 72 65 73 66 74 70 75 73 76 67 77 68 78 71 79
REMARK SMILES IDX 69 80 48 81 49 82 57 83 50 84 51 85 55 86 58 87 52 88 53 89
REMARK SMILES IDX 56 90 54 91
REMARK H PARENT 15 6 1 9 1 10 1 11 19 25 78 44 46 55
REMARK Flexibility Score: inf
ROOT
ATOM      1  C   UNL A   1      34.239  35.158  28.767  1.00  0.00     0.042 C 
ENDROOT
BRANCH   1   2
ATOM      2  C   UNL A   1      32.903  35.804  29.126  1.00  0.00     0.118 C 
BRANCH   2   3
ATOM      3  N   UNL A   1      32.997  36.839  30.137  1.00  0.00    -0.351 N 
ATOM      4  C   UNL A   1      33.229  36.836  31.475  1.00  0.00     0.278 C 
ATOM      5  O   UNL A   1      33.277  37.953  32.011  1.00  0.00    -0.268 OA
ATOM      6  H   UNL A   1      32.862  37.744  29.773  1.00  0.00     0.163 HD
BRANCH   4   7
ATOM      7  C   UNL A   1      33.369  35.573  32.347  1.00  0.00     0.275 C 
BRANCH   7   8
ATOM      8  N   UNL A   1      32.048  35.101  32.825  1.00  0.00    -0.347 N 
ATOM      9  H   UNL A   1      31.316  35.461  32.211  1.00  0.00     0.345 HD
ATOM     10  H   UNL A   1      31.891  35.436  33.775  1.00  0.00     0.345 HD
ATOM     11  H   UNL A   1      32.027  34.081  32.816  1.00  0.00     0.345 HD
ENDBRANCH   7   8
BRANCH   7  12
ATOM     12  C   UNL A   1      34.457  35.534  33.448  1.00  0.00     0.111 C 
BRANCH  12  13
ATOM     13  C   UNL A   1      35.344  34.327  33.655  1.00  0.00    -0.036 A 
ATOM     14  C   UNL A   1      35.291  33.284  32.709  1.00  0.00     0.046 A 
ATOM     15  C   UNL A   1      36.246  34.203  34.720  1.00  0.00     0.046 A 
ATOM     16  C   UNL A   1      36.032  32.117  32.893  1.00  0.00     0.162 A 
ATOM     17  C   UNL A   1      36.967  33.019  34.899  1.00  0.00     0.162 A 
ATOM     18  F   UNL A   1      35.906  31.119  32.006  1.00  0.00    -0.204 F 
ATOM     19  C   UNL A   1      36.851  31.971  33.999  1.00  0.00     0.194 A 
ATOM     20  F   UNL A   1      37.749  32.888  35.979  1.00  0.00    -0.204 F 
ATOM     21  F   UNL A   1      37.507  30.821  34.210  1.00  0.00    -0.200 F 
ENDBRANCH  12  13
ENDBRANCH   7  12
ENDBRANCH   4   7
ENDBRANCH   2   3
ENDBRANCH   1   2
BRANCH   1  22
ATOM     22  C   UNL A   1      34.463  33.736  29.279  1.00  0.00     0.118 C 
BRANCH  22  23
ATOM     23  N   UNL A   1      33.896  32.732  28.401  1.00  0.00    -0.352 N 
ATOM     24  C   UNL A   1      34.463  31.593  27.882  1.00  0.00     0.251 C 
ATOM     25  H   UNL A   1      32.961  32.890  28.134  1.00  0.00     0.163 HD
ATOM     26  O   UNL A   1      33.861  30.975  27.007  1.00  0.00    -0.269 OA
BRANCH  24  27
ATOM     27  C   UNL A   1      35.790  31.099  28.334  1.00  0.00     0.039 A 
ATOM     28  C   UNL A   1      35.855  29.819  28.900  1.00  0.00     0.014 A 
ATOM     29  C   UNL A   1      36.943  31.890  28.297  1.00  0.00     0.014 A 
ATOM     30  C   UNL A   1      37.066  29.328  29.399  1.00  0.00     0.010 A 
ATOM     31  C   UNL A   1      38.166  31.378  28.751  1.00  0.00     0.010 A 
ATOM     32  C   UNL A   1      38.237  30.098  29.321  1.00  0.00    -0.014 A 
BRANCH  32  33
ATOM     33  C   UNL A   1      39.518  29.559  29.853  1.00  0.00     0.031 A 
ATOM     34  C   UNL A   1      40.130  30.119  31.109  1.00  0.00     0.074 A 
ATOM     35  C   UNL A   1      40.131  28.542  29.216  1.00  0.00     0.049 A 
ATOM     36  N   UNL A   1      41.200  29.724  31.755  1.00  0.00    -0.248 NA
ATOM     37  C   UNL A   1      39.458  31.277  31.717  1.00  0.00     0.031 C 
ATOM     38  C   UNL A   1      39.667  27.927  27.973  1.00  0.00     0.029 A 
ATOM     39  N   UNL A   1      41.268  27.839  29.533  1.00  0.00    -0.354 N 
ATOM     40  C   UNL A   1      41.327  30.579  32.841  1.00  0.00     0.074 A 
ATOM     41  C   UNL A   1      40.252  31.544  32.744  1.00  0.00     0.031 C 
ATOM     42  C   UNL A   1      40.489  26.915  27.653  1.00  0.00     0.029 A 
ATOM     43  C   UNL A   1      41.551  26.823  28.652  1.00  0.00     0.049 A 
ATOM     44  H   UNL A   1      41.828  28.043  30.317  1.00  0.00     0.167 HD
ATOM     45  C   UNL A   1      42.240  30.549  33.841  1.00  0.00     0.037 A 
ATOM     46  C   UNL A   1      42.544  25.912  28.653  1.00  0.00     0.037 A 
ATOM     47  C   UNL A   1      43.302  29.583  33.954  1.00  0.00     0.049 A 
ATOM     48  C   UNL A   1      43.552  25.906  29.770  1.00  0.00     0.074 A 
ATOM     49  C   UNL A   1      44.243  29.452  34.961  1.00  0.00     0.029 A 
ATOM     50  N   UNL A   1      43.566  28.584  33.030  1.00  0.00    -0.354 N 
ATOM     51  N   UNL A   1      43.623  26.683  30.823  1.00  0.00    -0.248 NA
ATOM     52  C   UNL A   1      44.616  24.892  29.700  1.00  0.00     0.031 C 
ATOM     53  C   UNL A   1      45.101  28.399  34.627  1.00  0.00     0.029 A 
ATOM     54  C   UNL A   1      44.668  27.847  33.433  1.00  0.00     0.049 A 
ATOM     55  H   UNL A   1      43.047  28.423  32.208  1.00  0.00     0.167 HD
ATOM     56  C   UNL A   1      44.721  26.243  31.549  1.00  0.00     0.074 A 
ATOM     57  C   UNL A   1      45.280  25.120  30.826  1.00  0.00     0.031 C 
ATOM     58  C   UNL A   1      45.219  26.730  32.710  1.00  0.00     0.037 A 
BRANCH  45  59
ATOM     59  C   UNL A   1      42.128  31.586  34.920  1.00  0.00     0.064 A 
ATOM     60  C   UNL A   1      41.175  31.455  35.941  1.00  0.00     0.173 A 
ATOM     61  C   UNL A   1      42.909  32.750  34.894  1.00  0.00     0.173 A 
ATOM     62  F   UNL A   1      40.396  30.365  36.003  1.00  0.00    -0.203 F 
ATOM     63  C   UNL A   1      41.001  32.459  36.890  1.00  0.00     0.198 A 
ATOM     64  C   UNL A   1      42.749  33.742  35.858  1.00  0.00     0.198 A 
ATOM     65  F   UNL A   1      43.837  32.919  33.940  1.00  0.00    -0.203 F 
ATOM     66  F   UNL A   1      40.063  32.328  37.839  1.00  0.00    -0.200 F 
ATOM     67  C   UNL A   1      41.789  33.599  36.849  1.00  0.00     0.200 A 
ATOM     68  F   UNL A   1      43.524  34.835  35.829  1.00  0.00    -0.200 F 
ATOM     69  F   UNL A   1      41.624  34.562  37.767  1.00  0.00    -0.200 F 
ENDBRANCH  45  59
BRANCH  46  70
ATOM     70  C   UNL A   1      42.600  24.892  27.576  1.00  0.00     0.064 A 
ATOM     71  C   UNL A   1      41.894  23.685  27.678  1.00  0.00     0.173 A 
ATOM     72  C   UNL A   1      43.385  25.099  26.434  1.00  0.00     0.173 A 
ATOM     73  F   UNL A   1      41.129  23.442  28.751  1.00  0.00    -0.203 F 
ATOM     74  C   UNL A   1      41.986  22.713  26.683  1.00  0.00     0.198 A 
ATOM     75  C   UNL A   1      43.458  24.136  25.429  1.00  0.00     0.198 A 
ATOM     76  F   UNL A   1      44.059  26.247  26.284  1.00  0.00    -0.203 F 
ATOM     77  F   UNL A   1      41.325  21.556  26.816  1.00  0.00    -0.200 F 
ATOM     78  C   UNL A   1      42.765  22.941  25.558  1.00  0.00     0.200 A 
ATOM     79  F   UNL A   1      44.193  24.369  24.333  1.00  0.00    -0.200 F 
ATOM     80  F   UNL A   1      42.846  22.012  24.597  1.00  0.00    -0.200 F 
ENDBRANCH  46  70
BRANCH  58  81
ATOM     81  C   UNL A   1      46.426  26.054  33.292  1.00  0.00     0.064 A 
ATOM     82  C   UNL A   1      47.718  26.484  32.951  1.00  0.00     0.173 A 
ATOM     83  C   UNL A   1      46.305  24.935  34.129  1.00  0.00     0.173 A 
ATOM     84  F   UNL A   1      47.888  27.546  32.149  1.00  0.00    -0.203 F 
ATOM     85  C   UNL A   1      48.844  25.810  33.417  1.00  0.00     0.198 A 
ATOM     86  C   UNL A   1      47.433  24.278  34.612  1.00  0.00     0.198 A 
ATOM     87  F   UNL A   1      45.092  24.494  34.493  1.00  0.00    -0.203 F 
ATOM     88  F   UNL A   1      50.067  26.220  33.055  1.00  0.00    -0.200 F 
ATOM     89  C   UNL A   1      48.701  24.709  34.249  1.00  0.00     0.200 A 
ATOM     90  F   UNL A   1      47.294  23.228  35.434  1.00  0.00    -0.200 F 
ATOM     91  F   UNL A   1      49.785  24.066  34.704  1.00  0.00    -0.200 F 
ENDBRANCH  58  81
ENDBRANCH  32  33
ENDBRANCH  24  27
ENDBRANCH  22  23
ENDBRANCH   1  22
TORSDOF 13
ENDMDL
MODEL 2
REMARK VINA RESULT:     -11.1      4.274     12.031
REMARK SMILES [NH3+][C@H](Cc1cc(F)c(F)c(F)c1)C(=O)NCCCNC(=O)c1ccc(-c2c3nc(c(-c4c(F)c(F)c(F)c(F)c4F)c4ccc([nH]4)c(-c4c(F)c(F)c(F)c(F)c4F)c4nc(c(-c5c(F)c(F)c(F)c(F)c5F)c5ccc2[nH]5)C=C4)C=C3)cc1
REMARK SMILES IDX 17 1 16 2 15 3 13 4 14 5 2 7 1 8 3 12 4 13 5 14 12 15 6 16
REMARK SMILES IDX 10 17 7 18 8 19 11 20 9 21 18 22 19 23 20 24 21 26 22 27
REMARK SMILES IDX 23 28 84 29 24 30 83 31 25 32 26 33 27 34 77 35 28 36 82 37
REMARK SMILES IDX 76 38 78 39 29 40 81 41 75 42 74 43 30 45 62 46 42 47 61 48
REMARK SMILES IDX 43 49 46 50 60 51 79 52 44 53 45 54 59 56 80 57 47 58 31 59
REMARK SMILES IDX 32 60 40 61 33 62 34 63 38 64 41 65 35 66 36 67 39 68 37 69
REMARK SMILES IDX 63 70 64 71 72 72 65 73 66 74 70 75 73 76 67 77 68 78 71 79
REMARK SMILES IDX 69 80 48 81 49 82 57 83 50 84 51 85 55 86 58 87 52 88 53 89
REMARK SMILES IDX 56 90 54 91
REMARK H PARENT 15 6 1 9 1 10 1 11 19 25 78 44 46 55
REMARK Flexibility Score: inf
ROOT
ATOM      1  C   UNL A   1      41.329  20.066  27.166  1.00  0.00     0.042 C 
ENDROOT
BRANCH   1   2
ATOM      2  C   UNL A   1      42.034  19.799  25.838  1.00  0.00     0.118 C 
BRANCH   2   3
ATOM      3  N   UNL A   1      43.126  18.850  25.926  1.00  0.00    -0.351 N 
ATOM      4  C   UNL A   1      44.363  18.777  25.371  1.00  0.00     0.278 C 
ATOM      5  O   UNL A   1      45.050  17.807  25.723  1.00  0.00    -0.268 OA
ATOM      6  H   UNL A   1      42.925  18.089  26.518  1.00  0.00     0.163 HD
BRANCH   4   7
ATOM      7  C   UNL A   1      44.921  19.757  24.321  1.00  0.00     0.275 C 
BRANCH   7   8
ATOM      8  N   UNL A   1      45.264  19.056  23.060  1.00  0.00    -0.347 N 
ATOM      9  H   UNL A   1      44.437  18.576  22.703  1.00  0.00     0.345 HD
ATOM     10  H   UNL A   1      46.002  18.376  23.239  1.00  0.00     0.345 HD
ATOM     11  H   UNL A   1      45.586  19.735  22.371  1.00  0.00     0.345 HD
ENDBRANCH   7   8
BRANCH   7  12
ATOM     12  C   UNL A   1      45.996  20.787  24.748  1.00  0.00     0.111 C 
BRANCH  12  13
ATOM     13  C   UNL A   1      45.639  22.209  25.120  1.00  0.00    -0.036 A 
ATOM     14  C   UNL A   1      44.499  22.429  25.917  1.00  0.00     0.046 A 
ATOM     15  C   UNL A   1      46.403  23.322  24.745  1.00  0.00     0.046 A 
ATOM     16  C   UNL A   1      44.083  23.724  26.226  1.00  0.00     0.162 A 
ATOM     17  C   UNL A   1      45.962  24.614  25.047  1.00  0.00     0.162 A 
ATOM     18  F   UNL A   1      42.956  23.896  26.932  1.00  0.00    -0.204 F 
ATOM     19  C   UNL A   1      44.799  24.819  25.771  1.00  0.00     0.194 A 
ATOM     20  F   UNL A   1      46.660  25.664  24.593  1.00  0.00    -0.204 F 
ATOM     21  F   UNL A   1      44.358  26.062  26.009  1.00  0.00    -0.200 F 
ENDBRANCH  12  13
ENDBRANCH   7  12
ENDBRANCH   4   7
ENDBRANCH   2   3
ENDBRANCH   1   2
BRANCH   1  22
ATOM     22  C   UNL A   1      40.722  21.457  27.343  1.00  0.00     0.118 C 
BRANCH  22  23
ATOM     23  N   UNL A   1      39.648  21.719  26.405  1.00  0.00    -0.352 N 
ATOM     24  C   UNL A   1      38.912  22.861  26.205  1.00  0.00     0.251 C 
ATOM     25  H   UNL A   1      39.410  20.962  25.821  1.00  0.00     0.163 HD
ATOM     26  O   UNL A   1      37.921  22.810  25.480  1.00  0.00    -0.269 OA
BRANCH  24  27
ATOM     27  C   UNL A   1      39.266  24.150  26.855  1.00  0.00     0.039 A 
ATOM     28  C   UNL A   1      40.038  25.062  26.124  1.00  0.00     0.014 A 
ATOM     29  C   UNL A   1      38.937  24.441  28.183  1.00  0.00     0.014 A 
ATOM     30  C   UNL A   1      40.454  26.263  26.708  1.00  0.00     0.010 A 
ATOM     31  C   UNL A   1      39.311  25.667  28.750  1.00  0.00     0.010 A 
ATOM     32  C   UNL A   1      40.086  26.584  28.025  1.00  0.00    -0.014 A 
BRANCH  32  33
ATOM     33  C   UNL A   1      40.533  27.868  28.630  1.00  0.00     0.031 A 
ATOM     34  C   UNL A   1      41.986  28.116  28.931  1.00  0.00     0.074 A 
ATOM     35  C   UNL A   1      39.630  28.832  28.895  1.00  0.00     0.049 A 
ATOM     36  N   UNL A   1      42.563  29.200  29.389  1.00  0.00    -0.248 NA
ATOM     37  C   UNL A   1      42.914  27.000  28.694  1.00  0.00     0.031 C 
ATOM     38  C   UNL A   1      38.188  28.714  28.683  1.00  0.00     0.029 A 
ATOM     39  N   UNL A   1      39.793  30.105  29.385  1.00  0.00    -0.354 N 
ATOM     40  C   UNL A   1      43.914  28.899  29.492  1.00  0.00     0.074 A 
ATOM     41  C   UNL A   1      44.069  27.516  29.092  1.00  0.00     0.031 C 
ATOM     42  C   UNL A   1      37.601  29.877  29.006  1.00  0.00     0.029 A 
ATOM     43  C   UNL A   1      38.620  30.817  29.469  1.00  0.00     0.049 A 
ATOM     44  H   UNL A   1      40.667  30.473  29.651  1.00  0.00     0.167 HD
ATOM     45  C   UNL A   1      44.937  29.707  29.861  1.00  0.00     0.037 A 
ATOM     46  C   UNL A   1      38.391  32.086  29.861  1.00  0.00     0.037 A 
ATOM     47  C   UNL A   1      44.794  31.088  30.244  1.00  0.00     0.049 A 
ATOM     48  C   UNL A   1      39.543  32.960  30.277  1.00  0.00     0.074 A 
ATOM     49  C   UNL A   1      45.785  31.992  30.587  1.00  0.00     0.029 A 
ATOM     50  N   UNL A   1      43.588  31.764  30.336  1.00  0.00    -0.354 N 
ATOM     51  N   UNL A   1      40.822  32.680  30.309  1.00  0.00    -0.248 NA
ATOM     52  C   UNL A   1      39.217  34.329  30.705  1.00  0.00     0.031 C 
ATOM     53  C   UNL A   1      45.175  33.205  30.926  1.00  0.00     0.029 A 
ATOM     54  C   UNL A   1      43.808  33.068  30.752  1.00  0.00     0.049 A 
ATOM     55  H   UNL A   1      42.705  31.375  30.136  1.00  0.00     0.167 HD
ATOM     56  C   UNL A   1      41.455  33.837  30.741  1.00  0.00     0.074 A 
ATOM     57  C   UNL A   1      40.422  34.831  30.944  1.00  0.00     0.031 C 
ATOM     58  C   UNL A   1      42.776  34.053  30.951  1.00  0.00     0.037 A 
BRANCH  45  59
ATOM     59  C   UNL A   1      46.322  29.129  29.855  1.00  0.00     0.064 A 
ATOM     60  C   UNL A   1      47.095  29.139  28.684  1.00  0.00     0.173 A 
ATOM     61  C   UNL A   1      46.848  28.489  30.985  1.00  0.00     0.173 A 
ATOM     62  F   UNL A   1      46.631  29.729  27.572  1.00  0.00    -0.203 F 
ATOM     63  C   UNL A   1      48.342  28.520  28.645  1.00  0.00     0.198 A 
ATOM     64  C   UNL A   1      48.105  27.891  30.950  1.00  0.00     0.198 A 
ATOM     65  F   UNL A   1      46.148  28.457  32.129  1.00  0.00    -0.203 F 
ATOM     66  F   UNL A   1      49.051  28.514  27.507  1.00  0.00    -0.200 F 
ATOM     67  C   UNL A   1      48.846  27.899  29.778  1.00  0.00     0.200 A 
ATOM     68  F   UNL A   1      48.600  27.308  32.051  1.00  0.00    -0.200 F 
ATOM     69  F   UNL A   1      50.049  27.308  29.740  1.00  0.00    -0.200 F 
ENDBRANCH  45  59
BRANCH  46  70
ATOM     70  C   UNL A   1      37.006  32.620  29.829  1.00  0.00     0.064 A 
ATOM     71  C   UNL A   1      36.512  33.297  28.706  1.00  0.00     0.173 A 
ATOM     72  C   UNL A   1      36.160  32.484  30.938  1.00  0.00     0.173 A 
ATOM     73  F   UNL A   1      37.283  33.452  27.621  1.00  0.00    -0.203 F 
ATOM     74  C   UNL A   1      35.226  33.835  28.699  1.00  0.00     0.198 A 
ATOM     75  C   UNL A   1      34.867  33.002  30.921  1.00  0.00     0.198 A 
ATOM     76  F   UNL A   1      36.583  31.825  32.026  1.00  0.00    -0.203 F 
ATOM     77  F   UNL A   1      34.786  34.502  27.624  1.00  0.00    -0.200 F 
ATOM     78  C   UNL A   1      34.404  33.684  29.806  1.00  0.00     0.200 A 
ATOM     79  F   UNL A   1      34.067  32.834  31.984  1.00  0.00    -0.200 F 
ATOM     80  F   UNL A   1      33.164  34.192  29.796  1.00  0.00    -0.200 F 
ENDBRANCH  46  70
BRANCH  58  81
ATOM     81  C   UNL A   1      43.197  35.416  31.415  1.00  0.00     0.064 A 
ATOM     82  C   UNL A   1      43.127  35.759  32.774  1.00  0.00     0.173 A 
ATOM     83  C   UNL A   1      43.602  36.405  30.507  1.00  0.00     0.173 A 
ATOM     84  F   UNL A   1      42.739  34.851  33.683  1.00  0.00    -0.203 F 
ATOM     85  C   UNL A   1      43.433  37.048  33.204  1.00  0.00     0.198 A 
ATOM     86  C   UNL A   1      43.931  37.685  30.943  1.00  0.00     0.198 A 
ATOM     87  F   UNL A   1      43.697  36.121  29.200  1.00  0.00    -0.203 F 
ATOM     88  F   UNL A   1      43.330  37.362  34.504  1.00  0.00    -0.200 F 
ATOM     89  C   UNL A   1      43.838  38.009  32.289  1.00  0.00     0.200 A 
ATOM     90  F   UNL A   1      44.343  38.607  30.061  1.00  0.00    -0.200 F 
ATOM     91  F   UNL A   1      44.141  39.246  32.705  1.00  0.00    -0.200 F 
ENDBRANCH  58  81
ENDBRANCH  32  33
ENDBRANCH  24  27
ENDBRANCH  22  23
ENDBRANCH   1  22
TORSDOF 13
ENDMDL
MODEL 3
REMARK VINA RESULT:     -11.1      4.168      6.512
REMARK SMILES [NH3+][C@H](Cc1cc(F)c(F)c(F)c1)C(=O)NCCCNC(=O)c1ccc(-c2c3nc(c(-c4c(F)c(F)c(F)c(F)c4F)c4ccc([nH]4)c(-c4c(F)c(F)c(F)c(F)c4F)c4nc(c(-c5c(F)c(F)c(F)c(F)c5F)c5ccc2[nH]5)C=C4)C=C3)cc1
REMARK SMILES IDX 17 1 16 2 15 3 13 4 14 5 2 7 1 8 3 12 4 13 5 14 12 15 6 16
REMARK SMILES IDX 10 17 7 18 8 19 11 20 9 21 18 22 19 23 20 24 21 26 22 27
REMARK SMILES IDX 23 28 84 29 24 30 83 31 25 32 26 33 27 34 77 35 28 36 82 37
REMARK SMILES IDX 76 38 78 39 29 40 81 41 75 42 74 43 30 45 62 46 42 47 61 48
REMARK SMILES IDX 43 49 46 50 60 51 79 52 44 53 45 54 59 56 80 57 47 58 31 59
REMARK SMILES IDX 32 60 40 61 33 62 34 63 38 64 41 65 35 66 36 67 39 68 37 69
REMARK SMILES IDX 63 70 64 71 72 72 65 73 66 74 70 75 73 76 67 77 68 78 71 79
REMARK SMILES IDX 69 80 48 81 49 82 57 83 50 84 51 85 55 86 58 87 52 88 53 89
REMARK SMILES IDX 56 90 54 91
REMARK H PARENT 15 6 1 9 1 10 1 11 19 25 78 44 46 55
REMARK Flexibility Score: inf
ROOT
ATOM      1  C   UNL A   1      31.540  28.639  26.041  1.00  0.00     0.042 C 
ENDROOT
BRANCH   1   2
ATOM      2  C   UNL A   1      31.658  27.229  25.466  1.00  0.00     0.118 C 
BRANCH   2   3
ATOM      3  N   UNL A   1      31.568  27.168  24.021  1.00  0.00    -0.351 N 
ATOM      4  C   UNL A   1      30.555  27.311  23.128  1.00  0.00     0.278 C 
ATOM      5  O   UNL A   1      30.878  27.227  21.935  1.00  0.00    -0.268 OA
ATOM      6  H   UNL A   1      32.434  26.980  23.591  1.00  0.00     0.163 HD
BRANCH   4   7
ATOM      7  C   UNL A   1      29.071  27.501  23.498  1.00  0.00     0.275 C 
BRANCH   7   8
ATOM      8  N   UNL A   1      28.404  26.198  23.732  1.00  0.00    -0.347 N 
ATOM      9  H   UNL A   1      28.262  25.724  22.839  1.00  0.00     0.345 HD
ATOM     10  H   UNL A   1      27.502  26.354  24.181  1.00  0.00     0.345 HD
ATOM     11  H   UNL A   1      28.988  25.620  24.334  1.00  0.00     0.345 HD
ENDBRANCH   7   8
BRANCH   7  12
ATOM     12  C   UNL A   1      28.206  28.479  22.665  1.00  0.00     0.111 C 
BRANCH  12  13
ATOM     13  C   UNL A   1      28.431  29.974  22.697  1.00  0.00    -0.036 A 
ATOM     14  C   UNL A   1      29.199  30.515  23.747  1.00  0.00     0.046 A 
ATOM     15  C   UNL A   1      27.948  30.851  21.717  1.00  0.00     0.046 A 
ATOM     16  C   UNL A   1      29.374  31.894  23.866  1.00  0.00     0.162 A 
ATOM     17  C   UNL A   1      28.117  32.231  21.861  1.00  0.00     0.162 A 
ATOM     18  F   UNL A   1      30.056  32.376  24.915  1.00  0.00    -0.204 F 
ATOM     19  C   UNL A   1      28.813  32.756  22.939  1.00  0.00     0.194 A 
ATOM     20  F   UNL A   1      27.561  33.054  20.961  1.00  0.00    -0.204 F 
ATOM     21  F   UNL A   1      28.923  34.082  23.094  1.00  0.00    -0.200 F 
ENDBRANCH  12  13
ENDBRANCH   7  12
ENDBRANCH   4   7
ENDBRANCH   2   3
ENDBRANCH   1   2
BRANCH   1  22
ATOM     22  C   UNL A   1      32.806  29.493  26.003  1.00  0.00     0.118 C 
BRANCH  22  23
ATOM     23  N   UNL A   1      32.541  30.894  26.268  1.00  0.00    -0.352 N 
ATOM     24  C   UNL A   1      33.197  31.774  27.093  1.00  0.00     0.251 C 
ATOM     25  H   UNL A   1      31.773  31.272  25.781  1.00  0.00     0.163 HD
ATOM     26  O   UNL A   1      32.692  32.873  27.310  1.00  0.00    -0.269 OA
BRANCH  24  27
ATOM     27  C   UNL A   1      34.487  31.429  27.746  1.00  0.00     0.039 A 
ATOM     28  C   UNL A   1      34.614  30.154  28.311  1.00  0.00     0.014 A 
ATOM     29  C   UNL A   1      35.530  32.350  27.892  1.00  0.00     0.014 A 
ATOM     30  C   UNL A   1      35.782  29.797  28.992  1.00  0.00     0.010 A 
ATOM     31  C   UNL A   1      36.720  31.973  28.530  1.00  0.00     0.010 A 
ATOM     32  C   UNL A   1      36.853  30.699  29.100  1.00  0.00    -0.014 A 
BRANCH  32  33
ATOM     33  C   UNL A   1      38.091  30.302  29.824  1.00  0.00     0.031 A 
ATOM     34  C   UNL A   1      38.356  30.785  31.224  1.00  0.00     0.074 A 
ATOM     35  C   UNL A   1      38.979  29.481  29.229  1.00  0.00     0.049 A 
ATOM     36  N   UNL A   1      39.343  30.482  32.031  1.00  0.00    -0.248 NA
ATOM     37  C   UNL A   1      37.391  31.739  31.793  1.00  0.00     0.031 C 
ATOM     38  C   UNL A   1      38.863  28.964  27.866  1.00  0.00     0.029 A 
ATOM     39  N   UNL A   1      40.145  28.928  29.700  1.00  0.00    -0.354 N 
ATOM     40  C   UNL A   1      39.119  31.201  33.197  1.00  0.00     0.074 A 
ATOM     41  C   UNL A   1      37.926  31.993  32.979  1.00  0.00     0.031 C 
ATOM     42  C   UNL A   1      39.895  28.141  27.622  1.00  0.00     0.029 A 
ATOM     43  C   UNL A   1      40.758  28.088  28.800  1.00  0.00     0.049 A 
ATOM     44  H   UNL A   1      40.508  29.115  30.596  1.00  0.00     0.167 HD
ATOM     45  C   UNL A   1      39.825  31.186  34.352  1.00  0.00     0.037 A 
ATOM     46  C   UNL A   1      41.879  27.349  28.914  1.00  0.00     0.037 A 
ATOM     47  C   UNL A   1      41.003  30.389  34.583  1.00  0.00     0.049 A 
ATOM     48  C   UNL A   1      42.653  27.358  30.204  1.00  0.00     0.074 A 
ATOM     49  C   UNL A   1      41.753  30.279  35.741  1.00  0.00     0.029 A 
ATOM     50  N   UNL A   1      41.602  29.569  33.640  1.00  0.00    -0.354 N 
ATOM     51  N   UNL A   1      42.393  27.996  31.319  1.00  0.00    -0.248 NA
ATOM     52  C   UNL A   1      43.873  26.537  30.253  1.00  0.00     0.031 C 
ATOM     53  C   UNL A   1      42.830  29.423  35.487  1.00  0.00     0.029 A 
ATOM     54  C   UNL A   1      42.725  28.966  34.184  1.00  0.00     0.049 A 
ATOM     55  H   UNL A   1      41.278  29.436  32.719  1.00  0.00     0.167 HD
ATOM     56  C   UNL A   1      43.401  27.642  32.205  1.00  0.00     0.074 A 
ATOM     57  C   UNL A   1      44.272  26.720  31.506  1.00  0.00     0.031 C 
ATOM     58  C   UNL A   1      43.587  28.049  33.483  1.00  0.00     0.037 A 
BRANCH  45  59
ATOM     59  C   UNL A   1      39.339  32.048  35.480  1.00  0.00     0.064 A 
ATOM     60  C   UNL A   1      39.821  33.356  35.639  1.00  0.00     0.173 A 
ATOM     61  C   UNL A   1      38.461  31.548  36.452  1.00  0.00     0.173 A 
ATOM     62  F   UNL A   1      40.672  33.877  34.742  1.00  0.00    -0.203 F 
ATOM     63  C   UNL A   1      39.447  34.128  36.736  1.00  0.00     0.198 A 
ATOM     64  C   UNL A   1      38.070  32.330  37.535  1.00  0.00     0.198 A 
ATOM     65  F   UNL A   1      37.969  30.304  36.341  1.00  0.00    -0.203 F 
ATOM     66  F   UNL A   1      39.944  35.364  36.885  1.00  0.00    -0.200 F 
ATOM     67  C   UNL A   1      38.571  33.615  37.681  1.00  0.00     0.200 A 
ATOM     68  F   UNL A   1      37.210  31.841  38.438  1.00  0.00    -0.200 F 
ATOM     69  F   UNL A   1      38.209  34.361  38.734  1.00  0.00    -0.200 F 
ENDBRANCH  45  59
BRANCH  46  70
ATOM     70  C   UNL A   1      42.308  26.495  27.778  1.00  0.00     0.064 A 
ATOM     71  C   UNL A   1      43.246  26.948  26.839  1.00  0.00     0.173 A 
ATOM     72  C   UNL A   1      41.767  25.216  27.599  1.00  0.00     0.173 A 
ATOM     73  F   UNL A   1      43.793  28.165  26.969  1.00  0.00    -0.203 F 
ATOM     74  C   UNL A   1      43.612  26.159  25.751  1.00  0.00     0.198 A 
ATOM     75  C   UNL A   1      42.151  24.418  26.523  1.00  0.00     0.198 A 
ATOM     76  F   UNL A   1      40.884  24.732  28.485  1.00  0.00    -0.203 F 
ATOM     77  F   UNL A   1      44.488  26.625  24.851  1.00  0.00    -0.200 F 
ATOM     78  C   UNL A   1      43.066  24.893  25.596  1.00  0.00     0.200 A 
ATOM     79  F   UNL A   1      41.639  23.186  26.389  1.00  0.00    -0.200 F 
ATOM     80  F   UNL A   1      43.425  24.129  24.555  1.00  0.00    -0.200 F 
ENDBRANCH  46  70
BRANCH  58  81
ATOM     81  C   UNL A   1      44.768  27.499  34.228  1.00  0.00     0.064 A 
ATOM     82  C   UNL A   1      46.011  28.148  34.171  1.00  0.00     0.173 A 
ATOM     83  C   UNL A   1      44.687  26.293  34.939  1.00  0.00     0.173 A 
ATOM     84  F   UNL A   1      46.142  29.302  33.499  1.00  0.00    -0.203 F 
ATOM     85  C   UNL A   1      47.134  27.601  34.787  1.00  0.00     0.198 A 
ATOM     86  C   UNL A   1      45.806  25.761  35.574  1.00  0.00     0.198 A 
ATOM     87  F   UNL A   1      43.519  25.643  35.032  1.00  0.00    -0.203 F 
ATOM     88  F   UNL A   1      48.318  28.222  34.694  1.00  0.00    -0.200 F 
ATOM     89  C   UNL A   1      47.030  26.410  35.490  1.00  0.00     0.200 A 
ATOM     90  F   UNL A   1      45.700  24.621  36.271  1.00  0.00    -0.200 F 
ATOM     91  F   UNL A   1      48.109  25.888  36.090  1.00  0.00    -0.200 F 
ENDBRANCH  58  81
ENDBRANCH  32  33
ENDBRANCH  24  27
ENDBRANCH  22  23
ENDBRANCH   1  22
TORSDOF 13
ENDMDL
