MODEL 1
REMARK VINA RESULT:     -13.4      0.000      0.000
REMARK SMILES CCOC(=O)c1c(NC(=O)c2ncccc2C(=O)NCCCNC(=O)c2ccc(-c3c4nc(c(-c5c(F)c(F)c(F)c(F)c5F)c5ccc([nH]5)c(-c5c(F)c(F)c(F)c(F)c5F)c5nc(c(-c6c(F)c(F)c(F)c(F)c6F)c6ccc3[nH]6)C=C5)C=C4)cc2)sc2c1CC[C@H](C)C2
REMARK SMILES IDX 17 1 18 2 19 3 16 5 11 6 12 7 13 8 15 9 14 10 9 11 8 12
REMARK SMILES IDX 10 14 7 15 6 16 91 17 89 18 90 19 92 20 96 21 93 22 94 23
REMARK SMILES IDX 95 24 4 25 5 26 3 27 2 28 1 29 20 30 21 31 22 32 23 33 24 34
REMARK SMILES IDX 25 36 26 37 27 38 88 39 28 40 87 41 29 42 30 43 31 44 81 45
REMARK SMILES IDX 32 46 86 47 80 48 82 49 33 50 85 51 79 52 78 53 34 55 66 56
REMARK SMILES IDX 46 57 65 58 47 59 50 60 64 61 83 62 48 63 49 64 63 66 84 67
REMARK SMILES IDX 51 68 35 69 36 70 44 71 37 72 38 73 42 74 45 75 39 76 40 77
REMARK SMILES IDX 43 78 41 79 67 80 68 81 76 82 69 83 70 84 74 85 77 86 71 87
REMARK SMILES IDX 72 88 75 89 73 90 52 91 53 92 61 93 54 94 55 95 59 96 62 97
REMARK SMILES IDX 56 98 57 99 60 100 58 101
REMARK H PARENT 19 4 8 13 23 35 82 54 50 65
REMARK Flexibility Score: inf
ROOT
ATOM      1  C   UNL A   1      31.343  25.479  26.403  1.00  0.00     0.253 C 
ATOM      2  O   UNL A   1      30.994  24.561  27.138  1.00  0.00    -0.269 OA
ATOM      3  N   UNL A   1      31.348  26.765  26.904  1.00  0.00    -0.352 N 
ATOM      4  H   UNL A   1      30.938  26.860  27.794  1.00  0.00     0.163 HD
ENDROOT
BRANCH   1   5
ATOM      5  C   UNL A   1      31.745  25.187  25.010  1.00  0.00     0.071 A 
ATOM      6  C   UNL A   1      33.059  24.892  24.652  1.00  0.00     0.141 A 
ATOM      7  N   UNL A   1      33.443  24.683  23.350  1.00  0.00    -0.250 NA
ATOM      8  C   UNL A   1      32.512  24.779  22.384  1.00  0.00     0.112 A 
ATOM      9  C   UNL A   1      30.817  25.310  23.965  1.00  0.00     0.018 A 
ATOM     10  C   UNL A   1      31.190  25.072  22.644  1.00  0.00     0.021 A 
BRANCH   6  11
ATOM     11  C   UNL A   1      34.228  24.960  25.557  1.00  0.00     0.275 C 
ATOM     12  N   UNL A   1      34.982  23.904  25.977  1.00  0.00    -0.311 N 
ATOM     13  H   UNL A   1      35.685  24.182  26.607  1.00  0.00     0.171 HD
ATOM     14  O   UNL A   1      34.541  26.072  25.999  1.00  0.00    -0.267 OA
BRANCH  12  15
ATOM     15  C   UNL A   1      35.008  22.557  25.746  1.00  0.00     0.110 A 
ATOM     16  C   UNL A   1      35.852  21.555  25.294  1.00  0.00     0.098 A 
ATOM     17  C   UNL A   1      35.084  20.315  25.118  1.00  0.00    -0.017 A 
ATOM     18  S   UNL A   1      33.446  21.986  26.147  1.00  0.00    -0.122 S 
ATOM     19  C   UNL A   1      33.764  20.469  25.501  1.00  0.00     0.011 A 
ATOM     20  C   UNL A   1      35.582  18.962  24.669  1.00  0.00     0.038 C 
ATOM     21  C   UNL A   1      32.689  19.440  25.411  1.00  0.00     0.050 C 
ATOM     22  C   UNL A   1      34.424  18.012  24.283  1.00  0.00     0.008 C 
ATOM     23  C   UNL A   1      33.316  18.040  25.358  1.00  0.00    -0.009 C 
ATOM     24  C   UNL A   1      32.225  17.005  25.127  1.00  0.00     0.008 C 
BRANCH  16  25
ATOM     25  C   UNL A   1      37.285  21.663  25.006  1.00  0.00     0.341 C 
ATOM     26  O   UNL A   1      37.724  21.617  23.873  1.00  0.00    -0.246 OA
BRANCH  25  27
ATOM     27  O   UNL A   1      38.058  21.785  26.118  1.00  0.00    -0.462 OA
BRANCH  27  28
ATOM     28  C   UNL A   1      39.067  22.817  26.196  1.00  0.00     0.230 C 
ATOM     29  C   UNL A   1      38.685  24.188  26.730  1.00  0.00     0.049 C 
ENDBRANCH  27  28
ENDBRANCH  25  27
ENDBRANCH  16  25
ENDBRANCH  12  15
ENDBRANCH   6  11
ENDBRANCH   1   5
BRANCH   3  30
ATOM     30  C   UNL A   1      31.860  28.011  26.335  1.00  0.00     0.118 C 
BRANCH  30  31
ATOM     31  C   UNL A   1      32.320  29.072  27.328  1.00  0.00     0.042 C 
BRANCH  31  32
ATOM     32  C   UNL A   1      33.795  29.382  27.304  1.00  0.00     0.118 C 
BRANCH  32  33
ATOM     33  N   UNL A   1      34.097  30.795  27.094  1.00  0.00    -0.352 N 
ATOM     34  C   UNL A   1      35.142  31.508  27.657  1.00  0.00     0.251 C 
ATOM     35  H   UNL A   1      33.496  31.292  26.492  1.00  0.00     0.163 HD
ATOM     36  O   UNL A   1      35.130  32.730  27.713  1.00  0.00    -0.269 OA
BRANCH  34  37
ATOM     37  C   UNL A   1      36.285  30.742  28.182  1.00  0.00     0.039 A 
ATOM     38  C   UNL A   1      36.410  29.363  27.995  1.00  0.00     0.014 A 
ATOM     39  C   UNL A   1      37.286  31.472  28.814  1.00  0.00     0.014 A 
ATOM     40  C   UNL A   1      37.591  28.745  28.397  1.00  0.00     0.010 A 
ATOM     41  C   UNL A   1      38.515  30.911  28.999  1.00  0.00     0.010 A 
ATOM     42  C   UNL A   1      38.646  29.535  28.883  1.00  0.00    -0.014 A 
BRANCH  42  43
ATOM     43  C   UNL A   1      39.953  28.968  29.181  1.00  0.00     0.031 A 
ATOM     44  C   UNL A   1      40.246  28.853  30.638  1.00  0.00     0.074 A 
ATOM     45  C   UNL A   1      40.701  28.384  28.213  1.00  0.00     0.049 A 
ATOM     46  N   UNL A   1      41.248  29.339  31.286  1.00  0.00    -0.248 NA
ATOM     47  C   UNL A   1      39.246  28.211  31.509  1.00  0.00     0.031 C 
ATOM     48  C   UNL A   1      40.354  28.175  26.797  1.00  0.00     0.029 A 
ATOM     49  N   UNL A   1      41.902  27.749  28.306  1.00  0.00    -0.354 N 
ATOM     50  C   UNL A   1      41.123  28.892  32.602  1.00  0.00     0.074 A 
ATOM     51  C   UNL A   1      39.816  28.304  32.712  1.00  0.00     0.031 C 
ATOM     52  C   UNL A   1      41.193  27.274  26.242  1.00  0.00     0.029 A 
ATOM     53  C   UNL A   1      42.243  26.978  27.195  1.00  0.00     0.049 A 
ATOM     54  H   UNL A   1      42.484  27.829  29.096  1.00  0.00     0.167 HD
ATOM     55  C   UNL A   1      42.216  28.841  33.411  1.00  0.00     0.037 A 
ATOM     56  C   UNL A   1      43.307  26.142  27.079  1.00  0.00     0.037 A 
ATOM     57  C   UNL A   1      43.246  29.721  32.917  1.00  0.00     0.049 A 
ATOM     58  C   UNL A   1      44.270  26.520  28.141  1.00  0.00     0.074 A 
ATOM     59  C   UNL A   1      43.315  31.080  32.677  1.00  0.00     0.029 A 
ATOM     60  N   UNL A   1      44.275  29.162  32.200  1.00  0.00    -0.354 N 
ATOM     61  N   UNL A   1      44.918  27.651  28.160  1.00  0.00    -0.248 NA
ATOM     62  C   UNL A   1      44.138  25.849  29.425  1.00  0.00     0.031 C 
ATOM     63  C   UNL A   1      44.040  31.197  31.454  1.00  0.00     0.029 A 
ATOM     64  C   UNL A   1      44.456  29.920  31.074  1.00  0.00     0.049 A 
ATOM     65  H   UNL A   1      44.790  28.362  32.451  1.00  0.00     0.167 HD
ATOM     66  C   UNL A   1      44.879  28.052  29.486  1.00  0.00     0.074 A 
ATOM     67  C   UNL A   1      44.449  26.868  30.230  1.00  0.00     0.031 C 
ATOM     68  C   UNL A   1      44.910  29.376  29.817  1.00  0.00     0.037 A 
BRANCH  55  69
ATOM     69  C   UNL A   1      42.519  27.710  34.366  1.00  0.00     0.064 A 
ATOM     70  C   UNL A   1      43.049  26.510  33.846  1.00  0.00     0.173 A 
ATOM     71  C   UNL A   1      42.000  27.624  35.675  1.00  0.00     0.173 A 
ATOM     72  F   UNL A   1      43.571  26.474  32.610  1.00  0.00    -0.203 F 
ATOM     73  C   UNL A   1      42.955  25.300  34.536  1.00  0.00     0.198 A 
ATOM     74  C   UNL A   1      41.949  26.422  36.379  1.00  0.00     0.198 A 
ATOM     75  F   UNL A   1      41.421  28.664  36.282  1.00  0.00    -0.203 F 
ATOM     76  F   UNL A   1      43.338  24.163  33.938  1.00  0.00    -0.200 F 
ATOM     77  C   UNL A   1      42.391  25.254  35.796  1.00  0.00     0.200 A 
ATOM     78  F   UNL A   1      41.384  26.395  37.595  1.00  0.00    -0.200 F 
ATOM     79  F   UNL A   1      42.227  24.084  36.428  1.00  0.00    -0.200 F 
ENDBRANCH  55  69
BRANCH  56  80
ATOM     80  C   UNL A   1      43.418  24.859  26.340  1.00  0.00     0.064 A 
ATOM     81  C   UNL A   1      44.368  24.692  25.317  1.00  0.00     0.173 A 
ATOM     82  C   UNL A   1      42.811  23.684  26.823  1.00  0.00     0.173 A 
ATOM     83  F   UNL A   1      45.027  25.755  24.830  1.00  0.00    -0.203 F 
ATOM     84  C   UNL A   1      44.715  23.426  24.832  1.00  0.00     0.198 A 
ATOM     85  C   UNL A   1      43.154  22.421  26.336  1.00  0.00     0.198 A 
ATOM     86  F   UNL A   1      41.950  23.731  27.850  1.00  0.00    -0.203 F 
ATOM     87  F   UNL A   1      45.677  23.303  23.907  1.00  0.00    -0.200 F 
ATOM     88  C   UNL A   1      44.117  22.290  25.352  1.00  0.00     0.200 A 
ATOM     89  F   UNL A   1      42.599  21.327  26.878  1.00  0.00    -0.200 F 
ATOM     90  F   UNL A   1      44.499  21.073  24.941  1.00  0.00    -0.200 F 
ENDBRANCH  56  80
BRANCH  68  91
ATOM     91  C   UNL A   1      45.249  30.364  28.734  1.00  0.00     0.064 A 
ATOM     92  C   UNL A   1      44.313  30.943  27.859  1.00  0.00     0.173 A 
ATOM     93  C   UNL A   1      46.563  30.846  28.679  1.00  0.00     0.173 A 
ATOM     94  F   UNL A   1      43.018  30.613  27.912  1.00  0.00    -0.203 F 
ATOM     95  C   UNL A   1      44.690  31.926  26.943  1.00  0.00     0.198 A 
ATOM     96  C   UNL A   1      46.928  31.854  27.792  1.00  0.00     0.198 A 
ATOM     97  F   UNL A   1      47.487  30.371  29.528  1.00  0.00    -0.203 F 
ATOM     98  F   UNL A   1      43.781  32.454  26.109  1.00  0.00    -0.200 F 
ATOM     99  C   UNL A   1      45.995  32.385  26.916  1.00  0.00     0.200 A 
ATOM    100  F   UNL A   1      48.180  32.330  27.807  1.00  0.00    -0.200 F 
ATOM    101  F   UNL A   1      46.351  33.358  26.065  1.00  0.00    -0.200 F 
ENDBRANCH  68  91
ENDBRANCH  42  43
ENDBRANCH  34  37
ENDBRANCH  32  33
ENDBRANCH  31  32
ENDBRANCH  30  31
ENDBRANCH   3  30
TORSDOF 15
ENDMDL
MODEL 2
REMARK VINA RESULT:     -13.3      2.011      3.227
REMARK SMILES CCOC(=O)c1c(NC(=O)c2ncccc2C(=O)NCCCNC(=O)c2ccc(-c3c4nc(c(-c5c(F)c(F)c(F)c(F)c5F)c5ccc([nH]5)c(-c5c(F)c(F)c(F)c(F)c5F)c5nc(c(-c6c(F)c(F)c(F)c(F)c6F)c6ccc3[nH]6)C=C5)C=C4)cc2)sc2c1CC[C@H](C)C2
REMARK SMILES IDX 17 1 18 2 19 3 16 5 11 6 12 7 13 8 15 9 14 10 9 11 8 12
REMARK SMILES IDX 10 14 7 15 6 16 91 17 89 18 90 19 92 20 96 21 93 22 94 23
REMARK SMILES IDX 95 24 4 25 5 26 3 27 2 28 1 29 20 30 21 31 22 32 23 33 24 34
REMARK SMILES IDX 25 36 26 37 27 38 88 39 28 40 87 41 29 42 30 43 31 44 81 45
REMARK SMILES IDX 32 46 86 47 80 48 82 49 33 50 85 51 79 52 78 53 34 55 66 56
REMARK SMILES IDX 46 57 65 58 47 59 50 60 64 61 83 62 48 63 49 64 63 66 84 67
REMARK SMILES IDX 51 68 35 69 36 70 44 71 37 72 38 73 42 74 45 75 39 76 40 77
REMARK SMILES IDX 43 78 41 79 67 80 68 81 76 82 69 83 70 84 74 85 77 86 71 87
REMARK SMILES IDX 72 88 75 89 73 90 52 91 53 92 61 93 54 94 55 95 59 96 62 97
REMARK SMILES IDX 56 98 57 99 60 100 58 101
REMARK H PARENT 19 4 8 13 23 35 82 54 50 65
REMARK Flexibility Score: inf
ROOT
ATOM      1  C   UNL A   1      31.785  28.010  26.937  1.00  0.00     0.253 C 
ATOM      2  O   UNL A   1      30.931  27.512  27.663  1.00  0.00    -0.269 OA
ATOM      3  N   UNL A   1      32.940  28.501  27.513  1.00  0.00    -0.352 N 
ATOM      4  H   UNL A   1      32.928  28.529  28.497  1.00  0.00     0.163 HD
ENDROOT
BRANCH   1   5
ATOM      5  C   UNL A   1      31.557  28.073  25.478  1.00  0.00     0.071 A 
ATOM      6  C   UNL A   1      30.963  27.033  24.765  1.00  0.00     0.141 A 
ATOM      7  N   UNL A   1      30.809  27.065  23.400  1.00  0.00    -0.250 NA
ATOM      8  C   UNL A   1      31.262  28.138  22.729  1.00  0.00     0.112 A 
ATOM      9  C   UNL A   1      32.044  29.155  24.731  1.00  0.00     0.018 A 
ATOM     10  C   UNL A   1      31.868  29.209  23.350  1.00  0.00     0.021 A 
BRANCH   6  11
ATOM     11  C   UNL A   1      30.610  25.707  25.319  1.00  0.00     0.275 C 
ATOM     12  N   UNL A   1      31.406  24.600  25.327  1.00  0.00    -0.311 N 
ATOM     13  H   UNL A   1      30.948  23.820  25.713  1.00  0.00     0.171 HD
ATOM     14  O   UNL A   1      29.476  25.574  25.796  1.00  0.00    -0.267 OA
BRANCH  12  15
ATOM     15  C   UNL A   1      32.681  24.300  24.937  1.00  0.00     0.110 A 
ATOM     16  C   UNL A   1      33.403  23.885  23.828  1.00  0.00     0.098 A 
ATOM     17  C   UNL A   1      34.776  23.561  24.234  1.00  0.00    -0.017 A 
ATOM     18  S   UNL A   1      33.654  24.500  26.330  1.00  0.00    -0.122 S 
ATOM     19  C   UNL A   1      34.987  23.809  25.579  1.00  0.00     0.011 A 
ATOM     20  C   UNL A   1      35.923  23.094  23.369  1.00  0.00     0.038 C 
ATOM     21  C   UNL A   1      36.241  23.549  26.343  1.00  0.00     0.050 C 
ATOM     22  C   UNL A   1      37.097  22.536  24.207  1.00  0.00     0.008 C 
ATOM     23  C   UNL A   1      37.431  23.486  25.377  1.00  0.00    -0.009 C 
ATOM     24  C   UNL A   1      38.684  23.084  26.142  1.00  0.00     0.008 C 
BRANCH  16  25
ATOM     25  C   UNL A   1      32.918  23.758  22.450  1.00  0.00     0.341 C 
ATOM     26  O   UNL A   1      32.629  24.725  21.774  1.00  0.00    -0.246 OA
BRANCH  25  27
ATOM     27  O   UNL A   1      32.799  22.470  22.030  1.00  0.00    -0.462 OA
BRANCH  27  28
ATOM     28  C   UNL A   1      31.897  21.564  22.703  1.00  0.00     0.230 C 
ATOM     29  C   UNL A   1      32.472  20.436  23.547  1.00  0.00     0.049 C 
ENDBRANCH  27  28
ENDBRANCH  25  27
ENDBRANCH  16  25
ENDBRANCH  12  15
ENDBRANCH   6  11
ENDBRANCH   1   5
BRANCH   3  30
ATOM     30  C   UNL A   1      34.178  28.988  26.906  1.00  0.00     0.118 C 
BRANCH  30  31
ATOM     31  C   UNL A   1      35.292  29.391  27.866  1.00  0.00     0.042 C 
BRANCH  31  32
ATOM     32  C   UNL A   1      35.739  30.828  27.769  1.00  0.00     0.118 C 
BRANCH  32  33
ATOM     33  N   UNL A   1      35.306  31.655  28.892  1.00  0.00    -0.352 N 
ATOM     34  C   UNL A   1      35.684  31.510  30.217  1.00  0.00     0.251 C 
ATOM     35  H   UNL A   1      34.685  32.391  28.687  1.00  0.00     0.163 HD
ATOM     36  O   UNL A   1      35.032  32.002  31.128  1.00  0.00    -0.269 OA
BRANCH  34  37
ATOM     37  C   UNL A   1      36.910  30.745  30.497  1.00  0.00     0.039 A 
ATOM     38  C   UNL A   1      36.884  29.394  30.850  1.00  0.00     0.014 A 
ATOM     39  C   UNL A   1      38.116  31.415  30.317  1.00  0.00     0.014 A 
ATOM     40  C   UNL A   1      38.094  28.713  30.954  1.00  0.00     0.010 A 
ATOM     41  C   UNL A   1      39.272  30.700  30.199  1.00  0.00     0.010 A 
ATOM     42  C   UNL A   1      39.284  29.375  30.608  1.00  0.00    -0.014 A 
BRANCH  42  43
ATOM     43  C   UNL A   1      40.561  28.678  30.555  1.00  0.00     0.031 A 
ATOM     44  C   UNL A   1      41.218  28.515  31.883  1.00  0.00     0.074 A 
ATOM     45  C   UNL A   1      40.963  28.037  29.431  1.00  0.00     0.049 A 
ATOM     46  N   UNL A   1      42.400  28.891  32.235  1.00  0.00    -0.248 NA
ATOM     47  C   UNL A   1      40.428  27.963  32.998  1.00  0.00     0.031 C 
ATOM     48  C   UNL A   1      40.233  27.882  28.161  1.00  0.00     0.029 A 
ATOM     49  N   UNL A   1      42.076  27.285  29.209  1.00  0.00    -0.354 N 
ATOM     50  C   UNL A   1      42.586  28.441  33.542  1.00  0.00     0.074 A 
ATOM     51  C   UNL A   1      41.304  27.983  34.004  1.00  0.00     0.031 C 
ATOM     52  C   UNL A   1      40.800  26.909  27.415  1.00  0.00     0.029 A 
ATOM     53  C   UNL A   1      42.032  26.499  28.058  1.00  0.00     0.049 A 
ATOM     54  H   UNL A   1      42.853  27.297  29.815  1.00  0.00     0.167 HD
ATOM     55  C   UNL A   1      43.843  28.272  34.031  1.00  0.00     0.037 A 
ATOM     56  C   UNL A   1      42.938  25.564  27.674  1.00  0.00     0.037 A 
ATOM     57  C   UNL A   1      44.787  29.053  33.270  1.00  0.00     0.049 A 
ATOM     58  C   UNL A   1      44.182  25.831  28.436  1.00  0.00     0.074 A 
ATOM     59  C   UNL A   1      44.923  30.401  33.002  1.00  0.00     0.029 A 
ATOM     60  N   UNL A   1      45.527  28.405  32.313  1.00  0.00    -0.354 N 
ATOM     61  N   UNL A   1      44.920  26.892  28.267  1.00  0.00    -0.248 NA
ATOM     62  C   UNL A   1      44.331  25.159  29.718  1.00  0.00     0.031 C 
ATOM     63  C   UNL A   1      45.305  30.463  31.629  1.00  0.00     0.029 A 
ATOM     64  C   UNL A   1      45.476  29.157  31.168  1.00  0.00     0.049 A 
ATOM     65  H   UNL A   1      46.009  27.554  32.428  1.00  0.00     0.167 HD
ATOM     66  C   UNL A   1      45.275  27.277  29.550  1.00  0.00     0.074 A 
ATOM     67  C   UNL A   1      44.944  26.132  30.397  1.00  0.00     0.031 C 
ATOM     68  C   UNL A   1      45.523  28.587  29.844  1.00  0.00     0.037 A 
BRANCH  55  69
ATOM     69  C   UNL A   1      44.277  27.104  34.886  1.00  0.00     0.064 A 
ATOM     70  C   UNL A   1      45.023  27.361  36.055  1.00  0.00     0.173 A 
ATOM     71  C   UNL A   1      44.297  25.765  34.438  1.00  0.00     0.173 A 
ATOM     72  F   UNL A   1      45.076  28.598  36.573  1.00  0.00    -0.203 F 
ATOM     73  C   UNL A   1      45.821  26.383  36.653  1.00  0.00     0.198 A 
ATOM     74  C   UNL A   1      45.059  24.781  35.066  1.00  0.00     0.198 A 
ATOM     75  F   UNL A   1      43.678  25.379  33.319  1.00  0.00    -0.203 F 
ATOM     76  F   UNL A   1      46.626  26.714  37.672  1.00  0.00    -0.200 F 
ATOM     77  C   UNL A   1      45.850  25.097  36.149  1.00  0.00     0.200 A 
ATOM     78  F   UNL A   1      45.085  23.543  34.552  1.00  0.00    -0.200 F 
ATOM     79  F   UNL A   1      46.672  24.178  36.671  1.00  0.00    -0.200 F 
ENDBRANCH  55  69
BRANCH  56  80
ATOM     80  C   UNL A   1      42.722  24.286  26.949  1.00  0.00     0.064 A 
ATOM     81  C   UNL A   1      43.273  24.075  25.673  1.00  0.00     0.173 A 
ATOM     82  C   UNL A   1      42.235  23.144  27.614  1.00  0.00     0.173 A 
ATOM     83  F   UNL A   1      43.800  25.102  24.989  1.00  0.00    -0.203 F 
ATOM     84  C   UNL A   1      43.362  22.796  25.111  1.00  0.00     0.198 A 
ATOM     85  C   UNL A   1      42.321  21.869  27.051  1.00  0.00     0.198 A 
ATOM     86  F   UNL A   1      41.762  23.230  28.866  1.00  0.00    -0.203 F 
ATOM     87  F   UNL A   1      43.959  22.627  23.922  1.00  0.00    -0.200 F 
ATOM     88  C   UNL A   1      42.899  21.693  25.807  1.00  0.00     0.200 A 
ATOM     89  F   UNL A   1      41.907  20.804  27.753  1.00  0.00    -0.200 F 
ATOM     90  F   UNL A   1      43.049  20.460  25.303  1.00  0.00    -0.200 F 
ENDBRANCH  56  80
BRANCH  68  91
ATOM     91  C   UNL A   1      45.657  29.551  28.696  1.00  0.00     0.064 A 
ATOM     92  C   UNL A   1      44.588  30.255  28.114  1.00  0.00     0.173 A 
ATOM     93  C   UNL A   1      46.950  29.877  28.266  1.00  0.00     0.173 A 
ATOM     94  F   UNL A   1      43.331  30.078  28.536  1.00  0.00    -0.203 F 
ATOM     95  C   UNL A   1      44.805  31.206  27.117  1.00  0.00     0.198 A 
ATOM     96  C   UNL A   1      47.167  30.854  27.299  1.00  0.00     0.198 A 
ATOM     97  F   UNL A   1      48.013  29.278  28.825  1.00  0.00    -0.203 F 
ATOM     98  F   UNL A   1      43.767  31.855  26.567  1.00  0.00    -0.200 F 
ATOM     99  C   UNL A   1      46.095  31.509  26.716  1.00  0.00     0.200 A 
ATOM    100  F   UNL A   1      48.420  31.179  26.953  1.00  0.00    -0.200 F 
ATOM    101  F   UNL A   1      46.309  32.451  25.787  1.00  0.00    -0.200 F 
ENDBRANCH  68  91
ENDBRANCH  42  43
ENDBRANCH  34  37
ENDBRANCH  32  33
ENDBRANCH  31  32
ENDBRANCH  30  31
ENDBRANCH   3  30
TORSDOF 15
ENDMDL
MODEL 3
REMARK VINA RESULT:     -13.1      4.856      8.874
REMARK SMILES CCOC(=O)c1c(NC(=O)c2ncccc2C(=O)NCCCNC(=O)c2ccc(-c3c4nc(c(-c5c(F)c(F)c(F)c(F)c5F)c5ccc([nH]5)c(-c5c(F)c(F)c(F)c(F)c5F)c5nc(c(-c6c(F)c(F)c(F)c(F)c6F)c6ccc3[nH]6)C=C5)C=C4)cc2)sc2c1CC[C@H](C)C2
REMARK SMILES IDX 17 1 18 2 19 3 16 5 11 6 12 7 13 8 15 9 14 10 9 11 8 12
REMARK SMILES IDX 10 14 7 15 6 16 91 17 89 18 90 19 92 20 96 21 93 22 94 23
REMARK SMILES IDX 95 24 4 25 5 26 3 27 2 28 1 29 20 30 21 31 22 32 23 33 24 34
REMARK SMILES IDX 25 36 26 37 27 38 88 39 28 40 87 41 29 42 30 43 31 44 81 45
REMARK SMILES IDX 32 46 86 47 80 48 82 49 33 50 85 51 79 52 78 53 34 55 66 56
REMARK SMILES IDX 46 57 65 58 47 59 50 60 64 61 83 62 48 63 49 64 63 66 84 67
REMARK SMILES IDX 51 68 35 69 36 70 44 71 37 72 38 73 42 74 45 75 39 76 40 77
REMARK SMILES IDX 43 78 41 79 67 80 68 81 76 82 69 83 70 84 74 85 77 86 71 87
REMARK SMILES IDX 72 88 75 89 73 90 52 91 53 92 61 93 54 94 55 95 59 96 62 97
REMARK SMILES IDX 56 98 57 99 60 100 58 101
REMARK H PARENT 19 4 8 13 23 35 82 54 50 65
REMARK Flexibility Score: inf
ROOT
ATOM      1  C   UNL A   1      37.415  34.364  34.651  1.00  0.00     0.253 C 
ATOM      2  O   UNL A   1      38.402  35.037  34.369  1.00  0.00    -0.269 OA
ATOM      3  N   UNL A   1      36.237  34.599  33.971  1.00  0.00    -0.352 N 
ATOM      4  H   UNL A   1      36.250  35.394  33.391  1.00  0.00     0.163 HD
ENDROOT
BRANCH   1   5
ATOM      5  C   UNL A   1      37.513  33.330  35.702  1.00  0.00     0.071 A 
ATOM      6  C   UNL A   1      37.956  32.034  35.444  1.00  0.00     0.141 A 
ATOM      7  N   UNL A   1      37.987  31.055  36.407  1.00  0.00    -0.250 NA
ATOM      8  C   UNL A   1      37.559  31.362  37.645  1.00  0.00     0.112 A 
ATOM      9  C   UNL A   1      37.046  33.591  36.999  1.00  0.00     0.018 A 
ATOM     10  C   UNL A   1      37.099  32.614  37.990  1.00  0.00     0.021 A 
BRANCH   6  11
ATOM     11  C   UNL A   1      38.253  31.482  34.103  1.00  0.00     0.275 C 
ATOM     12  N   UNL A   1      39.378  31.716  33.369  1.00  0.00    -0.311 N 
ATOM     13  H   UNL A   1      39.341  31.275  32.489  1.00  0.00     0.171 HD
ATOM     14  O   UNL A   1      37.393  30.762  33.581  1.00  0.00    -0.267 OA
BRANCH  12  15
ATOM     15  C   UNL A   1      40.544  32.407  33.544  1.00  0.00     0.110 A 
ATOM     16  C   UNL A   1      41.485  32.712  34.515  1.00  0.00     0.098 A 
ATOM     17  C   UNL A   1      42.410  33.727  33.996  1.00  0.00    -0.017 A 
ATOM     18  S   UNL A   1      40.888  33.130  32.031  1.00  0.00    -0.122 S 
ATOM     19  C   UNL A   1      42.129  34.054  32.682  1.00  0.00     0.011 A 
ATOM     20  C   UNL A   1      43.604  34.344  34.684  1.00  0.00     0.038 C 
ATOM     21  C   UNL A   1      42.827  35.080  31.855  1.00  0.00     0.050 C 
ATOM     22  C   UNL A   1      44.113  35.607  33.950  1.00  0.00     0.008 C 
ATOM     23  C   UNL A   1      44.224  35.347  32.432  1.00  0.00    -0.009 C 
ATOM     24  C   UNL A   1      44.876  36.491  31.670  1.00  0.00     0.008 C 
BRANCH  16  25
ATOM     25  C   UNL A   1      41.579  32.151  35.866  1.00  0.00     0.341 C 
ATOM     26  O   UNL A   1      41.411  30.968  36.090  1.00  0.00    -0.246 OA
BRANCH  25  27
ATOM     27  O   UNL A   1      41.836  33.079  36.827  1.00  0.00    -0.462 OA
BRANCH  27  28
ATOM     28  C   UNL A   1      40.750  33.711  37.540  1.00  0.00     0.230 C 
ATOM     29  C   UNL A   1      40.468  35.187  37.304  1.00  0.00     0.049 C 
ENDBRANCH  27  28
ENDBRANCH  25  27
ENDBRANCH  16  25
ENDBRANCH  12  15
ENDBRANCH   6  11
ENDBRANCH   1   5
BRANCH   3  30
ATOM     30  C   UNL A   1      34.973  33.865  33.969  1.00  0.00     0.118 C 
BRANCH  30  31
ATOM     31  C   UNL A   1      34.343  33.601  32.605  1.00  0.00     0.042 C 
BRANCH  31  32
ATOM     32  C   UNL A   1      34.782  32.328  31.927  1.00  0.00     0.118 C 
BRANCH  32  33
ATOM     33  N   UNL A   1      34.438  32.268  30.509  1.00  0.00    -0.352 N 
ATOM     34  C   UNL A   1      35.278  31.897  29.472  1.00  0.00     0.251 C 
ATOM     35  H   UNL A   1      33.517  32.516  30.265  1.00  0.00     0.163 HD
ATOM     36  O   UNL A   1      35.036  32.197  28.310  1.00  0.00    -0.269 OA
BRANCH  34  37
ATOM     37  C   UNL A   1      36.478  31.115  29.812  1.00  0.00     0.039 A 
ATOM     38  C   UNL A   1      36.448  29.725  29.955  1.00  0.00     0.014 A 
ATOM     39  C   UNL A   1      37.673  31.819  29.912  1.00  0.00     0.014 A 
ATOM     40  C   UNL A   1      37.654  29.053  30.134  1.00  0.00     0.010 A 
ATOM     41  C   UNL A   1      38.857  31.146  29.861  1.00  0.00     0.010 A 
ATOM     42  C   UNL A   1      38.857  29.774  30.067  1.00  0.00    -0.014 A 
BRANCH  42  43
ATOM     43  C   UNL A   1      40.152  29.109  30.098  1.00  0.00     0.031 A 
ATOM     44  C   UNL A   1      40.740  28.994  31.463  1.00  0.00     0.074 A 
ATOM     45  C   UNL A   1      40.630  28.454  29.013  1.00  0.00     0.049 A 
ATOM     46  N   UNL A   1      41.891  29.408  31.869  1.00  0.00    -0.248 NA
ATOM     47  C   UNL A   1      39.905  28.447  32.547  1.00  0.00     0.031 C 
ATOM     48  C   UNL A   1      39.974  28.252  27.711  1.00  0.00     0.029 A 
ATOM     49  N   UNL A   1      41.772  27.727  28.870  1.00  0.00    -0.354 N 
ATOM     50  C   UNL A   1      42.017  28.993  33.194  1.00  0.00     0.074 A 
ATOM     51  C   UNL A   1      40.724  28.512  33.598  1.00  0.00     0.031 C 
ATOM     52  C   UNL A   1      40.605  27.278  27.019  1.00  0.00     0.029 A 
ATOM     53  C   UNL A   1      41.809  26.914  27.737  1.00  0.00     0.049 A 
ATOM     54  H   UNL A   1      42.514  27.772  29.515  1.00  0.00     0.167 HD
ATOM     55  C   UNL A   1      43.251  28.868  33.755  1.00  0.00     0.037 A 
ATOM     56  C   UNL A   1      42.759  25.995  27.425  1.00  0.00     0.037 A 
ATOM     57  C   UNL A   1      44.214  29.656  33.026  1.00  0.00     0.049 A 
ATOM     58  C   UNL A   1      43.952  26.311  28.246  1.00  0.00     0.074 A 
ATOM     59  C   UNL A   1      44.331  31.001  32.734  1.00  0.00     0.029 A 
ATOM     60  N   UNL A   1      45.021  29.006  32.126  1.00  0.00    -0.354 N 
ATOM     61  N   UNL A   1      44.671  27.387  28.091  1.00  0.00    -0.248 NA
ATOM     62  C   UNL A   1      44.048  25.673  29.549  1.00  0.00     0.031 C 
ATOM     63  C   UNL A   1      44.785  31.041  31.382  1.00  0.00     0.029 A 
ATOM     64  C   UNL A   1      45.013  29.730  30.963  1.00  0.00     0.049 A 
ATOM     65  H   UNL A   1      45.517  28.171  32.287  1.00  0.00     0.167 HD
ATOM     66  C   UNL A   1      44.947  27.810  29.382  1.00  0.00     0.074 A 
ATOM     67  C   UNL A   1      44.599  26.676  30.237  1.00  0.00     0.031 C 
ATOM     68  C   UNL A   1      45.146  29.132  29.656  1.00  0.00     0.037 A 
BRANCH  55  69
ATOM     69  C   UNL A   1      43.666  27.731  34.659  1.00  0.00     0.064 A 
ATOM     70  C   UNL A   1      43.444  26.407  34.225  1.00  0.00     0.173 A 
ATOM     71  C   UNL A   1      43.939  27.879  36.036  1.00  0.00     0.173 A 
ATOM     72  F   UNL A   1      43.177  26.146  32.936  1.00  0.00    -0.203 F 
ATOM     73  C   UNL A   1      43.380  25.337  35.120  1.00  0.00     0.198 A 
ATOM     74  C   UNL A   1      43.919  26.801  36.919  1.00  0.00     0.198 A 
ATOM     75  F   UNL A   1      44.122  29.075  36.602  1.00  0.00    -0.203 F 
ATOM     76  F   UNL A   1      43.019  24.124  34.681  1.00  0.00    -0.200 F 
ATOM     77  C   UNL A   1      43.602  25.537  36.469  1.00  0.00     0.200 A 
ATOM     78  F   UNL A   1      44.123  27.018  38.226  1.00  0.00    -0.200 F 
ATOM     79  F   UNL A   1      43.464  24.529  37.340  1.00  0.00    -0.200 F 
ENDBRANCH  55  69
BRANCH  56  80
ATOM     80  C   UNL A   1      42.614  24.695  26.720  1.00  0.00     0.064 A 
ATOM     81  C   UNL A   1      43.285  24.449  25.509  1.00  0.00     0.173 A 
ATOM     82  C   UNL A   1      42.066  23.572  27.368  1.00  0.00     0.173 A 
ATOM     83  F   UNL A   1      43.875  25.457  24.850  1.00  0.00    -0.203 F 
ATOM     84  C   UNL A   1      43.429  23.155  24.997  1.00  0.00     0.198 A 
ATOM     85  C   UNL A   1      42.206  22.281  26.853  1.00  0.00     0.198 A 
ATOM     86  F   UNL A   1      41.474  23.693  28.565  1.00  0.00    -0.203 F 
ATOM     87  F   UNL A   1      44.138  22.953  23.876  1.00  0.00    -0.200 F 
ATOM     88  C   UNL A   1      42.901  22.071  25.676  1.00  0.00     0.200 A 
ATOM     89  F   UNL A   1      41.726  21.236  27.543  1.00  0.00    -0.200 F 
ATOM     90  F   UNL A   1      43.099  20.824  25.225  1.00  0.00    -0.200 F 
ENDBRANCH  56  80
BRANCH  68  91
ATOM     91  C   UNL A   1      45.318  30.074  28.495  1.00  0.00     0.064 A 
ATOM     92  C   UNL A   1      44.263  30.714  27.822  1.00  0.00     0.173 A 
ATOM     93  C   UNL A   1      46.622  30.447  28.146  1.00  0.00     0.173 A 
ATOM     94  F   UNL A   1      42.988  30.491  28.161  1.00  0.00    -0.203 F 
ATOM     95  C   UNL A   1      44.507  31.650  26.816  1.00  0.00     0.198 A 
ATOM     96  C   UNL A   1      46.864  31.409  27.170  1.00  0.00     0.198 A 
ATOM     97  F   UNL A   1      47.669  29.910  28.792  1.00  0.00    -0.203 F 
ATOM     98  F   UNL A   1      43.483  32.238  26.179  1.00  0.00    -0.200 F 
ATOM     99  C   UNL A   1      45.808  32.001  26.496  1.00  0.00     0.200 A 
ATOM    100  F   UNL A   1      48.122  31.781  26.901  1.00  0.00    -0.200 F 
ATOM    101  F   UNL A   1      46.045  32.929  25.559  1.00  0.00    -0.200 F 
ENDBRANCH  68  91
ENDBRANCH  42  43
ENDBRANCH  34  37
ENDBRANCH  32  33
ENDBRANCH  31  32
ENDBRANCH  30  31
ENDBRANCH   3  30
TORSDOF 15
ENDMDL
