MODEL 1
REMARK VINA RESULT:     -11.1      0.000      0.000
REMARK SMILES C[C@@H]1CCC[C@@]1(C[NH3+])C(=O)NCCCNC(=O)c1ccc(-c2c3nc(c(-c4c(F)c(F)c(F)c(F)c4F)c4ccc([nH]4)c(-c4c(F)c(F)c(F)c(F)c4F)c4nc(c(-c5c(F)c(F)c(F)c(F)c5F)c5ccc2[nH]5)C=C4)C=C3)cc1
REMARK SMILES IDX 13 1 12 2 11 3 9 4 10 5 6 7 1 8 2 9 3 10 4 11 5 12 7 13 8 14
REMARK SMILES IDX 14 18 15 19 16 20 17 22 18 23 19 24 80 25 20 26 79 27 21 28
REMARK SMILES IDX 22 29 23 30 73 31 24 32 78 33 72 34 74 35 25 36 77 37 71 38
REMARK SMILES IDX 70 39 26 41 58 42 38 43 57 44 39 45 42 46 56 47 75 48 40 49
REMARK SMILES IDX 41 50 55 52 76 53 43 54 27 55 28 56 36 57 29 58 30 59 34 60
REMARK SMILES IDX 37 61 31 62 32 63 35 64 33 65 59 66 60 67 68 68 61 69 62 70
REMARK SMILES IDX 66 71 69 72 63 73 64 74 67 75 65 76 44 77 45 78 53 79 46 80
REMARK SMILES IDX 47 81 51 82 54 83 48 84 49 85 52 86 50 87
REMARK H PARENT 11 6 8 15 8 16 8 17 15 21 74 40 42 51
REMARK Flexibility Score: inf
ROOT
ATOM      1  C   UNL A   1      31.309  32.406  26.499  1.00  0.00     0.042 C 
ENDROOT
BRANCH   1   2
ATOM      2  C   UNL A   1      31.405  30.953  26.032  1.00  0.00     0.117 C 
BRANCH   2   3
ATOM      3  N   UNL A   1      32.678  30.357  26.397  1.00  0.00    -0.355 N 
ATOM      4  C   UNL A   1      33.134  29.075  26.401  1.00  0.00     0.232 C 
ATOM      5  O   UNL A   1      34.275  28.929  26.854  1.00  0.00    -0.274 OA
ATOM      6  H   UNL A   1      33.344  31.013  26.705  1.00  0.00     0.163 HD
BRANCH   4   7
ATOM      7  C   UNL A   1      32.317  27.881  25.822  1.00  0.00     0.100 C 
ATOM      8  C   UNL A   1      30.558  27.507  23.912  1.00  0.00     0.009 C 
ATOM      9  C   UNL A   1      31.734  28.321  24.448  1.00  0.00     0.007 C 
ATOM     10  C   UNL A   1      32.942  28.209  23.507  1.00  0.00     0.005 C 
ATOM     11  C   UNL A   1      33.706  26.980  23.972  1.00  0.00     0.002 C 
ATOM     12  C   UNL A   1      33.307  26.744  25.429  1.00  0.00     0.023 C 
BRANCH   7  13
ATOM     13  C   UNL A   1      31.320  27.394  26.907  1.00  0.00     0.276 C 
BRANCH  13  14
ATOM     14  N   UNL A   1      31.422  27.986  28.243  1.00  0.00    -0.357 N 
ATOM     15  H   UNL A   1      31.469  27.243  28.941  1.00  0.00     0.344 HD
ATOM     16  H   UNL A   1      30.603  28.567  28.420  1.00  0.00     0.344 HD
ATOM     17  H   UNL A   1      32.264  28.558  28.298  1.00  0.00     0.344 HD
ENDBRANCH  13  14
ENDBRANCH   7  13
ENDBRANCH   4   7
ENDBRANCH   2   3
ENDBRANCH   1   2
BRANCH   1  18
ATOM     18  C   UNL A   1      32.565  32.915  27.204  1.00  0.00     0.118 C 
BRANCH  18  19
ATOM     19  N   UNL A   1      32.421  34.290  27.659  1.00  0.00    -0.352 N 
ATOM     20  C   UNL A   1      33.052  34.954  28.680  1.00  0.00     0.251 C 
ATOM     21  H   UNL A   1      31.770  34.828  27.154  1.00  0.00     0.163 HD
ATOM     22  O   UNL A   1      32.630  36.057  29.031  1.00  0.00    -0.269 OA
BRANCH  20  23
ATOM     23  C   UNL A   1      34.220  34.369  29.374  1.00  0.00     0.039 A 
ATOM     24  C   UNL A   1      34.010  33.677  30.573  1.00  0.00     0.014 A 
ATOM     25  C   UNL A   1      35.522  34.552  28.900  1.00  0.00     0.014 A 
ATOM     26  C   UNL A   1      35.091  33.129  31.266  1.00  0.00     0.010 A 
ATOM     27  C   UNL A   1      36.597  33.959  29.564  1.00  0.00     0.010 A 
ATOM     28  C   UNL A   1      36.394  33.246  30.756  1.00  0.00    -0.014 A 
BRANCH  28  29
ATOM     29  C   UNL A   1      37.550  32.627  31.453  1.00  0.00     0.031 A 
ATOM     30  C   UNL A   1      38.264  31.450  30.846  1.00  0.00     0.074 A 
ATOM     31  C   UNL A   1      37.914  33.081  32.668  1.00  0.00     0.049 A 
ATOM     32  N   UNL A   1      39.236  30.725  31.342  1.00  0.00    -0.248 NA
ATOM     33  C   UNL A   1      37.810  31.015  29.516  1.00  0.00     0.031 C 
ATOM     34  C   UNL A   1      37.274  34.183  33.385  1.00  0.00     0.029 A 
ATOM     35  N   UNL A   1      38.899  32.655  33.525  1.00  0.00    -0.354 N 
ATOM     36  C   UNL A   1      39.489  29.735  30.401  1.00  0.00     0.074 A 
ATOM     37  C   UNL A   1      38.553  29.934  29.316  1.00  0.00     0.031 C 
ATOM     38  C   UNL A   1      37.882  34.351  34.570  1.00  0.00     0.029 A 
ATOM     39  C   UNL A   1      38.935  33.348  34.711  1.00  0.00     0.049 A 
ATOM     40  H   UNL A   1      39.521  31.923  33.310  1.00  0.00     0.167 HD
ATOM     41  C   UNL A   1      40.425  28.758  30.436  1.00  0.00     0.037 A 
ATOM     42  C   UNL A   1      39.717  33.185  35.795  1.00  0.00     0.037 A 
ATOM     43  C   UNL A   1      41.389  28.591  31.492  1.00  0.00     0.049 A 
ATOM     44  C   UNL A   1      40.766  32.108  35.792  1.00  0.00     0.074 A 
ATOM     45  C   UNL A   1      42.441  27.694  31.567  1.00  0.00     0.029 A 
ATOM     46  N   UNL A   1      41.417  29.338  32.660  1.00  0.00    -0.354 N 
ATOM     47  N   UNL A   1      41.051  31.233  34.859  1.00  0.00    -0.248 NA
ATOM     48  C   UNL A   1      41.609  32.001  36.992  1.00  0.00     0.031 C 
ATOM     49  C   UNL A   1      43.081  27.871  32.797  1.00  0.00     0.029 A 
ATOM     50  C   UNL A   1      42.454  28.905  33.472  1.00  0.00     0.049 A 
ATOM     51  H   UNL A   1      40.795  30.068  32.880  1.00  0.00     0.167 HD
ATOM     52  C   UNL A   1      42.117  30.490  35.346  1.00  0.00     0.074 A 
ATOM     53  C   UNL A   1      42.440  31.025  36.652  1.00  0.00     0.031 C 
ATOM     54  C   UNL A   1      42.770  29.455  34.764  1.00  0.00     0.037 A 
BRANCH  41  55
ATOM     55  C   UNL A   1      40.466  27.783  29.296  1.00  0.00     0.064 A 
ATOM     56  C   UNL A   1      39.610  26.674  29.247  1.00  0.00     0.173 A 
ATOM     57  C   UNL A   1      41.323  28.002  28.208  1.00  0.00     0.173 A 
ATOM     58  F   UNL A   1      38.778  26.417  30.268  1.00  0.00    -0.203 F 
ATOM     59  C   UNL A   1      39.623  25.809  28.156  1.00  0.00     0.198 A 
ATOM     60  C   UNL A   1      41.317  27.149  27.108  1.00  0.00     0.198 A 
ATOM     61  F   UNL A   1      42.156  29.054  28.204  1.00  0.00    -0.203 F 
ATOM     62  F   UNL A   1      38.819  24.737  28.143  1.00  0.00    -0.200 F 
ATOM     63  C   UNL A   1      40.469  26.052  27.084  1.00  0.00     0.200 A 
ATOM     64  F   UNL A   1      42.126  27.392  26.067  1.00  0.00    -0.200 F 
ATOM     65  F   UNL A   1      40.470  25.226  26.029  1.00  0.00    -0.200 F 
ENDBRANCH  41  55
BRANCH  42  66
ATOM     66  C   UNL A   1      39.546  34.071  36.974  1.00  0.00     0.064 A 
ATOM     67  C   UNL A   1      40.182  35.319  37.036  1.00  0.00     0.173 A 
ATOM     68  C   UNL A   1      38.763  33.681  38.070  1.00  0.00     0.173 A 
ATOM     69  F   UNL A   1      40.959  35.724  36.022  1.00  0.00    -0.203 F 
ATOM     70  C   UNL A   1      40.059  36.135  38.159  1.00  0.00     0.198 A 
ATOM     71  C   UNL A   1      38.619  34.509  39.182  1.00  0.00     0.198 A 
ATOM     72  F   UNL A   1      38.130  32.498  38.058  1.00  0.00    -0.203 F 
ATOM     73  F   UNL A   1      40.715  37.301  38.212  1.00  0.00    -0.200 F 
ATOM     74  C   UNL A   1      39.274  35.731  39.229  1.00  0.00     0.200 A 
ATOM     75  F   UNL A   1      37.850  34.122  40.208  1.00  0.00    -0.200 F 
ATOM     76  F   UNL A   1      39.157  36.515  40.310  1.00  0.00    -0.200 F 
ENDBRANCH  42  66
BRANCH  54  77
ATOM     77  C   UNL A   1      43.918  28.855  35.518  1.00  0.00     0.064 A 
ATOM     78  C   UNL A   1      43.724  27.825  36.448  1.00  0.00     0.173 A 
ATOM     79  C   UNL A   1      45.230  29.291  35.280  1.00  0.00     0.173 A 
ATOM     80  F   UNL A   1      42.486  27.386  36.722  1.00  0.00    -0.203 F 
ATOM     81  C   UNL A   1      44.801  27.264  37.129  1.00  0.00     0.198 A 
ATOM     82  C   UNL A   1      46.307  28.712  35.944  1.00  0.00     0.198 A 
ATOM     83  F   UNL A   1      45.467  30.272  34.396  1.00  0.00    -0.203 F 
ATOM     84  F   UNL A   1      44.590  26.310  38.045  1.00  0.00    -0.200 F 
ATOM     85  C   UNL A   1      46.092  27.703  36.871  1.00  0.00     0.200 A 
ATOM     86  F   UNL A   1      47.555  29.130  35.686  1.00  0.00    -0.200 F 
ATOM     87  F   UNL A   1      47.129  27.160  37.524  1.00  0.00    -0.200 F 
ENDBRANCH  54  77
ENDBRANCH  28  29
ENDBRANCH  20  23
ENDBRANCH  18  19
ENDBRANCH   1  18
TORSDOF 12
ENDMDL
MODEL 2
REMARK VINA RESULT:     -11.1      0.233      1.779
REMARK SMILES C[C@@H]1CCC[C@@]1(C[NH3+])C(=O)NCCCNC(=O)c1ccc(-c2c3nc(c(-c4c(F)c(F)c(F)c(F)c4F)c4ccc([nH]4)c(-c4c(F)c(F)c(F)c(F)c4F)c4nc(c(-c5c(F)c(F)c(F)c(F)c5F)c5ccc2[nH]5)C=C4)C=C3)cc1
REMARK SMILES IDX 13 1 12 2 11 3 9 4 10 5 6 7 1 8 2 9 3 10 4 11 5 12 7 13 8 14
REMARK SMILES IDX 14 18 15 19 16 20 17 22 18 23 19 24 80 25 20 26 79 27 21 28
REMARK SMILES IDX 22 29 23 30 73 31 24 32 78 33 72 34 74 35 25 36 77 37 71 38
REMARK SMILES IDX 70 39 26 41 58 42 38 43 57 44 39 45 42 46 56 47 75 48 40 49
REMARK SMILES IDX 41 50 55 52 76 53 43 54 27 55 28 56 36 57 29 58 30 59 34 60
REMARK SMILES IDX 37 61 31 62 32 63 35 64 33 65 59 66 60 67 68 68 61 69 62 70
REMARK SMILES IDX 66 71 69 72 63 73 64 74 67 75 65 76 44 77 45 78 53 79 46 80
REMARK SMILES IDX 47 81 51 82 54 83 48 84 49 85 52 86 50 87
REMARK H PARENT 11 6 8 15 8 16 8 17 15 21 74 40 42 51
REMARK Flexibility Score: inf
ROOT
ATOM      1  C   UNL A   1      31.379  32.650  26.555  1.00  0.00     0.042 C 
ENDROOT
BRANCH   1   2
ATOM      2  C   UNL A   1      31.331  31.125  26.451  1.00  0.00     0.117 C 
BRANCH   2   3
ATOM      3  N   UNL A   1      32.609  30.526  26.792  1.00  0.00    -0.355 N 
ATOM      4  C   UNL A   1      33.111  29.269  26.652  1.00  0.00     0.232 C 
ATOM      5  O   UNL A   1      34.237  29.101  27.131  1.00  0.00    -0.274 OA
ATOM      6  H   UNL A   1      33.239  31.157  27.210  1.00  0.00     0.163 HD
BRANCH   4   7
ATOM      7  C   UNL A   1      32.360  28.135  25.890  1.00  0.00     0.100 C 
ATOM      8  C   UNL A   1      30.654  27.961  23.905  1.00  0.00     0.009 C 
ATOM      9  C   UNL A   1      31.781  28.741  24.579  1.00  0.00     0.007 C 
ATOM     10  C   UNL A   1      33.009  28.817  23.660  1.00  0.00     0.005 C 
ATOM     11  C   UNL A   1      33.821  27.569  23.964  1.00  0.00     0.002 C 
ATOM     12  C   UNL A   1      33.409  27.110  25.363  1.00  0.00     0.023 C 
BRANCH   7  13
ATOM     13  C   UNL A   1      31.368  27.455  26.871  1.00  0.00     0.276 C 
BRANCH  13  14
ATOM     14  N   UNL A   1      31.370  27.905  28.264  1.00  0.00    -0.357 N 
ATOM     15  H   UNL A   1      31.539  28.911  28.297  1.00  0.00     0.344 HD
ATOM     16  H   UNL A   1      32.105  27.420  28.778  1.00  0.00     0.344 HD
ATOM     17  H   UNL A   1      30.466  27.699  28.689  1.00  0.00     0.344 HD
ENDBRANCH  13  14
ENDBRANCH   7  13
ENDBRANCH   4   7
ENDBRANCH   2   3
ENDBRANCH   1   2
BRANCH   1  18
ATOM     18  C   UNL A   1      32.677  33.190  27.153  1.00  0.00     0.118 C 
BRANCH  18  19
ATOM     19  N   UNL A   1      32.500  34.504  27.754  1.00  0.00    -0.352 N 
ATOM     20  C   UNL A   1      33.080  35.052  28.869  1.00  0.00     0.251 C 
ATOM     21  H   UNL A   1      31.864  35.093  27.286  1.00  0.00     0.163 HD
ATOM     22  O   UNL A   1      32.633  36.105  29.325  1.00  0.00    -0.269 OA
BRANCH  20  23
ATOM     23  C   UNL A   1      34.225  34.398  29.541  1.00  0.00     0.039 A 
ATOM     24  C   UNL A   1      35.510  34.602  29.024  1.00  0.00     0.014 A 
ATOM     25  C   UNL A   1      34.044  33.535  30.625  1.00  0.00     0.014 A 
ATOM     26  C   UNL A   1      36.612  33.983  29.620  1.00  0.00     0.010 A 
ATOM     27  C   UNL A   1      35.150  32.961  31.254  1.00  0.00     0.010 A 
ATOM     28  C   UNL A   1      36.445  33.175  30.755  1.00  0.00    -0.014 A 
BRANCH  28  29
ATOM     29  C   UNL A   1      37.610  32.550  31.432  1.00  0.00     0.031 A 
ATOM     30  C   UNL A   1      38.330  31.393  30.794  1.00  0.00     0.074 A 
ATOM     31  C   UNL A   1      37.977  32.979  32.655  1.00  0.00     0.049 A 
ATOM     32  N   UNL A   1      39.310  30.665  31.268  1.00  0.00    -0.248 NA
ATOM     33  C   UNL A   1      37.872  30.985  29.457  1.00  0.00     0.031 C 
ATOM     34  C   UNL A   1      37.332  34.060  33.400  1.00  0.00     0.029 A 
ATOM     35  N   UNL A   1      38.971  32.543  33.497  1.00  0.00    -0.354 N 
ATOM     36  C   UNL A   1      39.566  29.698  30.304  1.00  0.00     0.074 A 
ATOM     37  C   UNL A   1      38.622  29.915  29.229  1.00  0.00     0.031 C 
ATOM     38  C   UNL A   1      37.946  34.206  34.585  1.00  0.00     0.029 A 
ATOM     39  C   UNL A   1      39.007  33.209  34.697  1.00  0.00     0.049 A 
ATOM     40  H   UNL A   1      39.597  31.821  33.262  1.00  0.00     0.167 HD
ATOM     41  C   UNL A   1      40.511  28.729  30.312  1.00  0.00     0.037 A 
ATOM     42  C   UNL A   1      39.797  33.028  35.773  1.00  0.00     0.037 A 
ATOM     43  C   UNL A   1      41.481  28.546  31.358  1.00  0.00     0.049 A 
ATOM     44  C   UNL A   1      40.855  31.960  35.739  1.00  0.00     0.074 A 
ATOM     45  C   UNL A   1      42.541  27.656  31.407  1.00  0.00     0.029 A 
ATOM     46  N   UNL A   1      41.511  29.267  32.542  1.00  0.00    -0.354 N 
ATOM     47  N   UNL A   1      41.141  31.109  34.786  1.00  0.00    -0.248 NA
ATOM     48  C   UNL A   1      41.706  31.833  36.932  1.00  0.00     0.031 C 
ATOM     49  C   UNL A   1      43.187  27.811  32.637  1.00  0.00     0.029 A 
ATOM     50  C   UNL A   1      42.556  28.824  33.338  1.00  0.00     0.049 A 
ATOM     51  H   UNL A   1      40.884  29.986  32.782  1.00  0.00     0.167 HD
ATOM     52  C   UNL A   1      42.217  30.364  35.250  1.00  0.00     0.074 A 
ATOM     53  C   UNL A   1      42.543  30.872  36.565  1.00  0.00     0.031 C 
ATOM     54  C   UNL A   1      42.874  29.348  34.640  1.00  0.00     0.037 A 
BRANCH  41  55
ATOM     55  C   UNL A   1      40.552  27.780  29.150  1.00  0.00     0.064 A 
ATOM     56  C   UNL A   1      39.699  26.670  29.076  1.00  0.00     0.173 A 
ATOM     57  C   UNL A   1      41.408  28.026  28.067  1.00  0.00     0.173 A 
ATOM     58  F   UNL A   1      38.869  26.388  30.091  1.00  0.00    -0.203 F 
ATOM     59  C   UNL A   1      39.713  25.831  27.966  1.00  0.00     0.198 A 
ATOM     60  C   UNL A   1      41.403  27.198  26.947  1.00  0.00     0.198 A 
ATOM     61  F   UNL A   1      42.238  29.080  28.085  1.00  0.00    -0.203 F 
ATOM     62  F   UNL A   1      38.911  24.758  27.929  1.00  0.00    -0.200 F 
ATOM     63  C   UNL A   1      40.558  26.100  26.899  1.00  0.00     0.200 A 
ATOM     64  F   UNL A   1      42.211  27.467  25.912  1.00  0.00    -0.200 F 
ATOM     65  F   UNL A   1      40.560  25.298  25.825  1.00  0.00    -0.200 F 
ENDBRANCH  41  55
BRANCH  42  66
ATOM     66  C   UNL A   1      39.626  33.886  36.973  1.00  0.00     0.064 A 
ATOM     67  C   UNL A   1      38.841  33.464  38.055  1.00  0.00     0.173 A 
ATOM     68  C   UNL A   1      40.226  35.151  37.055  1.00  0.00     0.173 A 
ATOM     69  F   UNL A   1      38.229  32.271  38.011  1.00  0.00    -0.203 F 
ATOM     70  C   UNL A   1      38.644  34.283  39.164  1.00  0.00     0.198 A 
ATOM     71  C   UNL A   1      40.050  35.959  38.176  1.00  0.00     0.198 A 
ATOM     72  F   UNL A   1      40.990  35.599  36.048  1.00  0.00    -0.203 F 
ATOM     73  F   UNL A   1      37.850  33.875  40.163  1.00  0.00    -0.200 F 
ATOM     74  C   UNL A   1      39.252  35.528  39.225  1.00  0.00     0.200 A 
ATOM     75  F   UNL A   1      40.649  37.156  38.238  1.00  0.00    -0.200 F 
ATOM     76  F   UNL A   1      39.061  36.317  40.292  1.00  0.00    -0.200 F 
ENDBRANCH  42  66
BRANCH  54  77
ATOM     77  C   UNL A   1      44.032  28.741  35.375  1.00  0.00     0.064 A 
ATOM     78  C   UNL A   1      45.339  29.215  35.201  1.00  0.00     0.173 A 
ATOM     79  C   UNL A   1      43.824  27.699  36.291  1.00  0.00     0.173 A 
ATOM     80  F   UNL A   1      45.590  30.199  34.324  1.00  0.00    -0.203 F 
ATOM     81  C   UNL A   1      46.402  28.653  35.903  1.00  0.00     0.198 A 
ATOM     82  C   UNL A   1      44.885  27.156  37.010  1.00  0.00     0.198 A 
ATOM     83  F   UNL A   1      42.590  27.214  36.495  1.00  0.00    -0.203 F 
ATOM     84  F   UNL A   1      47.650  29.092  35.691  1.00  0.00    -0.200 F 
ATOM     85  C   UNL A   1      46.173  27.630  36.811  1.00  0.00     0.200 A 
ATOM     86  F   UNL A   1      44.661  26.174  37.894  1.00  0.00    -0.200 F 
ATOM     87  F   UNL A   1      47.197  27.092  37.489  1.00  0.00    -0.200 F 
ENDBRANCH  54  77
ENDBRANCH  28  29
ENDBRANCH  20  23
ENDBRANCH  18  19
ENDBRANCH   1  18
TORSDOF 12
ENDMDL
MODEL 3
REMARK VINA RESULT:     -10.9      6.317     11.669
REMARK SMILES C[C@@H]1CCC[C@@]1(C[NH3+])C(=O)NCCCNC(=O)c1ccc(-c2c3nc(c(-c4c(F)c(F)c(F)c(F)c4F)c4ccc([nH]4)c(-c4c(F)c(F)c(F)c(F)c4F)c4nc(c(-c5c(F)c(F)c(F)c(F)c5F)c5ccc2[nH]5)C=C4)C=C3)cc1
REMARK SMILES IDX 13 1 12 2 11 3 9 4 10 5 6 7 1 8 2 9 3 10 4 11 5 12 7 13 8 14
REMARK SMILES IDX 14 18 15 19 16 20 17 22 18 23 19 24 80 25 20 26 79 27 21 28
REMARK SMILES IDX 22 29 23 30 73 31 24 32 78 33 72 34 74 35 25 36 77 37 71 38
REMARK SMILES IDX 70 39 26 41 58 42 38 43 57 44 39 45 42 46 56 47 75 48 40 49
REMARK SMILES IDX 41 50 55 52 76 53 43 54 27 55 28 56 36 57 29 58 30 59 34 60
REMARK SMILES IDX 37 61 31 62 32 63 35 64 33 65 59 66 60 67 68 68 61 69 62 70
REMARK SMILES IDX 66 71 69 72 63 73 64 74 67 75 65 76 44 77 45 78 53 79 46 80
REMARK SMILES IDX 47 81 51 82 54 83 48 84 49 85 52 86 50 87
REMARK H PARENT 11 6 8 15 8 16 8 17 15 21 74 40 42 51
REMARK Flexibility Score: inf
ROOT
ATOM      1  C   UNL A   1      37.938  19.469  24.997  1.00  0.00     0.042 C 
ENDROOT
BRANCH   1   2
ATOM      2  C   UNL A   1      36.674  20.328  25.001  1.00  0.00     0.117 C 
BRANCH   2   3
ATOM      3  N   UNL A   1      36.940  21.670  25.487  1.00  0.00    -0.355 N 
ATOM      4  C   UNL A   1      36.133  22.717  25.807  1.00  0.00     0.232 C 
ATOM      5  O   UNL A   1      36.725  23.753  26.127  1.00  0.00    -0.274 OA
ATOM      6  H   UNL A   1      37.898  21.860  25.609  1.00  0.00     0.163 HD
BRANCH   4   7
ATOM      7  C   UNL A   1      34.578  22.613  25.835  1.00  0.00     0.100 C 
ATOM      8  C   UNL A   1      32.551  24.253  26.128  1.00  0.00     0.009 C 
ATOM      9  C   UNL A   1      33.999  24.051  25.687  1.00  0.00     0.007 C 
ATOM     10  C   UNL A   1      34.152  24.333  24.186  1.00  0.00     0.005 C 
ATOM     11  C   UNL A   1      33.859  23.013  23.492  1.00  0.00     0.002 C 
ATOM     12  C   UNL A   1      34.102  21.913  24.527  1.00  0.00     0.023 C 
BRANCH   7  13
ATOM     13  C   UNL A   1      34.161  21.792  27.084  1.00  0.00     0.276 C 
BRANCH  13  14
ATOM     14  N   UNL A   1      33.318  20.613  26.876  1.00  0.00    -0.357 N 
ATOM     15  H   UNL A   1      33.329  20.357  25.888  1.00  0.00     0.344 HD
ATOM     16  H   UNL A   1      32.362  20.824  27.162  1.00  0.00     0.344 HD
ATOM     17  H   UNL A   1      33.676  19.837  27.431  1.00  0.00     0.344 HD
ENDBRANCH  13  14
ENDBRANCH   7  13
ENDBRANCH   4   7
ENDBRANCH   2   3
ENDBRANCH   1   2
BRANCH   1  18
ATOM     18  C   UNL A   1      39.113  20.091  25.751  1.00  0.00     0.118 C 
BRANCH  18  19
ATOM     19  N   UNL A   1      40.213  19.154  25.924  1.00  0.00    -0.352 N 
ATOM     20  C   UNL A   1      41.549  19.388  26.126  1.00  0.00     0.251 C 
ATOM     21  H   UNL A   1      39.958  18.204  25.893  1.00  0.00     0.163 HD
ATOM     22  O   UNL A   1      42.344  18.451  26.038  1.00  0.00    -0.269 OA
BRANCH  20  23
ATOM     23  C   UNL A   1      42.057  20.743  26.437  1.00  0.00     0.039 A 
ATOM     24  C   UNL A   1      42.331  21.614  25.376  1.00  0.00     0.014 A 
ATOM     25  C   UNL A   1      42.331  21.141  27.748  1.00  0.00     0.014 A 
ATOM     26  C   UNL A   1      42.831  22.894  25.630  1.00  0.00     0.010 A 
ATOM     27  C   UNL A   1      42.779  22.437  28.006  1.00  0.00     0.010 A 
ATOM     28  C   UNL A   1      43.039  23.325  26.950  1.00  0.00    -0.014 A 
BRANCH  28  29
ATOM     29  C   UNL A   1      43.522  24.699  27.242  1.00  0.00     0.031 A 
ATOM     30  C   UNL A   1      42.573  25.745  27.762  1.00  0.00     0.074 A 
ATOM     31  C   UNL A   1      44.800  25.025  26.973  1.00  0.00     0.049 A 
ATOM     32  N   UNL A   1      42.788  27.016  27.993  1.00  0.00    -0.248 NA
ATOM     33  C   UNL A   1      41.194  25.311  28.033  1.00  0.00     0.031 C 
ATOM     34  C   UNL A   1      45.807  24.116  26.424  1.00  0.00     0.029 A 
ATOM     35  N   UNL A   1      45.468  26.219  27.104  1.00  0.00    -0.354 N 
ATOM     36  C   UNL A   1      41.570  27.538  28.409  1.00  0.00     0.074 A 
ATOM     37  C   UNL A   1      40.612  26.454  28.374  1.00  0.00     0.031 C 
ATOM     38  C   UNL A   1      46.963  24.780  26.268  1.00  0.00     0.029 A 
ATOM     39  C   UNL A   1      46.772  26.170  26.676  1.00  0.00     0.049 A 
ATOM     40  H   UNL A   1      45.051  27.031  27.470  1.00  0.00     0.167 HD
ATOM     41  C   UNL A   1      41.282  28.802  28.797  1.00  0.00     0.037 A 
ATOM     42  C   UNL A   1      47.705  27.138  26.606  1.00  0.00     0.037 A 
ATOM     43  C   UNL A   1      42.246  29.868  28.880  1.00  0.00     0.049 A 
ATOM     44  C   UNL A   1      47.362  28.527  27.070  1.00  0.00     0.074 A 
ATOM     45  C   UNL A   1      42.071  31.155  29.358  1.00  0.00     0.029 A 
ATOM     46  N   UNL A   1      43.568  29.769  28.474  1.00  0.00    -0.354 N 
ATOM     47  N   UNL A   1      46.229  28.986  27.542  1.00  0.00    -0.248 NA
ATOM     48  C   UNL A   1      48.433  29.533  26.998  1.00  0.00     0.031 C 
ATOM     49  C   UNL A   1      43.275  31.848  29.204  1.00  0.00     0.029 A 
ATOM     50  C   UNL A   1      44.212  30.981  28.668  1.00  0.00     0.049 A 
ATOM     51  H   UNL A   1      43.987  28.960  28.104  1.00  0.00     0.167 HD
ATOM     52  C   UNL A   1      46.455  30.321  27.845  1.00  0.00     0.074 A 
ATOM     53  C   UNL A   1      47.837  30.598  27.519  1.00  0.00     0.031 C 
ATOM     54  C   UNL A   1      45.593  31.237  28.348  1.00  0.00     0.037 A 
BRANCH  41  55
ATOM     55  C   UNL A   1      39.863  29.117  29.168  1.00  0.00     0.064 A 
ATOM     56  C   UNL A   1      38.914  29.483  28.203  1.00  0.00     0.173 A 
ATOM     57  C   UNL A   1      39.433  28.983  30.496  1.00  0.00     0.173 A 
ATOM     58  F   UNL A   1      39.279  29.633  26.921  1.00  0.00    -0.203 F 
ATOM     59  C   UNL A   1      37.589  29.719  28.557  1.00  0.00     0.198 A 
ATOM     60  C   UNL A   1      38.102  29.196  30.843  1.00  0.00     0.198 A 
ATOM     61  F   UNL A   1      40.301  28.627  31.456  1.00  0.00    -0.203 F 
ATOM     62  F   UNL A   1      36.705  30.097  27.624  1.00  0.00    -0.200 F 
ATOM     63  C   UNL A   1      37.182  29.567  29.875  1.00  0.00     0.200 A 
ATOM     64  F   UNL A   1      37.707  29.037  32.115  1.00  0.00    -0.200 F 
ATOM     65  F   UNL A   1      35.902  29.781  30.211  1.00  0.00    -0.200 F 
ENDBRANCH  41  55
BRANCH  42  66
ATOM     66  C   UNL A   1      49.061  26.828  26.085  1.00  0.00     0.064 A 
ATOM     67  C   UNL A   1      49.378  27.033  24.735  1.00  0.00     0.173 A 
ATOM     68  C   UNL A   1      50.059  26.304  26.920  1.00  0.00     0.173 A 
ATOM     69  F   UNL A   1      48.448  27.510  23.896  1.00  0.00    -0.203 F 
ATOM     70  C   UNL A   1      50.635  26.703  24.234  1.00  0.00     0.198 A 
ATOM     71  C   UNL A   1      51.324  26.000  26.423  1.00  0.00     0.198 A 
ATOM     72  F   UNL A   1      49.806  26.094  28.220  1.00  0.00    -0.203 F 
ATOM     73  F   UNL A   1      50.897  26.863  22.930  1.00  0.00    -0.200 F 
ATOM     74  C   UNL A   1      51.609  26.191  25.079  1.00  0.00     0.200 A 
ATOM     75  F   UNL A   1      52.266  25.517  27.245  1.00  0.00    -0.200 F 
ATOM     76  F   UNL A   1      52.818  25.873  24.596  1.00  0.00    -0.200 F 
ENDBRANCH  42  66
BRANCH  54  77
ATOM     77  C   UNL A   1      46.127  32.614  28.607  1.00  0.00     0.064 A 
ATOM     78  C   UNL A   1      46.048  33.624  27.639  1.00  0.00     0.173 A 
ATOM     79  C   UNL A   1      46.689  32.935  29.852  1.00  0.00     0.173 A 
ATOM     80  F   UNL A   1      45.534  33.360  26.428  1.00  0.00    -0.203 F 
ATOM     81  C   UNL A   1      46.532  34.903  27.899  1.00  0.00     0.198 A 
ATOM     82  C   UNL A   1      47.150  34.221  30.118  1.00  0.00     0.198 A 
ATOM     83  F   UNL A   1      46.782  32.004  30.813  1.00  0.00    -0.203 F 
ATOM     84  F   UNL A   1      46.487  35.842  26.945  1.00  0.00    -0.200 F 
ATOM     85  C   UNL A   1      47.076  35.202  29.140  1.00  0.00     0.200 A 
ATOM     86  F   UNL A   1      47.665  34.512  31.321  1.00  0.00    -0.200 F 
ATOM     87  F   UNL A   1      47.538  36.435  29.391  1.00  0.00    -0.200 F 
ENDBRANCH  54  77
ENDBRANCH  28  29
ENDBRANCH  20  23
ENDBRANCH  18  19
ENDBRANCH   1  18
TORSDOF 12
ENDMDL
