MODEL 1
REMARK VINA RESULT:     -13.1      0.000      0.000
REMARK SMILES Cc1nc(CC(=O)N2Cc3nc[nH]c3C[C@H]2C(=O)NCCCNC(=O)c2ccc(-c3c4nc(c(-c5c(F)c(F)c(F)c(F)c5F)c5ccc([nH]5)c(-c5c(F)c(F)c(F)c(F)c5F)c5nc(c(-c6c(F)c(F)c(F)c(F)c6F)c6ccc3[nH]6)C=C5)C=C4)cc2)cs1
REMARK SMILES IDX 20 1 19 2 17 3 18 4 16 6 8 7 9 8 10 9 15 10 11 11 14 12
REMARK SMILES IDX 12 13 13 14 6 16 7 17 5 18 4 19 1 20 2 21 3 22 90 23 89 24
REMARK SMILES IDX 21 25 22 26 23 27 24 28 25 30 26 31 27 32 88 33 28 34 87 35
REMARK SMILES IDX 29 36 30 37 31 38 81 39 32 40 86 41 80 42 82 43 33 44 85 45
REMARK SMILES IDX 79 46 78 47 34 49 66 50 46 51 65 52 47 53 50 54 64 55 83 56
REMARK SMILES IDX 48 57 49 58 63 60 84 61 51 62 35 63 36 64 44 65 37 66 38 67
REMARK SMILES IDX 42 68 45 69 39 70 40 71 43 72 41 73 67 74 68 75 76 76 69 77
REMARK SMILES IDX 70 78 74 79 77 80 71 81 72 82 75 83 73 84 52 85 53 86 61 87
REMARK SMILES IDX 54 88 55 89 59 90 62 91 56 92 57 93 60 94 58 95
REMARK H PARENT 19 5 13 15 23 29 82 48 50 59
REMARK Flexibility Score: inf
ROOT
ATOM      1  C   UNL A   1      32.503  28.875  27.514  1.00  0.00     0.117 C 
ENDROOT
BRANCH   1   2
ATOM      2  N   UNL A   1      33.317  27.923  26.783  1.00  0.00    -0.354 N 
ATOM      3  C   UNL A   1      33.060  27.039  25.789  1.00  0.00     0.243 C 
ATOM      4  O   UNL A   1      34.050  26.395  25.413  1.00  0.00    -0.273 OA
ATOM      5  H   UNL A   1      34.258  27.918  27.072  1.00  0.00     0.163 HD
BRANCH   3   6
ATOM      6  C   UNL A   1      31.675  26.766  25.136  1.00  0.00     0.180 C 
ATOM      7  N   UNL A   1      31.643  26.133  23.769  1.00  0.00    -0.324 N 
ATOM      8  C   UNL A   1      31.626  24.655  23.678  1.00  0.00     0.178 C 
ATOM      9  C   UNL A   1      30.961  24.050  24.863  1.00  0.00     0.081 A 
ATOM     10  C   UNL A   1      30.579  26.222  26.095  1.00  0.00     0.091 C 
ATOM     11  N   UNL A   1      30.927  22.707  25.136  1.00  0.00    -0.240 NA
ATOM     12  C   UNL A   1      30.472  24.759  25.932  1.00  0.00     0.042 A 
ATOM     13  C   UNL A   1      30.387  22.608  26.332  1.00  0.00     0.197 A 
ATOM     14  N   UNL A   1      30.037  23.833  26.835  1.00  0.00    -0.348 N 
ATOM     15  H   UNL A   1      29.565  24.011  27.681  1.00  0.00     0.167 HD
BRANCH   7  16
ATOM     16  C   UNL A   1      31.596  26.800  22.548  1.00  0.00     0.229 C 
ATOM     17  O   UNL A   1      31.782  26.181  21.490  1.00  0.00    -0.274 OA
BRANCH  16  18
ATOM     18  C   UNL A   1      31.440  28.307  22.451  1.00  0.00     0.157 C 
BRANCH  18  19
ATOM     19  C   UNL A   1      30.050  28.829  22.402  1.00  0.00     0.061 A 
ATOM     20  C   UNL A   1      28.088  31.508  20.900  1.00  0.00     0.079 C 
ATOM     21  C   UNL A   1      28.598  30.327  21.646  1.00  0.00     0.090 A 
ATOM     22  N   UNL A   1      29.811  29.851  21.500  1.00  0.00    -0.246 NA
ATOM     23  S   UNL A   1      27.632  29.515  22.809  1.00  0.00    -0.127 S 
ATOM     24  C   UNL A   1      28.954  28.474  23.166  1.00  0.00     0.091 A 
ENDBRANCH  18  19
ENDBRANCH  16  18
ENDBRANCH   7  16
ENDBRANCH   3   6
ENDBRANCH   1   2
BRANCH   1  25
ATOM     25  C   UNL A   1      32.641  30.302  26.982  1.00  0.00     0.042 C 
BRANCH  25  26
ATOM     26  C   UNL A   1      33.980  30.916  27.326  1.00  0.00     0.118 C 
BRANCH  26  27
ATOM     27  N   UNL A   1      33.945  31.727  28.554  1.00  0.00    -0.352 N 
ATOM     28  C   UNL A   1      34.893  31.766  29.561  1.00  0.00     0.251 C 
ATOM     29  H   UNL A   1      33.158  32.307  28.671  1.00  0.00     0.163 HD
ATOM     30  O   UNL A   1      34.634  32.196  30.683  1.00  0.00    -0.269 OA
BRANCH  28  31
ATOM     31  C   UNL A   1      36.239  31.274  29.240  1.00  0.00     0.039 A 
ATOM     32  C   UNL A   1      37.368  32.095  29.270  1.00  0.00     0.014 A 
ATOM     33  C   UNL A   1      36.348  29.898  29.096  1.00  0.00     0.014 A 
ATOM     34  C   UNL A   1      38.622  31.488  29.270  1.00  0.00     0.010 A 
ATOM     35  C   UNL A   1      37.547  29.318  29.382  1.00  0.00     0.010 A 
ATOM     36  C   UNL A   1      38.700  30.089  29.370  1.00  0.00    -0.014 A 
BRANCH  36  37
ATOM     37  C   UNL A   1      39.961  29.394  29.607  1.00  0.00     0.031 A 
ATOM     38  C   UNL A   1      40.319  29.307  31.047  1.00  0.00     0.074 A 
ATOM     39  C   UNL A   1      40.595  28.698  28.631  1.00  0.00     0.049 A 
ATOM     40  N   UNL A   1      41.264  29.941  31.655  1.00  0.00    -0.248 NA
ATOM     41  C   UNL A   1      39.421  28.577  31.962  1.00  0.00     0.031 C 
ATOM     42  C   UNL A   1      40.121  28.454  27.258  1.00  0.00     0.029 A 
ATOM     43  N   UNL A   1      41.739  27.953  28.677  1.00  0.00    -0.354 N 
ATOM     44  C   UNL A   1      41.256  29.461  32.963  1.00  0.00     0.074 A 
ATOM     45  C   UNL A   1      39.975  28.838  33.150  1.00  0.00     0.031 C 
ATOM     46  C   UNL A   1      40.803  27.430  26.706  1.00  0.00     0.029 A 
ATOM     47  C   UNL A   1      41.898  27.090  27.590  1.00  0.00     0.049 A 
ATOM     48  H   UNL A   1      42.391  28.016  29.411  1.00  0.00     0.167 HD
ATOM     49  C   UNL A   1      42.437  29.295  33.622  1.00  0.00     0.037 A 
ATOM     50  C   UNL A   1      42.869  26.162  27.419  1.00  0.00     0.037 A 
ATOM     51  C   UNL A   1      43.497  29.957  32.902  1.00  0.00     0.049 A 
ATOM     52  C   UNL A   1      43.995  26.549  28.297  1.00  0.00     0.074 A 
ATOM     53  C   UNL A   1      43.941  31.247  32.718  1.00  0.00     0.029 A 
ATOM     54  N   UNL A   1      44.001  29.200  31.879  1.00  0.00    -0.354 N 
ATOM     55  N   UNL A   1      44.699  27.633  28.117  1.00  0.00    -0.248 NA
ATOM     56  C   UNL A   1      44.104  25.939  29.617  1.00  0.00     0.031 C 
ATOM     57  C   UNL A   1      44.648  31.253  31.477  1.00  0.00     0.029 A 
ATOM     58  C   UNL A   1      44.674  29.958  30.965  1.00  0.00     0.049 A 
ATOM     59  H   UNL A   1      43.892  28.224  31.810  1.00  0.00     0.167 HD
ATOM     60  C   UNL A   1      44.978  28.068  29.396  1.00  0.00     0.074 A 
ATOM     61  C   UNL A   1      44.748  26.916  30.260  1.00  0.00     0.031 C 
ATOM     62  C   UNL A   1      45.022  29.402  29.680  1.00  0.00     0.037 A 
BRANCH  49  63
ATOM     63  C   UNL A   1      42.777  28.139  34.551  1.00  0.00     0.064 A 
ATOM     64  C   UNL A   1      43.190  28.436  35.869  1.00  0.00     0.173 A 
ATOM     65  C   UNL A   1      43.038  26.820  34.124  1.00  0.00     0.173 A 
ATOM     66  F   UNL A   1      43.006  29.661  36.384  1.00  0.00    -0.203 F 
ATOM     67  C   UNL A   1      43.885  27.512  36.656  1.00  0.00     0.198 A 
ATOM     68  C   UNL A   1      43.690  25.886  34.930  1.00  0.00     0.198 A 
ATOM     69  F   UNL A   1      42.783  26.402  32.880  1.00  0.00    -0.203 F 
ATOM     70  F   UNL A   1      44.366  27.881  37.852  1.00  0.00    -0.200 F 
ATOM     71  C   UNL A   1      44.141  26.239  36.182  1.00  0.00     0.200 A 
ATOM     72  F   UNL A   1      43.950  24.664  34.442  1.00  0.00    -0.200 F 
ATOM     73  F   UNL A   1      44.861  25.371  36.906  1.00  0.00    -0.200 F 
ENDBRANCH  49  63
BRANCH  50  74
ATOM     74  C   UNL A   1      42.801  24.846  26.744  1.00  0.00     0.064 A 
ATOM     75  C   UNL A   1      43.423  24.626  25.504  1.00  0.00     0.173 A 
ATOM     76  C   UNL A   1      42.379  23.699  27.444  1.00  0.00     0.173 A 
ATOM     77  F   UNL A   1      43.885  25.663  24.789  1.00  0.00    -0.203 F 
ATOM     78  C   UNL A   1      43.647  23.335  25.012  1.00  0.00     0.198 A 
ATOM     79  C   UNL A   1      42.602  22.411  26.953  1.00  0.00     0.198 A 
ATOM     80  F   UNL A   1      41.831  23.806  28.663  1.00  0.00    -0.203 F 
ATOM     81  F   UNL A   1      44.303  23.163  23.856  1.00  0.00    -0.200 F 
ATOM     82  C   UNL A   1      43.250  22.229  25.745  1.00  0.00     0.200 A 
ATOM     83  F   UNL A   1      42.247  21.348  27.689  1.00  0.00    -0.200 F 
ATOM     84  F   UNL A   1      43.529  20.992  25.311  1.00  0.00    -0.200 F 
ENDBRANCH  50  74
BRANCH  62  85
ATOM     85  C   UNL A   1      45.312  30.344  28.557  1.00  0.00     0.064 A 
ATOM     86  C   UNL A   1      44.341  30.955  27.748  1.00  0.00     0.173 A 
ATOM     87  C   UNL A   1      46.649  30.710  28.359  1.00  0.00     0.173 A 
ATOM     88  F   UNL A   1      43.038  30.704  27.927  1.00  0.00    -0.203 F 
ATOM     89  C   UNL A   1      44.704  31.875  26.765  1.00  0.00     0.198 A 
ATOM     90  C   UNL A   1      47.005  31.653  27.403  1.00  0.00     0.198 A 
ATOM     91  F   UNL A   1      47.611  30.180  29.131  1.00  0.00    -0.203 F 
ATOM     92  F   UNL A   1      43.765  32.442  25.994  1.00  0.00    -0.200 F 
ATOM     93  C   UNL A   1      46.035  32.229  26.600  1.00  0.00     0.200 A 
ATOM     94  F   UNL A   1      48.288  32.019  27.278  1.00  0.00    -0.200 F 
ATOM     95  F   UNL A   1      46.381  33.140  25.681  1.00  0.00    -0.200 F 
ENDBRANCH  62  85
ENDBRANCH  36  37
ENDBRANCH  28  31
ENDBRANCH  26  27
ENDBRANCH  25  26
ENDBRANCH   1  25
TORSDOF 13
ENDMDL
MODEL 2
REMARK VINA RESULT:     -13.1      3.605      8.074
REMARK SMILES Cc1nc(CC(=O)N2Cc3nc[nH]c3C[C@H]2C(=O)NCCCNC(=O)c2ccc(-c3c4nc(c(-c5c(F)c(F)c(F)c(F)c5F)c5ccc([nH]5)c(-c5c(F)c(F)c(F)c(F)c5F)c5nc(c(-c6c(F)c(F)c(F)c(F)c6F)c6ccc3[nH]6)C=C5)C=C4)cc2)cs1
REMARK SMILES IDX 20 1 19 2 17 3 18 4 16 6 8 7 9 8 10 9 15 10 11 11 14 12
REMARK SMILES IDX 12 13 13 14 6 16 7 17 5 18 4 19 1 20 2 21 3 22 90 23 89 24
REMARK SMILES IDX 21 25 22 26 23 27 24 28 25 30 26 31 27 32 88 33 28 34 87 35
REMARK SMILES IDX 29 36 30 37 31 38 81 39 32 40 86 41 80 42 82 43 33 44 85 45
REMARK SMILES IDX 79 46 78 47 34 49 66 50 46 51 65 52 47 53 50 54 64 55 83 56
REMARK SMILES IDX 48 57 49 58 63 60 84 61 51 62 35 63 36 64 44 65 37 66 38 67
REMARK SMILES IDX 42 68 45 69 39 70 40 71 43 72 41 73 67 74 68 75 76 76 69 77
REMARK SMILES IDX 70 78 74 79 77 80 71 81 72 82 75 83 73 84 52 85 53 86 61 87
REMARK SMILES IDX 54 88 55 89 59 90 62 91 56 92 57 93 60 94 58 95
REMARK H PARENT 19 5 13 15 23 29 82 48 50 59
REMARK Flexibility Score: inf
ROOT
ATOM      1  C   UNL A   1      37.049  22.156  24.034  1.00  0.00     0.117 C 
ENDROOT
BRANCH   1   2
ATOM      2  N   UNL A   1      36.313  23.200  24.720  1.00  0.00    -0.354 N 
ATOM      3  C   UNL A   1      35.004  23.547  24.771  1.00  0.00     0.243 C 
ATOM      4  O   UNL A   1      34.763  24.519  25.500  1.00  0.00    -0.273 OA
ATOM      5  H   UNL A   1      36.889  23.784  25.266  1.00  0.00     0.163 HD
BRANCH   3   6
ATOM      6  C   UNL A   1      33.841  22.862  23.997  1.00  0.00     0.180 C 
ATOM      7  N   UNL A   1      32.487  22.797  24.655  1.00  0.00    -0.324 N 
ATOM      8  C   UNL A   1      31.548  23.922  24.444  1.00  0.00     0.178 C 
ATOM      9  C   UNL A   1      31.774  24.573  23.126  1.00  0.00     0.081 A 
ATOM     10  C   UNL A   1      33.776  23.176  22.476  1.00  0.00     0.091 C 
ATOM     11  N   UNL A   1      31.165  25.730  22.713  1.00  0.00    -0.240 NA
ATOM     12  C   UNL A   1      32.758  24.219  22.236  1.00  0.00     0.042 A 
ATOM     13  C   UNL A   1      31.745  26.043  21.574  1.00  0.00     0.197 A 
ATOM     14  N   UNL A   1      32.686  25.115  21.211  1.00  0.00    -0.348 N 
ATOM     15  H   UNL A   1      33.207  25.098  20.375  1.00  0.00     0.167 HD
BRANCH   7  16
ATOM     16  C   UNL A   1      31.995  21.755  25.435  1.00  0.00     0.229 C 
ATOM     17  O   UNL A   1      30.832  21.790  25.862  1.00  0.00    -0.274 OA
BRANCH  16  18
ATOM     18  C   UNL A   1      32.869  20.605  25.900  1.00  0.00     0.157 C 
BRANCH  18  19
ATOM     19  C   UNL A   1      32.774  19.342  25.123  1.00  0.00     0.061 A 
ATOM     20  C   UNL A   1      32.582  15.735  25.604  1.00  0.00     0.079 C 
ATOM     21  C   UNL A   1      32.645  17.127  25.086  1.00  0.00     0.090 A 
ATOM     22  N   UNL A   1      32.566  18.186  25.856  1.00  0.00    -0.246 NA
ATOM     23  S   UNL A   1      32.877  17.454  23.418  1.00  0.00    -0.127 S 
ATOM     24  C   UNL A   1      32.911  19.140  23.762  1.00  0.00     0.091 A 
ENDBRANCH  18  19
ENDBRANCH  16  18
ENDBRANCH   7  16
ENDBRANCH   3   6
ENDBRANCH   1   2
BRANCH   1  25
ATOM     25  C   UNL A   1      37.392  20.978  24.946  1.00  0.00     0.042 C 
BRANCH  25  26
ATOM     26  C   UNL A   1      38.748  21.134  25.600  1.00  0.00     0.118 C 
BRANCH  26  27
ATOM     27  N   UNL A   1      39.485  19.865  25.709  1.00  0.00    -0.352 N 
ATOM     28  C   UNL A   1      40.840  19.700  25.940  1.00  0.00     0.251 C 
ATOM     29  H   UNL A   1      38.955  19.043  25.607  1.00  0.00     0.163 HD
ATOM     30  O   UNL A   1      41.421  18.647  25.682  1.00  0.00    -0.269 OA
BRANCH  28  31
ATOM     31  C   UNL A   1      41.569  20.836  26.517  1.00  0.00     0.039 A 
ATOM     32  C   UNL A   1      42.098  21.866  25.736  1.00  0.00     0.014 A 
ATOM     33  C   UNL A   1      41.529  20.925  27.901  1.00  0.00     0.014 A 
ATOM     34  C   UNL A   1      42.482  23.044  26.375  1.00  0.00     0.010 A 
ATOM     35  C   UNL A   1      41.635  22.160  28.467  1.00  0.00     0.010 A 
ATOM     36  C   UNL A   1      42.204  23.197  27.743  1.00  0.00    -0.014 A 
BRANCH  36  37
ATOM     37  C   UNL A   1      42.361  24.474  28.431  1.00  0.00     0.031 A 
ATOM     38  C   UNL A   1      41.233  25.410  28.191  1.00  0.00     0.074 A 
ATOM     39  C   UNL A   1      43.314  24.670  29.376  1.00  0.00     0.049 A 
ATOM     40  N   UNL A   1      41.253  26.490  27.485  1.00  0.00    -0.248 NA
ATOM     41  C   UNL A   1      39.878  25.022  28.628  1.00  0.00     0.031 C 
ATOM     42  C   UNL A   1      44.255  23.674  29.916  1.00  0.00     0.029 A 
ATOM     43  N   UNL A   1      43.576  25.764  30.153  1.00  0.00    -0.354 N 
ATOM     44  C   UNL A   1      39.990  27.059  27.635  1.00  0.00     0.074 A 
ATOM     45  C   UNL A   1      39.136  26.011  28.121  1.00  0.00     0.031 C 
ATOM     46  C   UNL A   1      44.778  24.111  31.079  1.00  0.00     0.029 A 
ATOM     47  C   UNL A   1      44.385  25.492  31.259  1.00  0.00     0.049 A 
ATOM     48  H   UNL A   1      43.225  26.661  29.953  1.00  0.00     0.167 HD
ATOM     49  C   UNL A   1      39.872  28.415  27.705  1.00  0.00     0.037 A 
ATOM     50  C   UNL A   1      44.720  26.347  32.256  1.00  0.00     0.037 A 
ATOM     51  C   UNL A   1      41.107  29.036  27.297  1.00  0.00     0.049 A 
ATOM     52  C   UNL A   1      44.520  27.717  31.734  1.00  0.00     0.074 A 
ATOM     53  C   UNL A   1      41.766  29.294  26.117  1.00  0.00     0.029 A 
ATOM     54  N   UNL A   1      42.031  29.099  28.305  1.00  0.00    -0.354 N 
ATOM     55  N   UNL A   1      45.236  28.222  30.767  1.00  0.00    -0.248 NA
ATOM     56  C   UNL A   1      43.265  28.404  32.014  1.00  0.00     0.031 C 
ATOM     57  C   UNL A   1      43.151  29.409  26.449  1.00  0.00     0.029 A 
ATOM     58  C   UNL A   1      43.297  29.283  27.828  1.00  0.00     0.049 A 
ATOM     59  H   UNL A   1      41.810  29.021  29.261  1.00  0.00     0.167 HD
ATOM     60  C   UNL A   1      44.341  28.992  30.054  1.00  0.00     0.074 A 
ATOM     61  C   UNL A   1      43.210  29.209  30.950  1.00  0.00     0.031 C 
ATOM     62  C   UNL A   1      44.433  29.084  28.696  1.00  0.00     0.037 A 
BRANCH  49  63
ATOM     63  C   UNL A   1      38.924  29.174  28.622  1.00  0.00     0.064 A 
ATOM     64  C   UNL A   1      37.999  30.069  28.040  1.00  0.00     0.173 A 
ATOM     65  C   UNL A   1      39.103  29.319  30.014  1.00  0.00     0.173 A 
ATOM     66  F   UNL A   1      37.752  30.035  26.721  1.00  0.00    -0.203 F 
ATOM     67  C   UNL A   1      37.376  31.080  28.779  1.00  0.00     0.198 A 
ATOM     68  C   UNL A   1      38.443  30.299  30.756  1.00  0.00     0.198 A 
ATOM     69  F   UNL A   1      40.000  28.607  30.703  1.00  0.00    -0.203 F 
ATOM     70  F   UNL A   1      36.603  31.982  28.157  1.00  0.00    -0.200 F 
ATOM     71  C   UNL A   1      37.604  31.199  30.136  1.00  0.00     0.200 A 
ATOM     72  F   UNL A   1      38.698  30.413  32.068  1.00  0.00    -0.200 F 
ATOM     73  F   UNL A   1      37.060  32.203  30.837  1.00  0.00    -0.200 F 
ENDBRANCH  49  63
BRANCH  50  74
ATOM     74  C   UNL A   1      44.963  26.068  33.689  1.00  0.00     0.064 A 
ATOM     75  C   UNL A   1      43.904  25.801  34.573  1.00  0.00     0.173 A 
ATOM     76  C   UNL A   1      46.257  25.765  34.153  1.00  0.00     0.173 A 
ATOM     77  F   UNL A   1      42.638  26.030  34.194  1.00  0.00    -0.203 F 
ATOM     78  C   UNL A   1      44.123  25.226  35.830  1.00  0.00     0.198 A 
ATOM     79  C   UNL A   1      46.476  25.192  35.408  1.00  0.00     0.198 A 
ATOM     80  F   UNL A   1      47.325  25.929  33.358  1.00  0.00    -0.203 F 
ATOM     81  F   UNL A   1      43.082  24.924  36.618  1.00  0.00    -0.200 F 
ATOM     82  C   UNL A   1      45.408  24.908  36.239  1.00  0.00     0.200 A 
ATOM     83  F   UNL A   1      47.719  24.854  35.778  1.00  0.00    -0.200 F 
ATOM     84  F   UNL A   1      45.612  24.290  37.411  1.00  0.00    -0.200 F 
ENDBRANCH  50  74
BRANCH  62  85
ATOM     85  C   UNL A   1      45.764  28.824  28.069  1.00  0.00     0.064 A 
ATOM     86  C   UNL A   1      46.185  27.585  27.560  1.00  0.00     0.173 A 
ATOM     87  C   UNL A   1      46.616  29.922  27.898  1.00  0.00     0.173 A 
ATOM     88  F   UNL A   1      45.395  26.507  27.627  1.00  0.00    -0.203 F 
ATOM     89  C   UNL A   1      47.423  27.454  26.931  1.00  0.00     0.198 A 
ATOM     90  C   UNL A   1      47.832  29.797  27.240  1.00  0.00     0.198 A 
ATOM     91  F   UNL A   1      46.242  31.135  28.336  1.00  0.00    -0.203 F 
ATOM     92  F   UNL A   1      47.815  26.261  26.460  1.00  0.00    -0.200 F 
ATOM     93  C   UNL A   1      48.240  28.562  26.763  1.00  0.00     0.200 A 
ATOM     94  F   UNL A   1      48.597  30.880  27.047  1.00  0.00    -0.200 F 
ATOM     95  F   UNL A   1      49.412  28.444  26.126  1.00  0.00    -0.200 F 
ENDBRANCH  62  85
ENDBRANCH  36  37
ENDBRANCH  28  31
ENDBRANCH  26  27
ENDBRANCH  25  26
ENDBRANCH   1  25
TORSDOF 13
ENDMDL
MODEL 3
REMARK VINA RESULT:     -13.0      3.443      8.644
REMARK SMILES Cc1nc(CC(=O)N2Cc3nc[nH]c3C[C@H]2C(=O)NCCCNC(=O)c2ccc(-c3c4nc(c(-c5c(F)c(F)c(F)c(F)c5F)c5ccc([nH]5)c(-c5c(F)c(F)c(F)c(F)c5F)c5nc(c(-c6c(F)c(F)c(F)c(F)c6F)c6ccc3[nH]6)C=C5)C=C4)cc2)cs1
REMARK SMILES IDX 20 1 19 2 17 3 18 4 16 6 8 7 9 8 10 9 15 10 11 11 14 12
REMARK SMILES IDX 12 13 13 14 6 16 7 17 5 18 4 19 1 20 2 21 3 22 90 23 89 24
REMARK SMILES IDX 21 25 22 26 23 27 24 28 25 30 26 31 27 32 88 33 28 34 87 35
REMARK SMILES IDX 29 36 30 37 31 38 81 39 32 40 86 41 80 42 82 43 33 44 85 45
REMARK SMILES IDX 79 46 78 47 34 49 66 50 46 51 65 52 47 53 50 54 64 55 83 56
REMARK SMILES IDX 48 57 49 58 63 60 84 61 51 62 35 63 36 64 44 65 37 66 38 67
REMARK SMILES IDX 42 68 45 69 39 70 40 71 43 72 41 73 67 74 68 75 76 76 69 77
REMARK SMILES IDX 70 78 74 79 77 80 71 81 72 82 75 83 73 84 52 85 53 86 61 87
REMARK SMILES IDX 54 88 55 89 59 90 62 91 56 92 57 93 60 94 58 95
REMARK H PARENT 19 5 13 15 23 29 82 48 50 59
REMARK Flexibility Score: inf
ROOT
ATOM      1  C   UNL A   1      38.097  22.918  25.582  1.00  0.00     0.117 C 
ENDROOT
BRANCH   1   2
ATOM      2  N   UNL A   1      37.397  23.065  24.321  1.00  0.00    -0.354 N 
ATOM      3  C   UNL A   1      36.087  23.091  23.973  1.00  0.00     0.243 C 
ATOM      4  O   UNL A   1      35.887  23.251  22.761  1.00  0.00    -0.273 OA
ATOM      5  H   UNL A   1      38.003  23.166  23.552  1.00  0.00     0.163 HD
BRANCH   3   6
ATOM      6  C   UNL A   1      34.877  22.917  24.935  1.00  0.00     0.180 C 
ATOM      7  N   UNL A   1      33.519  23.365  24.460  1.00  0.00    -0.324 N 
ATOM      8  C   UNL A   1      32.675  22.395  23.726  1.00  0.00     0.178 C 
ATOM      9  C   UNL A   1      32.959  21.000  24.155  1.00  0.00     0.081 A 
ATOM     10  C   UNL A   1      34.844  21.583  25.732  1.00  0.00     0.091 C 
ATOM     11  N   UNL A   1      32.448  19.880  23.552  1.00  0.00    -0.240 NA
ATOM     12  C   UNL A   1      33.916  20.643  25.073  1.00  0.00     0.042 A 
ATOM     13  C   UNL A   1      33.057  18.865  24.128  1.00  0.00     0.197 A 
ATOM     14  N   UNL A   1      33.921  19.280  25.107  1.00  0.00    -0.348 N 
ATOM     15  H   UNL A   1      34.443  18.707  25.715  1.00  0.00     0.167 HD
BRANCH   7  16
ATOM     16  C   UNL A   1      32.940  24.614  24.667  1.00  0.00     0.229 C 
ATOM     17  O   UNL A   1      32.836  25.417  23.729  1.00  0.00    -0.274 OA
BRANCH  16  18
ATOM     18  C   UNL A   1      32.527  25.100  26.045  1.00  0.00     0.157 C 
BRANCH  18  19
ATOM     19  C   UNL A   1      32.525  26.570  26.257  1.00  0.00     0.061 A 
ATOM     20  C   UNL A   1      34.776  29.305  27.110  1.00  0.00     0.079 C 
ATOM     21  C   UNL A   1      33.630  28.430  26.749  1.00  0.00     0.090 A 
ATOM     22  N   UNL A   1      33.762  27.166  26.427  1.00  0.00    -0.246 NA
ATOM     23  S   UNL A   1      32.016  29.009  26.778  1.00  0.00    -0.127 S 
ATOM     24  C   UNL A   1      31.453  27.438  26.361  1.00  0.00     0.091 A 
ENDBRANCH  18  19
ENDBRANCH  16  18
ENDBRANCH   7  16
ENDBRANCH   3   6
ENDBRANCH   1   2
BRANCH   1  25
ATOM     25  C   UNL A   1      38.835  21.583  25.697  1.00  0.00     0.042 C 
BRANCH  25  26
ATOM     26  C   UNL A   1      40.025  21.663  26.627  1.00  0.00     0.118 C 
BRANCH  26  27
ATOM     27  N   UNL A   1      41.284  21.964  25.928  1.00  0.00    -0.352 N 
ATOM     28  C   UNL A   1      41.898  23.198  25.799  1.00  0.00     0.251 C 
ATOM     29  H   UNL A   1      41.742  21.202  25.505  1.00  0.00     0.163 HD
ATOM     30  O   UNL A   1      42.743  23.418  24.933  1.00  0.00    -0.269 OA
BRANCH  28  31
ATOM     31  C   UNL A   1      41.505  24.249  26.746  1.00  0.00     0.039 A 
ATOM     32  C   UNL A   1      42.039  24.342  28.032  1.00  0.00     0.014 A 
ATOM     33  C   UNL A   1      40.717  25.261  26.215  1.00  0.00     0.014 A 
ATOM     34  C   UNL A   1      41.860  25.532  28.734  1.00  0.00     0.010 A 
ATOM     35  C   UNL A   1      40.794  26.497  26.783  1.00  0.00     0.010 A 
ATOM     36  C   UNL A   1      41.269  26.625  28.079  1.00  0.00    -0.014 A 
BRANCH  36  37
ATOM     37  C   UNL A   1      41.253  27.965  28.658  1.00  0.00     0.031 A 
ATOM     38  C   UNL A   1      42.351  28.832  28.158  1.00  0.00     0.074 A 
ATOM     39  C   UNL A   1      40.201  28.424  29.380  1.00  0.00     0.049 A 
ATOM     40  N   UNL A   1      43.390  29.229  28.813  1.00  0.00    -0.248 NA
ATOM     41  C   UNL A   1      42.410  29.150  26.719  1.00  0.00     0.031 C 
ATOM     42  C   UNL A   1      38.922  27.738  29.630  1.00  0.00     0.029 A 
ATOM     43  N   UNL A   1      39.987  29.649  29.948  1.00  0.00    -0.354 N 
ATOM     44  C   UNL A   1      44.072  30.084  27.949  1.00  0.00     0.074 A 
ATOM     45  C   UNL A   1      43.576  29.797  26.632  1.00  0.00     0.031 C 
ATOM     46  C   UNL A   1      37.994  28.624  30.045  1.00  0.00     0.029 A 
ATOM     47  C   UNL A   1      38.656  29.885  30.300  1.00  0.00     0.049 A 
ATOM     48  H   UNL A   1      40.705  30.305  30.096  1.00  0.00     0.167 HD
ATOM     49  C   UNL A   1      44.691  31.189  28.452  1.00  0.00     0.037 A 
ATOM     50  C   UNL A   1      38.130  31.039  30.778  1.00  0.00     0.037 A 
ATOM     51  C   UNL A   1      44.768  31.095  29.889  1.00  0.00     0.049 A 
ATOM     52  C   UNL A   1      39.251  31.825  31.337  1.00  0.00     0.074 A 
ATOM     53  C   UNL A   1      45.526  30.419  30.818  1.00  0.00     0.029 A 
ATOM     54  N   UNL A   1      43.618  31.498  30.512  1.00  0.00    -0.354 N 
ATOM     55  N   UNL A   1      39.932  31.448  32.385  1.00  0.00    -0.248 NA
ATOM     56  C   UNL A   1      39.883  32.844  30.507  1.00  0.00     0.031 C 
ATOM     57  C   UNL A   1      44.730  30.341  32.001  1.00  0.00     0.029 A 
ATOM     58  C   UNL A   1      43.535  31.024  31.790  1.00  0.00     0.049 A 
ATOM     59  H   UNL A   1      42.932  32.064  30.090  1.00  0.00     0.167 HD
ATOM     60  C   UNL A   1      41.223  31.847  32.107  1.00  0.00     0.074 A 
ATOM     61  C   UNL A   1      41.106  32.840  31.044  1.00  0.00     0.031 C 
ATOM     62  C   UNL A   1      42.283  31.088  32.505  1.00  0.00     0.037 A 
BRANCH  49  63
ATOM     63  C   UNL A   1      44.729  32.559  27.792  1.00  0.00     0.064 A 
ATOM     64  C   UNL A   1      45.898  32.935  27.092  1.00  0.00     0.173 A 
ATOM     65  C   UNL A   1      43.844  33.616  28.090  1.00  0.00     0.173 A 
ATOM     66  F   UNL A   1      46.821  32.020  26.761  1.00  0.00    -0.203 F 
ATOM     67  C   UNL A   1      46.191  34.270  26.797  1.00  0.00     0.198 A 
ATOM     68  C   UNL A   1      44.118  34.941  27.753  1.00  0.00     0.198 A 
ATOM     69  F   UNL A   1      42.735  33.443  28.816  1.00  0.00    -0.203 F 
ATOM     70  F   UNL A   1      47.370  34.589  26.244  1.00  0.00    -0.200 F 
ATOM     71  C   UNL A   1      45.303  35.274  27.135  1.00  0.00     0.200 A 
ATOM     72  F   UNL A   1      43.255  35.903  28.111  1.00  0.00    -0.200 F 
ATOM     73  F   UNL A   1      45.607  36.560  26.913  1.00  0.00    -0.200 F 
ENDBRANCH  49  63
BRANCH  50  74
ATOM     74  C   UNL A   1      36.781  31.612  30.569  1.00  0.00     0.064 A 
ATOM     75  C   UNL A   1      35.937  31.912  31.652  1.00  0.00     0.173 A 
ATOM     76  C   UNL A   1      36.413  32.151  29.322  1.00  0.00     0.173 A 
ATOM     77  F   UNL A   1      36.235  31.465  32.881  1.00  0.00    -0.203 F 
ATOM     78  C   UNL A   1      34.817  32.738  31.504  1.00  0.00     0.198 A 
ATOM     79  C   UNL A   1      35.295  32.974  29.174  1.00  0.00     0.198 A 
ATOM     80  F   UNL A   1      37.190  31.970  28.243  1.00  0.00    -0.203 F 
ATOM     81  F   UNL A   1      34.075  33.056  32.573  1.00  0.00    -0.200 F 
ATOM     82  C   UNL A   1      34.506  33.280  30.268  1.00  0.00     0.200 A 
ATOM     83  F   UNL A   1      35.026  33.524  27.981  1.00  0.00    -0.200 F 
ATOM     84  F   UNL A   1      33.477  34.129  30.140  1.00  0.00    -0.200 F 
ENDBRANCH  50  74
BRANCH  62  85
ATOM     85  C   UNL A   1      42.086  30.169  33.666  1.00  0.00     0.064 A 
ATOM     86  C   UNL A   1      41.727  28.816  33.569  1.00  0.00     0.173 A 
ATOM     87  C   UNL A   1      42.368  30.678  34.940  1.00  0.00     0.173 A 
ATOM     88  F   UNL A   1      41.508  28.244  32.379  1.00  0.00    -0.203 F 
ATOM     89  C   UNL A   1      41.630  28.017  34.709  1.00  0.00     0.198 A 
ATOM     90  C   UNL A   1      42.306  29.873  36.070  1.00  0.00     0.198 A 
ATOM     91  F   UNL A   1      42.751  31.957  35.081  1.00  0.00    -0.203 F 
ATOM     92  F   UNL A   1      41.275  26.728  34.599  1.00  0.00    -0.200 F 
ATOM     93  C   UNL A   1      41.929  28.545  35.956  1.00  0.00     0.200 A 
ATOM     94  F   UNL A   1      42.635  30.380  37.266  1.00  0.00    -0.200 F 
ATOM     95  F   UNL A   1      41.873  27.769  37.047  1.00  0.00    -0.200 F 
ENDBRANCH  62  85
ENDBRANCH  36  37
ENDBRANCH  28  31
ENDBRANCH  26  27
ENDBRANCH  25  26
ENDBRANCH   1  25
TORSDOF 13
ENDMDL
