MODEL 1
REMARK VINA RESULT:     -12.6      0.000      0.000
REMARK SMILES COc1ccc(F)c(Nc2ccc(C(=O)NCCCNC(=O)c3ccc(-c4c5nc(c(-c6c(F)c(F)c(F)c(F)c6F)c6ccc([nH]6)c(-c6c(F)c(F)c(F)c(F)c6F)c6nc(c(-c7c(F)c(F)c(F)c(F)c7F)c7ccc4[nH]7)C=C6)C=C5)cc3)cc2)c1
REMARK SMILES IDX 17 1 16 2 14 3 15 4 13 6 10 7 11 8 87 9 12 10 86 11 9 12
REMARK SMILES IDX 8 14 3 15 4 16 88 17 5 18 6 19 7 20 2 21 1 22 18 23 19 24
REMARK SMILES IDX 20 25 21 26 22 28 23 29 24 30 85 31 25 32 84 33 26 34 27 35
REMARK SMILES IDX 28 36 78 37 29 38 83 39 77 40 79 41 30 42 82 43 76 44 75 45
REMARK SMILES IDX 31 47 63 48 43 49 62 50 44 51 47 52 61 53 80 54 45 55 46 56
REMARK SMILES IDX 60 58 81 59 48 60 32 61 33 62 41 63 34 64 35 65 39 66 42 67
REMARK SMILES IDX 36 68 37 69 40 70 38 71 64 72 65 73 73 74 66 75 67 76 71 77
REMARK SMILES IDX 74 78 68 79 69 80 72 81 70 82 49 83 50 84 58 85 51 86 52 87
REMARK SMILES IDX 56 88 59 89 53 90 54 91 57 92 55 93
REMARK H PARENT 16 5 9 13 20 27 79 46 47 57
REMARK Flexibility Score: inf
ROOT
ATOM      1  C   UNL A   1      31.525  30.722  26.225  1.00  0.00     0.118 C 
ENDROOT
BRANCH   1   2
ATOM      2  N   UNL A   1      31.029  30.419  24.894  1.00  0.00    -0.352 N 
ATOM      3  C   UNL A   1      31.040  29.268  24.146  1.00  0.00     0.251 C 
ATOM      4  O   UNL A   1      30.509  29.304  23.036  1.00  0.00    -0.269 OA
ATOM      5  H   UNL A   1      30.603  31.183  24.443  1.00  0.00     0.163 HD
BRANCH   3   6
ATOM      6  C   UNL A   1      31.598  27.981  24.644  1.00  0.00     0.039 A 
ATOM      7  C   UNL A   1      32.474  25.557  25.786  1.00  0.00     0.038 A 
ATOM      8  C   UNL A   1      31.115  25.776  25.559  1.00  0.00     0.027 A 
ATOM      9  C   UNL A   1      33.392  26.525  25.368  1.00  0.00     0.027 A 
ATOM     10  C   UNL A   1      30.680  26.984  25.005  1.00  0.00     0.016 A 
ATOM     11  C   UNL A   1      32.961  27.710  24.766  1.00  0.00     0.016 A 
BRANCH   7  12
ATOM     12  N   UNL A   1      32.901  24.430  26.496  1.00  0.00    -0.353 N 
ATOM     13  H   UNL A   1      32.871  24.499  27.478  1.00  0.00     0.167 HD
BRANCH  12  14
ATOM     14  C   UNL A   1      33.368  23.206  25.975  1.00  0.00     0.078 A 
ATOM     15  C   UNL A   1      32.998  20.904  25.246  1.00  0.00     0.121 A 
ATOM     16  C   UNL A   1      34.363  20.751  25.004  1.00  0.00     0.049 A 
ATOM     17  C   UNL A   1      32.512  22.125  25.725  1.00  0.00     0.075 A 
ATOM     18  C   UNL A   1      35.235  21.813  25.256  1.00  0.00     0.045 A 
ATOM     19  C   UNL A   1      34.734  23.020  25.738  1.00  0.00     0.146 A 
ATOM     20  F   UNL A   1      35.592  24.027  25.973  1.00  0.00    -0.205 F 
BRANCH  15  21
ATOM     21  O   UNL A   1      32.042  19.956  25.000  1.00  0.00    -0.497 OA
ATOM     22  C   UNL A   1      32.526  18.688  24.575  1.00  0.00     0.278 C 
ENDBRANCH  15  21
ENDBRANCH  12  14
ENDBRANCH   7  12
ENDBRANCH   3   6
ENDBRANCH   1   2
BRANCH   1  23
ATOM     23  C   UNL A   1      31.403  32.216  26.520  1.00  0.00     0.042 C 
BRANCH  23  24
ATOM     24  C   UNL A   1      32.624  32.781  27.237  1.00  0.00     0.118 C 
BRANCH  24  25
ATOM     25  N   UNL A   1      32.432  34.171  27.625  1.00  0.00    -0.352 N 
ATOM     26  C   UNL A   1      33.018  34.882  28.642  1.00  0.00     0.251 C 
ATOM     27  H   UNL A   1      31.787  34.675  27.078  1.00  0.00     0.163 HD
ATOM     28  O   UNL A   1      32.574  35.981  28.958  1.00  0.00    -0.269 OA
BRANCH  26  29
ATOM     29  C   UNL A   1      34.177  34.321  29.368  1.00  0.00     0.039 A 
ATOM     30  C   UNL A   1      33.955  33.598  30.544  1.00  0.00     0.014 A 
ATOM     31  C   UNL A   1      35.479  34.532  28.909  1.00  0.00     0.014 A 
ATOM     32  C   UNL A   1      35.037  33.043  31.231  1.00  0.00     0.010 A 
ATOM     33  C   UNL A   1      36.548  33.917  29.552  1.00  0.00     0.010 A 
ATOM     34  C   UNL A   1      36.339  33.174  30.723  1.00  0.00    -0.014 A 
BRANCH  34  35
ATOM     35  C   UNL A   1      37.509  32.571  31.409  1.00  0.00     0.031 A 
ATOM     36  C   UNL A   1      38.247  31.434  30.761  1.00  0.00     0.074 A 
ATOM     37  C   UNL A   1      37.854  32.990  32.641  1.00  0.00     0.049 A 
ATOM     38  N   UNL A   1      39.201  30.681  31.246  1.00  0.00    -0.248 NA
ATOM     39  C   UNL A   1      37.841  31.079  29.391  1.00  0.00     0.031 C 
ATOM     40  C   UNL A   1      37.200  34.069  33.380  1.00  0.00     0.029 A 
ATOM     41  N   UNL A   1      38.835  32.549  33.495  1.00  0.00    -0.354 N 
ATOM     42  C   UNL A   1      39.491  29.755  30.253  1.00  0.00     0.074 A 
ATOM     43  C   UNL A   1      38.582  30.005  29.157  1.00  0.00     0.031 C 
ATOM     44  C   UNL A   1      37.807  34.220  34.567  1.00  0.00     0.029 A 
ATOM     45  C   UNL A   1      38.862  33.217  34.694  1.00  0.00     0.049 A 
ATOM     46  H   UNL A   1      39.458  31.821  33.269  1.00  0.00     0.167 HD
ATOM     47  C   UNL A   1      40.449  28.798  30.249  1.00  0.00     0.037 A 
ATOM     48  C   UNL A   1      39.642  33.034  35.777  1.00  0.00     0.037 A 
ATOM     49  C   UNL A   1      41.370  28.575  31.331  1.00  0.00     0.049 A 
ATOM     50  C   UNL A   1      40.682  31.948  35.758  1.00  0.00     0.074 A 
ATOM     51  C   UNL A   1      42.403  27.658  31.406  1.00  0.00     0.029 A 
ATOM     52  N   UNL A   1      41.372  29.282  32.525  1.00  0.00    -0.354 N 
ATOM     53  N   UNL A   1      40.972  31.099  34.802  1.00  0.00    -0.248 NA
ATOM     54  C   UNL A   1      41.507  31.794  36.965  1.00  0.00     0.031 C 
ATOM     55  C   UNL A   1      43.001  27.778  32.663  1.00  0.00     0.029 A 
ATOM     56  C   UNL A   1      42.379  28.809  33.350  1.00  0.00     0.049 A 
ATOM     57  H   UNL A   1      40.750  30.010  32.753  1.00  0.00     0.167 HD
ATOM     58  C   UNL A   1      42.028  30.333  35.276  1.00  0.00     0.074 A 
ATOM     59  C   UNL A   1      42.333  30.820  36.606  1.00  0.00     0.031 C 
ATOM     60  C   UNL A   1      42.685  29.320  34.662  1.00  0.00     0.037 A 
BRANCH  47  61
ATOM     61  C   UNL A   1      40.562  27.924  29.033  1.00  0.00     0.064 A 
ATOM     62  C   UNL A   1      41.398  28.290  27.968  1.00  0.00     0.173 A 
ATOM     63  C   UNL A   1      39.791  26.760  28.893  1.00  0.00     0.173 A 
ATOM     64  F   UNL A   1      42.151  29.397  28.046  1.00  0.00    -0.203 F 
ATOM     65  C   UNL A   1      41.448  27.529  26.802  1.00  0.00     0.198 A 
ATOM     66  C   UNL A   1      39.869  25.984  27.740  1.00  0.00     0.198 A 
ATOM     67  F   UNL A   1      38.985  26.361  29.888  1.00  0.00    -0.203 F 
ATOM     68  F   UNL A   1      42.229  27.916  25.784  1.00  0.00    -0.200 F 
ATOM     69  C   UNL A   1      40.688  26.374  26.692  1.00  0.00     0.200 A 
ATOM     70  F   UNL A   1      39.153  24.856  27.646  1.00  0.00    -0.200 F 
ATOM     71  F   UNL A   1      40.747  25.636  25.575  1.00  0.00    -0.200 F 
ENDBRANCH  47  61
BRANCH  48  72
ATOM     72  C   UNL A   1      39.484  33.928  36.954  1.00  0.00     0.064 A 
ATOM     73  C   UNL A   1      40.116  35.179  37.018  1.00  0.00     0.173 A 
ATOM     74  C   UNL A   1      38.722  33.526  38.060  1.00  0.00     0.173 A 
ATOM     75  F   UNL A   1      40.861  35.608  35.989  1.00  0.00    -0.203 F 
ATOM     76  C   UNL A   1      40.008  35.983  38.150  1.00  0.00     0.198 A 
ATOM     77  C   UNL A   1      38.593  34.343  39.181  1.00  0.00     0.198 A 
ATOM     78  F   UNL A   1      38.083  32.347  38.039  1.00  0.00    -0.203 F 
ATOM     79  F   UNL A   1      40.652  37.158  38.201  1.00  0.00    -0.200 F 
ATOM     80  C   UNL A   1      39.243  35.567  39.230  1.00  0.00     0.200 A 
ATOM     81  F   UNL A   1      37.835  33.946  40.212  1.00  0.00    -0.200 F 
ATOM     82  F   UNL A   1      39.132  36.343  40.316  1.00  0.00    -0.200 F 
ENDBRANCH  48  72
BRANCH  60  83
ATOM     83  C   UNL A   1      43.835  28.685  35.387  1.00  0.00     0.064 A 
ATOM     84  C   UNL A   1      43.601  27.650  36.307  1.00  0.00     0.173 A 
ATOM     85  C   UNL A   1      45.143  29.168  35.259  1.00  0.00     0.173 A 
ATOM     86  F   UNL A   1      42.363  27.159  36.473  1.00  0.00    -0.203 F 
ATOM     87  C   UNL A   1      44.632  27.142  37.090  1.00  0.00     0.198 A 
ATOM     88  C   UNL A   1      46.178  28.638  36.024  1.00  0.00     0.198 A 
ATOM     89  F   UNL A   1      45.418  30.148  34.384  1.00  0.00    -0.203 F 
ATOM     90  F   UNL A   1      44.377  26.187  37.996  1.00  0.00    -0.200 F 
ATOM     91  C   UNL A   1      45.920  27.635  36.948  1.00  0.00     0.200 A 
ATOM     92  F   UNL A   1      47.427  29.100  35.871  1.00  0.00    -0.200 F 
ATOM     93  F   UNL A   1      46.913  27.147  37.703  1.00  0.00    -0.200 F 
ENDBRANCH  60  83
ENDBRANCH  34  35
ENDBRANCH  26  29
ENDBRANCH  24  25
ENDBRANCH  23  24
ENDBRANCH   1  23
TORSDOF 13
ENDMDL
MODEL 2
REMARK VINA RESULT:     -12.4      5.509     11.325
REMARK SMILES COc1ccc(F)c(Nc2ccc(C(=O)NCCCNC(=O)c3ccc(-c4c5nc(c(-c6c(F)c(F)c(F)c(F)c6F)c6ccc([nH]6)c(-c6c(F)c(F)c(F)c(F)c6F)c6nc(c(-c7c(F)c(F)c(F)c(F)c7F)c7ccc4[nH]7)C=C6)C=C5)cc3)cc2)c1
REMARK SMILES IDX 17 1 16 2 14 3 15 4 13 6 10 7 11 8 87 9 12 10 86 11 9 12
REMARK SMILES IDX 8 14 3 15 4 16 88 17 5 18 6 19 7 20 2 21 1 22 18 23 19 24
REMARK SMILES IDX 20 25 21 26 22 28 23 29 24 30 85 31 25 32 84 33 26 34 27 35
REMARK SMILES IDX 28 36 78 37 29 38 83 39 77 40 79 41 30 42 82 43 76 44 75 45
REMARK SMILES IDX 31 47 63 48 43 49 62 50 44 51 47 52 61 53 80 54 45 55 46 56
REMARK SMILES IDX 60 58 81 59 48 60 32 61 33 62 41 63 34 64 35 65 39 66 42 67
REMARK SMILES IDX 36 68 37 69 40 70 38 71 64 72 65 73 73 74 66 75 67 76 71 77
REMARK SMILES IDX 74 78 68 79 69 80 72 81 70 82 49 83 50 84 58 85 51 86 52 87
REMARK SMILES IDX 56 88 59 89 53 90 54 91 57 92 55 93
REMARK H PARENT 16 5 9 13 20 27 79 46 47 57
REMARK Flexibility Score: inf
ROOT
ATOM      1  C   UNL A   1      36.906  20.697  24.729  1.00  0.00     0.118 C 
ENDROOT
BRANCH   1   2
ATOM      2  N   UNL A   1      35.595  20.192  25.095  1.00  0.00    -0.352 N 
ATOM      3  C   UNL A   1      34.366  20.798  25.186  1.00  0.00     0.251 C 
ATOM      4  O   UNL A   1      33.406  20.096  25.502  1.00  0.00    -0.269 OA
ATOM      5  H   UNL A   1      35.584  19.234  25.319  1.00  0.00     0.163 HD
BRANCH   3   6
ATOM      6  C   UNL A   1      34.141  22.231  24.855  1.00  0.00     0.039 A 
ATOM      7  C   UNL A   1      33.839  24.899  23.995  1.00  0.00     0.038 A 
ATOM      8  C   UNL A   1      33.482  23.845  23.154  1.00  0.00     0.027 A 
ATOM      9  C   UNL A   1      34.274  24.610  25.292  1.00  0.00     0.027 A 
ATOM     10  C   UNL A   1      33.644  22.522  23.576  1.00  0.00     0.016 A 
ATOM     11  C   UNL A   1      34.386  23.289  25.732  1.00  0.00     0.016 A 
BRANCH   7  12
ATOM     12  N   UNL A   1      33.843  26.215  23.520  1.00  0.00    -0.353 N 
ATOM     13  H   UNL A   1      34.618  26.475  22.970  1.00  0.00     0.167 HD
BRANCH  12  14
ATOM     14  C   UNL A   1      32.872  27.214  23.732  1.00  0.00     0.078 A 
ATOM     15  C   UNL A   1      30.901  28.474  23.026  1.00  0.00     0.121 A 
ATOM     16  C   UNL A   1      30.995  29.276  24.162  1.00  0.00     0.049 A 
ATOM     17  C   UNL A   1      31.834  27.451  22.820  1.00  0.00     0.075 A 
ATOM     18  C   UNL A   1      32.028  29.062  25.078  1.00  0.00     0.045 A 
ATOM     19  C   UNL A   1      32.951  28.043  24.855  1.00  0.00     0.146 A 
ATOM     20  F   UNL A   1      33.935  27.856  25.750  1.00  0.00    -0.205 F 
BRANCH  15  21
ATOM     21  O   UNL A   1      29.914  28.557  22.081  1.00  0.00    -0.497 OA
ATOM     22  C   UNL A   1      29.235  29.804  22.007  1.00  0.00     0.278 C 
ENDBRANCH  15  21
ENDBRANCH  12  14
ENDBRANCH   7  12
ENDBRANCH   3   6
ENDBRANCH   1   2
BRANCH   1  23
ATOM     23  C   UNL A   1      37.978  19.635  24.965  1.00  0.00     0.042 C 
BRANCH  23  24
ATOM     24  C   UNL A   1      39.153  20.150  25.789  1.00  0.00     0.118 C 
BRANCH  24  25
ATOM     25  N   UNL A   1      40.212  19.158  25.907  1.00  0.00    -0.352 N 
ATOM     26  C   UNL A   1      41.563  19.337  26.069  1.00  0.00     0.251 C 
ATOM     27  H   UNL A   1      39.915  18.220  25.865  1.00  0.00     0.163 HD
ATOM     28  O   UNL A   1      42.329  18.389  25.930  1.00  0.00    -0.269 OA
BRANCH  26  29
ATOM     29  C   UNL A   1      42.100  20.674  26.397  1.00  0.00     0.039 A 
ATOM     30  C   UNL A   1      42.433  21.545  25.356  1.00  0.00     0.014 A 
ATOM     31  C   UNL A   1      42.303  21.058  27.725  1.00  0.00     0.014 A 
ATOM     32  C   UNL A   1      42.922  22.821  25.648  1.00  0.00     0.010 A 
ATOM     33  C   UNL A   1      42.719  22.352  28.016  1.00  0.00     0.010 A 
ATOM     34  C   UNL A   1      43.040  23.243  26.982  1.00  0.00    -0.014 A 
BRANCH  34  35
ATOM     35  C   UNL A   1      43.525  24.602  27.330  1.00  0.00     0.031 A 
ATOM     36  C   UNL A   1      42.566  25.616  27.885  1.00  0.00     0.074 A 
ATOM     37  C   UNL A   1      44.802  24.945  27.073  1.00  0.00     0.049 A 
ATOM     38  N   UNL A   1      42.751  26.889  28.123  1.00  0.00    -0.248 NA
ATOM     39  C   UNL A   1      41.206  25.140  28.189  1.00  0.00     0.031 C 
ATOM     40  C   UNL A   1      45.820  24.055  26.516  1.00  0.00     0.029 A 
ATOM     41  N   UNL A   1      45.458  26.140  27.236  1.00  0.00    -0.354 N 
ATOM     42  C   UNL A   1      41.531  27.367  28.583  1.00  0.00     0.074 A 
ATOM     43  C   UNL A   1      40.598  26.263  28.544  1.00  0.00     0.031 C 
ATOM     44  C   UNL A   1      46.976  24.727  26.400  1.00  0.00     0.029 A 
ATOM     45  C   UNL A   1      46.770  26.108  26.830  1.00  0.00     0.049 A 
ATOM     46  H   UNL A   1      45.029  26.944  27.607  1.00  0.00     0.167 HD
ATOM     47  C   UNL A   1      41.226  28.611  29.022  1.00  0.00     0.037 A 
ATOM     48  C   UNL A   1      47.697  27.084  26.796  1.00  0.00     0.037 A 
ATOM     49  C   UNL A   1      42.168  29.697  29.086  1.00  0.00     0.049 A 
ATOM     50  C   UNL A   1      47.327  28.465  27.266  1.00  0.00     0.074 A 
ATOM     51  C   UNL A   1      41.967  30.982  29.554  1.00  0.00     0.029 A 
ATOM     52  N   UNL A   1      43.491  29.619  28.675  1.00  0.00    -0.354 N 
ATOM     53  N   UNL A   1      46.180  28.899  27.729  1.00  0.00    -0.248 NA
ATOM     54  C   UNL A   1      48.378  29.491  27.210  1.00  0.00     0.031 C 
ATOM     55  C   UNL A   1      43.155  31.699  29.384  1.00  0.00     0.029 A 
ATOM     56  C   UNL A   1      44.114  30.842  28.864  1.00  0.00     0.049 A 
ATOM     57  H   UNL A   1      43.923  28.816  28.304  1.00  0.00     0.167 HD
ATOM     58  C   UNL A   1      46.378  30.235  28.050  1.00  0.00     0.074 A 
ATOM     59  C   UNL A   1      47.757  30.542  27.732  1.00  0.00     0.031 C 
ATOM     60  C   UNL A   1      45.494  31.125  28.564  1.00  0.00     0.037 A 
BRANCH  47  61
ATOM     61  C   UNL A   1      39.819  28.868  29.479  1.00  0.00     0.064 A 
ATOM     62  C   UNL A   1      39.438  28.593  30.801  1.00  0.00     0.173 A 
ATOM     63  C   UNL A   1      38.831  29.321  28.592  1.00  0.00     0.173 A 
ATOM     64  F   UNL A   1      40.341  28.151  31.688  1.00  0.00    -0.203 F 
ATOM     65  C   UNL A   1      38.117  28.751  31.214  1.00  0.00     0.198 A 
ATOM     66  C   UNL A   1      37.519  29.510  29.017  1.00  0.00     0.198 A 
ATOM     67  F   UNL A   1      39.147  29.610  27.321  1.00  0.00    -0.203 F 
ATOM     68  F   UNL A   1      37.770  28.451  32.473  1.00  0.00    -0.200 F 
ATOM     69  C   UNL A   1      37.160  29.214  30.324  1.00  0.00     0.200 A 
ATOM     70  F   UNL A   1      36.602  29.981  28.161  1.00  0.00    -0.200 F 
ATOM     71  F   UNL A   1      35.893  29.378  30.726  1.00  0.00    -0.200 F 
ENDBRANCH  47  61
BRANCH  48  72
ATOM     72  C   UNL A   1      49.074  26.773  26.331  1.00  0.00     0.064 A 
ATOM     73  C   UNL A   1      49.460  26.964  24.996  1.00  0.00     0.173 A 
ATOM     74  C   UNL A   1      50.023  26.240  27.215  1.00  0.00     0.173 A 
ATOM     75  F   UNL A   1      48.587  27.466  24.110  1.00  0.00    -0.203 F 
ATOM     76  C   UNL A   1      50.736  26.615  24.559  1.00  0.00     0.198 A 
ATOM     77  C   UNL A   1      51.307  25.916  26.782  1.00  0.00     0.198 A 
ATOM     78  F   UNL A   1      49.707  26.057  28.505  1.00  0.00    -0.203 F 
ATOM     79  F   UNL A   1      51.068  26.773  23.270  1.00  0.00    -0.200 F 
ATOM     80  C   UNL A   1      51.661  26.095  25.452  1.00  0.00     0.200 A 
ATOM     81  F   UNL A   1      52.204  25.436  27.654  1.00  0.00    -0.200 F 
ATOM     82  F   UNL A   1      52.890  25.767  25.035  1.00  0.00    -0.200 F 
ENDBRANCH  48  72
BRANCH  60  83
ATOM     83  C   UNL A   1      45.985  32.510  28.864  1.00  0.00     0.064 A 
ATOM     84  C   UNL A   1      45.933  33.505  27.875  1.00  0.00     0.173 A 
ATOM     85  C   UNL A   1      46.603  32.824  30.081  1.00  0.00     0.173 A 
ATOM     86  F   UNL A   1      45.359  33.250  26.689  1.00  0.00    -0.203 F 
ATOM     87  C   UNL A   1      46.507  34.755  28.086  1.00  0.00     0.198 A 
ATOM     88  C   UNL A   1      47.151  34.085  30.299  1.00  0.00     0.198 A 
ATOM     89  F   UNL A   1      46.666  31.910  31.062  1.00  0.00    -0.203 F 
ATOM     90  F   UNL A   1      46.488  35.674  27.110  1.00  0.00    -0.200 F 
ATOM     91  C   UNL A   1      47.115  35.044  29.297  1.00  0.00     0.200 A 
ATOM     92  F   UNL A   1      47.721  34.372  31.479  1.00  0.00    -0.200 F 
ATOM     93  F   UNL A   1      47.669  36.247  29.500  1.00  0.00    -0.200 F 
ENDBRANCH  60  83
ENDBRANCH  34  35
ENDBRANCH  26  29
ENDBRANCH  24  25
ENDBRANCH  23  24
ENDBRANCH   1  23
TORSDOF 13
ENDMDL
MODEL 3
REMARK VINA RESULT:     -12.4      1.167      2.010
REMARK SMILES COc1ccc(F)c(Nc2ccc(C(=O)NCCCNC(=O)c3ccc(-c4c5nc(c(-c6c(F)c(F)c(F)c(F)c6F)c6ccc([nH]6)c(-c6c(F)c(F)c(F)c(F)c6F)c6nc(c(-c7c(F)c(F)c(F)c(F)c7F)c7ccc4[nH]7)C=C6)C=C5)cc3)cc2)c1
REMARK SMILES IDX 17 1 16 2 14 3 15 4 13 6 10 7 11 8 87 9 12 10 86 11 9 12
REMARK SMILES IDX 8 14 3 15 4 16 88 17 5 18 6 19 7 20 2 21 1 22 18 23 19 24
REMARK SMILES IDX 20 25 21 26 22 28 23 29 24 30 85 31 25 32 84 33 26 34 27 35
REMARK SMILES IDX 28 36 78 37 29 38 83 39 77 40 79 41 30 42 82 43 76 44 75 45
REMARK SMILES IDX 31 47 63 48 43 49 62 50 44 51 47 52 61 53 80 54 45 55 46 56
REMARK SMILES IDX 60 58 81 59 48 60 32 61 33 62 41 63 34 64 35 65 39 66 42 67
REMARK SMILES IDX 36 68 37 69 40 70 38 71 64 72 65 73 73 74 66 75 67 76 71 77
REMARK SMILES IDX 74 78 68 79 69 80 72 81 70 82 49 83 50 84 58 85 51 86 52 87
REMARK SMILES IDX 56 88 59 89 53 90 54 91 57 92 55 93
REMARK H PARENT 16 5 9 13 20 27 79 46 47 57
REMARK Flexibility Score: inf
ROOT
ATOM      1  C   UNL A   1      31.802  30.561  26.788  1.00  0.00     0.118 C 
ENDROOT
BRANCH   1   2
ATOM      2  N   UNL A   1      33.176  30.271  27.155  1.00  0.00    -0.352 N 
ATOM      3  C   UNL A   1      34.007  29.219  26.861  1.00  0.00     0.251 C 
ATOM      4  O   UNL A   1      35.156  29.260  27.301  1.00  0.00    -0.269 OA
ATOM      5  H   UNL A   1      33.591  30.961  27.722  1.00  0.00     0.163 HD
BRANCH   3   6
ATOM      6  C   UNL A   1      33.602  28.084  25.989  1.00  0.00     0.039 A 
ATOM      7  C   UNL A   1      32.908  25.769  24.537  1.00  0.00     0.038 A 
ATOM      8  C   UNL A   1      32.464  25.935  25.849  1.00  0.00     0.027 A 
ATOM      9  C   UNL A   1      33.634  26.802  23.935  1.00  0.00     0.027 A 
ATOM     10  C   UNL A   1      32.820  27.077  26.573  1.00  0.00     0.016 A 
ATOM     11  C   UNL A   1      33.944  27.966  24.642  1.00  0.00     0.016 A 
BRANCH   7  12
ATOM     12  N   UNL A   1      32.704  24.558  23.867  1.00  0.00    -0.353 N 
ATOM     13  H   UNL A   1      32.114  24.593  23.079  1.00  0.00     0.167 HD
BRANCH  12  14
ATOM     14  C   UNL A   1      33.243  23.294  24.182  1.00  0.00     0.078 A 
ATOM     15  C   UNL A   1      32.984  20.948  24.812  1.00  0.00     0.121 A 
ATOM     16  C   UNL A   1      34.369  20.804  24.885  1.00  0.00     0.049 A 
ATOM     17  C   UNL A   1      32.432  22.185  24.461  1.00  0.00     0.075 A 
ATOM     18  C   UNL A   1      35.194  21.900  24.620  1.00  0.00     0.045 A 
ATOM     19  C   UNL A   1      34.629  23.126  24.277  1.00  0.00     0.146 A 
ATOM     20  F   UNL A   1      35.442  24.165  24.026  1.00  0.00    -0.205 F 
BRANCH  15  21
ATOM     21  O   UNL A   1      32.075  19.943  25.007  1.00  0.00    -0.497 OA
ATOM     22  C   UNL A   1      32.526  18.634  24.684  1.00  0.00     0.278 C 
ENDBRANCH  15  21
ENDBRANCH  12  14
ENDBRANCH   7  12
ENDBRANCH   3   6
ENDBRANCH   1   2
BRANCH   1  23
ATOM     23  C   UNL A   1      31.525  32.061  26.867  1.00  0.00     0.042 C 
BRANCH  23  24
ATOM     24  C   UNL A   1      32.794  32.890  27.037  1.00  0.00     0.118 C 
BRANCH  24  25
ATOM     25  N   UNL A   1      32.518  34.193  27.625  1.00  0.00    -0.352 N 
ATOM     26  C   UNL A   1      33.048  34.774  28.750  1.00  0.00     0.251 C 
ATOM     27  H   UNL A   1      31.854  34.738  27.145  1.00  0.00     0.163 HD
ATOM     28  O   UNL A   1      32.537  35.787  29.216  1.00  0.00    -0.269 OA
BRANCH  26  29
ATOM     29  C   UNL A   1      34.225  34.172  29.410  1.00  0.00     0.039 A 
ATOM     30  C   UNL A   1      34.027  33.244  30.436  1.00  0.00     0.014 A 
ATOM     31  C   UNL A   1      35.521  34.545  29.042  1.00  0.00     0.014 A 
ATOM     32  C   UNL A   1      35.129  32.650  31.057  1.00  0.00     0.010 A 
ATOM     33  C   UNL A   1      36.615  33.900  29.608  1.00  0.00     0.010 A 
ATOM     34  C   UNL A   1      36.430  32.953  30.626  1.00  0.00    -0.014 A 
BRANCH  34  35
ATOM     35  C   UNL A   1      37.623  32.318  31.240  1.00  0.00     0.031 A 
ATOM     36  C   UNL A   1      38.357  31.237  30.498  1.00  0.00     0.074 A 
ATOM     37  C   UNL A   1      37.995  32.656  32.489  1.00  0.00     0.049 A 
ATOM     38  N   UNL A   1      39.329  30.464  30.907  1.00  0.00    -0.248 NA
ATOM     39  C   UNL A   1      37.919  30.972  29.117  1.00  0.00     0.031 C 
ATOM     40  C   UNL A   1      37.348  33.675  33.316  1.00  0.00     0.029 A 
ATOM     41  N   UNL A   1      39.001  32.169  33.287  1.00  0.00    -0.354 N 
ATOM     42  C   UNL A   1      39.604  29.611  29.846  1.00  0.00     0.074 A 
ATOM     43  C   UNL A   1      38.665  29.925  28.793  1.00  0.00     0.031 C 
ATOM     44  C   UNL A   1      37.984  33.751  34.496  1.00  0.00     0.029 A 
ATOM     45  C   UNL A   1      39.052  32.755  34.528  1.00  0.00     0.049 A 
ATOM     46  H   UNL A   1      39.626  31.467  32.997  1.00  0.00     0.167 HD
ATOM     47  C   UNL A   1      40.571  28.668  29.753  1.00  0.00     0.037 A 
ATOM     48  C   UNL A   1      39.860  32.508  35.577  1.00  0.00     0.037 A 
ATOM     49  C   UNL A   1      41.522  28.383  30.795  1.00  0.00     0.049 A 
ATOM     50  C   UNL A   1      40.911  31.438  35.458  1.00  0.00     0.074 A 
ATOM     51  C   UNL A   1      42.565  27.475  30.781  1.00  0.00     0.029 A 
ATOM     52  N   UNL A   1      41.546  29.006  32.034  1.00  0.00    -0.354 N 
ATOM     53  N   UNL A   1      41.185  30.659  34.439  1.00  0.00    -0.248 NA
ATOM     54  C   UNL A   1      41.768  31.211  36.631  1.00  0.00     0.031 C 
ATOM     55  C   UNL A   1      43.194  27.516  32.029  1.00  0.00     0.029 A 
ATOM     56  C   UNL A   1      42.579  28.491  32.799  1.00  0.00     0.049 A 
ATOM     57  H   UNL A   1      40.923  29.710  32.326  1.00  0.00     0.167 HD
ATOM     58  C   UNL A   1      42.260  29.875  34.834  1.00  0.00     0.074 A 
ATOM     59  C   UNL A   1      42.594  30.274  36.185  1.00  0.00     0.031 C 
ATOM     60  C   UNL A   1      42.913  28.914  34.135  1.00  0.00     0.037 A 
BRANCH  47  61
ATOM     61  C   UNL A   1      40.662  27.881  28.478  1.00  0.00     0.064 A 
ATOM     62  C   UNL A   1      40.026  26.636  28.362  1.00  0.00     0.173 A 
ATOM     63  C   UNL A   1      41.437  28.325  27.396  1.00  0.00     0.173 A 
ATOM     64  F   UNL A   1      39.278  26.161  29.368  1.00  0.00    -0.203 F 
ATOM     65  C   UNL A   1      40.171  25.861  27.214  1.00  0.00     0.198 A 
ATOM     66  C   UNL A   1      41.554  27.562  26.237  1.00  0.00     0.198 A 
ATOM     67  F   UNL A   1      42.057  29.513  27.453  1.00  0.00    -0.203 F 
ATOM     68  F   UNL A   1      39.580  24.660  27.139  1.00  0.00    -0.200 F 
ATOM     69  C   UNL A   1      40.931  26.327  26.151  1.00  0.00     0.200 A 
ATOM     70  F   UNL A   1      42.268  28.026  25.203  1.00  0.00    -0.200 F 
ATOM     71  F   UNL A   1      41.060  25.585  25.043  1.00  0.00    -0.200 F 
ENDBRANCH  47  61
BRANCH  48  72
ATOM     72  C   UNL A   1      39.724  33.317  36.816  1.00  0.00     0.064 A 
ATOM     73  C   UNL A   1      38.818  32.966  37.827  1.00  0.00     0.173 A 
ATOM     74  C   UNL A   1      40.478  34.486  36.992  1.00  0.00     0.173 A 
ATOM     75  F   UNL A   1      38.069  31.860  37.704  1.00  0.00    -0.203 F 
ATOM     76  C   UNL A   1      38.657  33.764  38.958  1.00  0.00     0.198 A 
ATOM     77  C   UNL A   1      40.334  35.269  38.136  1.00  0.00     0.198 A 
ATOM     78  F   UNL A   1      41.370  34.853  36.061  1.00  0.00    -0.203 F 
ATOM     79  F   UNL A   1      37.758  33.425  39.893  1.00  0.00    -0.200 F 
ATOM     80  C   UNL A   1      39.418  34.913  39.114  1.00  0.00     0.200 A 
ATOM     81  F   UNL A   1      41.088  36.365  38.292  1.00  0.00    -0.200 F 
ATOM     82  F   UNL A   1      39.270  35.676  40.205  1.00  0.00    -0.200 F 
ENDBRANCH  48  72
BRANCH  60  83
ATOM     83  C   UNL A   1      44.086  28.245  34.787  1.00  0.00     0.064 A 
ATOM     84  C   UNL A   1      43.897  27.087  35.559  1.00  0.00     0.173 A 
ATOM     85  C   UNL A   1      45.370  28.803  34.742  1.00  0.00     0.173 A 
ATOM     86  F   UNL A   1      42.683  26.520  35.640  1.00  0.00    -0.203 F 
ATOM     87  C   UNL A   1      44.946  26.530  36.283  1.00  0.00     0.198 A 
ATOM     88  C   UNL A   1      46.424  28.227  35.446  1.00  0.00     0.198 A 
ATOM     89  F   UNL A   1      45.603  29.902  34.009  1.00  0.00    -0.203 F 
ATOM     90  F   UNL A   1      44.731  25.452  37.051  1.00  0.00    -0.200 F 
ATOM     91  C   UNL A   1      46.208  27.099  36.226  1.00  0.00     0.200 A 
ATOM     92  F   UNL A   1      47.650  28.765  35.374  1.00  0.00    -0.200 F 
ATOM     93  F   UNL A   1      47.218  26.564  36.924  1.00  0.00    -0.200 F 
ENDBRANCH  60  83
ENDBRANCH  34  35
ENDBRANCH  26  29
ENDBRANCH  24  25
ENDBRANCH  23  24
ENDBRANCH   1  23
TORSDOF 13
ENDMDL
