MODEL 1
REMARK VINA RESULT:     -12.8      0.000      0.000
REMARK SMILES O=C(CC1(NC(=O)c2ccc3cc[nH]c3c2)CCC1)NCCCNC(=O)c1ccc(-c2c3nc(c(-c4c(F)c(F)c(F)c(F)c4F)c4ccc([nH]4)c(-c4c(F)c(F)c(F)c(F)c4F)c4nc(c(-c5c(F)c(F)c(F)c(F)c5F)c5ccc2[nH]5)C=C4)C=C3)cc1
REMARK SMILES IDX 21 1 20 2 1 3 2 4 3 6 4 7 17 8 19 9 18 10 5 11 6 12 7 14
REMARK SMILES IDX 8 15 9 16 16 17 10 18 15 19 11 20 14 21 12 22 13 23 22 25
REMARK SMILES IDX 23 26 24 27 25 28 26 30 27 31 28 32 89 33 29 34 88 35 30 36
REMARK SMILES IDX 31 37 32 38 82 39 33 40 87 41 81 42 83 43 34 44 86 45 80 46
REMARK SMILES IDX 79 47 35 49 67 50 47 51 66 52 48 53 51 54 65 55 84 56 49 57
REMARK SMILES IDX 50 58 64 60 85 61 52 62 36 63 37 64 45 65 38 66 39 67 43 68
REMARK SMILES IDX 46 69 40 70 41 71 44 72 42 73 68 74 69 75 77 76 70 77 71 78
REMARK SMILES IDX 75 79 78 80 72 81 73 82 76 83 74 84 53 85 54 86 62 87 55 88
REMARK SMILES IDX 56 89 60 90 63 91 57 92 58 93 61 94 59 95
REMARK H PARENT 20 5 5 13 14 24 24 29 83 48 51 59
REMARK Flexibility Score: inf
ROOT
ATOM      1  C   UNL A   1      31.779  30.497  26.859  1.00  0.00     0.117 C 
ENDROOT
BRANCH   1   2
ATOM      2  N   UNL A   1      31.688  29.969  25.518  1.00  0.00    -0.356 N 
ATOM      3  O   UNL A   1      33.247  28.304  25.752  1.00  0.00    -0.275 OA
ATOM      4  C   UNL A   1      32.533  29.003  25.042  1.00  0.00     0.222 C 
ATOM      5  H   UNL A   1      30.989  30.321  24.919  1.00  0.00     0.163 HD
BRANCH   4   6
ATOM      6  C   UNL A   1      32.546  28.936  23.537  1.00  0.00     0.128 C 
BRANCH   6   7
ATOM      7  C   UNL A   1      31.560  27.971  22.890  1.00  0.00     0.049 C 
ATOM      8  C   UNL A   1      30.574  27.125  23.767  1.00  0.00     0.029 C 
ATOM      9  C   UNL A   1      30.317  28.822  22.448  1.00  0.00     0.029 C 
ATOM     10  C   UNL A   1      29.374  27.835  23.128  1.00  0.00     0.005 C 
BRANCH   7  11
ATOM     11  N   UNL A   1      32.064  27.164  21.725  1.00  0.00    -0.346 N 
ATOM     12  C   UNL A   1      32.685  25.941  21.556  1.00  0.00     0.251 C 
ATOM     13  H   UNL A   1      31.914  27.622  20.867  1.00  0.00     0.164 HD
ATOM     14  O   UNL A   1      32.986  25.572  20.423  1.00  0.00    -0.269 OA
BRANCH  12  15
ATOM     15  C   UNL A   1      33.083  25.104  22.696  1.00  0.00     0.041 A 
ATOM     16  C   UNL A   1      34.027  25.551  23.623  1.00  0.00     0.014 A 
ATOM     17  C   UNL A   1      32.563  23.799  22.739  1.00  0.00     0.040 A 
ATOM     18  C   UNL A   1      34.590  24.643  24.532  1.00  0.00     0.011 A 
ATOM     19  C   UNL A   1      33.148  22.913  23.652  1.00  0.00     0.046 A 
ATOM     20  C   UNL A   1      34.178  23.293  24.514  1.00  0.00    -0.001 A 
ATOM     21  N   UNL A   1      32.904  21.576  23.873  1.00  0.00    -0.361 N 
ATOM     22  C   UNL A   1      34.610  22.115  25.185  1.00  0.00     0.028 A 
ATOM     23  C   UNL A   1      33.816  21.073  24.763  1.00  0.00     0.083 A 
ATOM     24  H   UNL A   1      32.181  21.057  23.453  1.00  0.00     0.166 HD
ENDBRANCH  12  15
ENDBRANCH   7  11
ENDBRANCH   6   7
ENDBRANCH   4   6
ENDBRANCH   1   2
BRANCH   1  25
ATOM     25  C   UNL A   1      31.534  32.003  26.850  1.00  0.00     0.042 C 
BRANCH  25  26
ATOM     26  C   UNL A   1      32.783  32.839  27.115  1.00  0.00     0.118 C 
BRANCH  26  27
ATOM     27  N   UNL A   1      32.478  34.167  27.626  1.00  0.00    -0.352 N 
ATOM     28  C   UNL A   1      33.030  34.839  28.687  1.00  0.00     0.251 C 
ATOM     29  H   UNL A   1      31.774  34.654  27.139  1.00  0.00     0.163 HD
ATOM     30  O   UNL A   1      32.528  35.879  29.087  1.00  0.00    -0.269 OA
BRANCH  28  31
ATOM     31  C   UNL A   1      34.220  34.282  29.357  1.00  0.00     0.039 A 
ATOM     32  C   UNL A   1      34.034  33.409  30.429  1.00  0.00     0.014 A 
ATOM     33  C   UNL A   1      35.507  34.608  28.921  1.00  0.00     0.014 A 
ATOM     34  C   UNL A   1      35.144  32.819  31.031  1.00  0.00     0.010 A 
ATOM     35  C   UNL A   1      36.607  33.952  29.464  1.00  0.00     0.010 A 
ATOM     36  C   UNL A   1      36.437  33.059  30.530  1.00  0.00    -0.014 A 
BRANCH  36  37
ATOM     37  C   UNL A   1      37.607  32.360  31.117  1.00  0.00     0.031 A 
ATOM     38  C   UNL A   1      38.085  32.696  32.501  1.00  0.00     0.074 A 
ATOM     39  C   UNL A   1      38.251  31.432  30.384  1.00  0.00     0.049 A 
ATOM     40  N   UNL A   1      39.057  32.156  33.193  1.00  0.00    -0.248 NA
ATOM     41  C   UNL A   1      37.403  33.802  33.192  1.00  0.00     0.031 C 
ATOM     42  C   UNL A   1      37.925  31.073  29.002  1.00  0.00     0.029 A 
ATOM     43  N   UNL A   1      39.307  30.614  30.698  1.00  0.00    -0.354 N 
ATOM     44  C   UNL A   1      39.101  32.854  34.393  1.00  0.00     0.074 A 
ATOM     45  C   UNL A   1      38.108  33.902  34.308  1.00  0.00     0.031 C 
ATOM     46  C   UNL A   1      38.730  30.075  28.605  1.00  0.00     0.029 A 
ATOM     47  C   UNL A   1      39.649  29.747  29.688  1.00  0.00     0.049 A 
ATOM     48  H   UNL A   1      39.774  30.646  31.563  1.00  0.00     0.167 HD
ATOM     49  C   UNL A   1      39.879  32.623  35.477  1.00  0.00     0.037 A 
ATOM     50  C   UNL A   1      40.594  28.790  29.648  1.00  0.00     0.037 A 
ATOM     51  C   UNL A   1      40.858  31.570  35.557  1.00  0.00     0.049 A 
ATOM     52  C   UNL A   1      41.435  28.546  30.871  1.00  0.00     0.074 A 
ATOM     53  C   UNL A   1      41.663  31.217  36.627  1.00  0.00     0.029 A 
ATOM     54  N   UNL A   1      41.173  30.704  34.519  1.00  0.00    -0.354 N 
ATOM     55  N   UNL A   1      41.409  29.155  32.032  1.00  0.00    -0.248 NA
ATOM     56  C   UNL A   1      42.426  27.466  30.782  1.00  0.00     0.031 C 
ATOM     57  C   UNL A   1      42.503  30.175  36.218  1.00  0.00     0.029 A 
ATOM     58  C   UNL A   1      42.176  29.833  34.916  1.00  0.00     0.049 A 
ATOM     59  H   UNL A   1      40.748  30.709  33.631  1.00  0.00     0.167 HD
ATOM     60  C   UNL A   1      42.356  28.516  32.821  1.00  0.00     0.074 A 
ATOM     61  C   UNL A   1      42.918  27.453  32.011  1.00  0.00     0.031 C 
ATOM     62  C   UNL A   1      42.729  28.782  34.098  1.00  0.00     0.037 A 
BRANCH  49  63
ATOM     63  C   UNL A   1      39.697  33.523  36.667  1.00  0.00     0.064 A 
ATOM     64  C   UNL A   1      40.361  34.756  36.769  1.00  0.00     0.173 A 
ATOM     65  C   UNL A   1      38.822  33.167  37.704  1.00  0.00     0.173 A 
ATOM     66  F   UNL A   1      41.220  35.141  35.812  1.00  0.00    -0.203 F 
ATOM     67  C   UNL A   1      40.181  35.581  37.876  1.00  0.00     0.198 A 
ATOM     68  C   UNL A   1      38.617  34.010  38.794  1.00  0.00     0.198 A 
ATOM     69  F   UNL A   1      38.158  32.002  37.659  1.00  0.00    -0.203 F 
ATOM     70  F   UNL A   1      40.870  36.726  37.976  1.00  0.00    -0.200 F 
ATOM     71  C   UNL A   1      39.303  35.212  38.884  1.00  0.00     0.200 A 
ATOM     72  F   UNL A   1      37.757  33.658  39.759  1.00  0.00    -0.200 F 
ATOM     73  F   UNL A   1      39.124  36.010  39.945  1.00  0.00    -0.200 F 
ENDBRANCH  49  63
BRANCH  50  74
ATOM     74  C   UNL A   1      40.764  27.963  28.424  1.00  0.00     0.064 A 
ATOM     75  C   UNL A   1      40.103  26.734  28.283  1.00  0.00     0.173 A 
ATOM     76  C   UNL A   1      41.596  28.379  27.375  1.00  0.00     0.173 A 
ATOM     77  F   UNL A   1      39.309  26.285  29.266  1.00  0.00    -0.203 F 
ATOM     78  C   UNL A   1      40.291  25.940  27.154  1.00  0.00     0.198 A 
ATOM     79  C   UNL A   1      41.757  27.600  26.231  1.00  0.00     0.198 A 
ATOM     80  F   UNL A   1      42.244  29.551  27.455  1.00  0.00    -0.203 F 
ATOM     81  F   UNL A   1      39.692  24.745  27.071  1.00  0.00    -0.200 F 
ATOM     82  C   UNL A   1      41.114  26.376  26.126  1.00  0.00     0.200 A 
ATOM     83  F   UNL A   1      42.538  28.034  25.232  1.00  0.00    -0.200 F 
ATOM     84  F   UNL A   1      41.293  25.614  25.039  1.00  0.00    -0.200 F 
ENDBRANCH  50  74
BRANCH  62  85
ATOM     85  C   UNL A   1      43.768  27.882  34.706  1.00  0.00     0.064 A 
ATOM     86  C   UNL A   1      45.135  28.194  34.664  1.00  0.00     0.173 A 
ATOM     87  C   UNL A   1      43.389  26.685  35.334  1.00  0.00     0.173 A 
ATOM     88  F   UNL A   1      45.554  29.320  34.065  1.00  0.00    -0.203 F 
ATOM     89  C   UNL A   1      46.086  27.317  35.181  1.00  0.00     0.198 A 
ATOM     90  C   UNL A   1      44.339  25.831  35.885  1.00  0.00     0.198 A 
ATOM     91  F   UNL A   1      42.093  26.344  35.413  1.00  0.00    -0.203 F 
ATOM     92  F   UNL A   1      47.391  27.600  35.058  1.00  0.00    -0.200 F 
ATOM     93  C   UNL A   1      45.687  26.140  35.795  1.00  0.00     0.200 A 
ATOM     94  F   UNL A   1      43.950  24.702  36.493  1.00  0.00    -0.200 F 
ATOM     95  F   UNL A   1      46.604  25.294  36.285  1.00  0.00    -0.200 F 
ENDBRANCH  62  85
ENDBRANCH  36  37
ENDBRANCH  28  31
ENDBRANCH  26  27
ENDBRANCH  25  26
ENDBRANCH   1  25
TORSDOF 13
ENDMDL
MODEL 2
REMARK VINA RESULT:     -12.8      1.219      2.821
REMARK SMILES O=C(CC1(NC(=O)c2ccc3cc[nH]c3c2)CCC1)NCCCNC(=O)c1ccc(-c2c3nc(c(-c4c(F)c(F)c(F)c(F)c4F)c4ccc([nH]4)c(-c4c(F)c(F)c(F)c(F)c4F)c4nc(c(-c5c(F)c(F)c(F)c(F)c5F)c5ccc2[nH]5)C=C4)C=C3)cc1
REMARK SMILES IDX 21 1 20 2 1 3 2 4 3 6 4 7 17 8 19 9 18 10 5 11 6 12 7 14
REMARK SMILES IDX 8 15 9 16 16 17 10 18 15 19 11 20 14 21 12 22 13 23 22 25
REMARK SMILES IDX 23 26 24 27 25 28 26 30 27 31 28 32 89 33 29 34 88 35 30 36
REMARK SMILES IDX 31 37 32 38 82 39 33 40 87 41 81 42 83 43 34 44 86 45 80 46
REMARK SMILES IDX 79 47 35 49 67 50 47 51 66 52 48 53 51 54 65 55 84 56 49 57
REMARK SMILES IDX 50 58 64 60 85 61 52 62 36 63 37 64 45 65 38 66 39 67 43 68
REMARK SMILES IDX 46 69 40 70 41 71 44 72 42 73 68 74 69 75 77 76 70 77 71 78
REMARK SMILES IDX 75 79 78 80 72 81 73 82 76 83 74 84 53 85 54 86 62 87 55 88
REMARK SMILES IDX 56 89 60 90 63 91 57 92 58 93 61 94 59 95
REMARK H PARENT 20 5 5 13 14 24 24 29 83 48 51 59
REMARK Flexibility Score: inf
ROOT
ATOM      1  C   UNL A   1      32.036  30.142  25.492  1.00  0.00     0.117 C 
ENDROOT
BRANCH   1   2
ATOM      2  N   UNL A   1      31.591  28.822  25.876  1.00  0.00    -0.356 N 
ATOM      3  O   UNL A   1      33.463  28.212  27.052  1.00  0.00    -0.275 OA
ATOM      4  C   UNL A   1      32.404  27.921  26.509  1.00  0.00     0.222 C 
ATOM      5  H   UNL A   1      30.664  28.559  25.672  1.00  0.00     0.163 HD
BRANCH   4   6
ATOM      6  C   UNL A   1      31.890  26.507  26.407  1.00  0.00     0.128 C 
BRANCH   6   7
ATOM      7  C   UNL A   1      32.595  25.598  25.408  1.00  0.00     0.049 C 
ATOM      8  C   UNL A   1      33.889  26.076  24.664  1.00  0.00     0.029 C 
ATOM      9  C   UNL A   1      33.520  24.641  26.241  1.00  0.00     0.029 C 
ATOM     10  C   UNL A   1      34.705  24.965  25.339  1.00  0.00     0.005 C 
BRANCH   7  11
ATOM     11  N   UNL A   1      31.721  24.788  24.490  1.00  0.00    -0.346 N 
ATOM     12  C   UNL A   1      30.665  25.047  23.637  1.00  0.00     0.251 C 
ATOM     13  H   UNL A   1      31.961  23.834  24.500  1.00  0.00     0.164 HD
ATOM     14  O   UNL A   1      30.148  24.117  23.023  1.00  0.00    -0.269 OA
BRANCH  12  15
ATOM     15  C   UNL A   1      30.075  26.387  23.510  1.00  0.00     0.041 A 
ATOM     16  C   UNL A   1      28.764  26.638  23.921  1.00  0.00     0.014 A 
ATOM     17  C   UNL A   1      30.845  27.361  22.853  1.00  0.00     0.040 A 
ATOM     18  C   UNL A   1      28.137  27.835  23.541  1.00  0.00     0.011 A 
ATOM     19  C   UNL A   1      30.192  28.542  22.481  1.00  0.00     0.046 A 
ATOM     20  C   UNL A   1      28.847  28.779  22.769  1.00  0.00    -0.001 A 
ATOM     21  N   UNL A   1      30.656  29.631  21.777  1.00  0.00    -0.361 N 
ATOM     22  C   UNL A   1      28.497  30.000  22.126  1.00  0.00     0.028 A 
ATOM     23  C   UNL A   1      29.626  30.495  21.516  1.00  0.00     0.083 A 
ATOM     24  H   UNL A   1      31.591  29.767  21.502  1.00  0.00     0.166 HD
ENDBRANCH  12  15
ENDBRANCH   7  11
ENDBRANCH   6   7
ENDBRANCH   4   6
ENDBRANCH   1   2
BRANCH   1  25
ATOM     25  C   UNL A   1      31.640  31.160  26.557  1.00  0.00     0.042 C 
BRANCH  25  26
ATOM     26  C   UNL A   1      32.825  31.849  27.229  1.00  0.00     0.118 C 
BRANCH  26  27
ATOM     27  N   UNL A   1      32.577  33.256  27.510  1.00  0.00    -0.352 N 
ATOM     28  C   UNL A   1      33.200  34.088  28.405  1.00  0.00     0.251 C 
ATOM     29  H   UNL A   1      31.857  33.670  26.981  1.00  0.00     0.163 HD
ATOM     30  O   UNL A   1      32.743  35.197  28.638  1.00  0.00    -0.269 OA
BRANCH  28  31
ATOM     31  C   UNL A   1      34.413  33.622  29.102  1.00  0.00     0.039 A 
ATOM     32  C   UNL A   1      34.273  32.704  30.143  1.00  0.00     0.014 A 
ATOM     33  C   UNL A   1      35.679  34.078  28.722  1.00  0.00     0.014 A 
ATOM     34  C   UNL A   1      35.413  32.201  30.769  1.00  0.00     0.010 A 
ATOM     35  C   UNL A   1      36.815  33.509  29.287  1.00  0.00     0.010 A 
ATOM     36  C   UNL A   1      36.693  32.573  30.322  1.00  0.00    -0.014 A 
BRANCH  36  37
ATOM     37  C   UNL A   1      37.903  31.967  30.931  1.00  0.00     0.031 A 
ATOM     38  C   UNL A   1      38.350  32.368  32.309  1.00  0.00     0.074 A 
ATOM     39  C   UNL A   1      38.610  31.064  30.225  1.00  0.00     0.049 A 
ATOM     40  N   UNL A   1      39.351  31.911  33.019  1.00  0.00    -0.248 NA
ATOM     41  C   UNL A   1      37.593  33.445  32.967  1.00  0.00     0.031 C 
ATOM     42  C   UNL A   1      38.316  30.649  28.852  1.00  0.00     0.029 A 
ATOM     43  N   UNL A   1      39.715  30.325  30.565  1.00  0.00    -0.354 N 
ATOM     44  C   UNL A   1      39.342  32.641  34.200  1.00  0.00     0.074 A 
ATOM     45  C   UNL A   1      38.284  33.619  34.083  1.00  0.00     0.031 C 
ATOM     46  C   UNL A   1      39.186  29.695  28.485  1.00  0.00     0.029 A 
ATOM     47  C   UNL A   1      40.119  29.457  29.580  1.00  0.00     0.049 A 
ATOM     48  H   UNL A   1      40.174  30.409  31.431  1.00  0.00     0.167 HD
ATOM     49  C   UNL A   1      40.127  32.489  35.293  1.00  0.00     0.037 A 
ATOM     50  C   UNL A   1      41.123  28.561  29.569  1.00  0.00     0.037 A 
ATOM     51  C   UNL A   1      41.172  31.504  35.404  1.00  0.00     0.049 A 
ATOM     52  C   UNL A   1      41.971  28.405  30.801  1.00  0.00     0.074 A 
ATOM     53  C   UNL A   1      41.992  31.232  36.486  1.00  0.00     0.029 A 
ATOM     54  N   UNL A   1      41.549  30.634  34.391  1.00  0.00    -0.354 N 
ATOM     55  N   UNL A   1      41.900  29.040  31.946  1.00  0.00    -0.248 NA
ATOM     56  C   UNL A   1      43.031  27.389  30.744  1.00  0.00     0.031 C 
ATOM     57  C   UNL A   1      42.900  30.237  36.108  1.00  0.00     0.029 A 
ATOM     58  C   UNL A   1      42.604  29.840  34.814  1.00  0.00     0.049 A 
ATOM     59  H   UNL A   1      41.129  30.588  33.501  1.00  0.00     0.167 HD
ATOM     60  C   UNL A   1      42.881  28.484  32.755  1.00  0.00     0.074 A 
ATOM     61  C   UNL A   1      43.515  27.440  31.976  1.00  0.00     0.031 C 
ATOM     62  C   UNL A   1      43.228  28.807  34.026  1.00  0.00     0.037 A 
BRANCH  49  63
ATOM     63  C   UNL A   1      39.880  33.406  36.458  1.00  0.00     0.064 A 
ATOM     64  C   UNL A   1      40.550  34.633  36.587  1.00  0.00     0.173 A 
ATOM     65  C   UNL A   1      38.938  33.071  37.442  1.00  0.00     0.173 A 
ATOM     66  F   UNL A   1      41.471  34.998  35.682  1.00  0.00    -0.203 F 
ATOM     67  C   UNL A   1      40.309  35.474  37.671  1.00  0.00     0.198 A 
ATOM     68  C   UNL A   1      38.674  33.929  38.507  1.00  0.00     0.198 A 
ATOM     69  F   UNL A   1      38.265  31.912  37.369  1.00  0.00    -0.203 F 
ATOM     70  F   UNL A   1      41.002  36.613  37.800  1.00  0.00    -0.200 F 
ATOM     71  C   UNL A   1      39.366  35.125  38.625  1.00  0.00     0.200 A 
ATOM     72  F   UNL A   1      37.751  33.598  39.420  1.00  0.00    -0.200 F 
ATOM     73  F   UNL A   1      39.128  35.939  39.663  1.00  0.00    -0.200 F 
ENDBRANCH  49  63
BRANCH  50  74
ATOM     74  C   UNL A   1      41.354  27.717  28.368  1.00  0.00     0.064 A 
ATOM     75  C   UNL A   1      40.679  26.499  28.198  1.00  0.00     0.173 A 
ATOM     76  C   UNL A   1      42.259  28.102  27.369  1.00  0.00     0.173 A 
ATOM     77  F   UNL A   1      39.815  26.078  29.134  1.00  0.00    -0.203 F 
ATOM     78  C   UNL A   1      40.922  25.687  27.093  1.00  0.00     0.198 A 
ATOM     79  C   UNL A   1      42.477  27.306  26.246  1.00  0.00     0.198 A 
ATOM     80  F   UNL A   1      42.925  29.263  27.477  1.00  0.00    -0.203 F 
ATOM     81  F   UNL A   1      40.305  24.503  26.985  1.00  0.00    -0.200 F 
ATOM     82  C   UNL A   1      41.817  26.094  26.115  1.00  0.00     0.200 A 
ATOM     83  F   UNL A   1      43.328  27.713  25.295  1.00  0.00    -0.200 F 
ATOM     84  F   UNL A   1      42.049  25.316  25.049  1.00  0.00    -0.200 F 
ENDBRANCH  50  74
BRANCH  62  85
ATOM     85  C   UNL A   1      44.320  27.992  34.662  1.00  0.00     0.064 A 
ATOM     86  C   UNL A   1      45.668  28.374  34.589  1.00  0.00     0.173 A 
ATOM     87  C   UNL A   1      44.011  26.808  35.349  1.00  0.00     0.173 A 
ATOM     88  F   UNL A   1      46.021  29.490  33.933  1.00  0.00    -0.203 F 
ATOM     89  C   UNL A   1      46.669  27.573  35.133  1.00  0.00     0.198 A 
ATOM     90  C   UNL A   1      45.011  26.032  35.927  1.00  0.00     0.198 A 
ATOM     91  F   UNL A   1      42.736  26.402  35.461  1.00  0.00    -0.203 F 
ATOM     92  F   UNL A   1      47.956  27.918  34.981  1.00  0.00    -0.200 F 
ATOM     93  C   UNL A   1      46.340  26.406  35.805  1.00  0.00     0.200 A 
ATOM     94  F   UNL A   1      44.688  24.913  36.592  1.00  0.00    -0.200 F 
ATOM     95  F   UNL A   1      47.305  25.634  36.323  1.00  0.00    -0.200 F 
ENDBRANCH  62  85
ENDBRANCH  36  37
ENDBRANCH  28  31
ENDBRANCH  26  27
ENDBRANCH  25  26
ENDBRANCH   1  25
TORSDOF 13
ENDMDL
MODEL 3
REMARK VINA RESULT:     -12.7      5.544     10.686
REMARK SMILES O=C(CC1(NC(=O)c2ccc3cc[nH]c3c2)CCC1)NCCCNC(=O)c1ccc(-c2c3nc(c(-c4c(F)c(F)c(F)c(F)c4F)c4ccc([nH]4)c(-c4c(F)c(F)c(F)c(F)c4F)c4nc(c(-c5c(F)c(F)c(F)c(F)c5F)c5ccc2[nH]5)C=C4)C=C3)cc1
REMARK SMILES IDX 21 1 20 2 1 3 2 4 3 6 4 7 17 8 19 9 18 10 5 11 6 12 7 14
REMARK SMILES IDX 8 15 9 16 16 17 10 18 15 19 11 20 14 21 12 22 13 23 22 25
REMARK SMILES IDX 23 26 24 27 25 28 26 30 27 31 28 32 89 33 29 34 88 35 30 36
REMARK SMILES IDX 31 37 32 38 82 39 33 40 87 41 81 42 83 43 34 44 86 45 80 46
REMARK SMILES IDX 79 47 35 49 67 50 47 51 66 52 48 53 51 54 65 55 84 56 49 57
REMARK SMILES IDX 50 58 64 60 85 61 52 62 36 63 37 64 45 65 38 66 39 67 43 68
REMARK SMILES IDX 46 69 40 70 41 71 44 72 42 73 68 74 69 75 77 76 70 77 71 78
REMARK SMILES IDX 75 79 78 80 72 81 73 82 76 83 74 84 53 85 54 86 62 87 55 88
REMARK SMILES IDX 56 89 60 90 63 91 57 92 58 93 61 94 59 95
REMARK H PARENT 20 5 5 13 14 24 24 29 83 48 51 59
REMARK Flexibility Score: inf
ROOT
ATOM      1  C   UNL A   1      38.099  21.739  25.472  1.00  0.00     0.117 C 
ENDROOT
BRANCH   1   2
ATOM      2  N   UNL A   1      37.342  22.120  24.303  1.00  0.00    -0.356 N 
ATOM      3  O   UNL A   1      36.288  23.940  25.216  1.00  0.00    -0.275 OA
ATOM      4  C   UNL A   1      36.397  23.110  24.322  1.00  0.00     0.222 C 
ATOM      5  H   UNL A   1      37.512  21.646  23.456  1.00  0.00     0.163 HD
BRANCH   4   6
ATOM      6  C   UNL A   1      35.450  23.028  23.152  1.00  0.00     0.128 C 
BRANCH   6   7
ATOM      7  C   UNL A   1      34.080  23.668  23.339  1.00  0.00     0.049 C 
ATOM      8  C   UNL A   1      33.856  25.187  23.027  1.00  0.00     0.029 C 
ATOM      9  C   UNL A   1      33.254  23.357  22.040  1.00  0.00     0.029 C 
ATOM     10  C   UNL A   1      32.870  24.827  21.908  1.00  0.00     0.005 C 
BRANCH   7  11
ATOM     11  N   UNL A   1      33.295  23.251  24.552  1.00  0.00    -0.346 N 
ATOM     12  C   UNL A   1      32.880  22.055  25.106  1.00  0.00     0.251 C 
ATOM     13  H   UNL A   1      33.002  24.025  25.085  1.00  0.00     0.164 HD
ATOM     14  O   UNL A   1      32.213  22.071  26.139  1.00  0.00    -0.269 OA
BRANCH  12  15
ATOM     15  C   UNL A   1      33.128  20.764  24.450  1.00  0.00     0.041 A 
ATOM     16  C   UNL A   1      32.265  20.279  23.465  1.00  0.00     0.014 A 
ATOM     17  C   UNL A   1      34.196  19.995  24.943  1.00  0.00     0.040 A 
ATOM     18  C   UNL A   1      32.363  18.940  23.056  1.00  0.00     0.011 A 
ATOM     19  C   UNL A   1      34.265  18.662  24.523  1.00  0.00     0.046 A 
ATOM     20  C   UNL A   1      33.348  18.107  23.629  1.00  0.00    -0.001 A 
ATOM     21  N   UNL A   1      35.141  17.661  24.880  1.00  0.00    -0.361 N 
ATOM     22  C   UNL A   1      33.643  16.718  23.544  1.00  0.00     0.028 A 
ATOM     23  C   UNL A   1      34.744  16.471  24.332  1.00  0.00     0.083 A 
ATOM     24  H   UNL A   1      35.936  17.784  25.448  1.00  0.00     0.166 HD
ENDBRANCH  12  15
ENDBRANCH   7  11
ENDBRANCH   6   7
ENDBRANCH   4   6
ENDBRANCH   1   2
BRANCH   1  25
ATOM     25  C   UNL A   1      38.870  20.450  25.203  1.00  0.00     0.042 C 
BRANCH  25  26
ATOM     26  C   UNL A   1      39.637  19.919  26.411  1.00  0.00     0.118 C 
BRANCH  26  27
ATOM     27  N   UNL A   1      40.752  19.059  26.042  1.00  0.00    -0.352 N 
ATOM     28  C   UNL A   1      42.086  19.361  25.933  1.00  0.00     0.251 C 
ATOM     29  H   UNL A   1      40.513  18.125  25.841  1.00  0.00     0.163 HD
ATOM     30  O   UNL A   1      42.861  18.558  25.436  1.00  0.00    -0.269 OA
BRANCH  28  31
ATOM     31  C   UNL A   1      42.570  20.673  26.400  1.00  0.00     0.039 A 
ATOM     32  C   UNL A   1      42.951  21.620  25.449  1.00  0.00     0.014 A 
ATOM     33  C   UNL A   1      42.636  20.970  27.764  1.00  0.00     0.014 A 
ATOM     34  C   UNL A   1      43.347  22.889  25.868  1.00  0.00     0.010 A 
ATOM     35  C   UNL A   1      42.947  22.262  28.175  1.00  0.00     0.010 A 
ATOM     36  C   UNL A   1      43.314  23.231  27.232  1.00  0.00    -0.014 A 
BRANCH  36  37
ATOM     37  C   UNL A   1      43.651  24.610  27.666  1.00  0.00     0.031 A 
ATOM     38  C   UNL A   1      45.081  25.072  27.707  1.00  0.00     0.074 A 
ATOM     39  C   UNL A   1      42.659  25.439  28.043  1.00  0.00     0.049 A 
ATOM     40  N   UNL A   1      45.559  26.252  28.011  1.00  0.00    -0.248 NA
ATOM     41  C   UNL A   1      46.113  24.072  27.392  1.00  0.00     0.031 C 
ATOM     42  C   UNL A   1      41.241  25.080  28.116  1.00  0.00     0.029 A 
ATOM     43  N   UNL A   1      42.688  26.755  28.429  1.00  0.00    -0.354 N 
ATOM     44  C   UNL A   1      46.939  26.135  27.925  1.00  0.00     0.074 A 
ATOM     45  C   UNL A   1      47.227  24.754  27.611  1.00  0.00     0.031 C 
ATOM     46  C   UNL A   1      40.531  26.162  28.472  1.00  0.00     0.029 A 
ATOM     47  C   UNL A   1      41.444  27.279  28.687  1.00  0.00     0.049 A 
ATOM     48  H   UNL A   1      43.520  27.274  28.513  1.00  0.00     0.167 HD
ATOM     49  C   UNL A   1      47.879  27.100  28.066  1.00  0.00     0.037 A 
ATOM     50  C   UNL A   1      41.083  28.524  29.046  1.00  0.00     0.037 A 
ATOM     51  C   UNL A   1      47.583  28.477  28.369  1.00  0.00     0.049 A 
ATOM     52  C   UNL A   1      42.147  29.578  29.184  1.00  0.00     0.074 A 
ATOM     53  C   UNL A   1      48.457  29.544  28.483  1.00  0.00     0.029 A 
ATOM     54  N   UNL A   1      46.312  28.975  28.615  1.00  0.00    -0.354 N 
ATOM     55  N   UNL A   1      43.443  29.478  29.015  1.00  0.00    -0.248 NA
ATOM     56  C   UNL A   1      41.692  30.927  29.546  1.00  0.00     0.031 C 
ATOM     57  C   UNL A   1      47.721  30.675  28.853  1.00  0.00     0.029 A 
ATOM     58  C   UNL A   1      46.380  30.329  28.903  1.00  0.00     0.049 A 
ATOM     59  H   UNL A   1      45.482  28.444  28.590  1.00  0.00     0.167 HD
ATOM     60  C   UNL A   1      43.956  30.752  29.219  1.00  0.00     0.074 A 
ATOM     61  C   UNL A   1      42.824  31.612  29.498  1.00  0.00     0.031 C 
ATOM     62  C   UNL A   1      45.245  31.173  29.181  1.00  0.00     0.037 A 
BRANCH  49  63
ATOM     63  C   UNL A   1      49.317  26.700  27.889  1.00  0.00     0.064 A 
ATOM     64  C   UNL A   1      49.901  26.582  26.617  1.00  0.00     0.173 A 
ATOM     65  C   UNL A   1      50.135  26.464  29.005  1.00  0.00     0.173 A 
ATOM     66  F   UNL A   1      49.163  26.783  25.515  1.00  0.00    -0.203 F 
ATOM     67  C   UNL A   1      51.236  26.212  26.469  1.00  0.00     0.198 A 
ATOM     68  C   UNL A   1      51.478  26.128  28.855  1.00  0.00     0.198 A 
ATOM     69  F   UNL A   1      49.632  26.564  30.245  1.00  0.00    -0.203 F 
ATOM     70  F   UNL A   1      51.753  26.052  25.244  1.00  0.00    -0.200 F 
ATOM     71  C   UNL A   1      52.025  25.994  27.588  1.00  0.00     0.200 A 
ATOM     72  F   UNL A   1      52.244  25.932  29.937  1.00  0.00    -0.200 F 
ATOM     73  F   UNL A   1      53.312  25.647  27.444  1.00  0.00    -0.200 F 
ENDBRANCH  49  63
BRANCH  50  74
ATOM     74  C   UNL A   1      39.649  28.851  29.259  1.00  0.00     0.064 A 
ATOM     75  C   UNL A   1      38.836  29.271  28.196  1.00  0.00     0.173 A 
ATOM     76  C   UNL A   1      39.061  28.759  30.529  1.00  0.00     0.173 A 
ATOM     77  F   UNL A   1      39.355  29.390  26.964  1.00  0.00    -0.203 F 
ATOM     78  C   UNL A   1      37.502  29.614  28.400  1.00  0.00     0.198 A 
ATOM     79  C   UNL A   1      37.717  29.070  30.726  1.00  0.00     0.198 A 
ATOM     80  F   UNL A   1      39.791  28.353  31.580  1.00  0.00    -0.203 F 
ATOM     81  F   UNL A   1      36.764  30.066  27.377  1.00  0.00    -0.200 F 
ATOM     82  C   UNL A   1      36.942  29.509  29.664  1.00  0.00     0.200 A 
ATOM     83  F   UNL A   1      37.176  28.948  31.946  1.00  0.00    -0.200 F 
ATOM     84  F   UNL A   1      35.657  29.835  29.861  1.00  0.00    -0.200 F 
ENDBRANCH  50  74
BRANCH  62  85
ATOM     85  C   UNL A   1      45.489  32.639  29.410  1.00  0.00     0.064 A 
ATOM     86  C   UNL A   1      45.745  33.157  30.689  1.00  0.00     0.173 A 
ATOM     87  C   UNL A   1      45.460  33.538  28.333  1.00  0.00     0.173 A 
ATOM     88  F   UNL A   1      45.772  32.343  31.756  1.00  0.00    -0.203 F 
ATOM     89  C   UNL A   1      45.909  34.525  30.887  1.00  0.00     0.198 A 
ATOM     90  C   UNL A   1      45.666  34.900  28.530  1.00  0.00     0.198 A 
ATOM     91  F   UNL A   1      45.233  33.095  27.087  1.00  0.00    -0.203 F 
ATOM     92  F   UNL A   1      46.073  35.006  32.128  1.00  0.00    -0.200 F 
ATOM     93  C   UNL A   1      45.874  35.395  29.808  1.00  0.00     0.200 A 
ATOM     94  F   UNL A   1      45.649  35.736  27.482  1.00  0.00    -0.200 F 
ATOM     95  F   UNL A   1      46.027  36.713  30.001  1.00  0.00    -0.200 F 
ENDBRANCH  62  85
ENDBRANCH  36  37
ENDBRANCH  28  31
ENDBRANCH  26  27
ENDBRANCH  25  26
ENDBRANCH   1  25
TORSDOF 13
ENDMDL
