MODEL 1
REMARK VINA RESULT:     -13.5      0.000      0.000
REMARK SMILES O=C(CC1CC[NH+](C[C@H]2COc3ccccc3O2)CC1)NCCCNC(=O)c1ccc(-c2c3nc(c(-c4c(F)c(F)c(F)c(F)c4F)c4ccc([nH]4)c(-c4c(F)c(F)c(F)c(F)c4F)c4nc(c(-c5c(F)c(F)c(F)c(F)c5F)c5ccc2[nH]5)C=C4)C=C3)cc1
REMARK SMILES IDX 22 1 21 2 1 3 2 4 3 6 4 7 5 8 20 9 6 10 19 11 7 12 8 14 9 15
REMARK SMILES IDX 10 16 18 17 11 18 17 19 12 20 16 21 13 22 15 23 14 24 23 25
REMARK SMILES IDX 24 26 25 27 26 28 27 30 28 31 29 32 90 33 30 34 89 35 31 36
REMARK SMILES IDX 32 37 33 38 83 39 34 40 88 41 82 42 84 43 35 44 87 45 81 46
REMARK SMILES IDX 80 47 36 49 68 50 48 51 67 52 49 53 52 54 66 55 85 56 50 57
REMARK SMILES IDX 51 58 65 60 86 61 53 62 37 63 38 64 46 65 39 66 40 67 44 68
REMARK SMILES IDX 47 69 41 70 42 71 45 72 43 73 69 74 70 75 78 76 71 77 72 78
REMARK SMILES IDX 76 79 79 80 73 81 74 82 77 83 75 84 54 85 55 86 63 87 56 88
REMARK SMILES IDX 57 89 61 90 64 91 58 92 59 93 62 94 60 95
REMARK H PARENT 21 5 7 13 25 29 84 48 52 59
REMARK Flexibility Score: inf
ROOT
ATOM      1  C   UNL A   1      30.673  29.051  24.574  1.00  0.00     0.117 C 
ENDROOT
BRANCH   1   2
ATOM      2  N   UNL A   1      30.648  27.635  24.248  1.00  0.00    -0.356 N 
ATOM      3  O   UNL A   1      30.647  27.938  21.965  1.00  0.00    -0.275 OA
ATOM      4  C   UNL A   1      30.745  27.195  22.937  1.00  0.00     0.220 C 
ATOM      5  H   UNL A   1      30.560  26.974  24.973  1.00  0.00     0.163 HD
BRANCH   4   6
ATOM      6  C   UNL A   1      31.089  25.721  22.787  1.00  0.00     0.104 C 
BRANCH   6   7
ATOM      7  C   UNL A   1      32.607  25.451  22.628  1.00  0.00     0.009 C 
ATOM      8  C   UNL A   1      32.900  24.051  22.052  1.00  0.00     0.066 C 
ATOM      9  C   UNL A   1      33.450  25.570  23.908  1.00  0.00     0.066 C 
ATOM     10  C   UNL A   1      32.654  22.912  23.055  1.00  0.00     0.262 C 
ATOM     11  C   UNL A   1      33.177  24.455  24.930  1.00  0.00     0.262 C 
ATOM     12  N   UNL A   1      32.346  23.381  24.399  1.00  0.00    -0.332 N 
ATOM     13  H   UNL A   1      31.468  23.882  24.258  1.00  0.00     0.348 HD
BRANCH  12  14
ATOM     14  C   UNL A   1      31.997  22.317  25.346  1.00  0.00     0.311 C 
BRANCH  14  15
ATOM     15  C   UNL A   1      32.824  21.071  25.006  1.00  0.00     0.265 C 
ATOM     16  C   UNL A   1      34.193  20.984  25.673  1.00  0.00     0.281 C 
ATOM     17  O   UNL A   1      32.118  19.851  25.301  1.00  0.00    -0.477 OA
ATOM     18  O   UNL A   1      34.990  20.038  24.937  1.00  0.00    -0.486 OA
ATOM     19  C   UNL A   1      32.915  18.772  24.975  1.00  0.00     0.162 A 
ATOM     20  C   UNL A   1      34.285  18.881  24.716  1.00  0.00     0.161 A 
ATOM     21  C   UNL A   1      32.305  17.529  24.889  1.00  0.00     0.050 A 
ATOM     22  C   UNL A   1      34.998  17.795  24.216  1.00  0.00     0.050 A 
ATOM     23  C   UNL A   1      33.011  16.436  24.383  1.00  0.00     0.004 A 
ATOM     24  C   UNL A   1      34.351  16.576  24.023  1.00  0.00     0.004 A 
ENDBRANCH  14  15
ENDBRANCH  12  14
ENDBRANCH   6   7
ENDBRANCH   4   6
ENDBRANCH   1   2
BRANCH   1  25
ATOM     25  C   UNL A   1      32.034  29.627  24.982  1.00  0.00     0.042 C 
BRANCH  25  26
ATOM     26  C   UNL A   1      32.295  29.979  26.455  1.00  0.00     0.118 C 
BRANCH  26  27
ATOM     27  N   UNL A   1      32.125  31.371  26.838  1.00  0.00    -0.352 N 
ATOM     28  C   UNL A   1      33.080  32.202  27.396  1.00  0.00     0.251 C 
ATOM     29  H   UNL A   1      31.236  31.765  26.683  1.00  0.00     0.163 HD
ATOM     30  O   UNL A   1      32.844  33.381  27.617  1.00  0.00    -0.269 OA
BRANCH  28  31
ATOM     31  C   UNL A   1      34.404  31.641  27.750  1.00  0.00     0.039 A 
ATOM     32  C   UNL A   1      35.489  32.493  27.959  1.00  0.00     0.014 A 
ATOM     33  C   UNL A   1      34.567  30.269  27.903  1.00  0.00     0.014 A 
ATOM     34  C   UNL A   1      36.702  31.979  28.451  1.00  0.00     0.010 A 
ATOM     35  C   UNL A   1      35.773  29.776  28.418  1.00  0.00     0.010 A 
ATOM     36  C   UNL A   1      36.834  30.618  28.786  1.00  0.00    -0.014 A 
BRANCH  36  37
ATOM     37  C   UNL A   1      37.978  30.097  29.624  1.00  0.00     0.031 A 
ATOM     38  C   UNL A   1      38.209  30.535  31.058  1.00  0.00     0.074 A 
ATOM     39  C   UNL A   1      38.942  29.337  29.050  1.00  0.00     0.049 A 
ATOM     40  N   UNL A   1      39.233  30.290  31.847  1.00  0.00    -0.248 NA
ATOM     41  C   UNL A   1      37.196  31.406  31.667  1.00  0.00     0.031 C 
ATOM     42  C   UNL A   1      38.980  28.930  27.644  1.00  0.00     0.029 A 
ATOM     43  N   UNL A   1      40.094  28.784  29.572  1.00  0.00    -0.354 N 
ATOM     44  C   UNL A   1      39.007  31.012  33.015  1.00  0.00     0.074 A 
ATOM     45  C   UNL A   1      37.784  31.759  32.801  1.00  0.00     0.031 C 
ATOM     46  C   UNL A   1      40.050  28.151  27.431  1.00  0.00     0.029 A 
ATOM     47  C   UNL A   1      40.819  28.041  28.667  1.00  0.00     0.049 A 
ATOM     48  H   UNL A   1      40.372  28.909  30.508  1.00  0.00     0.167 HD
ATOM     49  C   UNL A   1      39.717  31.032  34.173  1.00  0.00     0.037 A 
ATOM     50  C   UNL A   1      41.970  27.349  28.792  1.00  0.00     0.037 A 
ATOM     51  C   UNL A   1      40.885  30.230  34.442  1.00  0.00     0.049 A 
ATOM     52  C   UNL A   1      42.699  27.318  30.109  1.00  0.00     0.074 A 
ATOM     53  C   UNL A   1      41.578  30.094  35.637  1.00  0.00     0.029 A 
ATOM     54  N   UNL A   1      41.532  29.426  33.519  1.00  0.00    -0.354 N 
ATOM     55  N   UNL A   1      42.403  27.920  31.232  1.00  0.00    -0.248 NA
ATOM     56  C   UNL A   1      43.924  26.503  30.175  1.00  0.00     0.031 C 
ATOM     57  C   UNL A   1      42.667  29.242  35.424  1.00  0.00     0.029 A 
ATOM     58  C   UNL A   1      42.620  28.802  34.113  1.00  0.00     0.049 A 
ATOM     59  H   UNL A   1      41.260  29.313  32.579  1.00  0.00     0.167 HD
ATOM     60  C   UNL A   1      43.374  27.525  32.144  1.00  0.00     0.074 A 
ATOM     61  C   UNL A   1      44.270  26.630  31.448  1.00  0.00     0.031 C 
ATOM     62  C   UNL A   1      43.501  27.880  33.444  1.00  0.00     0.037 A 
BRANCH  49  63
ATOM     63  C   UNL A   1      39.229  31.924  35.285  1.00  0.00     0.064 A 
ATOM     64  C   UNL A   1      38.426  31.431  36.325  1.00  0.00     0.173 A 
ATOM     65  C   UNL A   1      39.630  33.269  35.355  1.00  0.00     0.173 A 
ATOM     66  F   UNL A   1      38.021  30.151  36.316  1.00  0.00    -0.203 F 
ATOM     67  C   UNL A   1      38.002  32.257  37.362  1.00  0.00     0.198 A 
ATOM     68  C   UNL A   1      39.239  34.082  36.417  1.00  0.00     0.198 A 
ATOM     69  F   UNL A   1      40.422  33.790  34.406  1.00  0.00    -0.203 F 
ATOM     70  F   UNL A   1      37.186  31.774  38.309  1.00  0.00    -0.200 F 
ATOM     71  C   UNL A   1      38.416  33.579  37.413  1.00  0.00     0.200 A 
ATOM     72  F   UNL A   1      39.664  35.352  36.480  1.00  0.00    -0.200 F 
ATOM     73  F   UNL A   1      38.019  34.369  38.419  1.00  0.00    -0.200 F 
ENDBRANCH  49  63
BRANCH  50  74
ATOM     74  C   UNL A   1      42.500  26.575  27.637  1.00  0.00     0.064 A 
ATOM     75  C   UNL A   1      42.092  25.251  27.419  1.00  0.00     0.173 A 
ATOM     76  C   UNL A   1      43.433  27.125  26.746  1.00  0.00     0.173 A 
ATOM     77  F   UNL A   1      41.220  24.673  28.259  1.00  0.00    -0.203 F 
ATOM     78  C   UNL A   1      42.618  24.496  26.373  1.00  0.00     0.198 A 
ATOM     79  C   UNL A   1      43.934  26.380  25.681  1.00  0.00     0.198 A 
ATOM     80  F   UNL A   1      43.850  28.390  26.906  1.00  0.00    -0.203 F 
ATOM     81  F   UNL A   1      42.255  23.215  26.225  1.00  0.00    -0.200 F 
ATOM     82  C   UNL A   1      43.535  25.064  25.502  1.00  0.00     0.200 A 
ATOM     83  F   UNL A   1      44.808  26.935  24.831  1.00  0.00    -0.200 F 
ATOM     84  F   UNL A   1      44.042  24.338  24.494  1.00  0.00    -0.200 F 
ENDBRANCH  50  74
BRANCH  62  85
ATOM     85  C   UNL A   1      44.605  27.252  34.247  1.00  0.00     0.064 A 
ATOM     86  C   UNL A   1      45.855  27.867  34.404  1.00  0.00     0.173 A 
ATOM     87  C   UNL A   1      44.381  26.043  34.927  1.00  0.00     0.173 A 
ATOM     88  F   UNL A   1      46.128  29.014  33.765  1.00  0.00    -0.203 F 
ATOM     89  C   UNL A   1      46.844  27.292  35.201  1.00  0.00     0.198 A 
ATOM     90  C   UNL A   1      45.361  25.485  35.745  1.00  0.00     0.198 A 
ATOM     91  F   UNL A   1      43.203  25.412  34.814  1.00  0.00    -0.203 F 
ATOM     92  F   UNL A   1      48.042  27.880  35.310  1.00  0.00    -0.200 F 
ATOM     93  C   UNL A   1      46.592  26.107  35.879  1.00  0.00     0.200 A 
ATOM     94  F   UNL A   1      45.109  24.348  36.409  1.00  0.00    -0.200 F 
ATOM     95  F   UNL A   1      47.537  25.565  36.659  1.00  0.00    -0.200 F 
ENDBRANCH  62  85
ENDBRANCH  36  37
ENDBRANCH  28  31
ENDBRANCH  26  27
ENDBRANCH  25  26
ENDBRANCH   1  25
TORSDOF 13
ENDMDL
MODEL 2
REMARK VINA RESULT:     -13.3      4.240     10.528
REMARK SMILES O=C(CC1CC[NH+](C[C@H]2COc3ccccc3O2)CC1)NCCCNC(=O)c1ccc(-c2c3nc(c(-c4c(F)c(F)c(F)c(F)c4F)c4ccc([nH]4)c(-c4c(F)c(F)c(F)c(F)c4F)c4nc(c(-c5c(F)c(F)c(F)c(F)c5F)c5ccc2[nH]5)C=C4)C=C3)cc1
REMARK SMILES IDX 22 1 21 2 1 3 2 4 3 6 4 7 5 8 20 9 6 10 19 11 7 12 8 14 9 15
REMARK SMILES IDX 10 16 18 17 11 18 17 19 12 20 16 21 13 22 15 23 14 24 23 25
REMARK SMILES IDX 24 26 25 27 26 28 27 30 28 31 29 32 90 33 30 34 89 35 31 36
REMARK SMILES IDX 32 37 33 38 83 39 34 40 88 41 82 42 84 43 35 44 87 45 81 46
REMARK SMILES IDX 80 47 36 49 68 50 48 51 67 52 49 53 52 54 66 55 85 56 50 57
REMARK SMILES IDX 51 58 65 60 86 61 53 62 37 63 38 64 46 65 39 66 40 67 44 68
REMARK SMILES IDX 47 69 41 70 42 71 45 72 43 73 69 74 70 75 78 76 71 77 72 78
REMARK SMILES IDX 76 79 79 80 73 81 74 82 77 83 75 84 54 85 55 86 63 87 56 88
REMARK SMILES IDX 57 89 61 90 64 91 58 92 59 93 62 94 60 95
REMARK H PARENT 21 5 7 13 25 29 84 48 52 59
REMARK Flexibility Score: inf
ROOT
ATOM      1  C   UNL A   1      34.753  21.373  24.696  1.00  0.00     0.117 C 
ENDROOT
BRANCH   1   2
ATOM      2  N   UNL A   1      34.619  22.663  24.039  1.00  0.00    -0.356 N 
ATOM      3  O   UNL A   1      33.275  23.593  25.661  1.00  0.00    -0.275 OA
ATOM      4  C   UNL A   1      33.959  23.717  24.650  1.00  0.00     0.220 C 
ATOM      5  H   UNL A   1      35.004  22.789  23.142  1.00  0.00     0.163 HD
BRANCH   4   6
ATOM      6  C   UNL A   1      34.230  25.080  24.028  1.00  0.00     0.104 C 
BRANCH   6   7
ATOM      7  C   UNL A   1      33.584  25.265  22.632  1.00  0.00     0.009 C 
ATOM      8  C   UNL A   1      33.653  26.724  22.139  1.00  0.00     0.066 C 
ATOM      9  C   UNL A   1      32.109  24.844  22.511  1.00  0.00     0.066 C 
ATOM     10  C   UNL A   1      32.686  27.665  22.873  1.00  0.00     0.262 C 
ATOM     11  C   UNL A   1      31.143  25.760  23.277  1.00  0.00     0.262 C 
ATOM     12  N   UNL A   1      31.779  26.973  23.779  1.00  0.00    -0.332 N 
ATOM     13  H   UNL A   1      32.421  26.573  24.463  1.00  0.00     0.348 HD
BRANCH  12  14
ATOM     14  C   UNL A   1      30.924  27.860  24.574  1.00  0.00     0.311 C 
BRANCH  14  15
ATOM     15  C   UNL A   1      30.145  28.772  23.618  1.00  0.00     0.265 C 
ATOM     16  C   UNL A   1      28.808  28.227  23.126  1.00  0.00     0.281 C 
ATOM     17  O   UNL A   1      29.902  30.074  24.184  1.00  0.00    -0.477 OA
ATOM     18  O   UNL A   1      28.433  28.959  21.945  1.00  0.00    -0.486 OA
ATOM     19  C   UNL A   1      29.199  30.842  23.278  1.00  0.00     0.162 A 
ATOM     20  C   UNL A   1      28.564  30.309  22.151  1.00  0.00     0.161 A 
ATOM     21  C   UNL A   1      29.145  32.209  23.503  1.00  0.00     0.050 A 
ATOM     22  C   UNL A   1      28.027  31.149  21.179  1.00  0.00     0.050 A 
ATOM     23  C   UNL A   1      28.615  33.060  22.531  1.00  0.00     0.004 A 
ATOM     24  C   UNL A   1      28.078  32.531  21.358  1.00  0.00     0.004 A 
ENDBRANCH  14  15
ENDBRANCH  12  14
ENDBRANCH   6   7
ENDBRANCH   4   6
ENDBRANCH   1   2
BRANCH   1  25
ATOM     25  C   UNL A   1      35.942  21.223  25.652  1.00  0.00     0.042 C 
BRANCH  25  26
ATOM     26  C   UNL A   1      37.352  21.601  25.172  1.00  0.00     0.118 C 
BRANCH  26  27
ATOM     27  N   UNL A   1      38.403  20.617  25.376  1.00  0.00    -0.352 N 
ATOM     28  C   UNL A   1      39.564  20.780  26.110  1.00  0.00     0.251 C 
ATOM     29  H   UNL A   1      38.273  19.740  24.947  1.00  0.00     0.163 HD
ATOM     30  O   UNL A   1      40.348  19.856  26.270  1.00  0.00    -0.269 OA
BRANCH  28  31
ATOM     31  C   UNL A   1      39.866  22.108  26.692  1.00  0.00     0.039 A 
ATOM     32  C   UNL A   1      40.917  22.248  27.599  1.00  0.00     0.014 A 
ATOM     33  C   UNL A   1      39.126  23.224  26.317  1.00  0.00     0.014 A 
ATOM     34  C   UNL A   1      41.308  23.529  28.028  1.00  0.00     0.010 A 
ATOM     35  C   UNL A   1      39.545  24.493  26.733  1.00  0.00     0.010 A 
ATOM     36  C   UNL A   1      40.690  24.687  27.522  1.00  0.00    -0.014 A 
BRANCH  36  37
ATOM     37  C   UNL A   1      41.292  26.064  27.684  1.00  0.00     0.031 A 
ATOM     38  C   UNL A   1      42.671  26.422  27.163  1.00  0.00     0.074 A 
ATOM     39  C   UNL A   1      40.670  26.984  28.460  1.00  0.00     0.049 A 
ATOM     40  N   UNL A   1      43.378  27.514  27.361  1.00  0.00    -0.248 NA
ATOM     41  C   UNL A   1      43.375  25.406  26.369  1.00  0.00     0.031 C 
ATOM     42  C   UNL A   1      39.407  26.783  29.171  1.00  0.00     0.029 A 
ATOM     43  N   UNL A   1      41.025  28.274  28.801  1.00  0.00    -0.354 N 
ATOM     44  C   UNL A   1      44.614  27.293  26.762  1.00  0.00     0.074 A 
ATOM     45  C   UNL A   1      44.584  25.936  26.255  1.00  0.00     0.031 C 
ATOM     46  C   UNL A   1      39.064  27.913  29.806  1.00  0.00     0.029 A 
ATOM     47  C   UNL A   1      40.107  28.913  29.604  1.00  0.00     0.049 A 
ATOM     48  H   UNL A   1      41.860  28.698  28.498  1.00  0.00     0.167 HD
ATOM     49  C   UNL A   1      45.665  28.140  26.607  1.00  0.00     0.037 A 
ATOM     50  C   UNL A   1      40.087  30.156  30.130  1.00  0.00     0.037 A 
ATOM     51  C   UNL A   1      45.686  29.520  27.023  1.00  0.00     0.049 A 
ATOM     52  C   UNL A   1      41.226  31.106  29.877  1.00  0.00     0.074 A 
ATOM     53  C   UNL A   1      46.660  30.478  26.780  1.00  0.00     0.029 A 
ATOM     54  N   UNL A   1      44.693  30.148  27.758  1.00  0.00    -0.354 N 
ATOM     55  N   UNL A   1      42.336  30.910  29.212  1.00  0.00    -0.248 NA
ATOM     56  C   UNL A   1      41.108  32.458  30.450  1.00  0.00     0.031 C 
ATOM     57  C   UNL A   1      46.278  31.670  27.403  1.00  0.00     0.029 A 
ATOM     58  C   UNL A   1      45.038  31.473  27.986  1.00  0.00     0.049 A 
ATOM     59  H   UNL A   1      43.865  29.718  28.072  1.00  0.00     0.167 HD
ATOM     60  C   UNL A   1      43.021  32.118  29.248  1.00  0.00     0.074 A 
ATOM     61  C   UNL A   1      42.207  33.045  29.999  1.00  0.00     0.031 C 
ATOM     62  C   UNL A   1      44.222  32.419  28.700  1.00  0.00     0.037 A 
BRANCH  49  63
ATOM     63  C   UNL A   1      46.895  27.618  25.909  1.00  0.00     0.064 A 
ATOM     64  C   UNL A   1      47.040  27.703  24.516  1.00  0.00     0.173 A 
ATOM     65  C   UNL A   1      47.972  27.096  26.644  1.00  0.00     0.173 A 
ATOM     66  F   UNL A   1      46.049  28.203  23.763  1.00  0.00    -0.203 F 
ATOM     67  C   UNL A   1      48.191  27.244  23.882  1.00  0.00     0.198 A 
ATOM     68  C   UNL A   1      49.139  26.676  26.012  1.00  0.00     0.198 A 
ATOM     69  F   UNL A   1      47.903  27.016  27.982  1.00  0.00    -0.203 F 
ATOM     70  F   UNL A   1      48.278  27.282  22.546  1.00  0.00    -0.200 F 
ATOM     71  C   UNL A   1      49.243  26.738  24.630  1.00  0.00     0.200 A 
ATOM     72  F   UNL A   1      50.167  26.215  26.739  1.00  0.00    -0.200 F 
ATOM     73  F   UNL A   1      50.356  26.308  24.020  1.00  0.00    -0.200 F 
ENDBRANCH  49  63
BRANCH  50  74
ATOM     74  C   UNL A   1      38.913  30.606  30.926  1.00  0.00     0.064 A 
ATOM     75  C   UNL A   1      37.818  31.218  30.297  1.00  0.00     0.173 A 
ATOM     76  C   UNL A   1      38.866  30.457  32.319  1.00  0.00     0.173 A 
ATOM     77  F   UNL A   1      37.828  31.405  28.968  1.00  0.00    -0.203 F 
ATOM     78  C   UNL A   1      36.735  31.692  31.034  1.00  0.00     0.198 A 
ATOM     79  C   UNL A   1      37.766  30.902  33.051  1.00  0.00     0.198 A 
ATOM     80  F   UNL A   1      39.883  29.871  32.967  1.00  0.00    -0.203 F 
ATOM     81  F   UNL A   1      35.731  32.326  30.413  1.00  0.00    -0.200 F 
ATOM     82  C   UNL A   1      36.708  31.528  32.410  1.00  0.00     0.200 A 
ATOM     83  F   UNL A   1      37.736  30.729  34.380  1.00  0.00    -0.200 F 
ATOM     84  F   UNL A   1      35.666  31.983  33.120  1.00  0.00    -0.200 F 
ENDBRANCH  50  74
BRANCH  62  85
ATOM     85  C   UNL A   1      44.720  33.833  28.816  1.00  0.00     0.064 A 
ATOM     86  C   UNL A   1      45.569  34.241  29.855  1.00  0.00     0.173 A 
ATOM     87  C   UNL A   1      44.393  34.778  27.829  1.00  0.00     0.173 A 
ATOM     88  F   UNL A   1      45.900  33.385  30.833  1.00  0.00    -0.203 F 
ATOM     89  C   UNL A   1      46.063  35.544  29.909  1.00  0.00     0.198 A 
ATOM     90  C   UNL A   1      44.911  36.070  27.870  1.00  0.00     0.198 A 
ATOM     91  F   UNL A   1      43.587  34.441  26.812  1.00  0.00    -0.203 F 
ATOM     92  F   UNL A   1      46.845  35.921  30.928  1.00  0.00    -0.200 F 
ATOM     93  C   UNL A   1      45.742  36.454  28.910  1.00  0.00     0.200 A 
ATOM     94  F   UNL A   1      44.611  36.941  26.897  1.00  0.00    -0.200 F 
ATOM     95  F   UNL A   1      46.233  37.699  28.954  1.00  0.00    -0.200 F 
ENDBRANCH  62  85
ENDBRANCH  36  37
ENDBRANCH  28  31
ENDBRANCH  26  27
ENDBRANCH  25  26
ENDBRANCH   1  25
TORSDOF 13
ENDMDL
MODEL 3
REMARK VINA RESULT:     -13.2      4.064     10.173
REMARK SMILES O=C(CC1CC[NH+](C[C@H]2COc3ccccc3O2)CC1)NCCCNC(=O)c1ccc(-c2c3nc(c(-c4c(F)c(F)c(F)c(F)c4F)c4ccc([nH]4)c(-c4c(F)c(F)c(F)c(F)c4F)c4nc(c(-c5c(F)c(F)c(F)c(F)c5F)c5ccc2[nH]5)C=C4)C=C3)cc1
REMARK SMILES IDX 22 1 21 2 1 3 2 4 3 6 4 7 5 8 20 9 6 10 19 11 7 12 8 14 9 15
REMARK SMILES IDX 10 16 18 17 11 18 17 19 12 20 16 21 13 22 15 23 14 24 23 25
REMARK SMILES IDX 24 26 25 27 26 28 27 30 28 31 29 32 90 33 30 34 89 35 31 36
REMARK SMILES IDX 32 37 33 38 83 39 34 40 88 41 82 42 84 43 35 44 87 45 81 46
REMARK SMILES IDX 80 47 36 49 68 50 48 51 67 52 49 53 52 54 66 55 85 56 50 57
REMARK SMILES IDX 51 58 65 60 86 61 53 62 37 63 38 64 46 65 39 66 40 67 44 68
REMARK SMILES IDX 47 69 41 70 42 71 45 72 43 73 69 74 70 75 78 76 71 77 72 78
REMARK SMILES IDX 76 79 79 80 73 81 74 82 77 83 75 84 54 85 55 86 63 87 56 88
REMARK SMILES IDX 57 89 61 90 64 91 58 92 59 93 62 94 60 95
REMARK H PARENT 21 5 7 13 25 29 84 48 52 59
REMARK Flexibility Score: inf
ROOT
ATOM      1  C   UNL A   1      34.632  21.046  25.934  1.00  0.00     0.117 C 
ENDROOT
BRANCH   1   2
ATOM      2  N   UNL A   1      33.720  22.087  25.489  1.00  0.00    -0.356 N 
ATOM      3  O   UNL A   1      34.851  23.815  26.506  1.00  0.00    -0.275 OA
ATOM      4  C   UNL A   1      33.978  23.425  25.737  1.00  0.00     0.220 C 
ATOM      5  H   UNL A   1      32.901  21.835  25.003  1.00  0.00     0.163 HD
BRANCH   4   6
ATOM      6  C   UNL A   1      33.161  24.395  24.896  1.00  0.00     0.104 C 
BRANCH   6   7
ATOM      7  C   UNL A   1      32.390  23.715  23.737  1.00  0.00     0.009 C 
ATOM      8  C   UNL A   1      32.992  24.043  22.356  1.00  0.00     0.066 C 
ATOM      9  C   UNL A   1      30.892  24.048  23.637  1.00  0.00     0.066 C 
ATOM     10  C   UNL A   1      32.714  25.481  21.892  1.00  0.00     0.262 C 
ATOM     11  C   UNL A   1      30.610  25.497  23.212  1.00  0.00     0.262 C 
ATOM     12  N   UNL A   1      31.804  26.207  22.767  1.00  0.00    -0.332 N 
ATOM     13  H   UNL A   1      32.330  26.246  23.641  1.00  0.00     0.348 HD
BRANCH  12  14
ATOM     14  C   UNL A   1      31.613  27.615  22.408  1.00  0.00     0.311 C 
BRANCH  14  15
ATOM     15  C   UNL A   1      32.011  28.483  23.608  1.00  0.00     0.265 C 
ATOM     16  C   UNL A   1      30.855  29.079  24.405  1.00  0.00     0.281 C 
ATOM     17  O   UNL A   1      32.859  27.777  24.533  1.00  0.00    -0.477 OA
ATOM     18  O   UNL A   1      31.366  30.179  25.180  1.00  0.00    -0.486 OA
ATOM     19  C   UNL A   1      33.178  28.611  25.586  1.00  0.00     0.162 A 
ATOM     20  C   UNL A   1      32.510  29.812  25.843  1.00  0.00     0.161 A 
ATOM     21  C   UNL A   1      34.228  28.229  26.409  1.00  0.00     0.050 A 
ATOM     22  C   UNL A   1      32.991  30.697  26.805  1.00  0.00     0.050 A 
ATOM     23  C   UNL A   1      34.721  29.112  27.372  1.00  0.00     0.004 A 
ATOM     24  C   UNL A   1      34.118  30.356  27.552  1.00  0.00     0.004 A 
ENDBRANCH  14  15
ENDBRANCH  12  14
ENDBRANCH   6   7
ENDBRANCH   4   6
ENDBRANCH   1   2
BRANCH   1  25
ATOM     25  C   UNL A   1      35.817  20.746  25.009  1.00  0.00     0.042 C 
BRANCH  25  26
ATOM     26  C   UNL A   1      37.194  21.350  25.325  1.00  0.00     0.118 C 
BRANCH  26  27
ATOM     27  N   UNL A   1      38.310  20.425  25.431  1.00  0.00    -0.352 N 
ATOM     28  C   UNL A   1      39.515  20.645  26.073  1.00  0.00     0.251 C 
ATOM     29  H   UNL A   1      38.196  19.547  25.000  1.00  0.00     0.163 HD
ATOM     30  O   UNL A   1      40.359  19.764  26.157  1.00  0.00    -0.269 OA
BRANCH  28  31
ATOM     31  C   UNL A   1      39.789  21.981  26.650  1.00  0.00     0.039 A 
ATOM     32  C   UNL A   1      40.738  22.121  27.664  1.00  0.00     0.014 A 
ATOM     33  C   UNL A   1      39.125  23.103  26.168  1.00  0.00     0.014 A 
ATOM     34  C   UNL A   1      41.116  23.404  28.099  1.00  0.00     0.010 A 
ATOM     35  C   UNL A   1      39.532  24.374  26.595  1.00  0.00     0.010 A 
ATOM     36  C   UNL A   1      40.589  24.562  27.498  1.00  0.00    -0.014 A 
BRANCH  36  37
ATOM     37  C   UNL A   1      41.208  25.927  27.690  1.00  0.00     0.031 A 
ATOM     38  C   UNL A   1      42.605  26.269  27.207  1.00  0.00     0.074 A 
ATOM     39  C   UNL A   1      40.581  26.849  28.460  1.00  0.00     0.049 A 
ATOM     40  N   UNL A   1      43.322  27.348  27.434  1.00  0.00    -0.248 NA
ATOM     41  C   UNL A   1      43.312  25.251  26.420  1.00  0.00     0.031 C 
ATOM     42  C   UNL A   1      39.297  26.660  29.138  1.00  0.00     0.029 A 
ATOM     43  N   UNL A   1      40.947  28.130  28.824  1.00  0.00    -0.354 N 
ATOM     44  C   UNL A   1      44.570  27.114  26.864  1.00  0.00     0.074 A 
ATOM     45  C   UNL A   1      44.532  25.763  26.342  1.00  0.00     0.031 C 
ATOM     46  C   UNL A   1      38.956  27.789  29.776  1.00  0.00     0.029 A 
ATOM     47  C   UNL A   1      40.018  28.775  29.610  1.00  0.00     0.049 A 
ATOM     48  H   UNL A   1      41.796  28.544  28.546  1.00  0.00     0.167 HD
ATOM     49  C   UNL A   1      45.638  27.946  26.744  1.00  0.00     0.037 A 
ATOM     50  C   UNL A   1      40.005  30.012  30.148  1.00  0.00     0.037 A 
ATOM     51  C   UNL A   1      45.669  29.322  27.174  1.00  0.00     0.049 A 
ATOM     52  C   UNL A   1      41.164  30.948  29.934  1.00  0.00     0.074 A 
ATOM     53  C   UNL A   1      46.664  30.267  26.966  1.00  0.00     0.029 A 
ATOM     54  N   UNL A   1      44.668  29.957  27.891  1.00  0.00    -0.354 N 
ATOM     55  N   UNL A   1      42.287  30.741  29.294  1.00  0.00    -0.248 NA
ATOM     56  C   UNL A   1      41.052  32.296  30.518  1.00  0.00     0.031 C 
ATOM     57  C   UNL A   1      46.284  31.457  27.592  1.00  0.00     0.029 A 
ATOM     58  C   UNL A   1      45.027  31.274  28.141  1.00  0.00     0.049 A 
ATOM     59  H   UNL A   1      43.826  29.537  28.180  1.00  0.00     0.167 HD
ATOM     60  C   UNL A   1      42.990  31.937  29.360  1.00  0.00     0.074 A 
ATOM     61  C   UNL A   1      42.171  32.870  30.100  1.00  0.00     0.031 C 
ATOM     62  C   UNL A   1      44.208  32.226  28.845  1.00  0.00     0.037 A 
BRANCH  49  63
ATOM     63  C   UNL A   1      46.876  27.412  26.070  1.00  0.00     0.064 A 
ATOM     64  C   UNL A   1      47.087  27.566  24.692  1.00  0.00     0.173 A 
ATOM     65  C   UNL A   1      47.898  26.808  26.821  1.00  0.00     0.173 A 
ATOM     66  F   UNL A   1      46.150  28.146  23.926  1.00  0.00    -0.203 F 
ATOM     67  C   UNL A   1      48.247  27.094  24.083  1.00  0.00     0.198 A 
ATOM     68  C   UNL A   1      49.076  26.374  26.217  1.00  0.00     0.198 A 
ATOM     69  F   UNL A   1      47.767  26.659  28.148  1.00  0.00    -0.203 F 
ATOM     70  F   UNL A   1      48.394  27.200  22.756  1.00  0.00    -0.200 F 
ATOM     71  C   UNL A   1      49.244  26.506  24.846  1.00  0.00     0.200 A 
ATOM     72  F   UNL A   1      50.051  25.833  26.960  1.00  0.00    -0.200 F 
ATOM     73  F   UNL A   1      50.365  26.064  24.261  1.00  0.00    -0.200 F 
ENDBRANCH  49  63
BRANCH  50  74
ATOM     74  C   UNL A   1      38.818  30.472  30.919  1.00  0.00     0.064 A 
ATOM     75  C   UNL A   1      37.699  31.001  30.257  1.00  0.00     0.173 A 
ATOM     76  C   UNL A   1      38.782  30.417  32.320  1.00  0.00     0.173 A 
ATOM     77  F   UNL A   1      37.697  31.097  28.919  1.00  0.00    -0.203 F 
ATOM     78  C   UNL A   1      36.602  31.484  30.968  1.00  0.00     0.198 A 
ATOM     79  C   UNL A   1      37.670  30.871  33.027  1.00  0.00     0.198 A 
ATOM     80  F   UNL A   1      39.823  29.914  32.999  1.00  0.00    -0.203 F 
ATOM     81  F   UNL A   1      35.574  32.038  30.312  1.00  0.00    -0.200 F 
ATOM     82  C   UNL A   1      36.587  31.413  32.352  1.00  0.00     0.200 A 
ATOM     83  F   UNL A   1      37.651  30.787  34.365  1.00  0.00    -0.200 F 
ATOM     84  F   UNL A   1      35.532  31.877  33.037  1.00  0.00    -0.200 F 
ENDBRANCH  50  74
BRANCH  62  85
ATOM     85  C   UNL A   1      44.724  33.630  28.988  1.00  0.00     0.064 A 
ATOM     86  C   UNL A   1      45.543  34.018  30.059  1.00  0.00     0.173 A 
ATOM     87  C   UNL A   1      44.448  34.587  27.997  1.00  0.00     0.173 A 
ATOM     88  F   UNL A   1      45.826  33.150  31.041  1.00  0.00    -0.203 F 
ATOM     89  C   UNL A   1      46.056  35.312  30.139  1.00  0.00     0.198 A 
ATOM     90  C   UNL A   1      44.985  35.870  28.065  1.00  0.00     0.198 A 
ATOM     91  F   UNL A   1      43.672  34.269  26.950  1.00  0.00    -0.203 F 
ATOM     92  F   UNL A   1      46.808  35.670  31.188  1.00  0.00    -0.200 F 
ATOM     93  C   UNL A   1      45.785  36.233  29.136  1.00  0.00     0.200 A 
ATOM     94  F   UNL A   1      44.732  36.752  27.088  1.00  0.00    -0.200 F 
ATOM     95  F   UNL A   1      46.294  37.470  29.206  1.00  0.00    -0.200 F 
ENDBRANCH  62  85
ENDBRANCH  36  37
ENDBRANCH  28  31
ENDBRANCH  26  27
ENDBRANCH  25  26
ENDBRANCH   1  25
TORSDOF 13
ENDMDL
