MODEL 1
REMARK VINA RESULT:     -13.3      0.000      0.000
REMARK SMILES Cc1cc(Cl)c2c(c1)C=C(C(=O)NCCCNC(=O)c1ccc(-c3c4nc(c(-c5c(F)c(F)c(F)c(F)c5F)c5ccc([nH]5)c(-c5c(F)c(F)c(F)c(F)c5F)c5nc(c(-c6c(F)c(F)c(F)c(F)c6F)c6ccc3[nH]6)C=C5)C=C4)cc1)[C@@H](C(F)(F)F)O2
REMARK SMILES IDX 15 1 14 2 13 3 11 4 12 5 10 7 1 8 2 9 3 10 8 11 4 12 7 13
REMARK SMILES IDX 5 14 6 15 9 16 88 17 83 18 84 19 85 20 86 21 87 22 16 23
REMARK SMILES IDX 17 24 18 25 19 27 20 28 21 29 82 30 22 31 81 32 23 33 24 34
REMARK SMILES IDX 25 35 75 36 26 37 80 38 74 39 76 40 27 41 79 42 73 43 72 44
REMARK SMILES IDX 28 46 60 47 40 48 59 49 41 50 44 51 58 52 77 53 42 54 43 55
REMARK SMILES IDX 57 57 78 58 45 59 29 60 30 61 38 62 31 63 32 64 36 65 39 66
REMARK SMILES IDX 33 67 34 68 37 69 35 70 61 71 62 72 70 73 63 74 64 75 68 76
REMARK SMILES IDX 71 77 65 78 66 79 69 80 67 81 46 82 47 83 55 84 48 85 49 86
REMARK SMILES IDX 53 87 56 88 50 89 51 90 54 91 52 92
REMARK H PARENT 13 6 17 26 76 45 44 56
REMARK Flexibility Score: inf
ROOT
ATOM      1  C   UNL A   1      31.427  32.213  26.624  1.00  0.00     0.042 C 
ENDROOT
BRANCH   1   2
ATOM      2  C   UNL A   1      31.562  30.715  26.388  1.00  0.00     0.118 C 
BRANCH   2   3
ATOM      3  N   UNL A   1      31.303  30.365  25.000  1.00  0.00    -0.352 N 
ATOM      4  C   UNL A   1      31.280  29.244  24.244  1.00  0.00     0.251 C 
ATOM      5  O   UNL A   1      31.024  29.427  23.050  1.00  0.00    -0.270 OA
ATOM      6  H   UNL A   1      31.082  31.161  24.464  1.00  0.00     0.163 HD
BRANCH   4   7
ATOM      7  C   UNL A   1      31.535  27.862  24.742  1.00  0.00     0.067 C 
ATOM      8  C   UNL A   1      36.190  23.891  25.687  1.00  0.00     0.044 C 
ATOM      9  C   UNL A   1      34.782  24.406  25.730  1.00  0.00    -0.049 A 
ATOM     10  C   UNL A   1      33.764  23.603  26.261  1.00  0.00     0.028 A 
ATOM     11  C   UNL A   1      34.471  25.695  25.276  1.00  0.00     0.015 A 
ATOM     12  C   UNL A   1      32.453  24.080  26.328  1.00  0.00     0.084 A 
ATOM     13  C   UNL A   1      33.155  26.171  25.333  1.00  0.00     0.019 A 
ATOM     14  Cl  UNL A   1      31.233  23.054  26.991  1.00  0.00    -0.080 Cl
ATOM     15  C   UNL A   1      32.146  25.359  25.856  1.00  0.00     0.146 A 
ATOM     16  C   UNL A   1      32.829  27.520  24.884  1.00  0.00     0.025 C 
ATOM     17  O   UNL A   1      30.857  25.807  25.968  1.00  0.00    -0.474 OA
ATOM     18  C   UNL A   1      30.461  26.857  25.046  1.00  0.00     0.314 C 
BRANCH  18  19
ATOM     19  C   UNL A   1      29.852  26.230  23.777  1.00  0.00     0.429 C 
ATOM     20  F   UNL A   1      28.653  26.798  23.496  1.00  0.00    -0.167 F 
ATOM     21  F   UNL A   1      30.628  26.416  22.683  1.00  0.00    -0.167 F 
ATOM     22  F   UNL A   1      29.657  24.898  23.894  1.00  0.00    -0.167 F 
ENDBRANCH  18  19
ENDBRANCH   4   7
ENDBRANCH   2   3
ENDBRANCH   1   2
BRANCH   1  23
ATOM     23  C   UNL A   1      32.691  32.814  27.226  1.00  0.00     0.118 C 
BRANCH  23  24
ATOM     24  N   UNL A   1      32.502  34.212  27.603  1.00  0.00    -0.352 N 
ATOM     25  C   UNL A   1      33.020  34.922  28.657  1.00  0.00     0.251 C 
ATOM     26  H   UNL A   1      31.909  34.726  27.009  1.00  0.00     0.163 HD
ATOM     27  O   UNL A   1      32.537  36.010  28.964  1.00  0.00    -0.269 OA
BRANCH  25  28
ATOM     28  C   UNL A   1      34.153  34.376  29.429  1.00  0.00     0.039 A 
ATOM     29  C   UNL A   1      33.908  33.723  30.639  1.00  0.00     0.014 A 
ATOM     30  C   UNL A   1      35.460  34.526  28.961  1.00  0.00     0.014 A 
ATOM     31  C   UNL A   1      34.972  33.155  31.341  1.00  0.00     0.010 A 
ATOM     32  C   UNL A   1      36.503  33.877  29.608  1.00  0.00     0.010 A 
ATOM     33  C   UNL A   1      36.272  33.195  30.809  1.00  0.00    -0.014 A 
BRANCH  33  34
ATOM     34  C   UNL A   1      37.409  32.545  31.505  1.00  0.00     0.031 A 
ATOM     35  C   UNL A   1      38.137  31.406  30.849  1.00  0.00     0.074 A 
ATOM     36  C   UNL A   1      37.743  32.944  32.747  1.00  0.00     0.049 A 
ATOM     37  N   UNL A   1      39.122  30.679  31.310  1.00  0.00    -0.248 NA
ATOM     38  C   UNL A   1      37.678  31.007  29.507  1.00  0.00     0.031 C 
ATOM     39  C   UNL A   1      37.070  34.001  33.505  1.00  0.00     0.029 A 
ATOM     40  N   UNL A   1      38.735  32.511  33.591  1.00  0.00    -0.354 N 
ATOM     41  C   UNL A   1      39.391  29.740  30.325  1.00  0.00     0.074 A 
ATOM     42  C   UNL A   1      38.423  29.938  29.270  1.00  0.00     0.031 C 
ATOM     43  C   UNL A   1      37.695  34.164  34.682  1.00  0.00     0.029 A 
ATOM     44  C   UNL A   1      38.789  33.203  34.777  1.00  0.00     0.049 A 
ATOM     45  H   UNL A   1      39.348  31.774  33.368  1.00  0.00     0.167 HD
ATOM     46  C   UNL A   1      40.383  28.820  30.286  1.00  0.00     0.037 A 
ATOM     47  C   UNL A   1      39.635  33.079  35.816  1.00  0.00     0.037 A 
ATOM     48  C   UNL A   1      41.366  28.656  31.320  1.00  0.00     0.049 A 
ATOM     49  C   UNL A   1      40.727  32.046  35.752  1.00  0.00     0.074 A 
ATOM     50  C   UNL A   1      42.447  27.794  31.352  1.00  0.00     0.029 A 
ATOM     51  N   UNL A   1      41.391  29.379  32.504  1.00  0.00    -0.354 N 
ATOM     52  N   UNL A   1      41.011  31.207  34.786  1.00  0.00    -0.248 NA
ATOM     53  C   UNL A   1      41.615  31.943  36.917  1.00  0.00     0.031 C 
ATOM     54  C   UNL A   1      43.105  27.968  32.572  1.00  0.00     0.029 A 
ATOM     55  C   UNL A   1      42.460  28.968  33.283  1.00  0.00     0.049 A 
ATOM     56  H   UNL A   1      40.745  30.079  32.753  1.00  0.00     0.167 HD
ATOM     57  C   UNL A   1      42.122  30.494  35.213  1.00  0.00     0.074 A 
ATOM     58  C   UNL A   1      42.468  31.005  36.524  1.00  0.00     0.031 C 
ATOM     59  C   UNL A   1      42.792  29.503  34.579  1.00  0.00     0.037 A 
BRANCH  46  60
ATOM     60  C   UNL A   1      40.473  27.944  29.072  1.00  0.00     0.064 A 
ATOM     61  C   UNL A   1      39.736  26.754  28.976  1.00  0.00     0.173 A 
ATOM     62  C   UNL A   1      41.260  28.319  27.974  1.00  0.00     0.173 A 
ATOM     63  F   UNL A   1      38.978  26.345  30.004  1.00  0.00    -0.203 F 
ATOM     64  C   UNL A   1      39.800  25.961  27.834  1.00  0.00     0.198 A 
ATOM     65  C   UNL A   1      41.300  27.539  26.822  1.00  0.00     0.198 A 
ATOM     66  F   UNL A   1      41.981  29.449  28.013  1.00  0.00    -0.203 F 
ATOM     67  F   UNL A   1      39.120  24.807  27.782  1.00  0.00    -0.200 F 
ATOM     68  C   UNL A   1      40.575  26.359  26.754  1.00  0.00     0.200 A 
ATOM     69  F   UNL A   1      42.040  27.929  25.774  1.00  0.00    -0.200 F 
ATOM     70  F   UNL A   1      40.626  25.600  25.650  1.00  0.00    -0.200 F 
ENDBRANCH  46  60
BRANCH  47  71
ATOM     71  C   UNL A   1      39.515  33.999  36.977  1.00  0.00     0.064 A 
ATOM     72  C   UNL A   1      38.779  33.623  38.110  1.00  0.00     0.173 A 
ATOM     73  C   UNL A   1      40.151  35.248  36.997  1.00  0.00     0.173 A 
ATOM     74  F   UNL A   1      38.140  32.445  38.132  1.00  0.00    -0.203 F 
ATOM     75  C   UNL A   1      38.677  34.466  39.215  1.00  0.00     0.198 A 
ATOM     76  C   UNL A   1      40.068  36.081  38.111  1.00  0.00     0.198 A 
ATOM     77  F   UNL A   1      40.872  35.651  35.940  1.00  0.00    -0.203 F 
ATOM     78  F   UNL A   1      37.944  34.094  40.273  1.00  0.00    -0.200 F 
ATOM     79  C   UNL A   1      39.327  35.690  39.218  1.00  0.00     0.200 A 
ATOM     80  F   UNL A   1      40.710  37.257  38.116  1.00  0.00    -0.200 F 
ATOM     81  F   UNL A   1      39.239  36.496  40.285  1.00  0.00    -0.200 F 
ENDBRANCH  47  71
BRANCH  59  82
ATOM     82  C   UNL A   1      43.980  28.909  35.272  1.00  0.00     0.064 A 
ATOM     83  C   UNL A   1      45.267  29.436  35.094  1.00  0.00     0.173 A 
ATOM     84  C   UNL A   1      43.812  27.876  36.208  1.00  0.00     0.173 A 
ATOM     85  F   UNL A   1      45.476  30.416  34.202  1.00  0.00    -0.203 F 
ATOM     86  C   UNL A   1      46.344  28.950  35.827  1.00  0.00     0.198 A 
ATOM     87  C   UNL A   1      44.887  27.411  36.958  1.00  0.00     0.198 A 
ATOM     88  F   UNL A   1      42.598  27.348  36.420  1.00  0.00    -0.203 F 
ATOM     89  F   UNL A   1      47.570  29.455  35.629  1.00  0.00    -0.200 F 
ATOM     90  C   UNL A   1      46.152  27.948  36.767  1.00  0.00     0.200 A 
ATOM     91  F   UNL A   1      44.697  26.454  37.877  1.00  0.00    -0.200 F 
ATOM     92  F   UNL A   1      47.187  27.500  37.493  1.00  0.00    -0.200 F 
ENDBRANCH  59  82
ENDBRANCH  33  34
ENDBRANCH  25  28
ENDBRANCH  23  24
ENDBRANCH   1  23
TORSDOF 11
ENDMDL
MODEL 2
REMARK VINA RESULT:     -13.3      0.231      1.667
REMARK SMILES Cc1cc(Cl)c2c(c1)C=C(C(=O)NCCCNC(=O)c1ccc(-c3c4nc(c(-c5c(F)c(F)c(F)c(F)c5F)c5ccc([nH]5)c(-c5c(F)c(F)c(F)c(F)c5F)c5nc(c(-c6c(F)c(F)c(F)c(F)c6F)c6ccc3[nH]6)C=C5)C=C4)cc1)[C@@H](C(F)(F)F)O2
REMARK SMILES IDX 15 1 14 2 13 3 11 4 12 5 10 7 1 8 2 9 3 10 8 11 4 12 7 13
REMARK SMILES IDX 5 14 6 15 9 16 88 17 83 18 84 19 85 20 86 21 87 22 16 23
REMARK SMILES IDX 17 24 18 25 19 27 20 28 21 29 82 30 22 31 81 32 23 33 24 34
REMARK SMILES IDX 25 35 75 36 26 37 80 38 74 39 76 40 27 41 79 42 73 43 72 44
REMARK SMILES IDX 28 46 60 47 40 48 59 49 41 50 44 51 58 52 77 53 42 54 43 55
REMARK SMILES IDX 57 57 78 58 45 59 29 60 30 61 38 62 31 63 32 64 36 65 39 66
REMARK SMILES IDX 33 67 34 68 37 69 35 70 61 71 62 72 70 73 63 74 64 75 68 76
REMARK SMILES IDX 71 77 65 78 66 79 69 80 67 81 46 82 47 83 55 84 48 85 49 86
REMARK SMILES IDX 53 87 56 88 50 89 51 90 54 91 52 92
REMARK H PARENT 13 6 17 26 76 45 44 56
REMARK Flexibility Score: inf
ROOT
ATOM      1  C   UNL A   1      31.444  32.224  26.608  1.00  0.00     0.042 C 
ENDROOT
BRANCH   1   2
ATOM      2  C   UNL A   1      31.564  30.724  26.377  1.00  0.00     0.118 C 
BRANCH   2   3
ATOM      3  N   UNL A   1      31.282  30.370  24.994  1.00  0.00    -0.352 N 
ATOM      4  C   UNL A   1      31.245  29.246  24.242  1.00  0.00     0.251 C 
ATOM      5  O   UNL A   1      30.970  29.425  23.052  1.00  0.00    -0.270 OA
ATOM      6  H   UNL A   1      31.055  31.164  24.459  1.00  0.00     0.163 HD
BRANCH   4   7
ATOM      7  C   UNL A   1      31.505  27.865  24.741  1.00  0.00     0.067 C 
ATOM      8  C   UNL A   1      36.170  23.900  25.657  1.00  0.00     0.044 C 
ATOM      9  C   UNL A   1      34.762  24.414  25.710  1.00  0.00    -0.049 A 
ATOM     10  C   UNL A   1      33.749  23.612  26.251  1.00  0.00     0.028 A 
ATOM     11  C   UNL A   1      34.447  25.702  25.256  1.00  0.00     0.015 A 
ATOM     12  C   UNL A   1      32.439  24.087  26.327  1.00  0.00     0.084 A 
ATOM     13  C   UNL A   1      33.131  26.177  25.323  1.00  0.00     0.019 A 
ATOM     14  Cl  UNL A   1      31.225  23.061  27.001  1.00  0.00    -0.080 Cl
ATOM     15  C   UNL A   1      32.127  25.365  25.855  1.00  0.00     0.146 A 
ATOM     16  C   UNL A   1      32.800  27.525  24.874  1.00  0.00     0.025 C 
ATOM     17  O   UNL A   1      30.838  25.812  25.976  1.00  0.00    -0.474 OA
ATOM     18  C   UNL A   1      30.434  26.861  25.056  1.00  0.00     0.314 C 
BRANCH  18  19
ATOM     19  C   UNL A   1      29.816  26.230  23.793  1.00  0.00     0.429 C 
ATOM     20  F   UNL A   1      30.633  26.409  22.725  1.00  0.00    -0.167 F 
ATOM     21  F   UNL A   1      29.637  24.893  23.916  1.00  0.00    -0.167 F 
ATOM     22  F   UNL A   1      28.612  26.757  23.480  1.00  0.00    -0.167 F 
ENDBRANCH  18  19
ENDBRANCH   4   7
ENDBRANCH   2   3
ENDBRANCH   1   2
BRANCH   1  23
ATOM     23  C   UNL A   1      32.703  32.810  27.235  1.00  0.00     0.118 C 
BRANCH  23  24
ATOM     24  N   UNL A   1      32.516  34.203  27.631  1.00  0.00    -0.352 N 
ATOM     25  C   UNL A   1      33.043  34.901  28.689  1.00  0.00     0.251 C 
ATOM     26  H   UNL A   1      31.916  34.723  27.049  1.00  0.00     0.163 HD
ATOM     27  O   UNL A   1      32.561  35.984  29.013  1.00  0.00    -0.269 OA
BRANCH  25  28
ATOM     28  C   UNL A   1      34.183  34.346  29.443  1.00  0.00     0.039 A 
ATOM     29  C   UNL A   1      33.950  33.676  30.646  1.00  0.00     0.014 A 
ATOM     30  C   UNL A   1      35.486  34.507  28.967  1.00  0.00     0.014 A 
ATOM     31  C   UNL A   1      35.021  33.101  31.332  1.00  0.00     0.010 A 
ATOM     32  C   UNL A   1      36.536  33.851  29.595  1.00  0.00     0.010 A 
ATOM     33  C   UNL A   1      36.317  33.152  30.789  1.00  0.00    -0.014 A 
BRANCH  33  34
ATOM     34  C   UNL A   1      37.461  32.495  31.466  1.00  0.00     0.031 A 
ATOM     35  C   UNL A   1      38.192  31.373  30.784  1.00  0.00     0.074 A 
ATOM     36  C   UNL A   1      37.800  32.872  32.713  1.00  0.00     0.049 A 
ATOM     37  N   UNL A   1      39.184  30.644  31.227  1.00  0.00    -0.248 NA
ATOM     38  C   UNL A   1      37.728  30.997  29.438  1.00  0.00     0.031 C 
ATOM     39  C   UNL A   1      37.125  33.910  33.495  1.00  0.00     0.029 A 
ATOM     40  N   UNL A   1      38.798  32.428  33.544  1.00  0.00    -0.354 N 
ATOM     41  C   UNL A   1      39.453  29.725  30.222  1.00  0.00     0.074 A 
ATOM     42  C   UNL A   1      38.478  29.938  29.176  1.00  0.00     0.031 C 
ATOM     43  C   UNL A   1      37.756  34.054  34.672  1.00  0.00     0.029 A 
ATOM     44  C   UNL A   1      38.855  33.098  34.742  1.00  0.00     0.049 A 
ATOM     45  H   UNL A   1      39.414  31.699  33.303  1.00  0.00     0.167 HD
ATOM     46  C   UNL A   1      40.449  28.812  30.160  1.00  0.00     0.037 A 
ATOM     47  C   UNL A   1      39.707  32.959  35.775  1.00  0.00     0.037 A 
ATOM     48  C   UNL A   1      41.439  28.633  31.186  1.00  0.00     0.049 A 
ATOM     49  C   UNL A   1      40.804  31.933  35.685  1.00  0.00     0.074 A 
ATOM     50  C   UNL A   1      42.525  27.777  31.195  1.00  0.00     0.029 A 
ATOM     51  N   UNL A   1      41.467  29.334  32.383  1.00  0.00    -0.354 N 
ATOM     52  N   UNL A   1      41.089  31.115  34.701  1.00  0.00    -0.248 NA
ATOM     53  C   UNL A   1      41.699  31.813  36.844  1.00  0.00     0.031 C 
ATOM     54  C   UNL A   1      43.189  27.931  32.415  1.00  0.00     0.029 A 
ATOM     55  C   UNL A   1      42.542  28.914  33.148  1.00  0.00     0.049 A 
ATOM     56  H   UNL A   1      40.818  30.025  32.649  1.00  0.00     0.167 HD
ATOM     57  C   UNL A   1      42.206  30.400  35.109  1.00  0.00     0.074 A 
ATOM     58  C   UNL A   1      42.556  30.888  36.428  1.00  0.00     0.031 C 
ATOM     59  C   UNL A   1      42.878  29.426  34.452  1.00  0.00     0.037 A 
BRANCH  46  60
ATOM     60  C   UNL A   1      40.538  27.959  28.929  1.00  0.00     0.064 A 
ATOM     61  C   UNL A   1      39.801  26.771  28.810  1.00  0.00     0.173 A 
ATOM     62  C   UNL A   1      41.323  28.357  27.837  1.00  0.00     0.173 A 
ATOM     63  F   UNL A   1      39.045  26.342  29.831  1.00  0.00    -0.203 F 
ATOM     64  C   UNL A   1      39.864  26.001  27.653  1.00  0.00     0.198 A 
ATOM     65  C   UNL A   1      41.361  27.599  26.669  1.00  0.00     0.198 A 
ATOM     66  F   UNL A   1      42.044  29.487  27.896  1.00  0.00    -0.203 F 
ATOM     67  F   UNL A   1      39.184  24.848  27.579  1.00  0.00    -0.200 F 
ATOM     68  C   UNL A   1      40.637  26.420  26.580  1.00  0.00     0.200 A 
ATOM     69  F   UNL A   1      42.099  28.011  25.628  1.00  0.00    -0.200 F 
ATOM     70  F   UNL A   1      40.687  25.684  25.461  1.00  0.00    -0.200 F 
ENDBRANCH  46  60
BRANCH  47  71
ATOM     71  C   UNL A   1      39.588  33.855  36.954  1.00  0.00     0.064 A 
ATOM     72  C   UNL A   1      40.197  35.118  36.953  1.00  0.00     0.173 A 
ATOM     73  C   UNL A   1      38.845  33.489  38.086  1.00  0.00     0.173 A 
ATOM     74  F   UNL A   1      40.931  35.506  35.901  1.00  0.00    -0.203 F 
ATOM     75  C   UNL A   1      40.074  35.978  38.043  1.00  0.00     0.198 A 
ATOM     76  C   UNL A   1      38.702  34.359  39.165  1.00  0.00     0.198 A 
ATOM     77  F   UNL A   1      38.238  32.295  38.132  1.00  0.00    -0.203 F 
ATOM     78  F   UNL A   1      40.689  37.168  38.028  1.00  0.00    -0.200 F 
ATOM     79  C   UNL A   1      39.321  35.601  39.144  1.00  0.00     0.200 A 
ATOM     80  F   UNL A   1      37.962  33.998  40.221  1.00  0.00    -0.200 F 
ATOM     81  F   UNL A   1      39.192  36.433  40.187  1.00  0.00    -0.200 F 
ENDBRANCH  47  71
BRANCH  59  82
ATOM     82  C   UNL A   1      44.073  28.825  35.128  1.00  0.00     0.064 A 
ATOM     83  C   UNL A   1      43.951  27.703  35.960  1.00  0.00     0.173 A 
ATOM     84  C   UNL A   1      45.362  29.306  34.850  1.00  0.00     0.173 A 
ATOM     85  F   UNL A   1      42.738  27.216  36.262  1.00  0.00    -0.203 F 
ATOM     86  C   UNL A   1      45.078  27.086  36.493  1.00  0.00     0.198 A 
ATOM     87  C   UNL A   1      46.487  28.670  35.364  1.00  0.00     0.198 A 
ATOM     88  F   UNL A   1      45.528  30.371  34.052  1.00  0.00    -0.203 F 
ATOM     89  F   UNL A   1      44.940  26.025  37.301  1.00  0.00    -0.200 F 
ATOM     90  C   UNL A   1      46.344  27.561  36.184  1.00  0.00     0.200 A 
ATOM     91  F   UNL A   1      47.710  29.120  35.052  1.00  0.00    -0.200 F 
ATOM     92  F   UNL A   1      47.430  26.947  36.676  1.00  0.00    -0.200 F 
ENDBRANCH  59  82
ENDBRANCH  33  34
ENDBRANCH  25  28
ENDBRANCH  23  24
ENDBRANCH   1  23
TORSDOF 11
ENDMDL
MODEL 3
REMARK VINA RESULT:     -13.3      0.742      7.476
REMARK SMILES Cc1cc(Cl)c2c(c1)C=C(C(=O)NCCCNC(=O)c1ccc(-c3c4nc(c(-c5c(F)c(F)c(F)c(F)c5F)c5ccc([nH]5)c(-c5c(F)c(F)c(F)c(F)c5F)c5nc(c(-c6c(F)c(F)c(F)c(F)c6F)c6ccc3[nH]6)C=C5)C=C4)cc1)[C@@H](C(F)(F)F)O2
REMARK SMILES IDX 15 1 14 2 13 3 11 4 12 5 10 7 1 8 2 9 3 10 8 11 4 12 7 13
REMARK SMILES IDX 5 14 6 15 9 16 88 17 83 18 84 19 85 20 86 21 87 22 16 23
REMARK SMILES IDX 17 24 18 25 19 27 20 28 21 29 82 30 22 31 81 32 23 33 24 34
REMARK SMILES IDX 25 35 75 36 26 37 80 38 74 39 76 40 27 41 79 42 73 43 72 44
REMARK SMILES IDX 28 46 60 47 40 48 59 49 41 50 44 51 58 52 77 53 42 54 43 55
REMARK SMILES IDX 57 57 78 58 45 59 29 60 30 61 38 62 31 63 32 64 36 65 39 66
REMARK SMILES IDX 33 67 34 68 37 69 35 70 61 71 62 72 70 73 63 74 64 75 68 76
REMARK SMILES IDX 71 77 65 78 66 79 69 80 67 81 46 82 47 83 55 84 48 85 49 86
REMARK SMILES IDX 53 87 56 88 50 89 51 90 54 91 52 92
REMARK H PARENT 13 6 17 26 76 45 44 56
REMARK Flexibility Score: inf
ROOT
ATOM      1  C   UNL A   1      31.378  32.294  26.574  1.00  0.00     0.042 C 
ENDROOT
BRANCH   1   2
ATOM      2  C   UNL A   1      31.454  30.792  26.338  1.00  0.00     0.118 C 
BRANCH   2   3
ATOM      3  N   UNL A   1      31.105  30.446  24.969  1.00  0.00    -0.352 N 
ATOM      4  C   UNL A   1      31.036  29.327  24.212  1.00  0.00     0.251 C 
ATOM      5  O   UNL A   1      30.701  29.514  23.038  1.00  0.00    -0.270 OA
ATOM      6  H   UNL A   1      30.848  31.243  24.452  1.00  0.00     0.163 HD
BRANCH   4   7
ATOM      7  C   UNL A   1      31.326  27.944  24.687  1.00  0.00     0.067 C 
ATOM      8  C   UNL A   1      36.073  24.055  25.497  1.00  0.00     0.044 C 
ATOM      9  C   UNL A   1      34.656  24.541  25.571  1.00  0.00    -0.049 A 
ATOM     10  C   UNL A   1      33.664  23.712  26.111  1.00  0.00     0.028 A 
ATOM     11  C   UNL A   1      34.313  25.829  25.141  1.00  0.00     0.015 A 
ATOM     12  C   UNL A   1      32.346  24.161  26.207  1.00  0.00     0.084 A 
ATOM     13  C   UNL A   1      32.989  26.279  25.227  1.00  0.00     0.019 A 
ATOM     14  Cl  UNL A   1      31.158  23.103  26.878  1.00  0.00    -0.080 Cl
ATOM     15  C   UNL A   1      32.005  25.440  25.757  1.00  0.00     0.146 A 
ATOM     16  C   UNL A   1      32.628  27.627  24.802  1.00  0.00     0.025 C 
ATOM     17  O   UNL A   1      30.710  25.861  25.898  1.00  0.00    -0.474 OA
ATOM     18  C   UNL A   1      30.277  26.915  24.998  1.00  0.00     0.314 C 
BRANCH  18  19
ATOM     19  C   UNL A   1      29.658  26.292  23.731  1.00  0.00     0.429 C 
ATOM     20  F   UNL A   1      28.426  26.810  23.502  1.00  0.00    -0.167 F 
ATOM     21  F   UNL A   1      30.390  26.542  22.620  1.00  0.00    -0.167 F 
ATOM     22  F   UNL A   1      29.528  24.950  23.818  1.00  0.00    -0.167 F 
ENDBRANCH  18  19
ENDBRANCH   4   7
ENDBRANCH   2   3
ENDBRANCH   1   2
BRANCH   1  23
ATOM     23  C   UNL A   1      32.690  32.858  27.107  1.00  0.00     0.118 C 
BRANCH  23  24
ATOM     24  N   UNL A   1      32.528  34.213  27.626  1.00  0.00    -0.352 N 
ATOM     25  C   UNL A   1      33.092  34.813  28.724  1.00  0.00     0.251 C 
ATOM     26  H   UNL A   1      31.919  34.787  27.107  1.00  0.00     0.163 HD
ATOM     27  O   UNL A   1      32.631  35.868  29.153  1.00  0.00    -0.269 OA
BRANCH  25  28
ATOM     28  C   UNL A   1      34.246  34.186  29.395  1.00  0.00     0.039 A 
ATOM     29  C   UNL A   1      34.029  33.310  30.461  1.00  0.00     0.014 A 
ATOM     30  C   UNL A   1      35.547  34.481  28.980  1.00  0.00     0.014 A 
ATOM     31  C   UNL A   1      35.116  32.673  31.060  1.00  0.00     0.010 A 
ATOM     32  C   UNL A   1      36.617  33.773  29.508  1.00  0.00     0.010 A 
ATOM     33  C   UNL A   1      36.415  32.870  30.560  1.00  0.00    -0.014 A 
BRANCH  33  34
ATOM     34  C   UNL A   1      37.579  32.156  31.138  1.00  0.00     0.031 A 
ATOM     35  C   UNL A   1      38.059  32.499  32.520  1.00  0.00     0.074 A 
ATOM     36  C   UNL A   1      38.233  31.243  30.395  1.00  0.00     0.049 A 
ATOM     37  N   UNL A   1      39.082  32.023  33.181  1.00  0.00    -0.248 NA
ATOM     38  C   UNL A   1      37.309  33.539  33.245  1.00  0.00     0.031 C 
ATOM     39  C   UNL A   1      37.892  30.871  29.020  1.00  0.00     0.029 A 
ATOM     40  N   UNL A   1      39.321  30.460  30.690  1.00  0.00    -0.354 N 
ATOM     41  C   UNL A   1      39.102  32.708  34.388  1.00  0.00     0.074 A 
ATOM     42  C   UNL A   1      38.035  33.682  34.344  1.00  0.00     0.031 C 
ATOM     43  C   UNL A   1      38.724  29.900  28.609  1.00  0.00     0.029 A 
ATOM     44  C   UNL A   1      39.677  29.607  29.674  1.00  0.00     0.049 A 
ATOM     45  H   UNL A   1      39.800  30.506  31.549  1.00  0.00     0.167 HD
ATOM     46  C   UNL A   1      39.913  32.514  35.454  1.00  0.00     0.037 A 
ATOM     47  C   UNL A   1      40.657  28.685  29.616  1.00  0.00     0.037 A 
ATOM     48  C   UNL A   1      40.945  31.516  35.505  1.00  0.00     0.049 A 
ATOM     49  C   UNL A   1      41.548  28.491  30.813  1.00  0.00     0.074 A 
ATOM     50  C   UNL A   1      41.783  31.198  36.558  1.00  0.00     0.029 A 
ATOM     51  N   UNL A   1      41.272  30.667  34.458  1.00  0.00    -0.354 N 
ATOM     52  N   UNL A   1      41.515  29.100  31.973  1.00  0.00    -0.248 NA
ATOM     53  C   UNL A   1      42.610  27.483  30.694  1.00  0.00     0.031 C 
ATOM     54  C   UNL A   1      42.644  30.182  36.136  1.00  0.00     0.029 A 
ATOM     55  C   UNL A   1      42.315  29.837  34.834  1.00  0.00     0.049 A 
ATOM     56  H   UNL A   1      40.830  30.658  33.579  1.00  0.00     0.167 HD
ATOM     57  C   UNL A   1      42.531  28.536  32.730  1.00  0.00     0.074 A 
ATOM     58  C   UNL A   1      43.159  27.526  31.901  1.00  0.00     0.031 C 
ATOM     59  C   UNL A   1      42.913  28.829  33.996  1.00  0.00     0.037 A 
BRANCH  46  60
ATOM     60  C   UNL A   1      39.694  33.375  36.662  1.00  0.00     0.064 A 
ATOM     61  C   UNL A   1      40.355  34.604  36.810  1.00  0.00     0.173 A 
ATOM     62  C   UNL A   1      38.778  32.998  37.655  1.00  0.00     0.173 A 
ATOM     63  F   UNL A   1      41.249  35.004  35.894  1.00  0.00    -0.203 F 
ATOM     64  C   UNL A   1      40.124  35.414  37.919  1.00  0.00     0.198 A 
ATOM     65  C   UNL A   1      38.528  33.823  38.748  1.00  0.00     0.198 A 
ATOM     66  F   UNL A   1      38.117  31.835  37.560  1.00  0.00    -0.203 F 
ATOM     67  F   UNL A   1      40.799  36.563  38.059  1.00  0.00    -0.200 F 
ATOM     68  C   UNL A   1      39.204  35.027  38.882  1.00  0.00     0.200 A 
ATOM     69  F   UNL A   1      37.630  33.455  39.673  1.00  0.00    -0.200 F 
ATOM     70  F   UNL A   1      38.974  35.813  39.943  1.00  0.00    -0.200 F 
ENDBRANCH  46  60
BRANCH  47  71
ATOM     71  C   UNL A   1      40.803  27.841  28.404  1.00  0.00     0.064 A 
ATOM     72  C   UNL A   1      41.623  28.252  27.343  1.00  0.00     0.173 A 
ATOM     73  C   UNL A   1      40.159  26.600  28.288  1.00  0.00     0.173 A 
ATOM     74  F   UNL A   1      42.246  29.437  27.402  1.00  0.00    -0.203 F 
ATOM     75  C   UNL A   1      41.787  27.458  26.209  1.00  0.00     0.198 A 
ATOM     76  C   UNL A   1      40.342  25.796  27.164  1.00  0.00     0.198 A 
ATOM     77  F   UNL A   1      39.369  26.159  29.277  1.00  0.00    -0.203 F 
ATOM     78  F   UNL A   1      42.554  27.888  25.199  1.00  0.00    -0.200 F 
ATOM     79  C   UNL A   1      41.153  26.228  26.124  1.00  0.00     0.200 A 
ATOM     80  F   UNL A   1      39.740  24.602  27.091  1.00  0.00    -0.200 F 
ATOM     81  F   UNL A   1      41.320  25.460  25.039  1.00  0.00    -0.200 F 
ENDBRANCH  47  71
BRANCH  59  82
ATOM     82  C   UNL A   1      44.047  28.046  34.583  1.00  0.00     0.064 A 
ATOM     83  C   UNL A   1      45.362  28.534  34.551  1.00  0.00     0.173 A 
ATOM     84  C   UNL A   1      43.800  26.854  35.281  1.00  0.00     0.173 A 
ATOM     85  F   UNL A   1      45.646  29.664  33.886  1.00  0.00    -0.203 F 
ATOM     86  C   UNL A   1      46.389  27.853  35.196  1.00  0.00     0.198 A 
ATOM     87  C   UNL A   1      44.826  26.191  35.946  1.00  0.00     0.198 A 
ATOM     88  F   UNL A   1      42.557  26.355  35.346  1.00  0.00    -0.203 F 
ATOM     89  F   UNL A   1      47.642  28.326  35.139  1.00  0.00    -0.200 F 
ATOM     90  C   UNL A   1      46.119  26.691  35.903  1.00  0.00     0.200 A 
ATOM     91  F   UNL A   1      44.561  25.077  36.642  1.00  0.00    -0.200 F 
ATOM     92  F   UNL A   1      47.106  26.052  36.548  1.00  0.00    -0.200 F 
ENDBRANCH  59  82
ENDBRANCH  33  34
ENDBRANCH  25  28
ENDBRANCH  23  24
ENDBRANCH   1  23
TORSDOF 11
ENDMDL
