MODEL 1
REMARK VINA RESULT:     -13.2      0.000      0.000
REMARK SMILES Cc1ccc(C(=O)/C(C#N)=C/c2ccccc2OCC(=O)NCCCNC(=O)c2ccc(-c3c4nc(c(-c5c(F)c(F)c(F)c(F)c5F)c5ccc([nH]5)c(-c5c(F)c(F)c(F)c(F)c5F)c5nc(c(-c6c(F)c(F)c(F)c(F)c6F)c6ccc3[nH]6)C=C5)C=C4)cc2)cc1F
REMARK SMILES IDX 20 1 21 2 22 3 19 5 18 6 17 7 12 8 13 9 14 10 16 11 15 12
REMARK SMILES IDX 11 13 8 14 6 15 7 16 5 17 1 18 2 19 3 20 93 21 4 22 92 23
REMARK SMILES IDX 94 24 9 25 10 26 23 27 24 28 25 29 26 30 27 31 28 33 29 34
REMARK SMILES IDX 30 35 91 36 31 37 90 38 32 39 33 40 34 41 84 42 35 43 89 44
REMARK SMILES IDX 83 45 85 46 36 47 88 48 82 49 81 50 37 52 69 53 49 54 68 55
REMARK SMILES IDX 50 56 53 57 67 58 86 59 51 60 52 61 66 63 87 64 54 65 38 66
REMARK SMILES IDX 39 67 47 68 40 69 41 70 45 71 48 72 42 73 43 74 46 75 44 76
REMARK SMILES IDX 70 77 71 78 79 79 72 80 73 81 77 82 80 83 74 84 75 85 78 86
REMARK SMILES IDX 76 87 55 88 56 89 64 90 57 91 58 92 62 93 65 94 59 95 60 96
REMARK SMILES IDX 63 97 61 98
REMARK H PARENT 22 4 26 32 85 51 53 62
REMARK Flexibility Score: inf
ROOT
ATOM      1  C   UNL A   1      34.019  27.680  22.608  1.00  0.00     0.257 C 
ATOM      2  O   UNL A   1      34.404  28.322  21.626  1.00  0.00    -0.271 OA
ATOM      3  N   UNL A   1      34.014  28.489  23.675  1.00  0.00    -0.353 N 
ATOM      4  H   UNL A   1      34.182  29.429  23.438  1.00  0.00     0.163 HD
ENDROOT
BRANCH   1   5
ATOM      5  C   UNL A   1      33.652  26.130  22.439  1.00  0.00     0.329 C 
BRANCH   5   6
ATOM      6  O   UNL A   1      34.363  24.979  22.880  1.00  0.00    -0.483 OA
BRANCH   6   7
ATOM      7  C   UNL A   1      34.529  24.308  24.076  1.00  0.00     0.127 A 
ATOM      8  C   UNL A   1      33.826  24.215  25.317  1.00  0.00     0.018 A 
ATOM      9  C   UNL A   1      34.174  23.204  26.259  1.00  0.00     0.012 A 
ATOM     10  C   UNL A   1      35.197  22.298  26.017  1.00  0.00     0.001 A 
ATOM     11  C   UNL A   1      35.603  23.410  23.914  1.00  0.00     0.047 A 
ATOM     12  C   UNL A   1      35.926  22.417  24.848  1.00  0.00     0.004 A 
BRANCH   8  13
ATOM     13  C   UNL A   1      32.568  24.865  25.753  1.00  0.00     0.035 C 
ATOM     14  C   UNL A   1      31.383  24.317  25.412  1.00  0.00     0.101 C 
BRANCH  14  15
ATOM     15  C   UNL A   1      30.200  25.272  25.665  1.00  0.00     0.203 C 
ATOM     16  O   UNL A   1      29.623  25.230  26.756  1.00  0.00    -0.288 OA
BRANCH  15  17
ATOM     17  C   UNL A   1      29.662  26.295  24.694  1.00  0.00     0.026 A 
ATOM     18  C   UNL A   1      28.199  29.811  22.647  1.00  0.00     0.047 C 
ATOM     19  C   UNL A   1      28.721  28.485  23.126  1.00  0.00    -0.015 A 
ATOM     20  C   UNL A   1      27.865  27.456  23.501  1.00  0.00     0.007 A 
ATOM     21  C   UNL A   1      30.081  28.249  23.296  1.00  0.00     0.126 A 
ATOM     22  C   UNL A   1      28.356  26.329  24.214  1.00  0.00     0.013 A 
ATOM     23  C   UNL A   1      30.551  27.174  24.068  1.00  0.00     0.051 A 
ATOM     24  F   UNL A   1      30.970  29.086  22.743  1.00  0.00    -0.207 F 
ENDBRANCH  15  17
ENDBRANCH  14  15
BRANCH  14  25
ATOM     25  C   UNL A   1      31.574  23.378  24.232  1.00  0.00     0.103 C 
ATOM     26  N   UNL A   1      31.732  22.599  23.253  1.00  0.00    -0.192 NA
ENDBRANCH  14  25
ENDBRANCH   8  13
ENDBRANCH   6   7
ENDBRANCH   5   6
ENDBRANCH   1   5
BRANCH   3  27
ATOM     27  C   UNL A   1      33.822  28.302  25.079  1.00  0.00     0.117 C 
BRANCH  27  28
ATOM     28  C   UNL A   1      33.186  29.490  25.778  1.00  0.00     0.042 C 
BRANCH  28  29
ATOM     29  C   UNL A   1      33.427  29.596  27.280  1.00  0.00     0.118 C 
BRANCH  29  30
ATOM     30  N   UNL A   1      33.860  30.910  27.683  1.00  0.00    -0.352 N 
ATOM     31  C   UNL A   1      34.838  31.203  28.589  1.00  0.00     0.251 C 
ATOM     32  H   UNL A   1      33.404  31.675  27.262  1.00  0.00     0.163 HD
ATOM     33  O   UNL A   1      34.764  32.204  29.275  1.00  0.00    -0.269 OA
BRANCH  31  34
ATOM     34  C   UNL A   1      36.032  30.333  28.625  1.00  0.00     0.039 A 
ATOM     35  C   UNL A   1      36.307  29.625  29.800  1.00  0.00     0.014 A 
ATOM     36  C   UNL A   1      36.954  30.366  27.571  1.00  0.00     0.014 A 
ATOM     37  C   UNL A   1      37.545  29.020  29.954  1.00  0.00     0.010 A 
ATOM     38  C   UNL A   1      38.124  29.677  27.672  1.00  0.00     0.010 A 
ATOM     39  C   UNL A   1      38.446  29.103  28.898  1.00  0.00    -0.014 A 
BRANCH  39  40
ATOM     40  C   UNL A   1      39.815  28.657  28.954  1.00  0.00     0.031 A 
ATOM     41  C   UNL A   1      40.104  27.274  28.599  1.00  0.00     0.074 A 
ATOM     42  C   UNL A   1      40.735  29.629  29.131  1.00  0.00     0.049 A 
ATOM     43  N   UNL A   1      41.112  26.621  29.044  1.00  0.00    -0.248 NA
ATOM     44  C   UNL A   1      39.230  26.483  27.736  1.00  0.00     0.031 C 
ATOM     45  C   UNL A   1      42.162  29.627  28.872  1.00  0.00     0.029 A 
ATOM     46  N   UNL A   1      40.498  30.885  29.713  1.00  0.00    -0.354 N 
ATOM     47  C   UNL A   1      41.229  25.503  28.250  1.00  0.00     0.074 A 
ATOM     48  C   UNL A   1      39.948  25.363  27.598  1.00  0.00     0.031 C 
ATOM     49  C   UNL A   1      42.721  30.648  29.553  1.00  0.00     0.029 A 
ATOM     50  C   UNL A   1      41.683  31.231  30.390  1.00  0.00     0.049 A 
ATOM     51  H   UNL A   1      39.671  31.417  29.658  1.00  0.00     0.167 HD
ATOM     52  C   UNL A   1      42.472  24.972  28.075  1.00  0.00     0.037 A 
ATOM     53  C   UNL A   1      41.664  31.243  31.761  1.00  0.00     0.037 A 
ATOM     54  C   UNL A   1      43.463  25.800  28.767  1.00  0.00     0.049 A 
ATOM     55  C   UNL A   1      42.494  30.133  32.368  1.00  0.00     0.074 A 
ATOM     56  C   UNL A   1      44.309  26.816  28.356  1.00  0.00     0.029 A 
ATOM     57  N   UNL A   1      43.402  25.892  30.140  1.00  0.00    -0.354 N 
ATOM     58  N   UNL A   1      42.993  29.141  31.683  1.00  0.00    -0.248 NA
ATOM     59  C   UNL A   1      42.768  30.011  33.797  1.00  0.00     0.031 C 
ATOM     60  C   UNL A   1      44.769  27.503  29.519  1.00  0.00     0.029 A 
ATOM     61  C   UNL A   1      44.202  26.900  30.628  1.00  0.00     0.049 A 
ATOM     62  H   UNL A   1      42.851  25.305  30.706  1.00  0.00     0.167 HD
ATOM     63  C   UNL A   1      43.619  28.264  32.521  1.00  0.00     0.074 A 
ATOM     64  C   UNL A   1      43.427  28.839  33.842  1.00  0.00     0.031 C 
ATOM     65  C   UNL A   1      44.222  27.127  32.064  1.00  0.00     0.037 A 
BRANCH  52  66
ATOM     66  C   UNL A   1      42.865  23.899  27.091  1.00  0.00     0.064 A 
ATOM     67  C   UNL A   1      42.575  22.546  27.376  1.00  0.00     0.173 A 
ATOM     68  C   UNL A   1      43.501  24.115  25.854  1.00  0.00     0.173 A 
ATOM     69  F   UNL A   1      41.891  22.189  28.472  1.00  0.00    -0.203 F 
ATOM     70  C   UNL A   1      42.960  21.498  26.542  1.00  0.00     0.198 A 
ATOM     71  C   UNL A   1      43.916  23.062  25.031  1.00  0.00     0.198 A 
ATOM     72  F   UNL A   1      43.691  25.344  25.363  1.00  0.00    -0.203 F 
ATOM     73  F   UNL A   1      42.653  20.238  26.877  1.00  0.00    -0.200 F 
ATOM     74  C   UNL A   1      43.650  21.753  25.378  1.00  0.00     0.200 A 
ATOM     75  F   UNL A   1      44.565  23.328  23.888  1.00  0.00    -0.200 F 
ATOM     76  F   UNL A   1      44.030  20.747  24.580  1.00  0.00    -0.200 F 
ENDBRANCH  52  66
BRANCH  53  77
ATOM     77  C   UNL A   1      40.332  31.709  32.275  1.00  0.00     0.064 A 
ATOM     78  C   UNL A   1      39.500  30.735  32.870  1.00  0.00     0.173 A 
ATOM     79  C   UNL A   1      40.135  33.043  32.654  1.00  0.00     0.173 A 
ATOM     80  F   UNL A   1      39.627  29.443  32.524  1.00  0.00    -0.203 F 
ATOM     81  C   UNL A   1      38.679  31.053  33.950  1.00  0.00     0.198 A 
ATOM     82  C   UNL A   1      39.277  33.363  33.709  1.00  0.00     0.198 A 
ATOM     83  F   UNL A   1      40.864  34.022  32.099  1.00  0.00    -0.203 F 
ATOM     84  F   UNL A   1      38.052  30.078  34.623  1.00  0.00    -0.200 F 
ATOM     85  C   UNL A   1      38.598  32.362  34.391  1.00  0.00     0.200 A 
ATOM     86  F   UNL A   1      39.181  34.634  34.125  1.00  0.00    -0.200 F 
ATOM     87  F   UNL A   1      37.896  32.649  35.495  1.00  0.00    -0.200 F 
ENDBRANCH  53  77
BRANCH  65  88
ATOM     88  C   UNL A   1      44.869  26.103  32.954  1.00  0.00     0.064 A 
ATOM     89  C   UNL A   1      46.225  25.772  32.849  1.00  0.00     0.173 A 
ATOM     90  C   UNL A   1      44.123  25.351  33.893  1.00  0.00     0.173 A 
ATOM     91  F   UNL A   1      47.000  26.334  31.910  1.00  0.00    -0.203 F 
ATOM     92  C   UNL A   1      46.815  24.832  33.696  1.00  0.00     0.198 A 
ATOM     93  C   UNL A   1      44.699  24.365  34.685  1.00  0.00     0.198 A 
ATOM     94  F   UNL A   1      42.818  25.563  34.107  1.00  0.00    -0.203 F 
ATOM     95  F   UNL A   1      48.134  24.612  33.623  1.00  0.00    -0.200 F 
ATOM     96  C   UNL A   1      46.052  24.128  34.611  1.00  0.00     0.200 A 
ATOM     97  F   UNL A   1      43.930  23.664  35.532  1.00  0.00    -0.200 F 
ATOM     98  F   UNL A   1      46.619  23.224  35.420  1.00  0.00    -0.200 F 
ENDBRANCH  65  88
ENDBRANCH  39  40
ENDBRANCH  31  34
ENDBRANCH  29  30
ENDBRANCH  28  29
ENDBRANCH  27  28
ENDBRANCH   3  27
TORSDOF 16
ENDMDL
MODEL 2
REMARK VINA RESULT:     -13.0      2.484      5.311
REMARK SMILES Cc1ccc(C(=O)/C(C#N)=C/c2ccccc2OCC(=O)NCCCNC(=O)c2ccc(-c3c4nc(c(-c5c(F)c(F)c(F)c(F)c5F)c5ccc([nH]5)c(-c5c(F)c(F)c(F)c(F)c5F)c5nc(c(-c6c(F)c(F)c(F)c(F)c6F)c6ccc3[nH]6)C=C5)C=C4)cc2)cc1F
REMARK SMILES IDX 20 1 21 2 22 3 19 5 18 6 17 7 12 8 13 9 14 10 16 11 15 12
REMARK SMILES IDX 11 13 8 14 6 15 7 16 5 17 1 18 2 19 3 20 93 21 4 22 92 23
REMARK SMILES IDX 94 24 9 25 10 26 23 27 24 28 25 29 26 30 27 31 28 33 29 34
REMARK SMILES IDX 30 35 91 36 31 37 90 38 32 39 33 40 34 41 84 42 35 43 89 44
REMARK SMILES IDX 83 45 85 46 36 47 88 48 82 49 81 50 37 52 69 53 49 54 68 55
REMARK SMILES IDX 50 56 53 57 67 58 86 59 51 60 52 61 66 63 87 64 54 65 38 66
REMARK SMILES IDX 39 67 47 68 40 69 41 70 45 71 48 72 42 73 43 74 46 75 44 76
REMARK SMILES IDX 70 77 71 78 79 79 72 80 73 81 77 82 80 83 74 84 75 85 78 86
REMARK SMILES IDX 76 87 55 88 56 89 64 90 57 91 58 92 62 93 65 94 59 95 60 96
REMARK SMILES IDX 63 97 61 98
REMARK H PARENT 22 4 26 32 85 51 53 62
REMARK Flexibility Score: inf
ROOT
ATOM      1  C   UNL A   1      32.473  25.678  23.591  1.00  0.00     0.257 C 
ATOM      2  O   UNL A   1      32.161  25.111  22.539  1.00  0.00    -0.271 OA
ATOM      3  N   UNL A   1      32.292  26.996  23.438  1.00  0.00    -0.353 N 
ATOM      4  H   UNL A   1      31.836  27.221  22.595  1.00  0.00     0.163 HD
ENDROOT
BRANCH   1   5
ATOM      5  C   UNL A   1      33.009  24.808  24.825  1.00  0.00     0.329 C 
BRANCH   5   6
ATOM      6  O   UNL A   1      32.808  23.430  25.115  1.00  0.00    -0.483 OA
BRANCH   6   7
ATOM      7  C   UNL A   1      33.506  22.257  24.907  1.00  0.00     0.127 A 
ATOM      8  C   UNL A   1      34.801  21.750  25.241  1.00  0.00     0.018 A 
ATOM      9  C   UNL A   1      35.090  20.365  25.067  1.00  0.00     0.012 A 
ATOM     10  C   UNL A   1      34.149  19.477  24.566  1.00  0.00     0.001 A 
ATOM     11  C   UNL A   1      32.614  21.326  24.337  1.00  0.00     0.047 A 
ATOM     12  C   UNL A   1      32.914  19.967  24.181  1.00  0.00     0.004 A 
BRANCH   8  13
ATOM     13  C   UNL A   1      35.908  22.381  25.996  1.00  0.00     0.035 C 
ATOM     14  C   UNL A   1      36.704  23.280  25.380  1.00  0.00     0.101 C 
BRANCH  14  15
ATOM     15  C   UNL A   1      37.975  23.592  26.196  1.00  0.00     0.203 C 
ATOM     16  O   UNL A   1      38.075  24.693  26.746  1.00  0.00    -0.288 OA
BRANCH  15  17
ATOM     17  C   UNL A   1      39.144  22.661  26.408  1.00  0.00     0.026 A 
ATOM     18  C   UNL A   1      41.940  19.620  27.687  1.00  0.00     0.047 C 
ATOM     19  C   UNL A   1      41.124  20.707  27.044  1.00  0.00    -0.015 A 
ATOM     20  C   UNL A   1      41.318  22.048  27.357  1.00  0.00     0.007 A 
ATOM     21  C   UNL A   1      40.083  20.423  26.166  1.00  0.00     0.126 A 
ATOM     22  C   UNL A   1      40.365  23.027  26.967  1.00  0.00     0.013 A 
ATOM     23  C   UNL A   1      39.104  21.379  25.851  1.00  0.00     0.051 A 
ATOM     24  F   UNL A   1      39.985  19.196  25.635  1.00  0.00    -0.207 F 
ENDBRANCH  15  17
ENDBRANCH  14  15
BRANCH  14  25
ATOM     25  C   UNL A   1      36.592  23.117  23.873  1.00  0.00     0.103 C 
ATOM     26  N   UNL A   1      36.499  22.982  22.623  1.00  0.00    -0.192 NA
ENDBRANCH  14  25
ENDBRANCH   8  13
ENDBRANCH   6   7
ENDBRANCH   5   6
ENDBRANCH   1   5
BRANCH   3  27
ATOM     27  C   UNL A   1      32.609  28.153  24.216  1.00  0.00     0.117 C 
BRANCH  27  28
ATOM     28  C   UNL A   1      34.061  28.227  24.649  1.00  0.00     0.042 C 
BRANCH  28  29
ATOM     29  C   UNL A   1      34.323  28.812  26.032  1.00  0.00     0.118 C 
BRANCH  29  30
ATOM     30  N   UNL A   1      33.754  30.125  26.198  1.00  0.00    -0.352 N 
ATOM     31  C   UNL A   1      33.836  30.914  27.309  1.00  0.00     0.251 C 
ATOM     32  H   UNL A   1      33.254  30.492  25.432  1.00  0.00     0.163 HD
ATOM     33  O   UNL A   1      32.930  31.672  27.596  1.00  0.00    -0.269 OA
BRANCH  31  34
ATOM     34  C   UNL A   1      35.097  30.899  28.079  1.00  0.00     0.039 A 
ATOM     35  C   UNL A   1      35.961  31.994  27.967  1.00  0.00     0.014 A 
ATOM     36  C   UNL A   1      35.490  29.737  28.756  1.00  0.00     0.014 A 
ATOM     37  C   UNL A   1      37.253  31.892  28.458  1.00  0.00     0.010 A 
ATOM     38  C   UNL A   1      36.718  29.676  29.341  1.00  0.00     0.010 A 
ATOM     39  C   UNL A   1      37.616  30.709  29.094  1.00  0.00    -0.014 A 
BRANCH  39  40
ATOM     40  C   UNL A   1      38.953  30.392  29.528  1.00  0.00     0.031 A 
ATOM     41  C   UNL A   1      39.559  29.158  29.048  1.00  0.00     0.074 A 
ATOM     42  C   UNL A   1      39.601  31.382  30.179  1.00  0.00     0.049 A 
ATOM     43  N   UNL A   1      40.471  28.519  29.682  1.00  0.00    -0.248 NA
ATOM     44  C   UNL A   1      39.139  28.502  27.812  1.00  0.00     0.031 C 
ATOM     45  C   UNL A   1      41.018  31.572  30.422  1.00  0.00     0.029 A 
ATOM     46  N   UNL A   1      38.994  32.447  30.863  1.00  0.00    -0.354 N 
ATOM     47  C   UNL A   1      41.009  27.624  28.786  1.00  0.00     0.074 A 
ATOM     48  C   UNL A   1      40.036  27.514  27.725  1.00  0.00     0.031 C 
ATOM     49  C   UNL A   1      41.164  32.462  31.425  1.00  0.00     0.029 A 
ATOM     50  C   UNL A   1      39.836  32.742  31.952  1.00  0.00     0.049 A 
ATOM     51  H   UNL A   1      38.150  32.898  30.629  1.00  0.00     0.167 HD
ATOM     52  C   UNL A   1      42.314  27.265  28.949  1.00  0.00     0.037 A 
ATOM     53  C   UNL A   1      39.391  32.445  33.214  1.00  0.00     0.037 A 
ATOM     54  C   UNL A   1      42.892  28.006  30.072  1.00  0.00     0.049 A 
ATOM     55  C   UNL A   1      40.159  31.309  33.854  1.00  0.00     0.074 A 
ATOM     56  C   UNL A   1      43.647  29.163  30.163  1.00  0.00     0.029 A 
ATOM     57  N   UNL A   1      42.393  27.781  31.337  1.00  0.00    -0.354 N 
ATOM     58  N   UNL A   1      41.001  30.548  33.211  1.00  0.00    -0.248 NA
ATOM     59  C   UNL A   1      39.991  30.896  35.245  1.00  0.00     0.031 C 
ATOM     60  C   UNL A   1      43.604  29.612  31.517  1.00  0.00     0.029 A 
ATOM     61  C   UNL A   1      42.826  28.725  32.240  1.00  0.00     0.049 A 
ATOM     62  H   UNL A   1      41.796  27.033  31.567  1.00  0.00     0.167 HD
ATOM     63  C   UNL A   1      41.469  29.568  34.038  1.00  0.00     0.074 A 
ATOM     64  C   UNL A   1      40.785  29.811  35.298  1.00  0.00     0.031 C 
ATOM     65  C   UNL A   1      42.361  28.625  33.614  1.00  0.00     0.037 A 
BRANCH  52  66
ATOM     66  C   UNL A   1      43.163  26.482  27.979  1.00  0.00     0.064 A 
ATOM     67  C   UNL A   1      43.729  27.133  26.860  1.00  0.00     0.173 A 
ATOM     68  C   UNL A   1      43.482  25.115  28.086  1.00  0.00     0.173 A 
ATOM     69  F   UNL A   1      43.592  28.453  26.671  1.00  0.00    -0.203 F 
ATOM     70  C   UNL A   1      44.475  26.463  25.892  1.00  0.00     0.198 A 
ATOM     71  C   UNL A   1      44.203  24.435  27.098  1.00  0.00     0.198 A 
ATOM     72  F   UNL A   1      43.165  24.399  29.170  1.00  0.00    -0.203 F 
ATOM     73  F   UNL A   1      44.980  27.144  24.855  1.00  0.00    -0.200 F 
ATOM     74  C   UNL A   1      44.694  25.107  25.999  1.00  0.00     0.200 A 
ATOM     75  F   UNL A   1      44.430  23.119  27.229  1.00  0.00    -0.200 F 
ATOM     76  F   UNL A   1      45.402  24.459  25.064  1.00  0.00    -0.200 F 
ENDBRANCH  52  66
BRANCH  53  77
ATOM     77  C   UNL A   1      37.907  32.655  33.322  1.00  0.00     0.064 A 
ATOM     78  C   UNL A   1      37.458  33.988  33.451  1.00  0.00     0.173 A 
ATOM     79  C   UNL A   1      37.009  31.721  32.789  1.00  0.00     0.173 A 
ATOM     80  F   UNL A   1      38.268  34.920  33.980  1.00  0.00    -0.203 F 
ATOM     81  C   UNL A   1      36.263  34.404  32.869  1.00  0.00     0.198 A 
ATOM     82  C   UNL A   1      35.791  32.137  32.245  1.00  0.00     0.198 A 
ATOM     83  F   UNL A   1      37.358  30.432  32.675  1.00  0.00    -0.203 F 
ATOM     84  F   UNL A   1      35.955  35.708  32.833  1.00  0.00    -0.200 F 
ATOM     85  C   UNL A   1      35.449  33.482  32.233  1.00  0.00     0.200 A 
ATOM     86  F   UNL A   1      34.991  31.242  31.647  1.00  0.00    -0.200 F 
ATOM     87  F   UNL A   1      34.357  33.899  31.579  1.00  0.00    -0.200 F 
ENDBRANCH  53  77
BRANCH  65  88
ATOM     88  C   UNL A   1      42.857  27.493  34.470  1.00  0.00     0.064 A 
ATOM     89  C   UNL A   1      44.182  27.416  34.914  1.00  0.00     0.173 A 
ATOM     90  C   UNL A   1      42.032  26.392  34.805  1.00  0.00     0.173 A 
ATOM     91  F   UNL A   1      45.083  28.342  34.554  1.00  0.00    -0.203 F 
ATOM     92  C   UNL A   1      44.622  26.368  35.724  1.00  0.00     0.198 A 
ATOM     93  C   UNL A   1      42.492  25.314  35.550  1.00  0.00     0.198 A 
ATOM     94  F   UNL A   1      40.740  26.331  34.453  1.00  0.00    -0.203 F 
ATOM     95  F   UNL A   1      45.873  26.381  36.202  1.00  0.00    -0.200 F 
ATOM     96  C   UNL A   1      43.779  25.316  36.039  1.00  0.00     0.200 A 
ATOM     97  F   UNL A   1      41.670  24.285  35.805  1.00  0.00    -0.200 F 
ATOM     98  F   UNL A   1      44.203  24.310  36.813  1.00  0.00    -0.200 F 
ENDBRANCH  65  88
ENDBRANCH  39  40
ENDBRANCH  31  34
ENDBRANCH  29  30
ENDBRANCH  28  29
ENDBRANCH  27  28
ENDBRANCH   3  27
TORSDOF 16
ENDMDL
MODEL 3
REMARK VINA RESULT:     -12.9      3.799      9.474
REMARK SMILES Cc1ccc(C(=O)/C(C#N)=C/c2ccccc2OCC(=O)NCCCNC(=O)c2ccc(-c3c4nc(c(-c5c(F)c(F)c(F)c(F)c5F)c5ccc([nH]5)c(-c5c(F)c(F)c(F)c(F)c5F)c5nc(c(-c6c(F)c(F)c(F)c(F)c6F)c6ccc3[nH]6)C=C5)C=C4)cc2)cc1F
REMARK SMILES IDX 20 1 21 2 22 3 19 5 18 6 17 7 12 8 13 9 14 10 16 11 15 12
REMARK SMILES IDX 11 13 8 14 6 15 7 16 5 17 1 18 2 19 3 20 93 21 4 22 92 23
REMARK SMILES IDX 94 24 9 25 10 26 23 27 24 28 25 29 26 30 27 31 28 33 29 34
REMARK SMILES IDX 30 35 91 36 31 37 90 38 32 39 33 40 34 41 84 42 35 43 89 44
REMARK SMILES IDX 83 45 85 46 36 47 88 48 82 49 81 50 37 52 69 53 49 54 68 55
REMARK SMILES IDX 50 56 53 57 67 58 86 59 51 60 52 61 66 63 87 64 54 65 38 66
REMARK SMILES IDX 39 67 47 68 40 69 41 70 45 71 48 72 42 73 43 74 46 75 44 76
REMARK SMILES IDX 70 77 71 78 79 79 72 80 73 81 77 82 80 83 74 84 75 85 78 86
REMARK SMILES IDX 76 87 55 88 56 89 64 90 57 91 58 92 62 93 65 94 59 95 60 96
REMARK SMILES IDX 63 97 61 98
REMARK H PARENT 22 4 26 32 85 51 53 62
REMARK Flexibility Score: inf
ROOT
ATOM      1  C   UNL A   1      34.943  22.416  26.521  1.00  0.00     0.257 C 
ATOM      2  O   UNL A   1      34.254  21.556  27.078  1.00  0.00    -0.271 OA
ATOM      3  N   UNL A   1      36.060  21.840  26.059  1.00  0.00    -0.353 N 
ATOM      4  H   UNL A   1      36.040  20.859  26.136  1.00  0.00     0.163 HD
ENDROOT
BRANCH   1   5
ATOM      5  C   UNL A   1      34.425  23.932  26.481  1.00  0.00     0.329 C 
BRANCH   5   6
ATOM      6  O   UNL A   1      33.095  24.432  26.417  1.00  0.00    -0.483 OA
BRANCH   6   7
ATOM      7  C   UNL A   1      32.184  24.713  25.418  1.00  0.00     0.127 A 
ATOM      8  C   UNL A   1      31.467  23.968  24.431  1.00  0.00     0.018 A 
ATOM      9  C   UNL A   1      30.398  24.580  23.713  1.00  0.00     0.012 A 
ATOM     10  C   UNL A   1      30.029  25.900  23.933  1.00  0.00     0.001 A 
ATOM     11  C   UNL A   1      31.815  26.068  25.548  1.00  0.00     0.047 A 
ATOM     12  C   UNL A   1      30.756  26.650  24.839  1.00  0.00     0.004 A 
BRANCH   8  13
ATOM     13  C   UNL A   1      31.467  22.515  24.145  1.00  0.00     0.035 C 
ATOM     14  C   UNL A   1      32.575  21.939  23.633  1.00  0.00     0.101 C 
BRANCH  14  15
ATOM     15  C   UNL A   1      32.305  20.515  23.105  1.00  0.00     0.203 C 
ATOM     16  O   UNL A   1      31.778  20.380  21.996  1.00  0.00    -0.288 OA
BRANCH  15  17
ATOM     17  C   UNL A   1      32.637  19.227  23.818  1.00  0.00     0.026 A 
ATOM     18  C   UNL A   1      32.811  15.220  25.435  1.00  0.00     0.047 C 
ATOM     19  C   UNL A   1      32.988  16.636  24.962  1.00  0.00    -0.015 A 
ATOM     20  C   UNL A   1      32.624  17.722  25.751  1.00  0.00     0.007 A 
ATOM     21  C   UNL A   1      33.449  16.931  23.683  1.00  0.00     0.126 A 
ATOM     22  C   UNL A   1      32.528  19.024  25.191  1.00  0.00     0.013 A 
ATOM     23  C   UNL A   1      33.278  18.204  23.113  1.00  0.00     0.051 A 
ATOM     24  F   UNL A   1      34.038  15.971  22.956  1.00  0.00    -0.207 F 
ENDBRANCH  15  17
ENDBRANCH  14  15
BRANCH  14  25
ATOM     25  C   UNL A   1      33.463  23.001  23.005  1.00  0.00     0.103 C 
ATOM     26  N   UNL A   1      34.199  23.883  22.485  1.00  0.00    -0.192 NA
ENDBRANCH  14  25
ENDBRANCH   8  13
ENDBRANCH   6   7
ENDBRANCH   5   6
ENDBRANCH   1   5
BRANCH   3  27
ATOM     27  C   UNL A   1      37.275  22.321  25.480  1.00  0.00     0.117 C 
BRANCH  27  28
ATOM     28  C   UNL A   1      38.457  21.387  25.663  1.00  0.00     0.042 C 
BRANCH  28  29
ATOM     29  C   UNL A   1      39.647  21.950  26.432  1.00  0.00     0.118 C 
BRANCH  29  30
ATOM     30  N   UNL A   1      40.851  21.182  26.236  1.00  0.00    -0.352 N 
ATOM     31  C   UNL A   1      42.113  21.675  26.068  1.00  0.00     0.251 C 
ATOM     32  H   UNL A   1      40.754  20.202  26.222  1.00  0.00     0.163 HD
ATOM     33  O   UNL A   1      42.919  21.084  25.376  1.00  0.00    -0.269 OA
BRANCH  31  34
ATOM     34  C   UNL A   1      42.497  22.875  26.839  1.00  0.00     0.039 A 
ATOM     35  C   UNL A   1      42.528  22.791  28.236  1.00  0.00     0.014 A 
ATOM     36  C   UNL A   1      42.648  24.107  26.188  1.00  0.00     0.014 A 
ATOM     37  C   UNL A   1      42.622  23.953  28.984  1.00  0.00     0.010 A 
ATOM     38  C   UNL A   1      42.857  25.237  26.918  1.00  0.00     0.010 A 
ATOM     39  C   UNL A   1      42.736  25.160  28.301  1.00  0.00    -0.014 A 
BRANCH  39  40
ATOM     40  C   UNL A   1      42.699  26.458  28.924  1.00  0.00     0.031 A 
ATOM     41  C   UNL A   1      41.474  27.240  28.815  1.00  0.00     0.074 A 
ATOM     42  C   UNL A   1      43.740  26.742  29.736  1.00  0.00     0.049 A 
ATOM     43  N   UNL A   1      41.440  28.519  28.870  1.00  0.00    -0.248 NA
ATOM     44  C   UNL A   1      40.168  26.630  28.578  1.00  0.00     0.031 C 
ATOM     45  C   UNL A   1      43.867  27.736  30.784  1.00  0.00     0.029 A 
ATOM     46  N   UNL A   1      45.014  26.153  29.671  1.00  0.00    -0.354 N 
ATOM     47  C   UNL A   1      40.121  28.862  29.062  1.00  0.00     0.074 A 
ATOM     48  C   UNL A   1      39.364  27.694  28.680  1.00  0.00     0.031 C 
ATOM     49  C   UNL A   1      45.178  27.916  31.045  1.00  0.00     0.029 A 
ATOM     50  C   UNL A   1      45.926  27.154  30.056  1.00  0.00     0.049 A 
ATOM     51  H   UNL A   1      45.226  25.228  29.409  1.00  0.00     0.167 HD
ATOM     52  C   UNL A   1      39.854  30.016  29.736  1.00  0.00     0.037 A 
ATOM     53  C   UNL A   1      46.758  27.674  29.099  1.00  0.00     0.037 A 
ATOM     54  C   UNL A   1      41.108  30.630  30.179  1.00  0.00     0.049 A 
ATOM     55  C   UNL A   1      46.433  29.111  28.756  1.00  0.00     0.074 A 
ATOM     56  C   UNL A   1      41.814  30.604  31.370  1.00  0.00     0.029 A 
ATOM     57  N   UNL A   1      41.996  31.077  29.225  1.00  0.00    -0.354 N 
ATOM     58  N   UNL A   1      45.354  29.726  29.154  1.00  0.00    -0.248 NA
ATOM     59  C   UNL A   1      47.256  29.945  27.885  1.00  0.00     0.031 C 
ATOM     60  C   UNL A   1      43.139  31.067  31.108  1.00  0.00     0.029 A 
ATOM     61  C   UNL A   1      43.228  31.373  29.761  1.00  0.00     0.049 A 
ATOM     62  H   UNL A   1      41.774  31.175  28.270  1.00  0.00     0.167 HD
ATOM     63  C   UNL A   1      45.307  30.980  28.617  1.00  0.00     0.074 A 
ATOM     64  C   UNL A   1      46.510  31.062  27.805  1.00  0.00     0.031 C 
ATOM     65  C   UNL A   1      44.274  31.839  28.865  1.00  0.00     0.037 A 
BRANCH  52  66
ATOM     66  C   UNL A   1      38.511  30.473  30.246  1.00  0.00     0.064 A 
ATOM     67  C   UNL A   1      37.521  30.897  29.331  1.00  0.00     0.173 A 
ATOM     68  C   UNL A   1      38.113  30.505  31.596  1.00  0.00     0.173 A 
ATOM     69  F   UNL A   1      37.716  30.838  28.006  1.00  0.00    -0.203 F 
ATOM     70  C   UNL A   1      36.279  31.387  29.733  1.00  0.00     0.198 A 
ATOM     71  C   UNL A   1      36.880  31.026  32.003  1.00  0.00     0.198 A 
ATOM     72  F   UNL A   1      38.870  29.980  32.567  1.00  0.00    -0.203 F 
ATOM     73  F   UNL A   1      35.390  31.775  28.810  1.00  0.00    -0.200 F 
ATOM     74  C   UNL A   1      35.965  31.472  31.072  1.00  0.00     0.200 A 
ATOM     75  F   UNL A   1      36.579  31.079  33.309  1.00  0.00    -0.200 F 
ATOM     76  F   UNL A   1      34.777  31.953  31.460  1.00  0.00    -0.200 F 
ENDBRANCH  52  66
BRANCH  53  77
ATOM     77  C   UNL A   1      47.162  26.618  28.109  1.00  0.00     0.064 A 
ATOM     78  C   UNL A   1      46.566  26.678  26.830  1.00  0.00     0.173 A 
ATOM     79  C   UNL A   1      48.402  25.974  28.212  1.00  0.00     0.173 A 
ATOM     80  F   UNL A   1      45.365  27.260  26.677  1.00  0.00    -0.203 F 
ATOM     81  C   UNL A   1      47.277  26.318  25.687  1.00  0.00     0.198 A 
ATOM     82  C   UNL A   1      49.093  25.574  27.065  1.00  0.00     0.198 A 
ATOM     83  F   UNL A   1      49.005  25.847  29.403  1.00  0.00    -0.203 F 
ATOM     84  F   UNL A   1      46.764  26.570  24.474  1.00  0.00    -0.200 F 
ATOM     85  C   UNL A   1      48.555  25.802  25.806  1.00  0.00     0.200 A 
ATOM     86  F   UNL A   1      50.323  25.054  27.178  1.00  0.00    -0.200 F 
ATOM     87  F   UNL A   1      49.278  25.560  24.705  1.00  0.00    -0.200 F 
ENDBRANCH  53  77
BRANCH  65  88
ATOM     88  C   UNL A   1      44.150  33.204  28.248  1.00  0.00     0.064 A 
ATOM     89  C   UNL A   1      44.220  34.376  29.009  1.00  0.00     0.173 A 
ATOM     90  C   UNL A   1      43.867  33.379  26.872  1.00  0.00     0.173 A 
ATOM     91  F   UNL A   1      44.362  34.325  30.341  1.00  0.00    -0.203 F 
ATOM     92  C   UNL A   1      44.121  35.638  28.418  1.00  0.00     0.198 A 
ATOM     93  C   UNL A   1      43.698  34.634  26.299  1.00  0.00     0.198 A 
ATOM     94  F   UNL A   1      43.778  32.349  26.021  1.00  0.00    -0.203 F 
ATOM     95  F   UNL A   1      44.285  36.735  29.169  1.00  0.00    -0.200 F 
ATOM     96  C   UNL A   1      43.858  35.766  27.065  1.00  0.00     0.200 A 
ATOM     97  F   UNL A   1      43.398  34.732  24.995  1.00  0.00    -0.200 F 
ATOM     98  F   UNL A   1      43.760  36.976  26.501  1.00  0.00    -0.200 F 
ENDBRANCH  65  88
ENDBRANCH  39  40
ENDBRANCH  31  34
ENDBRANCH  29  30
ENDBRANCH  28  29
ENDBRANCH  27  28
ENDBRANCH   3  27
TORSDOF 16
ENDMDL
