MODEL 1
REMARK VINA RESULT:     -14.2      0.000      0.000
REMARK SMILES O=C(Cn1c(-c2nc(-c3ccc(C(F)(F)F)cc3)no2)cc2ccccc21)NCCCNC(=O)c1ccc(-c2c3nc(c(-c4c(F)c(F)c(F)c(F)c4F)c4ccc([nH]4)c(-c4c(F)c(F)c(F)c(F)c4F)c4nc(c(-c5c(F)c(F)c(F)c(F)c5F)c5ccc2[nH]5)C=C4)C=C3)cc1
REMARK SMILES IDX 29 1 28 2 1 3 2 4 3 6 4 7 5 8 27 9 21 10 22 11 26 12 23 13
REMARK SMILES IDX 25 14 24 15 6 16 7 17 20 18 8 19 19 20 9 21 10 22 18 23
REMARK SMILES IDX 11 24 17 25 12 26 13 27 14 28 15 29 16 30 30 31 31 32 32 33
REMARK SMILES IDX 33 34 34 36 35 37 36 38 97 39 37 40 96 41 38 42 39 43 40 44
REMARK SMILES IDX 90 45 41 46 95 47 89 48 91 49 42 50 94 51 88 52 87 53 43 55
REMARK SMILES IDX 75 56 55 57 74 58 56 59 59 60 73 61 92 62 57 63 58 64 72 66
REMARK SMILES IDX 93 67 60 68 44 69 45 70 53 71 46 72 47 73 51 74 54 75 48 76
REMARK SMILES IDX 49 77 52 78 50 79 76 80 77 81 85 82 78 83 79 84 83 85 86 86
REMARK SMILES IDX 80 87 81 88 84 89 82 90 61 91 62 92 70 93 63 94 64 95 68 96
REMARK SMILES IDX 71 97 65 98 66 99 69 100 67 101
REMARK H PARENT 28 5 32 35 91 54 59 65
REMARK Flexibility Score: inf
ROOT
ATOM      1  C   UNL A   1      38.435  21.837  25.421  1.00  0.00     0.117 C 
ENDROOT
BRANCH   1   2
ATOM      2  N   UNL A   1      37.137  21.505  25.977  1.00  0.00    -0.354 N 
ATOM      3  O   UNL A   1      35.820  22.197  24.230  1.00  0.00    -0.273 OA
ATOM      4  C   UNL A   1      35.928  21.667  25.336  1.00  0.00     0.239 C 
ATOM      5  H   UNL A   1      37.118  21.135  26.889  1.00  0.00     0.163 HD
BRANCH   4   6
ATOM      6  C   UNL A   1      34.728  21.157  26.128  1.00  0.00     0.222 C 
BRANCH   6   7
ATOM      7  N   UNL A   1      33.643  20.688  25.270  1.00  0.00    -0.327 N 
ATOM      8  C   UNL A   1      32.478  21.376  24.974  1.00  0.00     0.109 A 
ATOM      9  C   UNL A   1      33.644  19.461  24.611  1.00  0.00     0.049 A 
ATOM     10  C   UNL A   1      31.799  20.635  24.025  1.00  0.00     0.042 A 
ATOM     11  C   UNL A   1      32.567  19.481  23.722  1.00  0.00     0.000 A 
ATOM     12  C   UNL A   1      34.504  18.349  24.680  1.00  0.00     0.027 A 
ATOM     13  C   UNL A   1      32.434  18.437  22.785  1.00  0.00     0.010 A 
ATOM     14  C   UNL A   1      34.375  17.341  23.722  1.00  0.00     0.002 A 
ATOM     15  C   UNL A   1      33.367  17.396  22.768  1.00  0.00     0.001 A 
BRANCH   8  16
ATOM     16  C   UNL A   1      32.127  22.670  25.479  1.00  0.00     0.274 A 
ATOM     17  N   UNL A   1      32.835  23.775  25.321  1.00  0.00    -0.185 NA
ATOM     18  O   UNL A   1      31.011  22.871  26.245  1.00  0.00    -0.332 OA
ATOM     19  C   UNL A   1      32.122  24.696  26.058  1.00  0.00     0.202 A 
ATOM     20  N   UNL A   1      31.016  24.200  26.633  1.00  0.00    -0.057 NA
BRANCH  19  21
ATOM     21  C   UNL A   1      32.465  26.104  26.212  1.00  0.00     0.023 A 
ATOM     22  C   UNL A   1      33.702  26.562  25.735  1.00  0.00     0.013 A 
ATOM     23  C   UNL A   1      31.677  26.959  26.990  1.00  0.00     0.013 A 
ATOM     24  C   UNL A   1      34.184  27.822  26.099  1.00  0.00     0.014 A 
ATOM     25  C   UNL A   1      32.167  28.220  27.366  1.00  0.00     0.014 A 
ATOM     26  C   UNL A   1      33.441  28.647  26.955  1.00  0.00     0.056 A 
BRANCH  26  27
ATOM     27  C   UNL A   1      34.053  29.930  27.472  1.00  0.00     0.416 C 
ATOM     28  F   UNL A   1      33.106  30.855  27.800  1.00  0.00    -0.166 F 
ATOM     29  F   UNL A   1      34.795  29.745  28.599  1.00  0.00    -0.166 F 
ATOM     30  F   UNL A   1      34.874  30.546  26.577  1.00  0.00    -0.166 F 
ENDBRANCH  26  27
ENDBRANCH  19  21
ENDBRANCH   8  16
ENDBRANCH   6   7
ENDBRANCH   4   6
ENDBRANCH   1   2
BRANCH   1  31
ATOM     31  C   UNL A   1      39.411  22.324  26.499  1.00  0.00     0.042 C 
BRANCH  31  32
ATOM     32  C   UNL A   1      40.815  21.710  26.434  1.00  0.00     0.118 C 
BRANCH  32  33
ATOM     33  N   UNL A   1      41.726  22.360  25.516  1.00  0.00    -0.352 N 
ATOM     34  C   UNL A   1      42.388  23.558  25.533  1.00  0.00     0.251 C 
ATOM     35  H   UNL A   1      41.910  21.828  24.708  1.00  0.00     0.163 HD
ATOM     36  O   UNL A   1      43.357  23.659  24.778  1.00  0.00    -0.269 OA
BRANCH  34  37
ATOM     37  C   UNL A   1      41.955  24.756  26.303  1.00  0.00     0.039 A 
ATOM     38  C   UNL A   1      41.032  25.706  25.869  1.00  0.00     0.014 A 
ATOM     39  C   UNL A   1      42.632  24.982  27.519  1.00  0.00     0.014 A 
ATOM     40  C   UNL A   1      40.892  26.906  26.554  1.00  0.00     0.010 A 
ATOM     41  C   UNL A   1      42.480  26.172  28.220  1.00  0.00     0.010 A 
ATOM     42  C   UNL A   1      41.655  27.159  27.699  1.00  0.00    -0.014 A 
BRANCH  42  43
ATOM     43  C   UNL A   1      41.449  28.438  28.374  1.00  0.00     0.031 A 
ATOM     44  C   UNL A   1      42.525  29.429  28.101  1.00  0.00     0.074 A 
ATOM     45  C   UNL A   1      40.362  28.726  29.122  1.00  0.00     0.049 A 
ATOM     46  N   UNL A   1      43.338  29.967  28.949  1.00  0.00    -0.248 NA
ATOM     47  C   UNL A   1      42.829  29.756  26.696  1.00  0.00     0.031 C 
ATOM     48  C   UNL A   1      39.135  27.933  29.249  1.00  0.00     0.029 A 
ATOM     49  N   UNL A   1      40.080  29.839  29.865  1.00  0.00    -0.354 N 
ATOM     50  C   UNL A   1      44.135  30.842  28.213  1.00  0.00     0.074 A 
ATOM     51  C   UNL A   1      43.879  30.569  26.825  1.00  0.00     0.031 C 
ATOM     52  C   UNL A   1      38.166  28.691  29.813  1.00  0.00     0.029 A 
ATOM     53  C   UNL A   1      38.741  29.960  30.222  1.00  0.00     0.049 A 
ATOM     54  H   UNL A   1      40.766  30.497  30.125  1.00  0.00     0.167 HD
ATOM     55  C   UNL A   1      44.744  31.899  28.814  1.00  0.00     0.037 A 
ATOM     56  C   UNL A   1      38.142  31.048  30.768  1.00  0.00     0.037 A 
ATOM     57  C   UNL A   1      44.790  31.734  30.240  1.00  0.00     0.049 A 
ATOM     58  C   UNL A   1      39.197  31.857  31.420  1.00  0.00     0.074 A 
ATOM     59  C   UNL A   1      45.557  31.031  31.140  1.00  0.00     0.029 A 
ATOM     60  N   UNL A   1      43.634  32.092  30.874  1.00  0.00    -0.354 N 
ATOM     61  N   UNL A   1      39.857  31.468  32.474  1.00  0.00    -0.248 NA
ATOM     62  C   UNL A   1      39.761  33.000  30.709  1.00  0.00     0.031 C 
ATOM     63  C   UNL A   1      44.738  30.836  32.293  1.00  0.00     0.029 A 
ATOM     64  C   UNL A   1      43.511  31.461  32.081  1.00  0.00     0.049 A 
ATOM     65  H   UNL A   1      42.974  32.726  30.509  1.00  0.00     0.167 HD
ATOM     66  C   UNL A   1      41.110  32.020  32.306  1.00  0.00     0.074 A 
ATOM     67  C   UNL A   1      40.942  33.085  31.328  1.00  0.00     0.031 C 
ATOM     68  C   UNL A   1      42.222  31.351  32.721  1.00  0.00     0.037 A 
BRANCH  55  69
ATOM     69  C   UNL A   1      44.845  33.272  28.189  1.00  0.00     0.064 A 
ATOM     70  C   UNL A   1      46.108  33.802  27.860  1.00  0.00     0.173 A 
ATOM     71  C   UNL A   1      43.780  34.200  28.198  1.00  0.00     0.173 A 
ATOM     72  F   UNL A   1      47.200  33.023  27.875  1.00  0.00    -0.203 F 
ATOM     73  C   UNL A   1      46.289  35.164  27.589  1.00  0.00     0.198 A 
ATOM     74  C   UNL A   1      43.956  35.544  27.878  1.00  0.00     0.198 A 
ATOM     75  F   UNL A   1      42.557  33.868  28.631  1.00  0.00    -0.203 F 
ATOM     76  F   UNL A   1      47.524  35.645  27.380  1.00  0.00    -0.200 F 
ATOM     77  C   UNL A   1      45.213  36.033  27.595  1.00  0.00     0.200 A 
ATOM     78  F   UNL A   1      42.904  36.374  27.926  1.00  0.00    -0.200 F 
ATOM     79  F   UNL A   1      45.390  37.342  27.379  1.00  0.00    -0.200 F 
ENDBRANCH  55  69
BRANCH  56  80
ATOM     80  C   UNL A   1      36.788  31.603  30.512  1.00  0.00     0.064 A 
ATOM     81  C   UNL A   1      35.901  31.850  31.576  1.00  0.00     0.173 A 
ATOM     82  C   UNL A   1      36.467  32.205  29.280  1.00  0.00     0.173 A 
ATOM     83  F   UNL A   1      36.143  31.337  32.791  1.00  0.00    -0.203 F 
ATOM     84  C   UNL A   1      34.801  32.703  31.434  1.00  0.00     0.198 A 
ATOM     85  C   UNL A   1      35.365  33.050  29.139  1.00  0.00     0.198 A 
ATOM     86  F   UNL A   1      37.273  32.071  28.218  1.00  0.00    -0.203 F 
ATOM     87  F   UNL A   1      34.031  32.986  32.495  1.00  0.00    -0.200 F 
ATOM     88  C   UNL A   1      34.546  33.319  30.220  1.00  0.00     0.200 A 
ATOM     89  F   UNL A   1      35.147  33.665  27.967  1.00  0.00    -0.200 F 
ATOM     90  F   UNL A   1      33.545  34.202  30.105  1.00  0.00    -0.200 F 
ENDBRANCH  56  80
BRANCH  68  91
ATOM     91  C   UNL A   1      42.050  30.320  33.789  1.00  0.00     0.064 A 
ATOM     92  C   UNL A   1      41.722  28.975  33.555  1.00  0.00     0.173 A 
ATOM     93  C   UNL A   1      42.322  30.703  35.109  1.00  0.00     0.173 A 
ATOM     94  F   UNL A   1      41.519  28.521  32.311  1.00  0.00    -0.203 F 
ATOM     95  C   UNL A   1      41.643  28.064  34.606  1.00  0.00     0.198 A 
ATOM     96  C   UNL A   1      42.279  29.784  36.151  1.00  0.00     0.198 A 
ATOM     97  F   UNL A   1      42.674  31.969  35.381  1.00  0.00    -0.203 F 
ATOM     98  F   UNL A   1      41.317  26.784  34.365  1.00  0.00    -0.200 F 
ATOM     99  C   UNL A   1      41.932  28.467  35.901  1.00  0.00     0.200 A 
ATOM    100  F   UNL A   1      42.602  30.171  37.392  1.00  0.00    -0.200 F 
ATOM    101  F   UNL A   1      41.900  27.580  36.906  1.00  0.00    -0.200 F 
ENDBRANCH  68  91
ENDBRANCH  42  43
ENDBRANCH  34  37
ENDBRANCH  32  33
ENDBRANCH  31  32
ENDBRANCH   1  31
TORSDOF 14
ENDMDL
MODEL 2
REMARK VINA RESULT:     -14.0      4.277      9.502
REMARK SMILES O=C(Cn1c(-c2nc(-c3ccc(C(F)(F)F)cc3)no2)cc2ccccc21)NCCCNC(=O)c1ccc(-c2c3nc(c(-c4c(F)c(F)c(F)c(F)c4F)c4ccc([nH]4)c(-c4c(F)c(F)c(F)c(F)c4F)c4nc(c(-c5c(F)c(F)c(F)c(F)c5F)c5ccc2[nH]5)C=C4)C=C3)cc1
REMARK SMILES IDX 29 1 28 2 1 3 2 4 3 6 4 7 5 8 27 9 21 10 22 11 26 12 23 13
REMARK SMILES IDX 25 14 24 15 6 16 7 17 20 18 8 19 19 20 9 21 10 22 18 23
REMARK SMILES IDX 11 24 17 25 12 26 13 27 14 28 15 29 16 30 30 31 31 32 32 33
REMARK SMILES IDX 33 34 34 36 35 37 36 38 97 39 37 40 96 41 38 42 39 43 40 44
REMARK SMILES IDX 90 45 41 46 95 47 89 48 91 49 42 50 94 51 88 52 87 53 43 55
REMARK SMILES IDX 75 56 55 57 74 58 56 59 59 60 73 61 92 62 57 63 58 64 72 66
REMARK SMILES IDX 93 67 60 68 44 69 45 70 53 71 46 72 47 73 51 74 54 75 48 76
REMARK SMILES IDX 49 77 52 78 50 79 76 80 77 81 85 82 78 83 79 84 83 85 86 86
REMARK SMILES IDX 80 87 81 88 84 89 82 90 61 91 62 92 70 93 63 94 64 95 68 96
REMARK SMILES IDX 71 97 65 98 66 99 69 100 67 101
REMARK H PARENT 28 5 32 35 91 54 59 65
REMARK Flexibility Score: inf
ROOT
ATOM      1  C   UNL A   1      33.338  28.619  27.367  1.00  0.00     0.117 C 
ENDROOT
BRANCH   1   2
ATOM      2  N   UNL A   1      32.921  28.124  26.069  1.00  0.00    -0.354 N 
ATOM      3  O   UNL A   1      32.084  30.076  25.202  1.00  0.00    -0.273 OA
ATOM      4  C   UNL A   1      32.365  28.885  25.065  1.00  0.00     0.239 C 
ATOM      5  H   UNL A   1      33.045  27.164  25.890  1.00  0.00     0.163 HD
BRANCH   4   6
ATOM      6  C   UNL A   1      32.098  28.118  23.774  1.00  0.00     0.222 C 
BRANCH   6   7
ATOM      7  N   UNL A   1      30.697  27.726  23.629  1.00  0.00    -0.327 N 
ATOM      8  C   UNL A   1      30.155  26.495  23.957  1.00  0.00     0.109 A 
ATOM      9  C   UNL A   1      29.699  28.565  23.141  1.00  0.00     0.049 A 
ATOM     10  C   UNL A   1      28.786  26.598  23.793  1.00  0.00     0.042 A 
ATOM     11  C   UNL A   1      28.482  27.920  23.374  1.00  0.00     0.000 A 
ATOM     12  C   UNL A   1      29.739  29.842  22.551  1.00  0.00     0.027 A 
ATOM     13  C   UNL A   1      27.281  28.622  23.149  1.00  0.00     0.010 A 
ATOM     14  C   UNL A   1      28.539  30.533  22.366  1.00  0.00     0.002 A 
ATOM     15  C   UNL A   1      27.324  29.940  22.685  1.00  0.00     0.001 A 
BRANCH   8  16
ATOM     16  C   UNL A   1      30.884  25.379  24.482  1.00  0.00     0.274 A 
ATOM     17  N   UNL A   1      31.210  24.288  23.811  1.00  0.00    -0.185 NA
ATOM     18  O   UNL A   1      31.275  25.322  25.793  1.00  0.00    -0.332 OA
ATOM     19  C   UNL A   1      31.809  23.509  24.778  1.00  0.00     0.202 A 
ATOM     20  N   UNL A   1      31.872  24.088  25.986  1.00  0.00    -0.057 NA
BRANCH  19  21
ATOM     21  C   UNL A   1      32.374  22.184  24.565  1.00  0.00     0.023 A 
ATOM     22  C   UNL A   1      32.183  21.550  23.327  1.00  0.00     0.013 A 
ATOM     23  C   UNL A   1      32.930  21.455  25.622  1.00  0.00     0.013 A 
ATOM     24  C   UNL A   1      32.464  20.190  23.172  1.00  0.00     0.014 A 
ATOM     25  C   UNL A   1      33.199  20.086  25.470  1.00  0.00     0.014 A 
ATOM     26  C   UNL A   1      32.933  19.433  24.255  1.00  0.00     0.056 A 
BRANCH  26  27
ATOM     27  C   UNL A   1      33.068  17.933  24.113  1.00  0.00     0.416 C 
ATOM     28  F   UNL A   1      34.302  17.491  24.491  1.00  0.00    -0.166 F 
ATOM     29  F   UNL A   1      32.178  17.247  24.882  1.00  0.00    -0.166 F 
ATOM     30  F   UNL A   1      32.891  17.484  22.840  1.00  0.00    -0.166 F 
ENDBRANCH  26  27
ENDBRANCH  19  21
ENDBRANCH   8  16
ENDBRANCH   6   7
ENDBRANCH   4   6
ENDBRANCH   1   2
BRANCH   1  31
ATOM     31  C   UNL A   1      34.687  29.344  27.295  1.00  0.00     0.042 C 
BRANCH  31  32
ATOM     32  C   UNL A   1      34.611  30.874  27.388  1.00  0.00     0.118 C 
BRANCH  32  33
ATOM     33  N   UNL A   1      34.398  31.397  28.720  1.00  0.00    -0.352 N 
ATOM     34  C   UNL A   1      35.232  31.681  29.768  1.00  0.00     0.251 C 
ATOM     35  H   UNL A   1      33.452  31.591  28.915  1.00  0.00     0.163 HD
ATOM     36  O   UNL A   1      34.789  32.442  30.630  1.00  0.00    -0.269 OA
BRANCH  34  37
ATOM     37  C   UNL A   1      36.565  31.054  29.986  1.00  0.00     0.039 A 
ATOM     38  C   UNL A   1      37.794  31.659  29.727  1.00  0.00     0.014 A 
ATOM     39  C   UNL A   1      36.550  29.702  30.381  1.00  0.00     0.014 A 
ATOM     40  C   UNL A   1      38.957  30.900  29.728  1.00  0.00     0.010 A 
ATOM     41  C   UNL A   1      37.714  28.942  30.403  1.00  0.00     0.010 A 
ATOM     42  C   UNL A   1      38.908  29.531  30.014  1.00  0.00    -0.014 A 
BRANCH  42  43
ATOM     43  C   UNL A   1      40.172  28.798  30.006  1.00  0.00     0.031 A 
ATOM     44  C   UNL A   1      40.786  28.666  31.354  1.00  0.00     0.074 A 
ATOM     45  C   UNL A   1      40.706  28.236  28.900  1.00  0.00     0.049 A 
ATOM     46  N   UNL A   1      41.924  29.132  31.753  1.00  0.00    -0.248 NA
ATOM     47  C   UNL A   1      39.978  28.067  32.431  1.00  0.00     0.031 C 
ATOM     48  C   UNL A   1      40.073  28.082  27.586  1.00  0.00     0.029 A 
ATOM     49  N   UNL A   1      41.905  27.598  28.734  1.00  0.00    -0.354 N 
ATOM     50  C   UNL A   1      42.060  28.724  33.079  1.00  0.00     0.074 A 
ATOM     51  C   UNL A   1      40.783  28.202  33.486  1.00  0.00     0.031 C 
ATOM     52  C   UNL A   1      40.781  27.197  26.847  1.00  0.00     0.029 A 
ATOM     53  C   UNL A   1      41.988  26.841  27.570  1.00  0.00     0.049 A 
ATOM     54  H   UNL A   1      42.643  27.669  29.382  1.00  0.00     0.167 HD
ATOM     55  C   UNL A   1      43.290  28.610  33.649  1.00  0.00     0.037 A 
ATOM     56  C   UNL A   1      42.959  25.948  27.251  1.00  0.00     0.037 A 
ATOM     57  C   UNL A   1      44.283  29.320  32.892  1.00  0.00     0.049 A 
ATOM     58  C   UNL A   1      44.162  26.296  28.041  1.00  0.00     0.074 A 
ATOM     59  C   UNL A   1      44.685  30.629  32.750  1.00  0.00     0.029 A 
ATOM     60  N   UNL A   1      44.760  28.622  31.819  1.00  0.00    -0.354 N 
ATOM     61  N   UNL A   1      44.854  27.385  27.860  1.00  0.00    -0.248 NA
ATOM     62  C   UNL A   1      44.436  25.573  29.279  1.00  0.00     0.031 C 
ATOM     63  C   UNL A   1      45.282  30.722  31.457  1.00  0.00     0.029 A 
ATOM     64  C   UNL A   1      45.266  29.461  30.865  1.00  0.00     0.049 A 
ATOM     65  H   UNL A   1      44.744  27.640  31.743  1.00  0.00     0.167 HD
ATOM     66  C   UNL A   1      45.313  27.704  29.121  1.00  0.00     0.074 A 
ATOM     67  C   UNL A   1      45.192  26.482  29.903  1.00  0.00     0.031 C 
ATOM     68  C   UNL A   1      45.433  29.006  29.505  1.00  0.00     0.037 A 
BRANCH  55  69
ATOM     69  C   UNL A   1      43.680  27.482  34.576  1.00  0.00     0.064 A 
ATOM     70  C   UNL A   1      43.700  26.157  34.100  1.00  0.00     0.173 A 
ATOM     71  C   UNL A   1      43.723  27.624  35.981  1.00  0.00     0.173 A 
ATOM     72  F   UNL A   1      43.608  25.902  32.786  1.00  0.00    -0.203 F 
ATOM     73  C   UNL A   1      43.733  25.060  34.969  1.00  0.00     0.198 A 
ATOM     74  C   UNL A   1      43.806  26.531  36.841  1.00  0.00     0.198 A 
ATOM     75  F   UNL A   1      43.564  28.813  36.577  1.00  0.00    -0.203 F 
ATOM     76  F   UNL A   1      43.648  23.815  34.478  1.00  0.00    -0.200 F 
ATOM     77  C   UNL A   1      43.789  25.249  36.339  1.00  0.00     0.200 A 
ATOM     78  F   UNL A   1      43.823  26.738  38.166  1.00  0.00    -0.200 F 
ATOM     79  F   UNL A   1      43.777  24.202  37.174  1.00  0.00    -0.200 F 
ENDBRANCH  55  69
BRANCH  56  80
ATOM     80  C   UNL A   1      42.841  24.640  26.557  1.00  0.00     0.064 A 
ATOM     81  C   UNL A   1      43.497  24.416  25.332  1.00  0.00     0.173 A 
ATOM     82  C   UNL A   1      42.370  23.496  27.229  1.00  0.00     0.173 A 
ATOM     83  F   UNL A   1      44.000  25.447  24.637  1.00  0.00    -0.203 F 
ATOM     84  C   UNL A   1      43.730  23.124  24.846  1.00  0.00     0.198 A 
ATOM     85  C   UNL A   1      42.596  22.209  26.739  1.00  0.00     0.198 A 
ATOM     86  F   UNL A   1      41.775  23.598  28.425  1.00  0.00    -0.203 F 
ATOM     87  F   UNL A   1      44.438  22.949  23.722  1.00  0.00    -0.200 F 
ATOM     88  C   UNL A   1      43.296  22.021  25.562  1.00  0.00     0.200 A 
ATOM     89  F   UNL A   1      42.200  21.147  27.456  1.00  0.00    -0.200 F 
ATOM     90  F   UNL A   1      43.592  20.783  25.143  1.00  0.00    -0.200 F 
ENDBRANCH  56  80
BRANCH  68  91
ATOM     91  C   UNL A   1      45.577  30.033  28.429  1.00  0.00     0.064 A 
ATOM     92  C   UNL A   1      44.504  30.692  27.806  1.00  0.00     0.173 A 
ATOM     93  C   UNL A   1      46.875  30.429  28.080  1.00  0.00     0.173 A 
ATOM     94  F   UNL A   1      43.237  30.416  28.142  1.00  0.00    -0.203 F 
ATOM     95  C   UNL A   1      44.730  31.684  26.855  1.00  0.00     0.198 A 
ATOM     96  C   UNL A   1      47.097  31.445  27.159  1.00  0.00     0.198 A 
ATOM     97  F   UNL A   1      47.933  29.855  28.673  1.00  0.00    -0.203 F 
ATOM     98  F   UNL A   1      43.693  32.296  26.262  1.00  0.00    -0.200 F 
ATOM     99  C   UNL A   1      46.025  32.068  26.540  1.00  0.00     0.200 A 
ATOM    100  F   UNL A   1      48.349  31.839  26.892  1.00  0.00    -0.200 F 
ATOM    101  F   UNL A   1      46.241  33.053  25.657  1.00  0.00    -0.200 F 
ENDBRANCH  68  91
ENDBRANCH  42  43
ENDBRANCH  34  37
ENDBRANCH  32  33
ENDBRANCH  31  32
ENDBRANCH   1  31
TORSDOF 14
ENDMDL
MODEL 3
REMARK VINA RESULT:     -13.8      3.269      5.224
REMARK SMILES O=C(Cn1c(-c2nc(-c3ccc(C(F)(F)F)cc3)no2)cc2ccccc21)NCCCNC(=O)c1ccc(-c2c3nc(c(-c4c(F)c(F)c(F)c(F)c4F)c4ccc([nH]4)c(-c4c(F)c(F)c(F)c(F)c4F)c4nc(c(-c5c(F)c(F)c(F)c(F)c5F)c5ccc2[nH]5)C=C4)C=C3)cc1
REMARK SMILES IDX 29 1 28 2 1 3 2 4 3 6 4 7 5 8 27 9 21 10 22 11 26 12 23 13
REMARK SMILES IDX 25 14 24 15 6 16 7 17 20 18 8 19 19 20 9 21 10 22 18 23
REMARK SMILES IDX 11 24 17 25 12 26 13 27 14 28 15 29 16 30 30 31 31 32 32 33
REMARK SMILES IDX 33 34 34 36 35 37 36 38 97 39 37 40 96 41 38 42 39 43 40 44
REMARK SMILES IDX 90 45 41 46 95 47 89 48 91 49 42 50 94 51 88 52 87 53 43 55
REMARK SMILES IDX 75 56 55 57 74 58 56 59 59 60 73 61 92 62 57 63 58 64 72 66
REMARK SMILES IDX 93 67 60 68 44 69 45 70 53 71 46 72 47 73 51 74 54 75 48 76
REMARK SMILES IDX 49 77 52 78 50 79 76 80 77 81 85 82 78 83 79 84 83 85 86 86
REMARK SMILES IDX 80 87 81 88 84 89 82 90 61 91 62 92 70 93 63 94 64 95 68 96
REMARK SMILES IDX 71 97 65 98 66 99 69 100 67 101
REMARK H PARENT 28 5 32 35 91 54 59 65
REMARK Flexibility Score: inf
ROOT
ATOM      1  C   UNL A   1      35.442  24.115  25.434  1.00  0.00     0.117 C 
ENDROOT
BRANCH   1   2
ATOM      2  N   UNL A   1      34.627  24.703  24.388  1.00  0.00    -0.354 N 
ATOM      3  O   UNL A   1      33.739  26.453  25.577  1.00  0.00    -0.273 OA
ATOM      4  C   UNL A   1      33.869  25.846  24.514  1.00  0.00     0.239 C 
ATOM      5  H   UNL A   1      34.615  24.248  23.516  1.00  0.00     0.163 HD
BRANCH   4   6
ATOM      6  C   UNL A   1      33.177  26.282  23.226  1.00  0.00     0.222 C 
BRANCH   6   7
ATOM      7  N   UNL A   1      31.720  26.261  23.333  1.00  0.00    -0.327 N 
ATOM      8  C   UNL A   1      30.949  25.216  23.815  1.00  0.00     0.109 A 
ATOM      9  C   UNL A   1      30.895  27.321  22.964  1.00  0.00     0.049 A 
ATOM     10  C   UNL A   1      29.644  25.666  23.869  1.00  0.00     0.042 A 
ATOM     11  C   UNL A   1      29.614  27.015  23.428  1.00  0.00     0.000 A 
ATOM     12  C   UNL A   1      31.153  28.536  22.302  1.00  0.00     0.027 A 
ATOM     13  C   UNL A   1      28.608  27.999  23.360  1.00  0.00     0.010 A 
ATOM     14  C   UNL A   1      30.152  29.510  22.275  1.00  0.00     0.002 A 
ATOM     15  C   UNL A   1      28.901  29.255  22.820  1.00  0.00     0.001 A 
BRANCH   8  16
ATOM     16  C   UNL A   1      31.454  23.958  24.279  1.00  0.00     0.274 A 
ATOM     17  N   UNL A   1      32.018  23.030  23.527  1.00  0.00    -0.185 NA
ATOM     18  O   UNL A   1      31.341  23.572  25.588  1.00  0.00    -0.332 OA
ATOM     19  C   UNL A   1      32.236  22.007  24.424  1.00  0.00     0.202 A 
ATOM     20  N   UNL A   1      31.846  22.285  25.677  1.00  0.00    -0.057 NA
BRANCH  19  21
ATOM     21  C   UNL A   1      32.860  20.728  24.113  1.00  0.00     0.023 A 
ATOM     22  C   UNL A   1      32.177  19.816  23.294  1.00  0.00     0.013 A 
ATOM     23  C   UNL A   1      34.027  20.315  24.764  1.00  0.00     0.013 A 
ATOM     24  C   UNL A   1      32.605  18.489  23.193  1.00  0.00     0.014 A 
ATOM     25  C   UNL A   1      34.449  18.979  24.673  1.00  0.00     0.014 A 
ATOM     26  C   UNL A   1      33.720  18.045  23.918  1.00  0.00     0.056 A 
BRANCH  26  27
ATOM     27  C   UNL A   1      34.064  16.572  23.929  1.00  0.00     0.416 C 
ATOM     28  F   UNL A   1      34.434  16.123  22.696  1.00  0.00    -0.166 F 
ATOM     29  F   UNL A   1      35.105  16.279  24.757  1.00  0.00    -0.166 F 
ATOM     30  F   UNL A   1      33.035  15.771  24.319  1.00  0.00    -0.166 F 
ENDBRANCH  26  27
ENDBRANCH  19  21
ENDBRANCH   8  16
ENDBRANCH   6   7
ENDBRANCH   4   6
ENDBRANCH   1   2
BRANCH   1  31
ATOM     31  C   UNL A   1      36.578  23.260  24.861  1.00  0.00     0.042 C 
BRANCH  31  32
ATOM     32  C   UNL A   1      37.086  22.145  25.784  1.00  0.00     0.118 C 
BRANCH  32  33
ATOM     33  N   UNL A   1      38.490  21.822  25.640  1.00  0.00    -0.352 N 
ATOM     34  C   UNL A   1      39.623  22.225  26.294  1.00  0.00     0.251 C 
ATOM     35  H   UNL A   1      38.668  21.177  24.918  1.00  0.00     0.163 HD
ATOM     36  O   UNL A   1      40.613  21.502  26.168  1.00  0.00    -0.269 OA
BRANCH  34  37
ATOM     37  C   UNL A   1      39.764  23.507  27.037  1.00  0.00     0.039 A 
ATOM     38  C   UNL A   1      38.926  24.613  26.907  1.00  0.00     0.014 A 
ATOM     39  C   UNL A   1      40.911  23.623  27.849  1.00  0.00     0.014 A 
ATOM     40  C   UNL A   1      39.294  25.835  27.455  1.00  0.00     0.010 A 
ATOM     41  C   UNL A   1      41.274  24.839  28.417  1.00  0.00     0.010 A 
ATOM     42  C   UNL A   1      40.494  25.958  28.165  1.00  0.00    -0.014 A 
BRANCH  42  43
ATOM     43  C   UNL A   1      40.812  27.271  28.721  1.00  0.00     0.031 A 
ATOM     44  C   UNL A   1      42.077  27.846  28.189  1.00  0.00     0.074 A 
ATOM     45  C   UNL A   1      40.014  27.935  29.585  1.00  0.00     0.049 A 
ATOM     46  N   UNL A   1      43.150  28.139  28.846  1.00  0.00    -0.248 NA
ATOM     47  C   UNL A   1      42.219  27.980  26.728  1.00  0.00     0.031 C 
ATOM     48  C   UNL A   1      38.644  27.587  29.975  1.00  0.00     0.029 A 
ATOM     49  N   UNL A   1      40.222  29.118  30.238  1.00  0.00    -0.354 N 
ATOM     50  C   UNL A   1      44.038  28.669  27.912  1.00  0.00     0.074 A 
ATOM     51  C   UNL A   1      43.475  28.417  26.614  1.00  0.00     0.031 C 
ATOM     52  C   UNL A   1      38.069  28.646  30.591  1.00  0.00     0.029 A 
ATOM     53  C   UNL A   1      39.069  29.683  30.772  1.00  0.00     0.049 A 
ATOM     54  H   UNL A   1      41.112  29.533  30.323  1.00  0.00     0.167 HD
ATOM     55  C   UNL A   1      45.038  29.506  28.300  1.00  0.00     0.037 A 
ATOM     56  C   UNL A   1      38.938  30.934  31.281  1.00  0.00     0.037 A 
ATOM     57  C   UNL A   1      45.277  29.413  29.713  1.00  0.00     0.049 A 
ATOM     58  C   UNL A   1      40.288  31.395  31.680  1.00  0.00     0.074 A 
ATOM     59  C   UNL A   1      45.934  28.551  30.561  1.00  0.00     0.029 A 
ATOM     60  N   UNL A   1      44.416  30.159  30.467  1.00  0.00    -0.354 N 
ATOM     61  N   UNL A   1      40.968  30.873  32.661  1.00  0.00    -0.248 NA
ATOM     62  C   UNL A   1      41.045  32.255  30.775  1.00  0.00     0.031 C 
ATOM     63  C   UNL A   1      45.307  28.695  31.836  1.00  0.00     0.029 A 
ATOM     64  C   UNL A   1      44.316  29.668  31.740  1.00  0.00     0.049 A 
ATOM     65  H   UNL A   1      43.931  30.950  30.137  1.00  0.00     0.167 HD
ATOM     66  C   UNL A   1      42.281  30.982  32.254  1.00  0.00     0.074 A 
ATOM     67  C   UNL A   1      42.283  31.989  31.202  1.00  0.00     0.031 C 
ATOM     68  C   UNL A   1      43.187  30.015  32.570  1.00  0.00     0.037 A 
BRANCH  55  69
ATOM     69  C   UNL A   1      45.448  30.736  27.523  1.00  0.00     0.064 A 
ATOM     70  C   UNL A   1      46.801  30.935  27.186  1.00  0.00     0.173 A 
ATOM     71  C   UNL A   1      44.613  31.867  27.380  1.00  0.00     0.173 A 
ATOM     72  F   UNL A   1      47.694  29.946  27.336  1.00  0.00    -0.203 F 
ATOM     73  C   UNL A   1      47.282  32.181  26.765  1.00  0.00     0.198 A 
ATOM     74  C   UNL A   1      45.085  33.091  26.913  1.00  0.00     0.198 A 
ATOM     75  F   UNL A   1      43.342  31.865  27.799  1.00  0.00    -0.203 F 
ATOM     76  F   UNL A   1      48.594  32.353  26.552  1.00  0.00    -0.200 F 
ATOM     77  C   UNL A   1      46.423  33.257  26.626  1.00  0.00     0.200 A 
ATOM     78  F   UNL A   1      44.242  34.129  26.821  1.00  0.00    -0.200 F 
ATOM     79  F   UNL A   1      46.887  34.460  26.265  1.00  0.00    -0.200 F 
ENDBRANCH  55  69
BRANCH  56  80
ATOM     80  C   UNL A   1      37.800  31.880  31.168  1.00  0.00     0.064 A 
ATOM     81  C   UNL A   1      37.396  32.373  29.913  1.00  0.00     0.173 A 
ATOM     82  C   UNL A   1      36.889  32.056  32.227  1.00  0.00     0.173 A 
ATOM     83  F   UNL A   1      38.191  32.226  28.843  1.00  0.00    -0.203 F 
ATOM     84  C   UNL A   1      36.133  32.941  29.715  1.00  0.00     0.198 A 
ATOM     85  C   UNL A   1      35.631  32.630  32.030  1.00  0.00     0.198 A 
ATOM     86  F   UNL A   1      37.156  31.580  33.451  1.00  0.00    -0.203 F 
ATOM     87  F   UNL A   1      35.751  33.314  28.486  1.00  0.00    -0.200 F 
ATOM     88  C   UNL A   1      35.243  33.049  30.771  1.00  0.00     0.200 A 
ATOM     89  F   UNL A   1      34.766  32.700  33.053  1.00  0.00    -0.200 F 
ATOM     90  F   UNL A   1      34.003  33.514  30.567  1.00  0.00    -0.200 F 
ENDBRANCH  56  80
BRANCH  68  91
ATOM     91  C   UNL A   1      42.892  29.154  33.757  1.00  0.00     0.064 A 
ATOM     92  C   UNL A   1      42.129  27.976  33.718  1.00  0.00     0.173 A 
ATOM     93  C   UNL A   1      43.494  29.501  34.973  1.00  0.00     0.173 A 
ATOM     94  F   UNL A   1      41.584  27.544  32.574  1.00  0.00    -0.203 F 
ATOM     95  C   UNL A   1      41.956  27.198  34.862  1.00  0.00     0.198 A 
ATOM     96  C   UNL A   1      43.351  28.704  36.103  1.00  0.00     0.198 A 
ATOM     97  F   UNL A   1      44.262  30.599  35.053  1.00  0.00    -0.203 F 
ATOM     98  F   UNL A   1      41.215  26.081  34.809  1.00  0.00    -0.200 F 
ATOM     99  C   UNL A   1      42.576  27.557  36.049  1.00  0.00     0.200 A 
ATOM    100  F   UNL A   1      43.987  29.034  37.234  1.00  0.00    -0.200 F 
ATOM    101  F   UNL A   1      42.446  26.785  37.137  1.00  0.00    -0.200 F 
ENDBRANCH  68  91
ENDBRANCH  42  43
ENDBRANCH  34  37
ENDBRANCH  32  33
ENDBRANCH  31  32
ENDBRANCH   1  31
TORSDOF 14
ENDMDL
