MODEL 1
REMARK VINA RESULT:     -13.1      0.000      0.000
REMARK SMILES O=C(Cc1ccc(-c2ccn(C(F)F)c(=O)c2)cc1)NCCCNC(=O)c1ccc(-c2c3nc(c(-c4c(F)c(F)c(F)c(F)c4F)c4ccc([nH]4)c(-c4c(F)c(F)c(F)c(F)c4F)c4nc(c(-c5c(F)c(F)c(F)c(F)c5F)c5ccc2[nH]5)C=C4)C=C3)cc1
REMARK SMILES IDX 21 1 20 2 1 3 2 4 3 6 4 7 5 8 19 9 6 10 18 11 7 12 8 13 9 14
REMARK SMILES IDX 17 15 10 16 15 17 11 18 16 19 12 20 13 21 14 22 22 23 23 24
REMARK SMILES IDX 24 25 25 26 26 28 27 29 28 30 89 31 29 32 88 33 30 34 31 35
REMARK SMILES IDX 32 36 82 37 33 38 87 39 81 40 83 41 34 42 86 43 80 44 79 45
REMARK SMILES IDX 35 47 67 48 47 49 66 50 48 51 51 52 65 53 84 54 49 55 50 56
REMARK SMILES IDX 64 58 85 59 52 60 36 61 37 62 45 63 38 64 39 65 43 66 46 67
REMARK SMILES IDX 40 68 41 69 44 70 42 71 68 72 69 73 77 74 70 75 71 76 75 77
REMARK SMILES IDX 78 78 72 79 73 80 76 81 74 82 53 83 54 84 62 85 55 86 56 87
REMARK SMILES IDX 60 88 63 89 57 90 58 91 61 92 59 93
REMARK H PARENT 20 5 24 27 83 46 51 57
REMARK Flexibility Score: inf
ROOT
ATOM      1  C   UNL A   1      31.917  30.299  26.765  1.00  0.00     0.117 C 
ENDROOT
BRANCH   1   2
ATOM      2  N   UNL A   1      32.316  29.779  25.474  1.00  0.00    -0.356 N 
ATOM      3  O   UNL A   1      34.378  29.024  26.161  1.00  0.00    -0.275 OA
ATOM      4  C   UNL A   1      33.502  29.089  25.305  1.00  0.00     0.224 C 
ATOM      5  H   UNL A   1      31.729  29.921  24.696  1.00  0.00     0.163 HD
BRANCH   4   6
ATOM      6  C   UNL A   1      33.597  28.362  23.975  1.00  0.00     0.135 C 
BRANCH   6   7
ATOM      7  C   UNL A   1      33.695  26.854  24.096  1.00  0.00    -0.039 A 
ATOM      8  C   UNL A   1      33.717  26.195  25.336  1.00  0.00     0.005 A 
ATOM      9  C   UNL A   1      33.691  26.073  22.931  1.00  0.00     0.005 A 
ATOM     10  C   UNL A   1      33.744  24.803  25.411  1.00  0.00     0.009 A 
ATOM     11  C   UNL A   1      33.721  24.677  23.005  1.00  0.00     0.009 A 
ATOM     12  C   UNL A   1      33.738  24.032  24.246  1.00  0.00    -0.018 A 
BRANCH  12  13
ATOM     13  C   UNL A   1      33.746  22.563  24.327  1.00  0.00    -0.011 A 
ATOM     14  C   UNL A   1      32.565  21.756  24.095  1.00  0.00     0.027 A 
ATOM     15  C   UNL A   1      34.905  21.956  24.640  1.00  0.00     0.080 A 
ATOM     16  C   UNL A   1      32.622  20.424  24.207  1.00  0.00     0.095 A 
ATOM     17  C   UNL A   1      34.985  20.475  24.761  1.00  0.00     0.255 A 
ATOM     18  N   UNL A   1      33.803  19.787  24.539  1.00  0.00    -0.258 N 
ATOM     19  O   UNL A   1      36.065  19.972  25.049  1.00  0.00    -0.269 OA
BRANCH  18  20
ATOM     20  C   UNL A   1      33.848  18.356  24.685  1.00  0.00     0.451 C 
ATOM     21  F   UNL A   1      32.648  17.865  25.080  1.00  0.00    -0.185 F 
ATOM     22  F   UNL A   1      34.179  17.760  23.513  1.00  0.00    -0.185 F 
ENDBRANCH  18  20
ENDBRANCH  12  13
ENDBRANCH   6   7
ENDBRANCH   4   6
ENDBRANCH   1   2
BRANCH   1  23
ATOM     23  C   UNL A   1      31.675  31.801  26.753  1.00  0.00     0.042 C 
BRANCH  23  24
ATOM     24  C   UNL A   1      32.803  32.643  27.339  1.00  0.00     0.118 C 
BRANCH  24  25
ATOM     25  N   UNL A   1      32.426  34.019  27.624  1.00  0.00    -0.352 N 
ATOM     26  C   UNL A   1      32.984  34.909  28.515  1.00  0.00     0.251 C 
ATOM     27  H   UNL A   1      31.663  34.364  27.106  1.00  0.00     0.163 HD
ATOM     28  O   UNL A   1      32.467  36.008  28.696  1.00  0.00    -0.269 OA
BRANCH  26  29
ATOM     29  C   UNL A   1      34.182  34.523  29.293  1.00  0.00     0.039 A 
ATOM     30  C   UNL A   1      34.009  33.988  30.573  1.00  0.00     0.014 A 
ATOM     31  C   UNL A   1      35.464  34.652  28.754  1.00  0.00     0.014 A 
ATOM     32  C   UNL A   1      35.112  33.488  31.269  1.00  0.00     0.010 A 
ATOM     33  C   UNL A   1      36.552  34.090  29.418  1.00  0.00     0.010 A 
ATOM     34  C   UNL A   1      36.384  33.486  30.673  1.00  0.00    -0.014 A 
BRANCH  34  35
ATOM     35  C   UNL A   1      37.543  32.820  31.323  1.00  0.00     0.031 A 
ATOM     36  C   UNL A   1      38.223  31.659  30.657  1.00  0.00     0.074 A 
ATOM     37  C   UNL A   1      37.924  33.205  32.556  1.00  0.00     0.049 A 
ATOM     38  N   UNL A   1      39.169  30.877  31.117  1.00  0.00    -0.248 NA
ATOM     39  C   UNL A   1      37.761  31.311  29.306  1.00  0.00     0.031 C 
ATOM     40  C   UNL A   1      37.318  34.291  33.329  1.00  0.00     0.029 A 
ATOM     41  N   UNL A   1      38.901  32.714  33.388  1.00  0.00    -0.354 N 
ATOM     42  C   UNL A   1      39.403  29.940  30.121  1.00  0.00     0.074 A 
ATOM     43  C   UNL A   1      38.470  30.221  29.049  1.00  0.00     0.031 C 
ATOM     44  C   UNL A   1      37.943  34.392  34.513  1.00  0.00     0.029 A 
ATOM     45  C   UNL A   1      38.965  33.353  34.602  1.00  0.00     0.049 A 
ATOM     46  H   UNL A   1      39.499  31.973  33.137  1.00  0.00     0.167 HD
ATOM     47  C   UNL A   1      40.323  28.947  30.095  1.00  0.00     0.037 A 
ATOM     48  C   UNL A   1      39.746  33.118  35.674  1.00  0.00     0.037 A 
ATOM     49  C   UNL A   1      41.268  28.686  31.149  1.00  0.00     0.049 A 
ATOM     50  C   UNL A   1      40.750  31.999  35.624  1.00  0.00     0.074 A 
ATOM     51  C   UNL A   1      42.285  27.747  31.182  1.00  0.00     0.029 A 
ATOM     52  N   UNL A   1      41.309  29.364  32.358  1.00  0.00    -0.354 N 
ATOM     53  N   UNL A   1      41.004  31.159  34.651  1.00  0.00    -0.248 NA
ATOM     54  C   UNL A   1      41.574  31.794  36.824  1.00  0.00     0.031 C 
ATOM     55  C   UNL A   1      42.914  27.828  32.430  1.00  0.00     0.029 A 
ATOM     56  C   UNL A   1      42.319  28.846  33.156  1.00  0.00     0.049 A 
ATOM     57  H   UNL A   1      40.711  30.104  32.613  1.00  0.00     0.167 HD
ATOM     58  C   UNL A   1      42.029  30.343  35.110  1.00  0.00     0.074 A 
ATOM     59  C   UNL A   1      42.361  30.797  36.444  1.00  0.00     0.031 C 
ATOM     60  C   UNL A   1      42.640  29.310  34.481  1.00  0.00     0.037 A 
BRANCH  47  61
ATOM     61  C   UNL A   1      40.357  28.065  28.881  1.00  0.00     0.064 A 
ATOM     62  C   UNL A   1      41.109  28.405  27.748  1.00  0.00     0.173 A 
ATOM     63  C   UNL A   1      39.663  26.846  28.868  1.00  0.00     0.173 A 
ATOM     64  F   UNL A   1      41.781  29.566  27.707  1.00  0.00    -0.203 F 
ATOM     65  C   UNL A   1      41.145  27.570  26.635  1.00  0.00     0.198 A 
ATOM     66  C   UNL A   1      39.724  25.999  27.765  1.00  0.00     0.198 A 
ATOM     67  F   UNL A   1      38.934  26.470  29.929  1.00  0.00    -0.203 F 
ATOM     68  F   UNL A   1      41.835  27.937  25.546  1.00  0.00    -0.200 F 
ATOM     69  C   UNL A   1      40.458  26.365  26.646  1.00  0.00     0.200 A 
ATOM     70  F   UNL A   1      39.070  24.829  27.781  1.00  0.00    -0.200 F 
ATOM     71  F   UNL A   1      40.500  25.558  25.577  1.00  0.00    -0.200 F 
ENDBRANCH  47  61
BRANCH  48  72
ATOM     72  C   UNL A   1      39.617  33.968  36.885  1.00  0.00     0.064 A 
ATOM     73  C   UNL A   1      38.812  33.569  37.961  1.00  0.00     0.173 A 
ATOM     74  C   UNL A   1      40.287  35.195  36.992  1.00  0.00     0.173 A 
ATOM     75  F   UNL A   1      38.133  32.415  37.894  1.00  0.00    -0.203 F 
ATOM     76  C   UNL A   1      38.669  34.372  39.090  1.00  0.00     0.198 A 
ATOM     77  C   UNL A   1      40.165  35.986  38.133  1.00  0.00     0.198 A 
ATOM     78  F   UNL A   1      41.072  35.621  35.991  1.00  0.00    -0.203 F 
ATOM     79  F   UNL A   1      37.860  33.986  40.085  1.00  0.00    -0.200 F 
ATOM     80  C   UNL A   1      39.350  35.577  39.178  1.00  0.00     0.200 A 
ATOM     81  F   UNL A   1      40.835  37.143  38.218  1.00  0.00    -0.200 F 
ATOM     82  F   UNL A   1      39.215  36.347  40.266  1.00  0.00    -0.200 F 
ENDBRANCH  48  72
BRANCH  60  83
ATOM     83  C   UNL A   1      43.746  28.612  35.216  1.00  0.00     0.064 A 
ATOM     84  C   UNL A   1      43.492  27.521  36.059  1.00  0.00     0.173 A 
ATOM     85  C   UNL A   1      45.079  29.014  35.042  1.00  0.00     0.173 A 
ATOM     86  F   UNL A   1      42.232  27.111  36.271  1.00  0.00    -0.203 F 
ATOM     87  C   UNL A   1      44.531  26.865  36.713  1.00  0.00     0.198 A 
ATOM     88  C   UNL A   1      46.118  28.340  35.677  1.00  0.00     0.198 A 
ATOM     89  F   UNL A   1      45.374  30.049  34.243  1.00  0.00    -0.203 F 
ATOM     90  F   UNL A   1      44.262  25.850  37.545  1.00  0.00    -0.200 F 
ATOM     91  C   UNL A   1      45.843  27.271  36.516  1.00  0.00     0.200 A 
ATOM     92  F   UNL A   1      47.386  28.724  35.476  1.00  0.00    -0.200 F 
ATOM     93  F   UNL A   1      46.843  26.633  37.140  1.00  0.00    -0.200 F 
ENDBRANCH  60  83
ENDBRANCH  34  35
ENDBRANCH  26  29
ENDBRANCH  24  25
ENDBRANCH  23  24
ENDBRANCH   1  23
TORSDOF 13
ENDMDL
MODEL 2
REMARK VINA RESULT:     -13.1      4.674     10.616
REMARK SMILES O=C(Cc1ccc(-c2ccn(C(F)F)c(=O)c2)cc1)NCCCNC(=O)c1ccc(-c2c3nc(c(-c4c(F)c(F)c(F)c(F)c4F)c4ccc([nH]4)c(-c4c(F)c(F)c(F)c(F)c4F)c4nc(c(-c5c(F)c(F)c(F)c(F)c5F)c5ccc2[nH]5)C=C4)C=C3)cc1
REMARK SMILES IDX 21 1 20 2 1 3 2 4 3 6 4 7 5 8 19 9 6 10 18 11 7 12 8 13 9 14
REMARK SMILES IDX 17 15 10 16 15 17 11 18 16 19 12 20 13 21 14 22 22 23 23 24
REMARK SMILES IDX 24 25 25 26 26 28 27 29 28 30 89 31 29 32 88 33 30 34 31 35
REMARK SMILES IDX 32 36 82 37 33 38 87 39 81 40 83 41 34 42 86 43 80 44 79 45
REMARK SMILES IDX 35 47 67 48 47 49 66 50 48 51 51 52 65 53 84 54 49 55 50 56
REMARK SMILES IDX 64 58 85 59 52 60 36 61 37 62 45 63 38 64 39 65 43 66 46 67
REMARK SMILES IDX 40 68 41 69 44 70 42 71 68 72 69 73 77 74 70 75 71 76 75 77
REMARK SMILES IDX 78 78 72 79 73 80 76 81 74 82 53 83 54 84 62 85 55 86 56 87
REMARK SMILES IDX 60 88 63 89 57 90 58 91 61 92 59 93
REMARK H PARENT 20 5 24 27 83 46 51 57
REMARK Flexibility Score: inf
ROOT
ATOM      1  C   UNL A   1      33.898  35.418  28.754  1.00  0.00     0.117 C 
ENDROOT
BRANCH   1   2
ATOM      2  N   UNL A   1      34.065  35.295  30.187  1.00  0.00    -0.356 N 
ATOM      3  O   UNL A   1      32.272  36.626  30.739  1.00  0.00    -0.275 OA
ATOM      4  C   UNL A   1      33.160  35.849  31.073  1.00  0.00     0.224 C 
ATOM      5  H   UNL A   1      34.844  34.806  30.540  1.00  0.00     0.163 HD
BRANCH   4   6
ATOM      6  C   UNL A   1      33.329  35.357  32.500  1.00  0.00     0.135 C 
BRANCH   6   7
ATOM      7  C   UNL A   1      34.528  34.453  32.707  1.00  0.00    -0.039 A 
ATOM      8  C   UNL A   1      35.686  34.875  33.380  1.00  0.00     0.005 A 
ATOM      9  C   UNL A   1      34.459  33.119  32.279  1.00  0.00     0.005 A 
ATOM     10  C   UNL A   1      36.746  33.997  33.608  1.00  0.00     0.009 A 
ATOM     11  C   UNL A   1      35.523  32.239  32.505  1.00  0.00     0.009 A 
ATOM     12  C   UNL A   1      36.670  32.670  33.179  1.00  0.00    -0.018 A 
BRANCH  12  13
ATOM     13  C   UNL A   1      37.780  31.741  33.439  1.00  0.00    -0.011 A 
ATOM     14  C   UNL A   1      39.035  32.160  34.030  1.00  0.00     0.027 A 
ATOM     15  C   UNL A   1      37.613  30.451  33.099  1.00  0.00     0.080 A 
ATOM     16  C   UNL A   1      40.023  31.278  34.220  1.00  0.00     0.095 A 
ATOM     17  C   UNL A   1      38.700  29.456  33.311  1.00  0.00     0.255 A 
ATOM     18  N   UNL A   1      39.870  29.950  33.865  1.00  0.00    -0.258 N 
ATOM     19  O   UNL A   1      38.497  28.292  32.984  1.00  0.00    -0.269 OA
BRANCH  18  20
ATOM     20  C   UNL A   1      40.948  29.014  34.048  1.00  0.00     0.451 C 
ATOM     21  F   UNL A   1      41.768  28.994  32.969  1.00  0.00    -0.185 F 
ATOM     22  F   UNL A   1      41.692  29.338  35.134  1.00  0.00    -0.185 F 
ENDBRANCH  18  20
ENDBRANCH  12  13
ENDBRANCH   6   7
ENDBRANCH   4   6
ENDBRANCH   1   2
BRANCH   1  23
ATOM     23  C   UNL A   1      34.778  34.459  27.967  1.00  0.00     0.042 C 
BRANCH  23  24
ATOM     24  C   UNL A   1      35.003  33.101  28.623  1.00  0.00     0.118 C 
BRANCH  24  25
ATOM     25  N   UNL A   1      34.080  32.069  28.177  1.00  0.00    -0.352 N 
ATOM     26  C   UNL A   1      34.314  30.733  27.942  1.00  0.00     0.251 C 
ATOM     27  H   UNL A   1      33.155  32.370  28.022  1.00  0.00     0.163 HD
ATOM     28  O   UNL A   1      33.429  30.025  27.469  1.00  0.00    -0.269 OA
BRANCH  26  29
ATOM     29  C   UNL A   1      35.649  30.157  28.213  1.00  0.00     0.039 A 
ATOM     30  C   UNL A   1      36.602  30.156  27.192  1.00  0.00     0.014 A 
ATOM     31  C   UNL A   1      35.974  29.654  29.476  1.00  0.00     0.014 A 
ATOM     32  C   UNL A   1      37.910  29.747  27.463  1.00  0.00     0.010 A 
ATOM     33  C   UNL A   1      37.294  29.314  29.765  1.00  0.00     0.010 A 
ATOM     34  C   UNL A   1      38.278  29.375  28.767  1.00  0.00    -0.014 A 
BRANCH  34  35
ATOM     35  C   UNL A   1      39.693  29.088  29.120  1.00  0.00     0.031 A 
ATOM     36  C   UNL A   1      40.521  30.116  29.836  1.00  0.00     0.074 A 
ATOM     37  C   UNL A   1      40.258  27.935  28.713  1.00  0.00     0.049 A 
ATOM     38  N   UNL A   1      41.799  30.097  30.124  1.00  0.00    -0.248 NA
ATOM     39  C   UNL A   1      39.827  31.341  30.262  1.00  0.00     0.031 C 
ATOM     40  C   UNL A   1      39.574  26.873  27.972  1.00  0.00     0.029 A 
ATOM     41  N   UNL A   1      41.543  27.469  28.847  1.00  0.00    -0.354 N 
ATOM     42  C   UNL A   1      42.064  31.308  30.748  1.00  0.00     0.074 A 
ATOM     43  C   UNL A   1      40.825  32.058  30.759  1.00  0.00     0.031 C 
ATOM     44  C   UNL A   1      40.442  25.877  27.729  1.00  0.00     0.029 A 
ATOM     45  C   UNL A   1      41.751  26.246  28.258  1.00  0.00     0.049 A 
ATOM     46  H   UNL A   1      42.250  27.966  29.321  1.00  0.00     0.167 HD
ATOM     47  C   UNL A   1      43.229  31.746  31.280  1.00  0.00     0.037 A 
ATOM     48  C   UNL A   1      42.874  25.511  28.141  1.00  0.00     0.037 A 
ATOM     49  C   UNL A   1      44.453  30.988  31.294  1.00  0.00     0.049 A 
ATOM     50  C   UNL A   1      44.159  26.028  28.727  1.00  0.00     0.074 A 
ATOM     51  C   UNL A   1      45.667  31.320  31.873  1.00  0.00     0.029 A 
ATOM     52  N   UNL A   1      44.620  29.747  30.698  1.00  0.00    -0.354 N 
ATOM     53  N   UNL A   1      44.382  27.148  29.370  1.00  0.00    -0.248 NA
ATOM     54  C   UNL A   1      45.349  25.180  28.569  1.00  0.00     0.031 C 
ATOM     55  C   UNL A   1      46.580  30.299  31.589  1.00  0.00     0.029 A 
ATOM     56  C   UNL A   1      45.925  29.311  30.873  1.00  0.00     0.049 A 
ATOM     57  H   UNL A   1      43.917  29.249  30.222  1.00  0.00     0.167 HD
ATOM     58  C   UNL A   1      45.727  27.129  29.713  1.00  0.00     0.074 A 
ATOM     59  C   UNL A   1      46.268  25.880  29.220  1.00  0.00     0.031 C 
ATOM     60  C   UNL A   1      46.449  28.064  30.378  1.00  0.00     0.037 A 
BRANCH  47  61
ATOM     61  C   UNL A   1      43.238  33.113  31.899  1.00  0.00     0.064 A 
ATOM     62  C   UNL A   1      43.357  34.272  31.118  1.00  0.00     0.173 A 
ATOM     63  C   UNL A   1      43.085  33.268  33.285  1.00  0.00     0.173 A 
ATOM     64  F   UNL A   1      43.518  34.176  29.789  1.00  0.00    -0.203 F 
ATOM     65  C   UNL A   1      43.348  35.535  31.703  1.00  0.00     0.198 A 
ATOM     66  C   UNL A   1      43.047  34.533  33.865  1.00  0.00     0.198 A 
ATOM     67  F   UNL A   1      42.961  32.192  34.076  1.00  0.00    -0.203 F 
ATOM     68  F   UNL A   1      43.508  36.626  30.942  1.00  0.00    -0.200 F 
ATOM     69  C   UNL A   1      43.187  35.665  33.075  1.00  0.00     0.200 A 
ATOM     70  F   UNL A   1      42.879  34.658  35.189  1.00  0.00    -0.200 F 
ATOM     71  F   UNL A   1      43.171  36.881  33.637  1.00  0.00    -0.200 F 
ENDBRANCH  47  61
BRANCH  48  72
ATOM     72  C   UNL A   1      42.832  24.199  27.447  1.00  0.00     0.064 A 
ATOM     73  C   UNL A   1      43.102  24.103  26.074  1.00  0.00     0.173 A 
ATOM     74  C   UNL A   1      42.515  23.018  28.133  1.00  0.00     0.173 A 
ATOM     75  F   UNL A   1      43.386  25.209  25.370  1.00  0.00    -0.203 F 
ATOM     76  C   UNL A   1      43.042  22.879  25.412  1.00  0.00     0.198 A 
ATOM     77  C   UNL A   1      42.482  21.790  27.476  1.00  0.00     0.198 A 
ATOM     78  F   UNL A   1      42.251  23.055  29.448  1.00  0.00    -0.203 F 
ATOM     79  F   UNL A   1      43.264  22.822  24.092  1.00  0.00    -0.200 F 
ATOM     80  C   UNL A   1      42.738  21.722  26.114  1.00  0.00     0.200 A 
ATOM     81  F   UNL A   1      42.199  20.673  28.161  1.00  0.00    -0.200 F 
ATOM     82  F   UNL A   1      42.684  20.545  25.478  1.00  0.00    -0.200 F 
ENDBRANCH  48  72
BRANCH  60  83
ATOM     83  C   UNL A   1      47.897  27.765  30.631  1.00  0.00     0.064 A 
ATOM     84  C   UNL A   1      48.898  28.177  29.740  1.00  0.00     0.173 A 
ATOM     85  C   UNL A   1      48.290  27.096  31.800  1.00  0.00     0.173 A 
ATOM     86  F   UNL A   1      48.570  28.805  28.601  1.00  0.00    -0.203 F 
ATOM     87  C   UNL A   1      50.240  27.917  30.003  1.00  0.00     0.198 A 
ATOM     88  C   UNL A   1      49.635  26.860  32.072  1.00  0.00     0.198 A 
ATOM     89  F   UNL A   1      47.371  26.685  32.686  1.00  0.00    -0.203 F 
ATOM     90  F   UNL A   1      51.177  28.285  29.118  1.00  0.00    -0.200 F 
ATOM     91  C   UNL A   1      50.608  27.266  31.170  1.00  0.00     0.200 A 
ATOM     92  F   UNL A   1      49.990  26.242  33.207  1.00  0.00    -0.200 F 
ATOM     93  F   UNL A   1      51.901  27.023  31.426  1.00  0.00    -0.200 F 
ENDBRANCH  60  83
ENDBRANCH  34  35
ENDBRANCH  26  29
ENDBRANCH  24  25
ENDBRANCH  23  24
ENDBRANCH   1  23
TORSDOF 13
ENDMDL
MODEL 3
REMARK VINA RESULT:     -13.0      4.721     10.549
REMARK SMILES O=C(Cc1ccc(-c2ccn(C(F)F)c(=O)c2)cc1)NCCCNC(=O)c1ccc(-c2c3nc(c(-c4c(F)c(F)c(F)c(F)c4F)c4ccc([nH]4)c(-c4c(F)c(F)c(F)c(F)c4F)c4nc(c(-c5c(F)c(F)c(F)c(F)c5F)c5ccc2[nH]5)C=C4)C=C3)cc1
REMARK SMILES IDX 21 1 20 2 1 3 2 4 3 6 4 7 5 8 19 9 6 10 18 11 7 12 8 13 9 14
REMARK SMILES IDX 17 15 10 16 15 17 11 18 16 19 12 20 13 21 14 22 22 23 23 24
REMARK SMILES IDX 24 25 25 26 26 28 27 29 28 30 89 31 29 32 88 33 30 34 31 35
REMARK SMILES IDX 32 36 82 37 33 38 87 39 81 40 83 41 34 42 86 43 80 44 79 45
REMARK SMILES IDX 35 47 67 48 47 49 66 50 48 51 51 52 65 53 84 54 49 55 50 56
REMARK SMILES IDX 64 58 85 59 52 60 36 61 37 62 45 63 38 64 39 65 43 66 46 67
REMARK SMILES IDX 40 68 41 69 44 70 42 71 68 72 69 73 77 74 70 75 71 76 75 77
REMARK SMILES IDX 78 78 72 79 73 80 76 81 74 82 53 83 54 84 62 85 55 86 56 87
REMARK SMILES IDX 60 88 63 89 57 90 58 91 61 92 59 93
REMARK H PARENT 20 5 24 27 83 46 51 57
REMARK Flexibility Score: inf
ROOT
ATOM      1  C   UNL A   1      33.686  35.120  29.827  1.00  0.00     0.117 C 
ENDROOT
BRANCH   1   2
ATOM      2  N   UNL A   1      34.329  35.350  31.104  1.00  0.00    -0.356 N 
ATOM      3  O   UNL A   1      32.473  34.881  32.379  1.00  0.00    -0.275 OA
ATOM      4  C   UNL A   1      33.674  35.115  32.299  1.00  0.00     0.224 C 
ATOM      5  H   UNL A   1      35.256  35.684  31.122  1.00  0.00     0.163 HD
BRANCH   4   6
ATOM      6  C   UNL A   1      34.596  35.113  33.506  1.00  0.00     0.135 C 
BRANCH   6   7
ATOM      7  C   UNL A   1      35.684  34.059  33.455  1.00  0.00    -0.039 A 
ATOM      8  C   UNL A   1      36.994  34.303  33.900  1.00  0.00     0.005 A 
ATOM      9  C   UNL A   1      35.363  32.766  33.016  1.00  0.00     0.005 A 
ATOM     10  C   UNL A   1      37.955  33.292  33.897  1.00  0.00     0.009 A 
ATOM     11  C   UNL A   1      36.327  31.753  33.010  1.00  0.00     0.009 A 
ATOM     12  C   UNL A   1      37.627  32.007  33.459  1.00  0.00    -0.018 A 
BRANCH  12  13
ATOM     13  C   UNL A   1      38.637  30.937  33.476  1.00  0.00    -0.011 A 
ATOM     14  C   UNL A   1      40.003  31.151  33.909  1.00  0.00     0.027 A 
ATOM     15  C   UNL A   1      38.264  29.714  33.060  1.00  0.00     0.080 A 
ATOM     16  C   UNL A   1      40.888  30.148  33.880  1.00  0.00     0.095 A 
ATOM     17  C   UNL A   1      39.235  28.586  33.028  1.00  0.00     0.255 A 
ATOM     18  N   UNL A   1      40.522  28.888  33.444  1.00  0.00    -0.258 N 
ATOM     19  O   UNL A   1      38.845  27.491  32.640  1.00  0.00    -0.269 OA
BRANCH  18  20
ATOM     20  C   UNL A   1      41.489  27.822  33.389  1.00  0.00     0.451 C 
ATOM     21  F   UNL A   1      42.755  28.305  33.441  1.00  0.00    -0.185 F 
ATOM     22  F   UNL A   1      41.324  26.965  34.426  1.00  0.00    -0.185 F 
ENDBRANCH  18  20
ENDBRANCH  12  13
ENDBRANCH   6   7
ENDBRANCH   4   6
ENDBRANCH   1   2
BRANCH   1  23
ATOM     23  C   UNL A   1      34.550  34.324  28.860  1.00  0.00     0.042 C 
BRANCH  23  24
ATOM     24  C   UNL A   1      34.802  32.875  29.261  1.00  0.00     0.118 C 
BRANCH  24  25
ATOM     25  N   UNL A   1      33.967  31.913  28.558  1.00  0.00    -0.352 N 
ATOM     26  C   UNL A   1      34.294  30.670  28.066  1.00  0.00     0.251 C 
ATOM     27  H   UNL A   1      33.033  32.192  28.414  1.00  0.00     0.163 HD
ATOM     28  O   UNL A   1      33.478  30.032  27.406  1.00  0.00    -0.269 OA
BRANCH  26  29
ATOM     29  C   UNL A   1      35.649  30.119  28.291  1.00  0.00     0.039 A 
ATOM     30  C   UNL A   1      36.583  30.186  27.255  1.00  0.00     0.014 A 
ATOM     31  C   UNL A   1      36.009  29.573  29.525  1.00  0.00     0.014 A 
ATOM     32  C   UNL A   1      37.906  29.802  27.487  1.00  0.00     0.010 A 
ATOM     33  C   UNL A   1      37.342  29.256  29.778  1.00  0.00     0.010 A 
ATOM     34  C   UNL A   1      38.307  29.385  28.767  1.00  0.00    -0.014 A 
BRANCH  34  35
ATOM     35  C   UNL A   1      39.735  29.121  29.085  1.00  0.00     0.031 A 
ATOM     36  C   UNL A   1      40.570  30.172  29.758  1.00  0.00     0.074 A 
ATOM     37  C   UNL A   1      40.302  27.968  28.683  1.00  0.00     0.049 A 
ATOM     38  N   UNL A   1      41.855  30.173  30.009  1.00  0.00    -0.248 NA
ATOM     39  C   UNL A   1      39.873  31.396  30.182  1.00  0.00     0.031 C 
ATOM     40  C   UNL A   1      39.611  26.885  27.981  1.00  0.00     0.029 A 
ATOM     41  N   UNL A   1      41.596  27.520  28.788  1.00  0.00    -0.354 N 
ATOM     42  C   UNL A   1      42.123  31.399  30.604  1.00  0.00     0.074 A 
ATOM     43  C   UNL A   1      40.876  32.134  30.637  1.00  0.00     0.031 C 
ATOM     44  C   UNL A   1      40.483  25.895  27.731  1.00  0.00     0.029 A 
ATOM     45  C   UNL A   1      41.802  26.288  28.216  1.00  0.00     0.049 A 
ATOM     46  H   UNL A   1      42.310  28.034  29.232  1.00  0.00     0.167 HD
ATOM     47  C   UNL A   1      43.298  31.861  31.094  1.00  0.00     0.037 A 
ATOM     48  C   UNL A   1      42.931  25.565  28.079  1.00  0.00     0.037 A 
ATOM     49  C   UNL A   1      44.531  31.118  31.086  1.00  0.00     0.049 A 
ATOM     50  C   UNL A   1      44.225  26.108  28.619  1.00  0.00     0.074 A 
ATOM     51  C   UNL A   1      45.756  31.475  31.623  1.00  0.00     0.029 A 
ATOM     52  N   UNL A   1      44.696  29.868  30.508  1.00  0.00    -0.354 N 
ATOM     53  N   UNL A   1      44.453  27.242  29.235  1.00  0.00    -0.248 NA
ATOM     54  C   UNL A   1      45.421  25.272  28.441  1.00  0.00     0.031 C 
ATOM     55  C   UNL A   1      46.674  30.459  31.332  1.00  0.00     0.029 A 
ATOM     56  C   UNL A   1      46.011  29.451  30.653  1.00  0.00     0.049 A 
ATOM     57  H   UNL A   1      43.986  29.353  30.061  1.00  0.00     0.167 HD
ATOM     58  C   UNL A   1      45.807  27.246  29.539  1.00  0.00     0.074 A 
ATOM     59  C   UNL A   1      46.349  25.995  29.053  1.00  0.00     0.031 C 
ATOM     60  C   UNL A   1      46.536  28.201  30.166  1.00  0.00     0.037 A 
BRANCH  47  61
ATOM     61  C   UNL A   1      43.308  33.239  31.687  1.00  0.00     0.064 A 
ATOM     62  C   UNL A   1      43.370  34.385  30.882  1.00  0.00     0.173 A 
ATOM     63  C   UNL A   1      43.211  33.417  33.076  1.00  0.00     0.173 A 
ATOM     64  F   UNL A   1      43.475  34.268  29.549  1.00  0.00    -0.203 F 
ATOM     65  C   UNL A   1      43.363  35.658  31.444  1.00  0.00     0.198 A 
ATOM     66  C   UNL A   1      43.175  34.691  33.634  1.00  0.00     0.198 A 
ATOM     67  F   UNL A   1      43.142  32.353  33.891  1.00  0.00    -0.203 F 
ATOM     68  F   UNL A   1      43.469  36.738  30.657  1.00  0.00    -0.200 F 
ATOM     69  C   UNL A   1      43.258  35.810  32.819  1.00  0.00     0.200 A 
ATOM     70  F   UNL A   1      43.062  34.838  34.962  1.00  0.00    -0.200 F 
ATOM     71  F   UNL A   1      43.243  37.037  33.359  1.00  0.00    -0.200 F 
ENDBRANCH  47  61
BRANCH  48  72
ATOM     72  C   UNL A   1      42.885  24.240  27.410  1.00  0.00     0.064 A 
ATOM     73  C   UNL A   1      43.153  24.118  26.039  1.00  0.00     0.173 A 
ATOM     74  C   UNL A   1      42.567  23.073  28.120  1.00  0.00     0.173 A 
ATOM     75  F   UNL A   1      43.437  25.209  25.314  1.00  0.00    -0.203 F 
ATOM     76  C   UNL A   1      43.090  22.881  25.401  1.00  0.00     0.198 A 
ATOM     77  C   UNL A   1      42.530  21.833  27.486  1.00  0.00     0.198 A 
ATOM     78  F   UNL A   1      42.305  23.136  29.434  1.00  0.00    -0.203 F 
ATOM     79  F   UNL A   1      43.309  22.799  24.082  1.00  0.00    -0.200 F 
ATOM     80  C   UNL A   1      42.784  21.739  26.125  1.00  0.00     0.200 A 
ATOM     81  F   UNL A   1      42.247  20.730  28.192  1.00  0.00    -0.200 F 
ATOM     82  F   UNL A   1      42.727  20.550  25.512  1.00  0.00    -0.200 F 
ENDBRANCH  48  72
BRANCH  60  83
ATOM     83  C   UNL A   1      47.994  27.924  30.382  1.00  0.00     0.064 A 
ATOM     84  C   UNL A   1      48.446  27.203  31.496  1.00  0.00     0.173 A 
ATOM     85  C   UNL A   1      48.945  28.349  29.442  1.00  0.00     0.173 A 
ATOM     86  F   UNL A   1      47.576  26.791  32.432  1.00  0.00    -0.203 F 
ATOM     87  C   UNL A   1      49.800  26.929  31.670  1.00  0.00     0.198 A 
ATOM     88  C   UNL A   1      50.295  28.051  29.605  1.00  0.00     0.198 A 
ATOM     89  F   UNL A   1      48.564  29.038  28.357  1.00  0.00    -0.203 F 
ATOM     90  F   UNL A   1      50.213  26.272  32.762  1.00  0.00    -0.200 F 
ATOM     91  C   UNL A   1      50.721  27.347  30.722  1.00  0.00     0.200 A 
ATOM     92  F   UNL A   1      51.184  28.444  28.682  1.00  0.00    -0.200 F 
ATOM     93  F   UNL A   1      52.024  27.075  30.886  1.00  0.00    -0.200 F 
ENDBRANCH  60  83
ENDBRANCH  34  35
ENDBRANCH  26  29
ENDBRANCH  24  25
ENDBRANCH  23  24
ENDBRANCH   1  23
TORSDOF 13
ENDMDL
