MODEL 1
REMARK VINA RESULT:     -13.8      0.000      0.000
REMARK SMILES CC1(C)S[C@H]2[C@H](NC(=O)[C@H](NN3CCNC3=O)c3ccccc3)C(=O)N2[C@H]1C(=O)NCCCNC(=O)c1ccc(-c2c3nc(c(-c4c(F)c(F)c(F)c(F)c4F)c4ccc([nH]4)c(-c4c(F)c(F)c(F)c(F)c4F)c4nc(c(-c5c(F)c(F)c(F)c(F)c5F)c5ccc2[nH]5)C=C4)C=C3)cc1
REMARK SMILES IDX 31 1 30 2 28 3 29 4 27 6 1 7 2 8 3 9 4 10 5 11 26 12 6 13
REMARK SMILES IDX 24 14 25 15 7 16 8 17 9 19 10 20 18 21 19 22 23 23 20 24
REMARK SMILES IDX 22 25 21 26 11 27 12 29 13 30 16 31 14 32 15 33 17 34 32 36
REMARK SMILES IDX 33 37 34 38 35 39 36 41 37 42 38 43 99 44 39 45 98 46 40 47
REMARK SMILES IDX 41 48 42 49 92 50 43 51 97 52 91 53 93 54 44 55 96 56 90 57
REMARK SMILES IDX 89 58 45 60 77 61 57 62 76 63 58 64 61 65 75 66 94 67 59 68
REMARK SMILES IDX 60 69 74 71 95 72 62 73 46 74 47 75 55 76 48 77 49 78 53 79
REMARK SMILES IDX 56 80 50 81 51 82 54 83 52 84 78 85 79 86 87 87 80 88 81 89
REMARK SMILES IDX 85 90 88 91 82 92 83 93 86 94 84 95 63 96 64 97 72 98 65 99
REMARK SMILES IDX 66 100 70 101 73 102 67 103 68 104 71 105 69 106
REMARK H PARENT 30 5 7 18 11 28 15 35 34 40 93 59 61 70
REMARK Flexibility Score: inf
ROOT
ATOM      1  C   UNL A   1      31.413  30.668  26.452  1.00  0.00     0.117 C 
ENDROOT
BRANCH   1   2
ATOM      2  N   UNL A   1      32.522  30.074  25.738  1.00  0.00    -0.354 N 
ATOM      3  C   UNL A   1      32.485  29.207  24.685  1.00  0.00     0.244 C 
ATOM      4  O   UNL A   1      33.357  29.388  23.825  1.00  0.00    -0.273 OA
ATOM      5  H   UNL A   1      33.420  30.327  26.053  1.00  0.00     0.163 HD
BRANCH   3   6
ATOM      6  C   UNL A   1      31.453  28.046  24.515  1.00  0.00     0.191 C 
ATOM      7  C   UNL A   1      30.570  27.956  22.157  1.00  0.00     0.026 C 
ATOM      8  C   UNL A   1      31.399  27.202  23.212  1.00  0.00     0.042 C 
ATOM      9  C   UNL A   1      32.698  26.756  22.544  1.00  0.00     0.026 C 
ATOM     10  S   UNL A   1      30.521  25.623  23.629  1.00  0.00    -0.125 SA
ATOM     11  C   UNL A   1      30.525  25.888  25.424  1.00  0.00     0.176 C 
ATOM     12  N   UNL A   1      30.958  27.286  25.660  1.00  0.00    -0.313 N 
ATOM     13  C   UNL A   1      31.827  25.459  26.162  1.00  0.00     0.205 C 
ATOM     14  C   UNL A   1      31.673  26.920  26.755  1.00  0.00     0.249 C 
ATOM     15  O   UNL A   1      31.853  27.501  27.797  1.00  0.00    -0.272 OA
BRANCH  13  16
ATOM     16  N   UNL A   1      31.775  24.398  27.191  1.00  0.00    -0.340 N 
ATOM     17  C   UNL A   1      32.387  23.171  27.178  1.00  0.00     0.244 C 
ATOM     18  H   UNL A   1      31.230  24.599  27.986  1.00  0.00     0.164 HD
ATOM     19  O   UNL A   1      32.444  22.564  28.256  1.00  0.00    -0.273 OA
BRANCH  17  20
ATOM     20  C   UNL A   1      32.958  22.522  25.882  1.00  0.00     0.194 C 
BRANCH  20  21
ATOM     21  C   UNL A   1      34.489  22.566  25.803  1.00  0.00    -0.020 A 
ATOM     22  C   UNL A   1      35.250  21.409  25.566  1.00  0.00     0.006 A 
ATOM     23  C   UNL A   1      35.171  23.800  25.815  1.00  0.00     0.006 A 
ATOM     24  C   UNL A   1      36.638  21.486  25.376  1.00  0.00     0.000 A 
ATOM     25  C   UNL A   1      36.554  23.874  25.637  1.00  0.00     0.000 A 
ATOM     26  C   UNL A   1      37.287  22.716  25.415  1.00  0.00     0.000 A 
ENDBRANCH  20  21
BRANCH  20  27
ATOM     27  N   UNL A   1      32.345  21.197  25.562  1.00  0.00    -0.213 NA
ATOM     28  H   UNL A   1      31.386  21.189  25.911  1.00  0.00     0.149 HD
BRANCH  27  29
ATOM     29  N   UNL A   1      32.323  20.922  24.181  1.00  0.00    -0.257 N 
ATOM     30  C   UNL A   1      32.312  21.887  23.116  1.00  0.00     0.163 C 
ATOM     31  C   UNL A   1      32.334  19.634  23.655  1.00  0.00     0.331 C 
ATOM     32  C   UNL A   1      31.788  21.058  21.939  1.00  0.00     0.141 C 
ATOM     33  N   UNL A   1      32.094  19.705  22.306  1.00  0.00    -0.335 N 
ATOM     34  O   UNL A   1      32.483  18.611  24.291  1.00  0.00    -0.247 OA
ATOM     35  H   UNL A   1      32.126  18.942  21.684  1.00  0.00     0.165 HD
ENDBRANCH  27  29
ENDBRANCH  20  27
ENDBRANCH  17  20
ENDBRANCH  13  16
ENDBRANCH   3   6
ENDBRANCH   1   2
BRANCH   1  36
ATOM     36  C   UNL A   1      31.407  32.190  26.486  1.00  0.00     0.042 C 
BRANCH  36  37
ATOM     37  C   UNL A   1      32.587  32.751  27.274  1.00  0.00     0.118 C 
BRANCH  37  38
ATOM     38  N   UNL A   1      32.426  34.162  27.632  1.00  0.00    -0.352 N 
ATOM     39  C   UNL A   1      33.026  34.929  28.608  1.00  0.00     0.251 C 
ATOM     40  H   UNL A   1      31.774  34.651  27.078  1.00  0.00     0.163 HD
ATOM     41  O   UNL A   1      32.632  36.070  28.831  1.00  0.00    -0.269 OA
BRANCH  39  42
ATOM     42  C   UNL A   1      34.121  34.360  29.421  1.00  0.00     0.039 A 
ATOM     43  C   UNL A   1      33.828  33.698  30.617  1.00  0.00     0.014 A 
ATOM     44  C   UNL A   1      35.437  34.444  28.978  1.00  0.00     0.014 A 
ATOM     45  C   UNL A   1      34.841  33.010  31.294  1.00  0.00     0.010 A 
ATOM     46  C   UNL A   1      36.406  33.650  29.568  1.00  0.00     0.010 A 
ATOM     47  C   UNL A   1      36.124  32.922  30.734  1.00  0.00    -0.014 A 
BRANCH  47  48
ATOM     48  C   UNL A   1      37.213  32.101  31.327  1.00  0.00     0.031 A 
ATOM     49  C   UNL A   1      37.734  32.455  32.695  1.00  0.00     0.074 A 
ATOM     50  C   UNL A   1      37.830  31.154  30.594  1.00  0.00     0.049 A 
ATOM     51  N   UNL A   1      38.830  32.066  33.296  1.00  0.00    -0.248 NA
ATOM     52  C   UNL A   1      36.948  33.436  33.462  1.00  0.00     0.031 C 
ATOM     53  C   UNL A   1      37.461  30.752  29.236  1.00  0.00     0.029 A 
ATOM     54  N   UNL A   1      38.924  30.373  30.881  1.00  0.00    -0.354 N 
ATOM     55  C   UNL A   1      38.890  32.801  34.473  1.00  0.00     0.074 A 
ATOM     56  C   UNL A   1      37.757  33.698  34.475  1.00  0.00     0.031 C 
ATOM     57  C   UNL A   1      38.299  29.790  28.816  1.00  0.00     0.029 A 
ATOM     58  C   UNL A   1      39.297  29.544  29.850  1.00  0.00     0.049 A 
ATOM     59  H   UNL A   1      39.397  30.405  31.744  1.00  0.00     0.167 HD
ATOM     60  C   UNL A   1      39.796  32.716  35.476  1.00  0.00     0.037 A 
ATOM     61  C   UNL A   1      40.338  28.695  29.746  1.00  0.00     0.037 A 
ATOM     62  C   UNL A   1      40.873  31.763  35.500  1.00  0.00     0.049 A 
ATOM     63  C   UNL A   1      41.303  28.576  30.896  1.00  0.00     0.074 A 
ATOM     64  C   UNL A   1      41.786  31.519  36.509  1.00  0.00     0.029 A 
ATOM     65  N   UNL A   1      41.167  30.885  34.467  1.00  0.00    -0.354 N 
ATOM     66  N   UNL A   1      41.319  29.232  32.030  1.00  0.00    -0.248 NA
ATOM     67  C   UNL A   1      42.391  27.599  30.753  1.00  0.00     0.031 C 
ATOM     68  C   UNL A   1      42.658  30.518  36.072  1.00  0.00     0.029 A 
ATOM     69  C   UNL A   1      42.258  30.104  34.811  1.00  0.00     0.049 A 
ATOM     70  H   UNL A   1      40.674  30.825  33.617  1.00  0.00     0.167 HD
ATOM     71  C   UNL A   1      42.393  28.726  32.749  1.00  0.00     0.074 A 
ATOM     72  C   UNL A   1      43.005  27.705  31.924  1.00  0.00     0.031 C 
ATOM     73  C   UNL A   1      42.831  29.074  33.984  1.00  0.00     0.037 A 
BRANCH  60  74
ATOM     74  C   UNL A   1      39.652  33.668  36.628  1.00  0.00     0.064 A 
ATOM     75  C   UNL A   1      38.895  33.347  37.766  1.00  0.00     0.173 A 
ATOM     76  C   UNL A   1      40.293  34.917  36.602  1.00  0.00     0.173 A 
ATOM     77  F   UNL A   1      38.254  32.170  37.839  1.00  0.00    -0.203 F 
ATOM     78  C   UNL A   1      38.747  34.255  38.810  1.00  0.00     0.198 A 
ATOM     79  C   UNL A   1      40.172  35.809  37.664  1.00  0.00     0.198 A 
ATOM     80  F   UNL A   1      41.036  35.275  35.543  1.00  0.00    -0.203 F 
ATOM     81  F   UNL A   1      37.961  33.951  39.852  1.00  0.00    -0.200 F 
ATOM     82  C   UNL A   1      39.389  35.483  38.762  1.00  0.00     0.200 A 
ATOM     83  F   UNL A   1      40.807  36.988  37.623  1.00  0.00    -0.200 F 
ATOM     84  F   UNL A   1      39.247  36.356  39.768  1.00  0.00    -0.200 F 
ENDBRANCH  60  74
BRANCH  61  85
ATOM     85  C   UNL A   1      40.504  27.873  28.518  1.00  0.00     0.064 A 
ATOM     86  C   UNL A   1      41.268  28.343  27.440  1.00  0.00     0.173 A 
ATOM     87  C   UNL A   1      39.924  26.601  28.398  1.00  0.00     0.173 A 
ATOM     88  F   UNL A   1      41.828  29.561  27.499  1.00  0.00    -0.203 F 
ATOM     89  C   UNL A   1      41.432  27.582  26.285  1.00  0.00     0.198 A 
ATOM     90  C   UNL A   1      40.111  25.829  27.254  1.00  0.00     0.198 A 
ATOM     91  F   UNL A   1      39.191  26.100  29.404  1.00  0.00    -0.203 F 
ATOM     92  F   UNL A   1      42.137  28.072  25.257  1.00  0.00    -0.200 F 
ATOM     93  C   UNL A   1      40.860  26.322  26.195  1.00  0.00     0.200 A 
ATOM     94  F   UNL A   1      39.571  24.605  27.179  1.00  0.00    -0.200 F 
ATOM     95  F   UNL A   1      41.027  25.584  25.089  1.00  0.00    -0.200 F 
ENDBRANCH  61  85
BRANCH  73  96
ATOM     96  C   UNL A   1      43.993  28.315  34.550  1.00  0.00     0.064 A 
ATOM     97  C   UNL A   1      45.307  28.789  34.438  1.00  0.00     0.173 A 
ATOM     98  C   UNL A   1      43.772  27.148  35.298  1.00  0.00     0.173 A 
ATOM     99  F   UNL A   1      45.568  29.893  33.721  1.00  0.00    -0.203 F 
ATOM    100  C   UNL A   1      46.361  28.117  35.050  1.00  0.00     0.198 A 
ATOM    101  C   UNL A   1      44.825  26.496  35.933  1.00  0.00     0.198 A 
ATOM    102  F   UNL A   1      42.530  26.661  35.440  1.00  0.00    -0.203 F 
ATOM    103  F   UNL A   1      47.614  28.573  34.912  1.00  0.00    -0.200 F 
ATOM    104  C   UNL A   1      46.118  26.980  35.807  1.00  0.00     0.200 A 
ATOM    105  F   UNL A   1      44.586  25.406  36.674  1.00  0.00    -0.200 F 
ATOM    106  F   UNL A   1      47.132  26.348  36.416  1.00  0.00    -0.200 F 
ENDBRANCH  73  96
ENDBRANCH  47  48
ENDBRANCH  39  42
ENDBRANCH  37  38
ENDBRANCH  36  37
ENDBRANCH   1  36
TORSDOF 15
ENDMDL
MODEL 2
REMARK VINA RESULT:     -13.6      4.512      8.621
REMARK SMILES CC1(C)S[C@H]2[C@H](NC(=O)[C@H](NN3CCNC3=O)c3ccccc3)C(=O)N2[C@H]1C(=O)NCCCNC(=O)c1ccc(-c2c3nc(c(-c4c(F)c(F)c(F)c(F)c4F)c4ccc([nH]4)c(-c4c(F)c(F)c(F)c(F)c4F)c4nc(c(-c5c(F)c(F)c(F)c(F)c5F)c5ccc2[nH]5)C=C4)C=C3)cc1
REMARK SMILES IDX 31 1 30 2 28 3 29 4 27 6 1 7 2 8 3 9 4 10 5 11 26 12 6 13
REMARK SMILES IDX 24 14 25 15 7 16 8 17 9 19 10 20 18 21 19 22 23 23 20 24
REMARK SMILES IDX 22 25 21 26 11 27 12 29 13 30 16 31 14 32 15 33 17 34 32 36
REMARK SMILES IDX 33 37 34 38 35 39 36 41 37 42 38 43 99 44 39 45 98 46 40 47
REMARK SMILES IDX 41 48 42 49 92 50 43 51 97 52 91 53 93 54 44 55 96 56 90 57
REMARK SMILES IDX 89 58 45 60 77 61 57 62 76 63 58 64 61 65 75 66 94 67 59 68
REMARK SMILES IDX 60 69 74 71 95 72 62 73 46 74 47 75 55 76 48 77 49 78 53 79
REMARK SMILES IDX 56 80 50 81 51 82 54 83 52 84 78 85 79 86 87 87 80 88 81 89
REMARK SMILES IDX 85 90 88 91 82 92 83 93 86 94 84 95 63 96 64 97 72 98 65 99
REMARK SMILES IDX 66 100 70 101 73 102 67 103 68 104 71 105 69 106
REMARK H PARENT 30 5 7 18 11 28 15 35 34 40 93 59 61 70
REMARK Flexibility Score: inf
ROOT
ATOM      1  C   UNL A   1      34.776  22.437  25.444  1.00  0.00     0.117 C 
ENDROOT
BRANCH   1   2
ATOM      2  N   UNL A   1      33.684  21.521  25.697  1.00  0.00    -0.354 N 
ATOM      3  C   UNL A   1      32.427  21.536  25.167  1.00  0.00     0.244 C 
ATOM      4  O   UNL A   1      31.952  20.420  24.911  1.00  0.00    -0.273 OA
ATOM      5  H   UNL A   1      33.873  20.794  26.333  1.00  0.00     0.163 HD
BRANCH   3   6
ATOM      6  C   UNL A   1      31.588  22.822  24.884  1.00  0.00     0.191 C 
ATOM      7  C   UNL A   1      29.903  23.227  26.715  1.00  0.00     0.026 C 
ATOM      8  C   UNL A   1      31.169  23.779  26.035  1.00  0.00     0.042 C 
ATOM      9  C   UNL A   1      32.170  24.123  27.136  1.00  0.00     0.026 C 
ATOM     10  S   UNL A   1      30.752  25.409  25.255  1.00  0.00    -0.125 SA
ATOM     11  C   UNL A   1      31.395  24.987  23.612  1.00  0.00     0.176 C 
ATOM     12  N   UNL A   1      31.677  23.532  23.610  1.00  0.00    -0.313 N 
ATOM     13  C   UNL A   1      32.926  25.190  23.418  1.00  0.00     0.205 C 
ATOM     14  C   UNL A   1      32.797  23.711  22.864  1.00  0.00     0.249 C 
ATOM     15  O   UNL A   1      33.271  23.023  21.993  1.00  0.00    -0.272 OA
BRANCH  13  16
ATOM     16  N   UNL A   1      33.420  26.154  22.412  1.00  0.00    -0.340 N 
ATOM     17  C   UNL A   1      33.245  27.514  22.380  1.00  0.00     0.244 C 
ATOM     18  H   UNL A   1      33.941  25.770  21.670  1.00  0.00     0.164 HD
ATOM     19  O   UNL A   1      33.978  28.154  21.614  1.00  0.00    -0.273 OA
BRANCH  17  20
ATOM     20  C   UNL A   1      32.158  28.248  23.220  1.00  0.00     0.194 C 
BRANCH  20  21
ATOM     21  C   UNL A   1      32.677  28.764  24.568  1.00  0.00    -0.020 A 
ATOM     22  C   UNL A   1      31.958  29.704  25.326  1.00  0.00     0.006 A 
ATOM     23  C   UNL A   1      33.822  28.192  25.161  1.00  0.00     0.006 A 
ATOM     24  C   UNL A   1      32.386  30.072  26.610  1.00  0.00     0.000 A 
ATOM     25  C   UNL A   1      34.252  28.567  26.434  1.00  0.00     0.000 A 
ATOM     26  C   UNL A   1      33.533  29.506  27.161  1.00  0.00     0.000 A 
ENDBRANCH  20  21
BRANCH  20  27
ATOM     27  N   UNL A   1      31.362  29.235  22.429  1.00  0.00    -0.213 NA
ATOM     28  H   UNL A   1      31.516  29.056  21.436  1.00  0.00     0.149 HD
BRANCH  27  29
ATOM     29  N   UNL A   1      29.980  29.161  22.690  1.00  0.00    -0.257 N 
ATOM     30  C   UNL A   1      29.283  28.067  23.308  1.00  0.00     0.163 C 
ATOM     31  C   UNL A   1      29.088  30.187  22.395  1.00  0.00     0.331 C 
ATOM     32  C   UNL A   1      27.837  28.322  22.870  1.00  0.00     0.141 C 
ATOM     33  N   UNL A   1      27.808  29.725  22.572  1.00  0.00    -0.335 N 
ATOM     34  O   UNL A   1      29.388  31.295  21.998  1.00  0.00    -0.247 OA
ATOM     35  H   UNL A   1      26.994  30.274  22.505  1.00  0.00     0.165 HD
ENDBRANCH  27  29
ENDBRANCH  20  27
ENDBRANCH  17  20
ENDBRANCH  13  16
ENDBRANCH   3   6
ENDBRANCH   1   2
BRANCH   1  36
ATOM     36  C   UNL A   1      35.823  21.938  24.457  1.00  0.00     0.042 C 
BRANCH  36  37
ATOM     37  C   UNL A   1      37.236  22.341  24.869  1.00  0.00     0.118 C 
BRANCH  37  38
ATOM     38  N   UNL A   1      38.063  21.206  25.287  1.00  0.00    -0.352 N 
ATOM     39  C   UNL A   1      39.222  21.150  26.032  1.00  0.00     0.251 C 
ATOM     40  H   UNL A   1      37.735  20.329  24.982  1.00  0.00     0.163 HD
ATOM     41  O   UNL A   1      39.838  20.094  26.142  1.00  0.00    -0.269 OA
BRANCH  39  42
ATOM     42  C   UNL A   1      39.750  22.375  26.666  1.00  0.00     0.039 A 
ATOM     43  C   UNL A   1      40.719  22.277  27.669  1.00  0.00     0.014 A 
ATOM     44  C   UNL A   1      39.318  23.626  26.237  1.00  0.00     0.014 A 
ATOM     45  C   UNL A   1      41.344  23.435  28.143  1.00  0.00     0.010 A 
ATOM     46  C   UNL A   1      40.033  24.755  26.602  1.00  0.00     0.010 A 
ATOM     47  C   UNL A   1      41.056  24.677  27.560  1.00  0.00    -0.014 A 
BRANCH  47  48
ATOM     48  C   UNL A   1      41.774  25.930  27.920  1.00  0.00     0.031 A 
ATOM     49  C   UNL A   1      41.024  27.023  28.635  1.00  0.00     0.074 A 
ATOM     50  C   UNL A   1      43.028  26.148  27.479  1.00  0.00     0.049 A 
ATOM     51  N   UNL A   1      41.350  28.278  28.813  1.00  0.00    -0.248 NA
ATOM     52  C   UNL A   1      39.695  26.670  29.161  1.00  0.00     0.031 C 
ATOM     53  C   UNL A   1      43.845  25.194  26.726  1.00  0.00     0.029 A 
ATOM     54  N   UNL A   1      43.828  27.260  27.576  1.00  0.00    -0.354 N 
ATOM     55  C   UNL A   1      40.244  28.869  29.410  1.00  0.00     0.074 A 
ATOM     56  C   UNL A   1      39.220  27.854  29.510  1.00  0.00     0.031 C 
ATOM     57  C   UNL A   1      45.033  25.753  26.447  1.00  0.00     0.029 A 
ATOM     58  C   UNL A   1      45.045  27.122  26.951  1.00  0.00     0.049 A 
ATOM     59  H   UNL A   1      43.556  28.081  28.048  1.00  0.00     0.167 HD
ATOM     60  C   UNL A   1      40.105  30.139  29.859  1.00  0.00     0.037 A 
ATOM     61  C   UNL A   1      46.048  28.007  26.787  1.00  0.00     0.037 A 
ATOM     62  C   UNL A   1      41.159  31.116  29.827  1.00  0.00     0.049 A 
ATOM     63  C   UNL A   1      45.894  29.398  27.343  1.00  0.00     0.074 A 
ATOM     64  C   UNL A   1      41.162  32.398  30.346  1.00  0.00     0.029 A 
ATOM     65  N   UNL A   1      42.406  30.909  29.255  1.00  0.00    -0.354 N 
ATOM     66  N   UNL A   1      44.867  29.932  27.958  1.00  0.00    -0.248 NA
ATOM     67  C   UNL A   1      47.036  30.308  27.183  1.00  0.00     0.031 C 
ATOM     68  C   UNL A   1      42.399  32.981  30.054  1.00  0.00     0.029 A 
ATOM     69  C   UNL A   1      43.184  32.045  29.398  1.00  0.00     0.049 A 
ATOM     70  H   UNL A   1      42.695  30.077  28.814  1.00  0.00     0.167 HD
ATOM     71  C   UNL A   1      45.249  31.224  28.289  1.00  0.00     0.074 A 
ATOM     72  C   UNL A   1      46.604  31.395  27.809  1.00  0.00     0.031 C 
ATOM     73  C   UNL A   1      44.541  32.181  28.936  1.00  0.00     0.037 A 
BRANCH  60  74
ATOM     74  C   UNL A   1      38.773  30.534  30.429  1.00  0.00     0.064 A 
ATOM     75  C   UNL A   1      38.538  30.562  31.813  1.00  0.00     0.173 A 
ATOM     76  C   UNL A   1      37.719  30.907  29.580  1.00  0.00     0.173 A 
ATOM     77  F   UNL A   1      39.508  30.205  32.669  1.00  0.00    -0.203 F 
ATOM     78  C   UNL A   1      37.288  30.900  32.322  1.00  0.00     0.198 A 
ATOM     79  C   UNL A   1      36.481  31.281  30.095  1.00  0.00     0.198 A 
ATOM     80  F   UNL A   1      37.890  30.909  28.249  1.00  0.00    -0.203 F 
ATOM     81  F   UNL A   1      37.069  30.848  33.644  1.00  0.00    -0.200 F 
ATOM     82  C   UNL A   1      36.262  31.265  31.464  1.00  0.00     0.200 A 
ATOM     83  F   UNL A   1      35.495  31.649  29.265  1.00  0.00    -0.200 F 
ATOM     84  F   UNL A   1      35.059  31.592  31.956  1.00  0.00    -0.200 F 
ENDBRANCH  60  74
BRANCH  61  85
ATOM     85  C   UNL A   1      47.294  27.593  26.091  1.00  0.00     0.064 A 
ATOM     86  C   UNL A   1      47.390  27.660  24.694  1.00  0.00     0.173 A 
ATOM     87  C   UNL A   1      48.419  27.142  26.798  1.00  0.00     0.173 A 
ATOM     88  F   UNL A   1      46.335  28.068  23.971  1.00  0.00    -0.203 F 
ATOM     89  C   UNL A   1      48.553  27.277  24.030  1.00  0.00     0.198 A 
ATOM     90  C   UNL A   1      49.592  26.785  26.136  1.00  0.00     0.198 A 
ATOM     91  F   UNL A   1      48.385  27.067  28.137  1.00  0.00    -0.203 F 
ATOM     92  F   UNL A   1      48.602  27.317  22.692  1.00  0.00    -0.200 F 
ATOM     93  C   UNL A   1      49.656  26.847  24.752  1.00  0.00     0.200 A 
ATOM     94  F   UNL A   1      50.661  26.386  26.838  1.00  0.00    -0.200 F 
ATOM     95  F   UNL A   1      50.779  26.489  24.114  1.00  0.00    -0.200 F 
ENDBRANCH  61  85
BRANCH  73  96
ATOM     96  C   UNL A   1      45.227  33.485  29.217  1.00  0.00     0.064 A 
ATOM     97  C   UNL A   1      45.123  34.575  28.343  1.00  0.00     0.173 A 
ATOM     98  C   UNL A   1      45.916  33.670  30.426  1.00  0.00     0.173 A 
ATOM     99  F   UNL A   1      44.487  34.440  27.169  1.00  0.00    -0.203 F 
ATOM    100  C   UNL A   1      45.691  35.804  28.666  1.00  0.00     0.198 A 
ATOM    101  C   UNL A   1      46.457  34.908  30.758  1.00  0.00     0.198 A 
ATOM    102  F   UNL A   1      46.034  32.657  31.298  1.00  0.00    -0.203 F 
ATOM    103  F   UNL A   1      45.601  36.828  27.806  1.00  0.00    -0.200 F 
ATOM    104  C   UNL A   1      46.345  35.973  29.878  1.00  0.00     0.200 A 
ATOM    105  F   UNL A   1      47.075  35.072  31.935  1.00  0.00    -0.200 F 
ATOM    106  F   UNL A   1      46.869  37.164  30.198  1.00  0.00    -0.200 F 
ENDBRANCH  73  96
ENDBRANCH  47  48
ENDBRANCH  39  42
ENDBRANCH  37  38
ENDBRANCH  36  37
ENDBRANCH   1  36
TORSDOF 15
ENDMDL
MODEL 3
REMARK VINA RESULT:     -13.6      3.225      8.764
REMARK SMILES CC1(C)S[C@H]2[C@H](NC(=O)[C@H](NN3CCNC3=O)c3ccccc3)C(=O)N2[C@H]1C(=O)NCCCNC(=O)c1ccc(-c2c3nc(c(-c4c(F)c(F)c(F)c(F)c4F)c4ccc([nH]4)c(-c4c(F)c(F)c(F)c(F)c4F)c4nc(c(-c5c(F)c(F)c(F)c(F)c5F)c5ccc2[nH]5)C=C4)C=C3)cc1
REMARK SMILES IDX 31 1 30 2 28 3 29 4 27 6 1 7 2 8 3 9 4 10 5 11 26 12 6 13
REMARK SMILES IDX 24 14 25 15 7 16 8 17 9 19 10 20 18 21 19 22 23 23 20 24
REMARK SMILES IDX 22 25 21 26 11 27 12 29 13 30 16 31 14 32 15 33 17 34 32 36
REMARK SMILES IDX 33 37 34 38 35 39 36 41 37 42 38 43 99 44 39 45 98 46 40 47
REMARK SMILES IDX 41 48 42 49 92 50 43 51 97 52 91 53 93 54 44 55 96 56 90 57
REMARK SMILES IDX 89 58 45 60 77 61 57 62 76 63 58 64 61 65 75 66 94 67 59 68
REMARK SMILES IDX 60 69 74 71 95 72 62 73 46 74 47 75 55 76 48 77 49 78 53 79
REMARK SMILES IDX 56 80 50 81 51 82 54 83 52 84 78 85 79 86 87 87 80 88 81 89
REMARK SMILES IDX 85 90 88 91 82 92 83 93 86 94 84 95 63 96 64 97 72 98 65 99
REMARK SMILES IDX 66 100 70 101 73 102 67 103 68 104 71 105 69 106
REMARK H PARENT 30 5 7 18 11 28 15 35 34 40 93 59 61 70
REMARK Flexibility Score: inf
ROOT
ATOM      1  C   UNL A   1      35.120  22.647  24.833  1.00  0.00     0.117 C 
ENDROOT
BRANCH   1   2
ATOM      2  N   UNL A   1      34.170  21.594  25.120  1.00  0.00    -0.354 N 
ATOM      3  C   UNL A   1      32.883  21.473  24.683  1.00  0.00     0.244 C 
ATOM      4  O   UNL A   1      32.529  20.317  24.409  1.00  0.00    -0.273 OA
ATOM      5  H   UNL A   1      34.494  20.872  25.706  1.00  0.00     0.163 HD
BRANCH   3   6
ATOM      6  C   UNL A   1      31.875  22.654  24.523  1.00  0.00     0.191 C 
ATOM      7  C   UNL A   1      30.169  22.649  26.379  1.00  0.00     0.026 C 
ATOM      8  C   UNL A   1      31.342  23.431  25.760  1.00  0.00     0.042 C 
ATOM      9  C   UNL A   1      32.298  23.800  26.892  1.00  0.00     0.026 C 
ATOM     10  S   UNL A   1      30.701  25.056  25.140  1.00  0.00    -0.125 SA
ATOM     11  C   UNL A   1      31.378  24.885  23.465  1.00  0.00     0.176 C 
ATOM     12  N   UNL A   1      31.855  23.489  23.324  1.00  0.00    -0.313 N 
ATOM     13  C   UNL A   1      32.866  25.311  23.296  1.00  0.00     0.205 C 
ATOM     14  C   UNL A   1      32.932  23.888  22.602  1.00  0.00     0.249 C 
ATOM     15  O   UNL A   1      33.486  23.358  21.670  1.00  0.00    -0.272 OA
BRANCH  13  16
ATOM     16  N   UNL A   1      33.215  26.425  22.389  1.00  0.00    -0.340 N 
ATOM     17  C   UNL A   1      32.979  27.766  22.559  1.00  0.00     0.244 C 
ATOM     18  H   UNL A   1      33.676  26.172  21.557  1.00  0.00     0.164 HD
ATOM     19  O   UNL A   1      33.603  28.541  21.823  1.00  0.00    -0.273 OA
BRANCH  17  20
ATOM     20  C   UNL A   1      31.950  28.321  23.589  1.00  0.00     0.194 C 
BRANCH  20  21
ATOM     21  C   UNL A   1      32.515  28.437  25.011  1.00  0.00    -0.020 A 
ATOM     22  C   UNL A   1      33.897  28.481  25.256  1.00  0.00     0.006 A 
ATOM     23  C   UNL A   1      31.654  28.657  26.106  1.00  0.00     0.006 A 
ATOM     24  C   UNL A   1      34.393  28.710  26.548  1.00  0.00     0.000 A 
ATOM     25  C   UNL A   1      32.148  28.874  27.394  1.00  0.00     0.000 A 
ATOM     26  C   UNL A   1      33.519  28.903  27.614  1.00  0.00     0.000 A 
ENDBRANCH  20  21
BRANCH  20  27
ATOM     27  N   UNL A   1      31.212  29.525  23.101  1.00  0.00    -0.213 NA
ATOM     28  H   UNL A   1      31.450  29.678  22.121  1.00  0.00     0.149 HD
BRANCH  27  29
ATOM     29  N   UNL A   1      29.814  29.392  23.208  1.00  0.00    -0.257 N 
ATOM     30  C   UNL A   1      29.064  28.167  23.157  1.00  0.00     0.163 C 
ATOM     31  C   UNL A   1      28.954  30.468  23.408  1.00  0.00     0.331 C 
ATOM     32  C   UNL A   1      27.656  28.668  22.818  1.00  0.00     0.141 C 
ATOM     33  N   UNL A   1      27.661  30.035  23.255  1.00  0.00    -0.335 N 
ATOM     34  O   UNL A   1      29.292  31.612  23.632  1.00  0.00    -0.247 OA
ATOM     35  H   UNL A   1      26.858  30.580  23.420  1.00  0.00     0.165 HD
ENDBRANCH  27  29
ENDBRANCH  20  27
ENDBRANCH  17  20
ENDBRANCH  13  16
ENDBRANCH   3   6
ENDBRANCH   1   2
BRANCH   1  36
ATOM     36  C   UNL A   1      36.120  22.936  25.944  1.00  0.00     0.042 C 
BRANCH  36  37
ATOM     37  C   UNL A   1      37.375  23.628  25.419  1.00  0.00     0.118 C 
BRANCH  37  38
ATOM     38  N   UNL A   1      38.611  22.914  25.750  1.00  0.00    -0.352 N 
ATOM     39  C   UNL A   1      39.749  23.322  26.411  1.00  0.00     0.251 C 
ATOM     40  H   UNL A   1      38.633  21.977  25.447  1.00  0.00     0.163 HD
ATOM     41  O   UNL A   1      40.738  22.595  26.452  1.00  0.00    -0.269 OA
BRANCH  39  42
ATOM     42  C   UNL A   1      39.797  24.659  27.039  1.00  0.00     0.039 A 
ATOM     43  C   UNL A   1      39.285  24.843  28.326  1.00  0.00     0.014 A 
ATOM     44  C   UNL A   1      40.391  25.724  26.369  1.00  0.00     0.014 A 
ATOM     45  C   UNL A   1      39.488  26.060  28.986  1.00  0.00     0.010 A 
ATOM     46  C   UNL A   1      40.715  26.874  27.070  1.00  0.00     0.010 A 
ATOM     47  C   UNL A   1      40.269  27.060  28.388  1.00  0.00    -0.014 A 
BRANCH  47  48
ATOM     48  C   UNL A   1      40.638  28.324  29.080  1.00  0.00     0.031 A 
ATOM     49  C   UNL A   1      42.005  28.446  29.699  1.00  0.00     0.074 A 
ATOM     50  C   UNL A   1      39.715  29.284  29.284  1.00  0.00     0.049 A 
ATOM     51  N   UNL A   1      42.453  29.322  30.562  1.00  0.00    -0.248 NA
ATOM     52  C   UNL A   1      42.979  27.398  29.351  1.00  0.00     0.031 C 
ATOM     53  C   UNL A   1      38.338  29.263  28.787  1.00  0.00     0.029 A 
ATOM     54  N   UNL A   1      39.789  30.458  29.995  1.00  0.00    -0.354 N 
ATOM     55  C   UNL A   1      43.729  28.891  30.902  1.00  0.00     0.074 A 
ATOM     56  C   UNL A   1      43.961  27.649  30.200  1.00  0.00     0.031 C 
ATOM     57  C   UNL A   1      37.706  30.377  29.190  1.00  0.00     0.029 A 
ATOM     58  C   UNL A   1      38.611  31.165  30.019  1.00  0.00     0.049 A 
ATOM     59  H   UNL A   1      40.610  30.764  30.445  1.00  0.00     0.167 HD
ATOM     60  C   UNL A   1      44.637  29.492  31.707  1.00  0.00     0.037 A 
ATOM     61  C   UNL A   1      38.292  32.309  30.654  1.00  0.00     0.037 A 
ATOM     62  C   UNL A   1      44.425  30.768  32.336  1.00  0.00     0.049 A 
ATOM     63  C   UNL A   1      39.335  32.991  31.501  1.00  0.00     0.074 A 
ATOM     64  C   UNL A   1      45.312  31.517  33.087  1.00  0.00     0.029 A 
ATOM     65  N   UNL A   1      43.242  31.489  32.269  1.00  0.00    -0.354 N 
ATOM     66  N   UNL A   1      40.559  32.606  31.770  1.00  0.00    -0.248 NA
ATOM     67  C   UNL A   1      38.954  34.262  32.130  1.00  0.00     0.031 C 
ATOM     68  C   UNL A   1      44.653  32.676  33.507  1.00  0.00     0.029 A 
ATOM     69  C   UNL A   1      43.372  32.672  32.977  1.00  0.00     0.049 A 
ATOM     70  H   UNL A   1      42.431  31.204  31.789  1.00  0.00     0.167 HD
ATOM     71  C   UNL A   1      41.105  33.601  32.569  1.00  0.00     0.074 A 
ATOM     72  C   UNL A   1      40.080  34.610  32.740  1.00  0.00     0.031 C 
ATOM     73  C   UNL A   1      42.346  33.674  33.109  1.00  0.00     0.037 A 
BRANCH  60  74
ATOM     74  C   UNL A   1      45.938  28.781  31.942  1.00  0.00     0.064 A 
ATOM     75  C   UNL A   1      47.048  28.968  31.102  1.00  0.00     0.173 A 
ATOM     76  C   UNL A   1      46.086  27.910  33.033  1.00  0.00     0.173 A 
ATOM     77  F   UNL A   1      46.959  29.782  30.039  1.00  0.00    -0.203 F 
ATOM     78  C   UNL A   1      48.236  28.276  31.317  1.00  0.00     0.198 A 
ATOM     79  C   UNL A   1      47.288  27.248  33.267  1.00  0.00     0.198 A 
ATOM     80  F   UNL A   1      45.062  27.700  33.875  1.00  0.00    -0.203 F 
ATOM     81  F   UNL A   1      49.255  28.418  30.458  1.00  0.00    -0.200 F 
ATOM     82  C   UNL A   1      48.358  27.421  32.401  1.00  0.00     0.200 A 
ATOM     83  F   UNL A   1      47.409  26.434  34.324  1.00  0.00    -0.200 F 
ATOM     84  F   UNL A   1      49.503  26.757  32.607  1.00  0.00    -0.200 F 
ENDBRANCH  60  74
BRANCH  61  85
ATOM     85  C   UNL A   1      36.936  32.896  30.489  1.00  0.00     0.064 A 
ATOM     86  C   UNL A   1      35.974  32.768  31.500  1.00  0.00     0.173 A 
ATOM     87  C   UNL A   1      36.577  33.609  29.336  1.00  0.00     0.173 A 
ATOM     88  F   UNL A   1      36.263  32.078  32.615  1.00  0.00    -0.203 F 
ATOM     89  C   UNL A   1      34.700  33.314  31.358  1.00  0.00     0.198 A 
ATOM     90  C   UNL A   1      35.312  34.180  29.206  1.00  0.00     0.198 A 
ATOM     91  F   UNL A   1      37.464  33.771  28.343  1.00  0.00    -0.203 F 
ATOM     92  F   UNL A   1      33.789  33.143  32.325  1.00  0.00    -0.200 F 
ATOM     93  C   UNL A   1      34.372  34.026  30.215  1.00  0.00     0.200 A 
ATOM     94  F   UNL A   1      35.005  34.882  28.107  1.00  0.00    -0.200 F 
ATOM     95  F   UNL A   1      33.151  34.562  30.083  1.00  0.00    -0.200 F 
ENDBRANCH  61  85
BRANCH  73  96
ATOM     96  C   UNL A   1      42.694  34.905  33.891  1.00  0.00     0.064 A 
ATOM     97  C   UNL A   1      42.605  34.938  35.289  1.00  0.00     0.173 A 
ATOM     98  C   UNL A   1      43.216  36.030  33.234  1.00  0.00     0.173 A 
ATOM     99  F   UNL A   1      42.099  33.891  35.958  1.00  0.00    -0.203 F 
ATOM    100  C   UNL A   1      43.020  36.058  36.003  1.00  0.00     0.198 A 
ATOM    101  C   UNL A   1      43.657  37.137  33.954  1.00  0.00     0.198 A 
ATOM    102  F   UNL A   1      43.329  36.041  31.897  1.00  0.00    -0.203 F 
ATOM    103  F   UNL A   1      42.904  36.081  37.338  1.00  0.00    -0.200 F 
ATOM    104  C   UNL A   1      43.557  37.151  35.336  1.00  0.00     0.200 A 
ATOM    105  F   UNL A   1      44.189  38.184  33.309  1.00  0.00    -0.200 F 
ATOM    106  F   UNL A   1      43.979  38.218  36.028  1.00  0.00    -0.200 F 
ENDBRANCH  73  96
ENDBRANCH  47  48
ENDBRANCH  39  42
ENDBRANCH  37  38
ENDBRANCH  36  37
ENDBRANCH   1  36
TORSDOF 15
ENDMDL
