MODEL 1
REMARK VINA RESULT:     -11.3      0.000      0.000
REMARK SMILES C#CC[C@@]1(C(=O)NCCCNC(=O)c2ccc(-c3c4nc(c(-c5c(F)c(F)c(F)c(F)c5F)c5ccc([nH]5)c(-c5c(F)c(F)c(F)c(F)c5F)c5nc(c(-c6c(F)c(F)c(F)c(F)c6F)c6ccc3[nH]6)C=C5)C=C4)cc2)CCCN1C(=O)OC(C)(C)C
REMARK SMILES IDX 8 1 7 2 5 3 6 4 4 6 77 7 80 8 78 9 79 10 3 11 2 12 1 13
REMARK SMILES IDX 81 14 82 15 83 16 84 17 85 18 86 19 87 20 9 21 10 22 11 23
REMARK SMILES IDX 12 24 13 26 14 27 15 28 76 29 16 30 75 31 17 32 18 33 19 34
REMARK SMILES IDX 69 35 20 36 74 37 68 38 70 39 21 40 73 41 67 42 66 43 22 45
REMARK SMILES IDX 54 46 34 47 53 48 35 49 38 50 52 51 71 52 36 53 37 54 51 56
REMARK SMILES IDX 72 57 39 58 23 59 24 60 32 61 25 62 26 63 30 64 33 65 27 66
REMARK SMILES IDX 28 67 31 68 29 69 55 70 56 71 64 72 57 73 58 74 62 75 65 76
REMARK SMILES IDX 59 77 60 78 63 79 61 80 40 81 41 82 49 83 42 84 43 85 47 86
REMARK SMILES IDX 50 87 44 88 45 89 48 90 46 91
REMARK H PARENT 7 5 11 25 70 44 38 55
REMARK Flexibility Score: inf
ROOT
ATOM      1  C   UNL A   1      31.778  30.286  25.666  1.00  0.00     0.117 C 
ENDROOT
BRANCH   1   2
ATOM      2  N   UNL A   1      31.418  29.047  26.336  1.00  0.00    -0.354 N 
ATOM      3  C   UNL A   1      31.582  27.743  25.958  1.00  0.00     0.247 C 
ATOM      4  O   UNL A   1      31.361  26.887  26.822  1.00  0.00    -0.272 OA
ATOM      5  H   UNL A   1      30.982  29.167  27.211  1.00  0.00     0.163 HD
BRANCH   3   6
ATOM      6  C   UNL A   1      32.135  27.363  24.563  1.00  0.00     0.136 C 
ATOM      7  C   UNL A   1      33.554  27.978  24.389  1.00  0.00     0.042 C 
ATOM      8  N   UNL A   1      31.347  28.001  23.471  1.00  0.00    -0.292 N 
ATOM      9  C   UNL A   1      33.630  28.473  22.946  1.00  0.00     0.025 C 
ATOM     10  C   UNL A   1      32.198  28.578  22.449  1.00  0.00     0.124 C 
BRANCH   6  11
ATOM     11  C   UNL A   1      32.266  25.807  24.433  1.00  0.00     0.128 C 
BRANCH  11  12
ATOM     12  C   UNL A   1      33.630  25.381  24.950  1.00  0.00    -0.104 C 
ATOM     13  C   UNL A   1      34.800  25.016  25.394  1.00  0.00     0.004 C 
ENDBRANCH  11  12
ENDBRANCH   6  11
BRANCH   8  14
ATOM     14  C   UNL A   1      29.984  27.956  23.234  1.00  0.00     0.411 C 
ATOM     15  O   UNL A   1      29.249  27.167  23.823  1.00  0.00    -0.224 OA
BRANCH  14  16
ATOM     16  O   UNL A   1      29.563  28.761  22.222  1.00  0.00    -0.444 OA
BRANCH  16  17
ATOM     17  C   UNL A   1      28.587  29.820  22.483  1.00  0.00     0.106 C 
ATOM     18  C   UNL A   1      27.199  29.278  22.868  1.00  0.00     0.056 C 
ATOM     19  C   UNL A   1      29.087  30.813  23.540  1.00  0.00     0.056 C 
ATOM     20  C   UNL A   1      28.428  30.567  21.148  1.00  0.00     0.056 C 
ENDBRANCH  16  17
ENDBRANCH  14  16
ENDBRANCH   8  14
ENDBRANCH   3   6
ENDBRANCH   1   2
BRANCH   1  21
ATOM     21  C   UNL A   1      31.494  31.528  26.490  1.00  0.00     0.042 C 
BRANCH  21  22
ATOM     22  C   UNL A   1      32.709  32.060  27.229  1.00  0.00     0.118 C 
BRANCH  22  23
ATOM     23  N   UNL A   1      32.595  33.481  27.519  1.00  0.00    -0.352 N 
ATOM     24  C   UNL A   1      33.255  34.247  28.445  1.00  0.00     0.251 C 
ATOM     25  H   UNL A   1      31.943  33.969  26.964  1.00  0.00     0.163 HD
ATOM     26  O   UNL A   1      32.842  35.372  28.710  1.00  0.00    -0.269 OA
BRANCH  24  27
ATOM     27  C   UNL A   1      34.450  33.718  29.135  1.00  0.00     0.039 A 
ATOM     28  C   UNL A   1      34.279  32.752  30.128  1.00  0.00     0.014 A 
ATOM     29  C   UNL A   1      35.731  34.184  28.826  1.00  0.00     0.014 A 
ATOM     30  C   UNL A   1      35.395  32.219  30.771  1.00  0.00     0.010 A 
ATOM     31  C   UNL A   1      36.847  33.577  29.392  1.00  0.00     0.010 A 
ATOM     32  C   UNL A   1      36.692  32.599  30.383  1.00  0.00    -0.014 A 
BRANCH  32  33
ATOM     33  C   UNL A   1      37.883  31.971  31.008  1.00  0.00     0.031 A 
ATOM     34  C   UNL A   1      38.318  32.363  32.394  1.00  0.00     0.074 A 
ATOM     35  C   UNL A   1      38.591  31.064  30.308  1.00  0.00     0.049 A 
ATOM     36  N   UNL A   1      39.315  31.902  33.109  1.00  0.00    -0.248 NA
ATOM     37  C   UNL A   1      37.551  33.429  33.057  1.00  0.00     0.031 C 
ATOM     38  C   UNL A   1      38.309  30.653  28.931  1.00  0.00     0.029 A 
ATOM     39  N   UNL A   1      39.688  30.317  30.659  1.00  0.00    -0.354 N 
ATOM     40  C   UNL A   1      39.295  32.623  34.295  1.00  0.00     0.074 A 
ATOM     41  C   UNL A   1      38.234  33.598  34.179  1.00  0.00     0.031 C 
ATOM     42  C   UNL A   1      39.179  29.697  28.570  1.00  0.00     0.029 A 
ATOM     43  C   UNL A   1      40.103  29.456  29.673  1.00  0.00     0.049 A 
ATOM     44  H   UNL A   1      40.134  30.393  31.532  1.00  0.00     0.167 HD
ATOM     45  C   UNL A   1      40.074  32.468  35.393  1.00  0.00     0.037 A 
ATOM     46  C   UNL A   1      41.115  28.568  29.662  1.00  0.00     0.037 A 
ATOM     47  C   UNL A   1      41.123  31.487  35.506  1.00  0.00     0.049 A 
ATOM     48  C   UNL A   1      41.961  28.413  30.896  1.00  0.00     0.074 A 
ATOM     49  C   UNL A   1      41.935  31.212  36.591  1.00  0.00     0.029 A 
ATOM     50  N   UNL A   1      41.512  30.625  34.489  1.00  0.00    -0.354 N 
ATOM     51  N   UNL A   1      41.881  29.042  32.043  1.00  0.00    -0.248 NA
ATOM     52  C   UNL A   1      43.032  27.409  30.836  1.00  0.00     0.031 C 
ATOM     53  C   UNL A   1      42.853  30.225  36.214  1.00  0.00     0.029 A 
ATOM     54  C   UNL A   1      42.568  29.835  34.915  1.00  0.00     0.049 A 
ATOM     55  H   UNL A   1      41.098  30.582  33.597  1.00  0.00     0.167 HD
ATOM     56  C   UNL A   1      42.866  28.491  32.851  1.00  0.00     0.074 A 
ATOM     57  C   UNL A   1      43.514  27.459  32.069  1.00  0.00     0.031 C 
ATOM     58  C   UNL A   1      43.205  28.811  34.125  1.00  0.00     0.037 A 
BRANCH  45  59
ATOM     59  C   UNL A   1      39.819  33.377  36.562  1.00  0.00     0.064 A 
ATOM     60  C   UNL A   1      38.881  33.056  37.557  1.00  0.00     0.173 A 
ATOM     61  C   UNL A   1      40.545  34.568  36.712  1.00  0.00     0.173 A 
ATOM     62  F   UNL A   1      38.149  31.935  37.460  1.00  0.00    -0.203 F 
ATOM     63  C   UNL A   1      38.659  33.906  38.637  1.00  0.00     0.198 A 
ATOM     64  C   UNL A   1      40.346  35.399  37.813  1.00  0.00     0.198 A 
ATOM     65  F   UNL A   1      41.458  34.924  35.795  1.00  0.00    -0.203 F 
ATOM     66  F   UNL A   1      37.719  33.603  39.544  1.00  0.00    -0.200 F 
ATOM     67  C   UNL A   1      39.398  35.071  38.769  1.00  0.00     0.200 A 
ATOM     68  F   UNL A   1      41.072  36.518  37.945  1.00  0.00    -0.200 F 
ATOM     69  F   UNL A   1      39.190  35.885  39.814  1.00  0.00    -0.200 F 
ENDBRANCH  45  59
BRANCH  46  70
ATOM     70  C   UNL A   1      41.360  27.733  28.456  1.00  0.00     0.064 A 
ATOM     71  C   UNL A   1      42.274  28.136  27.472  1.00  0.00     0.173 A 
ATOM     72  C   UNL A   1      40.682  26.521  28.258  1.00  0.00     0.173 A 
ATOM     73  F   UNL A   1      42.935  29.295  27.605  1.00  0.00    -0.203 F 
ATOM     74  C   UNL A   1      42.477  27.374  26.322  1.00  0.00     0.198 A 
ATOM     75  C   UNL A   1      40.913  25.743  27.126  1.00  0.00     0.198 A 
ATOM     76  F   UNL A   1      39.804  26.086  29.174  1.00  0.00    -0.203 F 
ATOM     77  F   UNL A   1      43.315  27.811  25.373  1.00  0.00    -0.200 F 
ATOM     78  C   UNL A   1      41.801  26.176  26.154  1.00  0.00     0.200 A 
ATOM     79  F   UNL A   1      40.270  24.576  26.976  1.00  0.00    -0.200 F 
ATOM     80  F   UNL A   1      42.001  25.441  25.051  1.00  0.00    -0.200 F 
ENDBRANCH  46  70
BRANCH  58  81
ATOM     81  C   UNL A   1      44.301  28.003  34.763  1.00  0.00     0.064 A 
ATOM     82  C   UNL A   1      45.646  28.400  34.705  1.00  0.00     0.173 A 
ATOM     83  C   UNL A   1      43.999  26.810  35.440  1.00  0.00     0.173 A 
ATOM     84  F   UNL A   1      45.992  29.524  34.060  1.00  0.00    -0.203 F 
ATOM     85  C   UNL A   1      46.651  27.608  35.257  1.00  0.00     0.198 A 
ATOM     86  C   UNL A   1      45.001  26.043  36.025  1.00  0.00     0.198 A 
ATOM     87  F   UNL A   1      42.729  26.389  35.536  1.00  0.00    -0.203 F 
ATOM     88  F   UNL A   1      47.934  27.969  35.122  1.00  0.00    -0.200 F 
ATOM     89  C   UNL A   1      46.327  26.435  35.920  1.00  0.00     0.200 A 
ATOM     90  F   UNL A   1      44.685  24.918  36.682  1.00  0.00    -0.200 F 
ATOM     91  F   UNL A   1      47.296  25.672  36.447  1.00  0.00    -0.200 F 
ENDBRANCH  58  81
ENDBRANCH  32  33
ENDBRANCH  24  27
ENDBRANCH  22  23
ENDBRANCH  21  22
ENDBRANCH   1  21
TORSDOF 15
ENDMDL
MODEL 2
REMARK VINA RESULT:     -11.3      1.118      2.336
REMARK SMILES C#CC[C@@]1(C(=O)NCCCNC(=O)c2ccc(-c3c4nc(c(-c5c(F)c(F)c(F)c(F)c5F)c5ccc([nH]5)c(-c5c(F)c(F)c(F)c(F)c5F)c5nc(c(-c6c(F)c(F)c(F)c(F)c6F)c6ccc3[nH]6)C=C5)C=C4)cc2)CCCN1C(=O)OC(C)(C)C
REMARK SMILES IDX 8 1 7 2 5 3 6 4 4 6 77 7 80 8 78 9 79 10 3 11 2 12 1 13
REMARK SMILES IDX 81 14 82 15 83 16 84 17 85 18 86 19 87 20 9 21 10 22 11 23
REMARK SMILES IDX 12 24 13 26 14 27 15 28 76 29 16 30 75 31 17 32 18 33 19 34
REMARK SMILES IDX 69 35 20 36 74 37 68 38 70 39 21 40 73 41 67 42 66 43 22 45
REMARK SMILES IDX 54 46 34 47 53 48 35 49 38 50 52 51 71 52 36 53 37 54 51 56
REMARK SMILES IDX 72 57 39 58 23 59 24 60 32 61 25 62 26 63 30 64 33 65 27 66
REMARK SMILES IDX 28 67 31 68 29 69 55 70 56 71 64 72 57 73 58 74 62 75 65 76
REMARK SMILES IDX 59 77 60 78 63 79 61 80 40 81 41 82 49 83 42 84 43 85 47 86
REMARK SMILES IDX 50 87 44 88 45 89 48 90 46 91
REMARK H PARENT 7 5 11 25 70 44 38 55
REMARK Flexibility Score: inf
ROOT
ATOM      1  C   UNL A   1      31.412  30.515  25.860  1.00  0.00     0.117 C 
ENDROOT
BRANCH   1   2
ATOM      2  N   UNL A   1      32.595  29.817  26.336  1.00  0.00    -0.354 N 
ATOM      3  C   UNL A   1      33.275  28.750  25.819  1.00  0.00     0.247 C 
ATOM      4  O   UNL A   1      34.370  28.493  26.332  1.00  0.00    -0.272 OA
ATOM      5  H   UNL A   1      32.971  30.174  27.174  1.00  0.00     0.163 HD
BRANCH   3   6
ATOM      6  C   UNL A   1      32.762  27.981  24.576  1.00  0.00     0.136 C 
ATOM      7  C   UNL A   1      32.565  28.982  23.401  1.00  0.00     0.042 C 
ATOM      8  N   UNL A   1      31.393  27.437  24.798  1.00  0.00    -0.292 N 
ATOM      9  C   UNL A   1      31.281  28.558  22.690  1.00  0.00     0.025 C 
ATOM     10  C   UNL A   1      30.522  27.672  23.663  1.00  0.00     0.124 C 
BRANCH   6  11
ATOM     11  C   UNL A   1      33.813  26.910  24.125  1.00  0.00     0.128 C 
BRANCH  11  12
ATOM     12  C   UNL A   1      33.261  26.149  22.931  1.00  0.00    -0.104 C 
ATOM     13  C   UNL A   1      32.788  25.496  21.907  1.00  0.00     0.004 C 
ENDBRANCH  11  12
ENDBRANCH   6  11
BRANCH   8  14
ATOM     14  C   UNL A   1      30.929  26.625  25.818  1.00  0.00     0.411 C 
ATOM     15  O   UNL A   1      31.082  26.919  27.001  1.00  0.00    -0.224 OA
BRANCH  14  16
ATOM     16  O   UNL A   1      30.411  25.439  25.401  1.00  0.00    -0.444 OA
BRANCH  16  17
ATOM     17  C   UNL A   1      31.082  24.184  25.744  1.00  0.00     0.106 C 
ATOM     18  C   UNL A   1      32.549  24.382  26.167  1.00  0.00     0.056 C 
ATOM     19  C   UNL A   1      30.317  23.398  26.815  1.00  0.00     0.056 C 
ATOM     20  C   UNL A   1      31.092  23.359  24.446  1.00  0.00     0.056 C 
ENDBRANCH  16  17
ENDBRANCH  14  16
ENDBRANCH   8  14
ENDBRANCH   3   6
ENDBRANCH   1   2
BRANCH   1  21
ATOM     21  C   UNL A   1      31.249  31.906  26.444  1.00  0.00     0.042 C 
BRANCH  21  22
ATOM     22  C   UNL A   1      32.513  32.448  27.088  1.00  0.00     0.118 C 
BRANCH  22  23
ATOM     23  N   UNL A   1      32.383  33.850  27.454  1.00  0.00    -0.352 N 
ATOM     24  C   UNL A   1      33.026  34.569  28.428  1.00  0.00     0.251 C 
ATOM     25  H   UNL A   1      31.732  34.362  26.921  1.00  0.00     0.163 HD
ATOM     26  O   UNL A   1      32.600  35.673  28.751  1.00  0.00    -0.269 OA
BRANCH  24  27
ATOM     27  C   UNL A   1      34.219  34.013  29.101  1.00  0.00     0.039 A 
ATOM     28  C   UNL A   1      34.039  33.079  30.122  1.00  0.00     0.014 A 
ATOM     29  C   UNL A   1      35.507  34.424  28.748  1.00  0.00     0.014 A 
ATOM     30  C   UNL A   1      35.152  32.520  30.750  1.00  0.00     0.010 A 
ATOM     31  C   UNL A   1      36.615  33.790  29.300  1.00  0.00     0.010 A 
ATOM     32  C   UNL A   1      36.451  32.842  30.319  1.00  0.00    -0.014 A 
BRANCH  32  33
ATOM     33  C   UNL A   1      37.634  32.186  30.929  1.00  0.00     0.031 A 
ATOM     34  C   UNL A   1      38.094  32.565  32.311  1.00  0.00     0.074 A 
ATOM     35  C   UNL A   1      38.313  31.264  30.220  1.00  0.00     0.049 A 
ATOM     36  N   UNL A   1      39.089  32.081  33.013  1.00  0.00    -0.248 NA
ATOM     37  C   UNL A   1      37.360  33.647  32.984  1.00  0.00     0.031 C 
ATOM     38  C   UNL A   1      38.006  30.863  28.845  1.00  0.00     0.029 A 
ATOM     39  N   UNL A   1      39.397  30.492  30.556  1.00  0.00    -0.354 N 
ATOM     40  C   UNL A   1      39.100  32.800  34.201  1.00  0.00     0.074 A 
ATOM     41  C   UNL A   1      38.060  33.799  34.099  1.00  0.00     0.031 C 
ATOM     42  C   UNL A   1      38.849  29.888  28.473  1.00  0.00     0.029 A 
ATOM     43  C   UNL A   1      39.781  29.623  29.564  1.00  0.00     0.049 A 
ATOM     44  H   UNL A   1      39.854  30.556  31.424  1.00  0.00     0.167 HD
ATOM     45  C   UNL A   1      39.887  32.625  35.289  1.00  0.00     0.037 A 
ATOM     46  C   UNL A   1      40.771  28.713  29.540  1.00  0.00     0.037 A 
ATOM     47  C   UNL A   1      40.915  31.620  35.388  1.00  0.00     0.049 A 
ATOM     48  C   UNL A   1      41.629  28.536  30.764  1.00  0.00     0.074 A 
ATOM     49  C   UNL A   1      41.733  31.324  36.463  1.00  0.00     0.029 A 
ATOM     50  N   UNL A   1      41.272  30.751  34.365  1.00  0.00    -0.354 N 
ATOM     51  N   UNL A   1      41.576  29.165  31.913  1.00  0.00    -0.248 NA
ATOM     52  C   UNL A   1      42.675  27.508  30.689  1.00  0.00     0.031 C 
ATOM     53  C   UNL A   1      42.624  30.318  36.074  1.00  0.00     0.029 A 
ATOM     54  C   UNL A   1      42.315  29.936  34.778  1.00  0.00     0.049 A 
ATOM     55  H   UNL A   1      40.847  30.719  33.478  1.00  0.00     0.167 HD
ATOM     56  C   UNL A   1      42.558  28.590  32.708  1.00  0.00     0.074 A 
ATOM     57  C   UNL A   1      43.172  27.544  31.917  1.00  0.00     0.031 C 
ATOM     58  C   UNL A   1      42.919  28.900  33.979  1.00  0.00     0.037 A 
BRANCH  45  59
ATOM     59  C   UNL A   1      39.667  33.537  36.463  1.00  0.00     0.064 A 
ATOM     60  C   UNL A   1      38.828  33.179  37.530  1.00  0.00     0.173 A 
ATOM     61  C   UNL A   1      40.330  34.772  36.541  1.00  0.00     0.173 A 
ATOM     62  F   UNL A   1      38.160  32.016  37.503  1.00  0.00    -0.203 F 
ATOM     63  C   UNL A   1      38.637  34.033  38.613  1.00  0.00     0.198 A 
ATOM     64  C   UNL A   1      40.165  35.608  37.643  1.00  0.00     0.198 A 
ATOM     65  F   UNL A   1      41.148  35.165  35.553  1.00  0.00    -0.203 F 
ATOM     66  F   UNL A   1      37.788  33.691  39.593  1.00  0.00    -0.200 F 
ATOM     67  C   UNL A   1      39.312  35.242  38.673  1.00  0.00     0.200 A 
ATOM     68  F   UNL A   1      40.830  36.770  37.706  1.00  0.00    -0.200 F 
ATOM     69  F   UNL A   1      39.136  36.060  39.720  1.00  0.00    -0.200 F 
ENDBRANCH  45  59
BRANCH  46  70
ATOM     70  C   UNL A   1      40.983  27.874  28.330  1.00  0.00     0.064 A 
ATOM     71  C   UNL A   1      40.343  26.634  28.190  1.00  0.00     0.173 A 
ATOM     72  C   UNL A   1      41.831  28.291  27.294  1.00  0.00     0.173 A 
ATOM     73  F   UNL A   1      39.536  26.182  29.160  1.00  0.00    -0.203 F 
ATOM     74  C   UNL A   1      40.570  25.829  27.074  1.00  0.00     0.198 A 
ATOM     75  C   UNL A   1      42.028  27.500  26.163  1.00  0.00     0.198 A 
ATOM     76  F   UNL A   1      42.459  29.473  27.374  1.00  0.00    -0.203 F 
ATOM     77  F   UNL A   1      39.990  24.624  26.993  1.00  0.00    -0.200 F 
ATOM     78  C   UNL A   1      41.407  26.266  26.060  1.00  0.00     0.200 A 
ATOM     79  F   UNL A   1      42.825  27.935  25.176  1.00  0.00    -0.200 F 
ATOM     80  F   UNL A   1      41.620  25.494  24.985  1.00  0.00    -0.200 F 
ENDBRANCH  46  70
BRANCH  58  81
ATOM     81  C   UNL A   1      44.004  28.065  34.602  1.00  0.00     0.064 A 
ATOM     82  C   UNL A   1      45.354  28.439  34.543  1.00  0.00     0.173 A 
ATOM     83  C   UNL A   1      43.683  26.871  35.267  1.00  0.00     0.173 A 
ATOM     84  F   UNL A   1      45.717  29.565  33.909  1.00  0.00    -0.203 F 
ATOM     85  C   UNL A   1      46.348  27.624  35.081  1.00  0.00     0.198 A 
ATOM     86  C   UNL A   1      44.675  26.080  35.839  1.00  0.00     0.198 A 
ATOM     87  F   UNL A   1      42.407  26.471  35.364  1.00  0.00    -0.203 F 
ATOM     88  F   UNL A   1      47.637  27.964  34.944  1.00  0.00    -0.200 F 
ATOM     89  C   UNL A   1      46.007  26.449  35.732  1.00  0.00     0.200 A 
ATOM     90  F   UNL A   1      44.342  24.953  36.485  1.00  0.00    -0.200 F 
ATOM     91  F   UNL A   1      46.965  25.664  36.247  1.00  0.00    -0.200 F 
ENDBRANCH  58  81
ENDBRANCH  32  33
ENDBRANCH  24  27
ENDBRANCH  22  23
ENDBRANCH  21  22
ENDBRANCH   1  21
TORSDOF 15
ENDMDL
MODEL 3
REMARK VINA RESULT:     -11.2      0.153      1.618
REMARK SMILES C#CC[C@@]1(C(=O)NCCCNC(=O)c2ccc(-c3c4nc(c(-c5c(F)c(F)c(F)c(F)c5F)c5ccc([nH]5)c(-c5c(F)c(F)c(F)c(F)c5F)c5nc(c(-c6c(F)c(F)c(F)c(F)c6F)c6ccc3[nH]6)C=C5)C=C4)cc2)CCCN1C(=O)OC(C)(C)C
REMARK SMILES IDX 8 1 7 2 5 3 6 4 4 6 77 7 80 8 78 9 79 10 3 11 2 12 1 13
REMARK SMILES IDX 81 14 82 15 83 16 84 17 85 18 86 19 87 20 9 21 10 22 11 23
REMARK SMILES IDX 12 24 13 26 14 27 15 28 76 29 16 30 75 31 17 32 18 33 19 34
REMARK SMILES IDX 69 35 20 36 74 37 68 38 70 39 21 40 73 41 67 42 66 43 22 45
REMARK SMILES IDX 54 46 34 47 53 48 35 49 38 50 52 51 71 52 36 53 37 54 51 56
REMARK SMILES IDX 72 57 39 58 23 59 24 60 32 61 25 62 26 63 30 64 33 65 27 66
REMARK SMILES IDX 28 67 31 68 29 69 55 70 56 71 64 72 57 73 58 74 62 75 65 76
REMARK SMILES IDX 59 77 60 78 63 79 61 80 40 81 41 82 49 83 42 84 43 85 47 86
REMARK SMILES IDX 50 87 44 88 45 89 48 90 46 91
REMARK H PARENT 7 5 11 25 70 44 38 55
REMARK Flexibility Score: inf
ROOT
ATOM      1  C   UNL A   1      31.865  30.187  25.652  1.00  0.00     0.117 C 
ENDROOT
BRANCH   1   2
ATOM      2  N   UNL A   1      31.388  28.971  26.292  1.00  0.00    -0.354 N 
ATOM      3  C   UNL A   1      31.487  27.661  25.914  1.00  0.00     0.247 C 
ATOM      4  O   UNL A   1      31.163  26.818  26.757  1.00  0.00    -0.272 OA
ATOM      5  H   UNL A   1      30.914  29.117  27.143  1.00  0.00     0.163 HD
BRANCH   3   6
ATOM      6  C   UNL A   1      32.090  27.250  24.548  1.00  0.00     0.136 C 
ATOM      7  C   UNL A   1      33.518  27.855  24.417  1.00  0.00     0.042 C 
ATOM      8  N   UNL A   1      31.348  27.871  23.415  1.00  0.00    -0.292 N 
ATOM      9  C   UNL A   1      33.652  28.322  22.968  1.00  0.00     0.025 C 
ATOM     10  C   UNL A   1      32.241  28.424  22.415  1.00  0.00     0.124 C 
BRANCH   6  11
ATOM     11  C   UNL A   1      32.217  25.692  24.455  1.00  0.00     0.128 C 
BRANCH  11  12
ATOM     12  C   UNL A   1      33.561  25.270  25.027  1.00  0.00    -0.104 C 
ATOM     13  C   UNL A   1      34.713  24.908  25.517  1.00  0.00     0.004 C 
ENDBRANCH  11  12
ENDBRANCH   6  11
BRANCH   8  14
ATOM     14  C   UNL A   1      29.995  27.828  23.127  1.00  0.00     0.411 C 
ATOM     15  O   UNL A   1      29.257  26.971  23.608  1.00  0.00    -0.224 OA
BRANCH  14  16
ATOM     16  O   UNL A   1      29.592  28.724  22.188  1.00  0.00    -0.444 OA
BRANCH  16  17
ATOM     17  C   UNL A   1      28.570  29.721  22.513  1.00  0.00     0.106 C 
ATOM     18  C   UNL A   1      27.244  29.093  22.980  1.00  0.00     0.056 C 
ATOM     19  C   UNL A   1      29.071  30.742  23.543  1.00  0.00     0.056 C 
ATOM     20  C   UNL A   1      28.283  30.457  21.195  1.00  0.00     0.056 C 
ENDBRANCH  16  17
ENDBRANCH  14  16
ENDBRANCH   8  14
ENDBRANCH   3   6
ENDBRANCH   1   2
BRANCH   1  21
ATOM     21  C   UNL A   1      31.523  31.452  26.417  1.00  0.00     0.042 C 
BRANCH  21  22
ATOM     22  C   UNL A   1      32.661  31.969  27.279  1.00  0.00     0.118 C 
BRANCH  22  23
ATOM     23  N   UNL A   1      32.561  33.401  27.518  1.00  0.00    -0.352 N 
ATOM     24  C   UNL A   1      33.241  34.196  28.403  1.00  0.00     0.251 C 
ATOM     25  H   UNL A   1      31.901  33.872  26.957  1.00  0.00     0.163 HD
ATOM     26  O   UNL A   1      32.839  35.333  28.633  1.00  0.00    -0.269 OA
BRANCH  24  27
ATOM     27  C   UNL A   1      34.445  33.686  29.091  1.00  0.00     0.039 A 
ATOM     28  C   UNL A   1      34.289  32.742  30.107  1.00  0.00     0.014 A 
ATOM     29  C   UNL A   1      35.721  34.149  28.757  1.00  0.00     0.014 A 
ATOM     30  C   UNL A   1      35.414  32.226  30.748  1.00  0.00     0.010 A 
ATOM     31  C   UNL A   1      36.846  33.558  29.324  1.00  0.00     0.010 A 
ATOM     32  C   UNL A   1      36.705  32.601  30.337  1.00  0.00    -0.014 A 
BRANCH  32  33
ATOM     33  C   UNL A   1      37.905  31.990  30.962  1.00  0.00     0.031 A 
ATOM     34  C   UNL A   1      38.349  32.407  32.338  1.00  0.00     0.074 A 
ATOM     35  C   UNL A   1      38.612  31.076  30.271  1.00  0.00     0.049 A 
ATOM     36  N   UNL A   1      39.355  31.965  33.051  1.00  0.00    -0.248 NA
ATOM     37  C   UNL A   1      37.582  33.480  32.990  1.00  0.00     0.031 C 
ATOM     38  C   UNL A   1      38.321  30.641  28.903  1.00  0.00     0.029 A 
ATOM     39  N   UNL A   1      39.717  30.342  30.625  1.00  0.00    -0.354 N 
ATOM     40  C   UNL A   1      39.341  32.705  34.226  1.00  0.00     0.074 A 
ATOM     41  C   UNL A   1      38.273  33.672  34.103  1.00  0.00     0.031 C 
ATOM     42  C   UNL A   1      39.194  29.685  28.551  1.00  0.00     0.029 A 
ATOM     43  C   UNL A   1      40.129  29.467  29.650  1.00  0.00     0.049 A 
ATOM     44  H   UNL A   1      40.169  30.434  31.493  1.00  0.00     0.167 HD
ATOM     45  C   UNL A   1      40.130  32.572  35.319  1.00  0.00     0.037 A 
ATOM     46  C   UNL A   1      41.145  28.585  29.644  1.00  0.00     0.037 A 
ATOM     47  C   UNL A   1      41.186  31.600  35.439  1.00  0.00     0.049 A 
ATOM     48  C   UNL A   1      42.003  28.455  30.873  1.00  0.00     0.074 A 
ATOM     49  C   UNL A   1      42.008  31.347  36.522  1.00  0.00     0.029 A 
ATOM     50  N   UNL A   1      41.571  30.723  34.433  1.00  0.00    -0.354 N 
ATOM     51  N   UNL A   1      41.928  29.103  32.011  1.00  0.00    -0.248 NA
ATOM     52  C   UNL A   1      43.079  27.457  30.821  1.00  0.00     0.031 C 
ATOM     53  C   UNL A   1      42.929  30.359  36.154  1.00  0.00     0.029 A 
ATOM     54  C   UNL A   1      42.636  29.946  34.864  1.00  0.00     0.049 A 
ATOM     55  H   UNL A   1      41.150  30.663  33.546  1.00  0.00     0.167 HD
ATOM     56  C   UNL A   1      42.924  28.571  32.819  1.00  0.00     0.074 A 
ATOM     57  C   UNL A   1      43.571  27.529  32.049  1.00  0.00     0.031 C 
ATOM     58  C   UNL A   1      43.272  28.913  34.085  1.00  0.00     0.037 A 
BRANCH  45  59
ATOM     59  C   UNL A   1      39.879  33.499  36.476  1.00  0.00     0.064 A 
ATOM     60  C   UNL A   1      40.553  34.725  36.600  1.00  0.00     0.173 A 
ATOM     61  C   UNL A   1      38.929  33.176  37.457  1.00  0.00     0.173 A 
ATOM     62  F   UNL A   1      41.481  35.080  35.698  1.00  0.00    -0.203 F 
ATOM     63  C   UNL A   1      40.308  35.575  37.675  1.00  0.00     0.198 A 
ATOM     64  C   UNL A   1      38.661  34.046  38.511  1.00  0.00     0.198 A 
ATOM     65  F   UNL A   1      38.251  32.020  37.388  1.00  0.00    -0.203 F 
ATOM     66  F   UNL A   1      41.005  36.714  37.799  1.00  0.00    -0.200 F 
ATOM     67  C   UNL A   1      39.356  35.239  38.624  1.00  0.00     0.200 A 
ATOM     68  F   UNL A   1      37.728  33.725  39.420  1.00  0.00    -0.200 F 
ATOM     69  F   UNL A   1      39.113  36.062  39.654  1.00  0.00    -0.200 F 
ENDBRANCH  45  59
BRANCH  46  70
ATOM     70  C   UNL A   1      41.385  27.731  28.450  1.00  0.00     0.064 A 
ATOM     71  C   UNL A   1      42.309  28.110  27.465  1.00  0.00     0.173 A 
ATOM     72  C   UNL A   1      40.692  26.526  28.264  1.00  0.00     0.173 A 
ATOM     73  F   UNL A   1      42.984  29.262  27.587  1.00  0.00    -0.203 F 
ATOM     74  C   UNL A   1      42.508  27.331  26.327  1.00  0.00     0.198 A 
ATOM     75  C   UNL A   1      40.919  25.731  27.143  1.00  0.00     0.198 A 
ATOM     76  F   UNL A   1      39.805  26.114  29.181  1.00  0.00    -0.203 F 
ATOM     77  F   UNL A   1      43.355  27.745  25.376  1.00  0.00    -0.200 F 
ATOM     78  C   UNL A   1      41.817  26.140  26.170  1.00  0.00     0.200 A 
ATOM     79  F   UNL A   1      40.262  24.571  27.004  1.00  0.00    -0.200 F 
ATOM     80  F   UNL A   1      42.012  25.389  25.078  1.00  0.00    -0.200 F 
ENDBRANCH  46  70
BRANCH  58  81
ATOM     81  C   UNL A   1      44.378  28.122  34.726  1.00  0.00     0.064 A 
ATOM     82  C   UNL A   1      44.128  26.939  35.438  1.00  0.00     0.173 A 
ATOM     83  C   UNL A   1      45.709  28.558  34.628  1.00  0.00     0.173 A 
ATOM     84  F   UNL A   1      42.873  26.484  35.574  1.00  0.00    -0.203 F 
ATOM     85  C   UNL A   1      45.162  26.251  36.070  1.00  0.00     0.198 A 
ATOM     86  C   UNL A   1      46.744  27.845  35.225  1.00  0.00     0.198 A 
ATOM     87  F   UNL A   1      46.008  29.676  33.949  1.00  0.00    -0.203 F 
ATOM     88  F   UNL A   1      44.888  25.167  36.808  1.00  0.00    -0.200 F 
ATOM     89  C   UNL A   1      46.468  26.701  35.959  1.00  0.00     0.200 A 
ATOM     90  F   UNL A   1      48.009  28.272  35.101  1.00  0.00    -0.200 F 
ATOM     91  F   UNL A   1      47.461  26.039  36.570  1.00  0.00    -0.200 F 
ENDBRANCH  58  81
ENDBRANCH  32  33
ENDBRANCH  24  27
ENDBRANCH  22  23
ENDBRANCH  21  22
ENDBRANCH   1  21
TORSDOF 15
ENDMDL
