MODEL 1
REMARK VINA RESULT:     -12.5      0.000      0.000
REMARK SMILES C#CC[C@@H](Cc1cccc(C)c1)C(=O)NCCCNC(=O)c1ccc(-c2c3nc(c(-c4c(F)c(F)c(F)c(F)c4F)c4ccc([nH]4)c(-c4c(F)c(F)c(F)c(F)c4F)c4nc(c(-c5c(F)c(F)c(F)c(F)c5F)c5ccc2[nH]5)C=C4)C=C3)cc1
REMARK SMILES IDX 17 1 16 2 15 3 13 4 14 5 4 7 3 8 2 9 1 10 5 11 6 12 7 13
REMARK SMILES IDX 12 14 8 15 10 16 9 17 11 18 18 19 19 20 20 21 21 23 22 24
REMARK SMILES IDX 23 25 84 26 24 27 83 28 25 29 26 30 27 31 77 32 28 33 82 34
REMARK SMILES IDX 76 35 78 36 29 37 81 38 75 39 74 40 30 42 62 43 42 44 61 45
REMARK SMILES IDX 43 46 46 47 60 48 79 49 44 50 45 51 59 53 80 54 47 55 31 56
REMARK SMILES IDX 32 57 40 58 33 59 34 60 38 61 41 62 35 63 36 64 39 65 37 66
REMARK SMILES IDX 63 67 64 68 72 69 65 70 66 71 70 72 73 73 67 74 68 75 71 76
REMARK SMILES IDX 69 77 48 78 49 79 57 80 50 81 51 82 55 83 58 84 52 85 53 86
REMARK SMILES IDX 56 87 54 88
REMARK H PARENT 15 6 19 22 78 41 46 52
REMARK Flexibility Score: inf
ROOT
ATOM      1  C   UNL A   1      32.351  31.245  26.958  1.00  0.00     0.042 C 
ENDROOT
BRANCH   1   2
ATOM      2  C   UNL A   1      31.808  30.295  25.897  1.00  0.00     0.117 C 
BRANCH   2   3
ATOM      3  N   UNL A   1      32.468  28.994  25.913  1.00  0.00    -0.356 N 
ATOM      4  C   UNL A   1      32.748  28.097  24.923  1.00  0.00     0.224 C 
ATOM      5  O   UNL A   1      33.322  27.058  25.259  1.00  0.00    -0.275 OA
ATOM      6  H   UNL A   1      32.769  28.709  26.808  1.00  0.00     0.163 HD
BRANCH   4   7
ATOM      7  C   UNL A   1      32.349  28.319  23.466  1.00  0.00     0.095 C 
BRANCH   7   8
ATOM      8  C   UNL A   1      33.487  27.800  22.569  1.00  0.00     0.103 C 
BRANCH   8   9
ATOM      9  C   UNL A   1      33.132  26.510  21.848  1.00  0.00    -0.106 C 
ATOM     10  C   UNL A   1      32.827  25.403  21.231  1.00  0.00     0.004 C 
ENDBRANCH   8   9
ENDBRANCH   7   8
BRANCH   7  11
ATOM     11  C   UNL A   1      30.937  27.750  23.187  1.00  0.00     0.050 C 
BRANCH  11  12
ATOM     12  C   UNL A   1      29.712  28.648  23.161  1.00  0.00    -0.047 A 
ATOM     13  C   UNL A   1      28.459  28.004  23.183  1.00  0.00     0.004 A 
ATOM     14  C   UNL A   1      29.732  30.047  23.139  1.00  0.00     0.007 A 
ATOM     15  C   UNL A   1      27.269  28.729  23.207  1.00  0.00     0.001 A 
ATOM     16  C   UNL A   1      28.536  30.788  23.173  1.00  0.00    -0.051 A 
ATOM     17  C   UNL A   1      27.308  30.118  23.208  1.00  0.00     0.003 A 
ATOM     18  C   UNL A   1      28.554  32.288  23.187  1.00  0.00     0.044 C 
ENDBRANCH  11  12
ENDBRANCH   7  11
ENDBRANCH   4   7
ENDBRANCH   2   3
ENDBRANCH   1   2
BRANCH   1  19
ATOM     19  C   UNL A   1      33.659  30.790  27.570  1.00  0.00     0.118 C 
BRANCH  19  20
ATOM     20  N   UNL A   1      34.196  31.690  28.581  1.00  0.00    -0.352 N 
ATOM     21  C   UNL A   1      35.359  31.517  29.324  1.00  0.00     0.251 C 
ATOM     22  H   UNL A   1      33.680  32.510  28.759  1.00  0.00     0.163 HD
ATOM     23  O   UNL A   1      35.746  32.342  30.116  1.00  0.00    -0.269 OA
BRANCH  21  24
ATOM     24  C   UNL A   1      36.167  30.313  29.009  1.00  0.00     0.039 A 
ATOM     25  C   UNL A   1      36.541  29.496  30.078  1.00  0.00     0.014 A 
ATOM     26  C   UNL A   1      36.804  30.226  27.772  1.00  0.00     0.014 A 
ATOM     27  C   UNL A   1      37.721  28.766  29.978  1.00  0.00     0.010 A 
ATOM     28  C   UNL A   1      38.025  29.581  27.711  1.00  0.00     0.010 A 
ATOM     29  C   UNL A   1      38.518  28.917  28.842  1.00  0.00    -0.014 A 
BRANCH  29  30
ATOM     30  C   UNL A   1      39.925  28.527  28.818  1.00  0.00     0.031 A 
ATOM     31  C   UNL A   1      40.310  27.137  28.496  1.00  0.00     0.074 A 
ATOM     32  C   UNL A   1      40.886  29.443  29.084  1.00  0.00     0.049 A 
ATOM     33  N   UNL A   1      41.447  26.617  28.820  1.00  0.00    -0.248 NA
ATOM     34  C   UNL A   1      39.405  26.178  27.869  1.00  0.00     0.031 C 
ATOM     35  C   UNL A   1      42.326  29.305  28.867  1.00  0.00     0.029 A 
ATOM     36  N   UNL A   1      40.764  30.630  29.833  1.00  0.00    -0.354 N 
ATOM     37  C   UNL A   1      41.539  25.394  28.204  1.00  0.00     0.074 A 
ATOM     38  C   UNL A   1      40.200  25.107  27.760  1.00  0.00     0.031 C 
ATOM     39  C   UNL A   1      42.972  30.135  29.699  1.00  0.00     0.029 A 
ATOM     40  C   UNL A   1      41.974  30.735  30.564  1.00  0.00     0.049 A 
ATOM     41  H   UNL A   1      40.002  31.254  29.846  1.00  0.00     0.167 HD
ATOM     42  C   UNL A   1      42.770  24.840  28.031  1.00  0.00     0.037 A 
ATOM     43  C   UNL A   1      42.010  30.730  31.928  1.00  0.00     0.037 A 
ATOM     44  C   UNL A   1      43.770  25.520  28.855  1.00  0.00     0.049 A 
ATOM     45  C   UNL A   1      42.891  29.660  32.525  1.00  0.00     0.074 A 
ATOM     46  C   UNL A   1      44.812  26.388  28.579  1.00  0.00     0.029 A 
ATOM     47  N   UNL A   1      43.621  25.508  30.239  1.00  0.00    -0.354 N 
ATOM     48  N   UNL A   1      43.320  28.624  31.860  1.00  0.00    -0.248 NA
ATOM     49  C   UNL A   1      43.303  29.632  33.926  1.00  0.00     0.031 C 
ATOM     50  C   UNL A   1      45.237  26.960  29.809  1.00  0.00     0.029 A 
ATOM     51  C   UNL A   1      44.485  26.404  30.831  1.00  0.00     0.049 A 
ATOM     52  H   UNL A   1      42.984  24.938  30.728  1.00  0.00     0.167 HD
ATOM     53  C   UNL A   1      44.001  27.788  32.704  1.00  0.00     0.074 A 
ATOM     54  C   UNL A   1      43.990  28.476  33.981  1.00  0.00     0.031 C 
ATOM     55  C   UNL A   1      44.486  26.586  32.275  1.00  0.00     0.037 A 
BRANCH  42  56
ATOM     56  C   UNL A   1      43.141  23.807  26.982  1.00  0.00     0.064 A 
ATOM     57  C   UNL A   1      42.798  22.448  27.176  1.00  0.00     0.173 A 
ATOM     58  C   UNL A   1      43.945  24.045  25.846  1.00  0.00     0.173 A 
ATOM     59  F   UNL A   1      42.036  22.064  28.210  1.00  0.00    -0.203 F 
ATOM     60  C   UNL A   1      43.244  21.427  26.328  1.00  0.00     0.198 A 
ATOM     61  C   UNL A   1      44.345  23.030  24.969  1.00  0.00     0.198 A 
ATOM     62  F   UNL A   1      44.437  25.251  25.553  1.00  0.00    -0.203 F 
ATOM     63  F   UNL A   1      42.940  20.151  26.604  1.00  0.00    -0.200 F 
ATOM     64  C   UNL A   1      44.011  21.718  25.220  1.00  0.00     0.200 A 
ATOM     65  F   UNL A   1      45.089  23.340  23.897  1.00  0.00    -0.200 F 
ATOM     66  F   UNL A   1      44.441  20.745  24.407  1.00  0.00    -0.200 F 
ENDBRANCH  42  56
BRANCH  43  67
ATOM     67  C   UNL A   1      40.775  31.265  32.553  1.00  0.00     0.064 A 
ATOM     68  C   UNL A   1      40.575  32.659  32.555  1.00  0.00     0.173 A 
ATOM     69  C   UNL A   1      39.664  30.450  32.795  1.00  0.00     0.173 A 
ATOM     70  F   UNL A   1      41.607  33.485  32.322  1.00  0.00    -0.203 F 
ATOM     71  C   UNL A   1      39.300  33.207  32.669  1.00  0.00     0.198 A 
ATOM     72  C   UNL A   1      38.389  31.004  32.926  1.00  0.00     0.198 A 
ATOM     73  F   UNL A   1      39.787  29.115  32.783  1.00  0.00    -0.203 F 
ATOM     74  F   UNL A   1      39.127  34.530  32.539  1.00  0.00    -0.200 F 
ATOM     75  C   UNL A   1      38.204  32.376  32.827  1.00  0.00     0.200 A 
ATOM     76  F   UNL A   1      37.323  30.200  33.043  1.00  0.00    -0.200 F 
ATOM     77  F   UNL A   1      36.967  32.892  32.834  1.00  0.00    -0.200 F 
ENDBRANCH  43  67
BRANCH  55  78
ATOM     78  C   UNL A   1      45.052  25.489  33.147  1.00  0.00     0.064 A 
ATOM     79  C   UNL A   1      46.414  25.144  33.198  1.00  0.00     0.173 A 
ATOM     80  C   UNL A   1      44.225  24.839  34.096  1.00  0.00     0.173 A 
ATOM     81  F   UNL A   1      47.319  25.766  32.432  1.00  0.00    -0.203 F 
ATOM     82  C   UNL A   1      46.901  24.185  34.091  1.00  0.00     0.198 A 
ATOM     83  C   UNL A   1      44.723  23.925  35.023  1.00  0.00     0.198 A 
ATOM     84  F   UNL A   1      42.911  25.095  34.167  1.00  0.00    -0.203 F 
ATOM     85  F   UNL A   1      48.203  23.865  34.077  1.00  0.00    -0.200 F 
ATOM     86  C   UNL A   1      46.060  23.586  35.011  1.00  0.00     0.200 A 
ATOM     87  F   UNL A   1      43.904  23.392  35.941  1.00  0.00    -0.200 F 
ATOM     88  F   UNL A   1      46.540  22.703  35.898  1.00  0.00    -0.200 F 
ENDBRANCH  55  78
ENDBRANCH  29  30
ENDBRANCH  21  24
ENDBRANCH  19  20
ENDBRANCH   1  19
TORSDOF 14
ENDMDL
MODEL 2
REMARK VINA RESULT:     -12.5      1.907      3.076
REMARK SMILES C#CC[C@@H](Cc1cccc(C)c1)C(=O)NCCCNC(=O)c1ccc(-c2c3nc(c(-c4c(F)c(F)c(F)c(F)c4F)c4ccc([nH]4)c(-c4c(F)c(F)c(F)c(F)c4F)c4nc(c(-c5c(F)c(F)c(F)c(F)c5F)c5ccc2[nH]5)C=C4)C=C3)cc1
REMARK SMILES IDX 17 1 16 2 15 3 13 4 14 5 4 7 3 8 2 9 1 10 5 11 6 12 7 13
REMARK SMILES IDX 12 14 8 15 10 16 9 17 11 18 18 19 19 20 20 21 21 23 22 24
REMARK SMILES IDX 23 25 84 26 24 27 83 28 25 29 26 30 27 31 77 32 28 33 82 34
REMARK SMILES IDX 76 35 78 36 29 37 81 38 75 39 74 40 30 42 62 43 42 44 61 45
REMARK SMILES IDX 43 46 46 47 60 48 79 49 44 50 45 51 59 53 80 54 47 55 31 56
REMARK SMILES IDX 32 57 40 58 33 59 34 60 38 61 41 62 35 63 36 64 39 65 37 66
REMARK SMILES IDX 63 67 64 68 72 69 65 70 66 71 70 72 73 73 67 74 68 75 71 76
REMARK SMILES IDX 69 77 48 78 49 79 57 80 50 81 51 82 55 83 58 84 52 85 53 86
REMARK SMILES IDX 56 87 54 88
REMARK H PARENT 15 6 19 22 78 41 46 52
REMARK Flexibility Score: inf
ROOT
ATOM      1  C   UNL A   1      32.766  29.652  27.241  1.00  0.00     0.042 C 
ENDROOT
BRANCH   1   2
ATOM      2  C   UNL A   1      32.154  29.471  25.857  1.00  0.00     0.117 C 
BRANCH   2   3
ATOM      3  N   UNL A   1      33.145  29.538  24.788  1.00  0.00    -0.356 N 
ATOM      4  C   UNL A   1      33.680  28.582  23.975  1.00  0.00     0.224 C 
ATOM      5  O   UNL A   1      34.523  28.956  23.154  1.00  0.00    -0.275 OA
ATOM      6  H   UNL A   1      33.494  30.445  24.624  1.00  0.00     0.163 HD
BRANCH   4   7
ATOM      7  C   UNL A   1      33.306  27.104  24.072  1.00  0.00     0.095 C 
BRANCH   7   8
ATOM      8  C   UNL A   1      33.581  26.444  22.710  1.00  0.00     0.103 C 
BRANCH   8   9
ATOM      9  C   UNL A   1      33.101  25.004  22.641  1.00  0.00    -0.106 C 
ATOM     10  C   UNL A   1      32.689  23.769  22.582  1.00  0.00     0.004 C 
ENDBRANCH   8   9
ENDBRANCH   7   8
BRANCH   7  11
ATOM     11  C   UNL A   1      33.973  26.446  25.304  1.00  0.00     0.050 C 
BRANCH  11  12
ATOM     12  C   UNL A   1      33.392  25.199  25.948  1.00  0.00    -0.047 A 
ATOM     13  C   UNL A   1      32.006  25.209  26.204  1.00  0.00     0.004 A 
ATOM     14  C   UNL A   1      34.114  24.047  26.281  1.00  0.00     0.007 A 
ATOM     15  C   UNL A   1      31.359  24.103  26.751  1.00  0.00     0.001 A 
ATOM     16  C   UNL A   1      33.468  22.921  26.825  1.00  0.00    -0.051 A 
ATOM     17  C   UNL A   1      32.087  22.959  27.055  1.00  0.00     0.003 A 
ATOM     18  C   UNL A   1      34.232  21.671  27.149  1.00  0.00     0.044 C 
ENDBRANCH  11  12
ENDBRANCH   7  11
ENDBRANCH   4   7
ENDBRANCH   2   3
ENDBRANCH   1   2
BRANCH   1  19
ATOM     19  C   UNL A   1      34.243  29.982  27.215  1.00  0.00     0.118 C 
BRANCH  19  20
ATOM     20  N   UNL A   1      34.655  30.979  28.193  1.00  0.00    -0.352 N 
ATOM     21  C   UNL A   1      35.819  30.973  28.956  1.00  0.00     0.251 C 
ATOM     22  H   UNL A   1      34.044  31.738  28.330  1.00  0.00     0.163 HD
ATOM     23  O   UNL A   1      36.094  31.869  29.717  1.00  0.00    -0.269 OA
BRANCH  21  24
ATOM     24  C   UNL A   1      36.766  29.861  28.701  1.00  0.00     0.039 A 
ATOM     25  C   UNL A   1      37.040  28.997  29.763  1.00  0.00     0.014 A 
ATOM     26  C   UNL A   1      37.592  29.915  27.578  1.00  0.00     0.014 A 
ATOM     27  C   UNL A   1      38.280  28.368  29.807  1.00  0.00     0.010 A 
ATOM     28  C   UNL A   1      38.859  29.371  27.673  1.00  0.00     0.010 A 
ATOM     29  C   UNL A   1      39.227  28.663  28.825  1.00  0.00    -0.014 A 
BRANCH  29  30
ATOM     30  C   UNL A   1      40.649  28.384  29.002  1.00  0.00     0.031 A 
ATOM     31  C   UNL A   1      41.234  27.129  28.485  1.00  0.00     0.074 A 
ATOM     32  C   UNL A   1      41.442  29.281  29.636  1.00  0.00     0.049 A 
ATOM     33  N   UNL A   1      42.344  26.628  28.916  1.00  0.00    -0.248 NA
ATOM     34  C   UNL A   1      40.566  26.274  27.507  1.00  0.00     0.031 C 
ATOM     35  C   UNL A   1      42.903  29.291  29.686  1.00  0.00     0.029 A 
ATOM     36  N   UNL A   1      41.059  30.261  30.573  1.00  0.00    -0.354 N 
ATOM     37  C   UNL A   1      42.677  25.581  28.093  1.00  0.00     0.074 A 
ATOM     38  C   UNL A   1      41.479  25.310  27.342  1.00  0.00     0.031 C 
ATOM     39  C   UNL A   1      43.295  29.958  30.782  1.00  0.00     0.029 A 
ATOM     40  C   UNL A   1      42.099  30.282  31.535  1.00  0.00     0.049 A 
ATOM     41  H   UNL A   1      40.244  30.813  30.561  1.00  0.00     0.167 HD
ATOM     42  C   UNL A   1      43.973  25.164  28.059  1.00  0.00     0.037 A 
ATOM     43  C   UNL A   1      41.889  29.977  32.849  1.00  0.00     0.037 A 
ATOM     44  C   UNL A   1      44.728  25.709  29.187  1.00  0.00     0.049 A 
ATOM     45  C   UNL A   1      42.759  28.863  33.377  1.00  0.00     0.074 A 
ATOM     46  C   UNL A   1      45.702  26.685  29.308  1.00  0.00     0.029 A 
ATOM     47  N   UNL A   1      44.335  25.380  30.481  1.00  0.00    -0.354 N 
ATOM     48  N   UNL A   1      43.411  28.032  32.614  1.00  0.00    -0.248 NA
ATOM     49  C   UNL A   1      42.913  28.553  34.796  1.00  0.00     0.031 C 
ATOM     50  C   UNL A   1      45.834  26.997  30.688  1.00  0.00     0.029 A 
ATOM     51  C   UNL A   1      44.976  26.179  31.404  1.00  0.00     0.049 A 
ATOM     52  H   UNL A   1      43.686  24.674  30.706  1.00  0.00     0.167 HD
ATOM     53  C   UNL A   1      44.016  27.077  33.386  1.00  0.00     0.074 A 
ATOM     54  C   UNL A   1      43.700  27.462  34.749  1.00  0.00     0.031 C 
ATOM     55  C   UNL A   1      44.698  26.036  32.826  1.00  0.00     0.037 A 
BRANCH  42  56
ATOM     56  C   UNL A   1      44.637  24.416  26.915  1.00  0.00     0.064 A 
ATOM     57  C   UNL A   1      44.385  23.036  26.733  1.00  0.00     0.173 A 
ATOM     58  C   UNL A   1      45.626  24.943  26.058  1.00  0.00     0.173 A 
ATOM     59  F   UNL A   1      43.469  22.392  27.472  1.00  0.00    -0.203 F 
ATOM     60  C   UNL A   1      45.080  22.257  25.800  1.00  0.00     0.198 A 
ATOM     61  C   UNL A   1      46.282  24.175  25.089  1.00  0.00     0.198 A 
ATOM     62  F   UNL A   1      46.056  26.204  26.145  1.00  0.00    -0.203 F 
ATOM     63  F   UNL A   1      44.843  20.940  25.721  1.00  0.00    -0.200 F 
ATOM     64  C   UNL A   1      46.023  22.828  24.972  1.00  0.00     0.200 A 
ATOM     65  F   UNL A   1      47.194  24.755  24.294  1.00  0.00    -0.200 F 
ATOM     66  F   UNL A   1      46.692  22.088  24.079  1.00  0.00    -0.200 F 
ENDBRANCH  42  56
BRANCH  43  67
ATOM     67  C   UNL A   1      40.511  30.275  33.312  1.00  0.00     0.064 A 
ATOM     68  C   UNL A   1      40.134  31.623  33.468  1.00  0.00     0.173 A 
ATOM     69  C   UNL A   1      39.491  29.321  33.239  1.00  0.00     0.173 A 
ATOM     70  F   UNL A   1      41.074  32.579  33.537  1.00  0.00    -0.203 F 
ATOM     71  C   UNL A   1      38.798  32.010  33.427  1.00  0.00     0.198 A 
ATOM     72  C   UNL A   1      38.150  29.711  33.216  1.00  0.00     0.198 A 
ATOM     73  F   UNL A   1      39.786  28.025  33.068  1.00  0.00    -0.203 F 
ATOM     74  F   UNL A   1      38.477  33.312  33.451  1.00  0.00    -0.200 F 
ATOM     75  C   UNL A   1      37.808  31.055  33.274  1.00  0.00     0.200 A 
ATOM     76  F   UNL A   1      37.193  28.792  33.031  1.00  0.00    -0.200 F 
ATOM     77  F   UNL A   1      36.529  31.431  33.131  1.00  0.00    -0.200 F 
ENDBRANCH  43  67
BRANCH  55  78
ATOM     78  C   UNL A   1      45.214  24.813  33.549  1.00  0.00     0.064 A 
ATOM     79  C   UNL A   1      44.460  23.647  33.763  1.00  0.00     0.173 A 
ATOM     80  C   UNL A   1      46.578  24.731  33.920  1.00  0.00     0.173 A 
ATOM     81  F   UNL A   1      43.188  23.553  33.355  1.00  0.00    -0.203 F 
ATOM     82  C   UNL A   1      45.014  22.506  34.354  1.00  0.00     0.198 A 
ATOM     83  C   UNL A   1      47.141  23.575  34.456  1.00  0.00     0.198 A 
ATOM     84  F   UNL A   1      47.412  25.768  33.747  1.00  0.00    -0.203 F 
ATOM     85  F   UNL A   1      44.244  21.430  34.571  1.00  0.00    -0.200 F 
ATOM     86  C   UNL A   1      46.355  22.465  34.688  1.00  0.00     0.200 A 
ATOM     87  F   UNL A   1      48.454  23.535  34.727  1.00  0.00    -0.200 F 
ATOM     88  F   UNL A   1      46.893  21.353  35.208  1.00  0.00    -0.200 F 
ENDBRANCH  55  78
ENDBRANCH  29  30
ENDBRANCH  21  24
ENDBRANCH  19  20
ENDBRANCH   1  19
TORSDOF 14
ENDMDL
MODEL 3
REMARK VINA RESULT:     -12.4      4.586     10.536
REMARK SMILES C#CC[C@@H](Cc1cccc(C)c1)C(=O)NCCCNC(=O)c1ccc(-c2c3nc(c(-c4c(F)c(F)c(F)c(F)c4F)c4ccc([nH]4)c(-c4c(F)c(F)c(F)c(F)c4F)c4nc(c(-c5c(F)c(F)c(F)c(F)c5F)c5ccc2[nH]5)C=C4)C=C3)cc1
REMARK SMILES IDX 17 1 16 2 15 3 13 4 14 5 4 7 3 8 2 9 1 10 5 11 6 12 7 13
REMARK SMILES IDX 12 14 8 15 10 16 9 17 11 18 18 19 19 20 20 21 21 23 22 24
REMARK SMILES IDX 23 25 84 26 24 27 83 28 25 29 26 30 27 31 77 32 28 33 82 34
REMARK SMILES IDX 76 35 78 36 29 37 81 38 75 39 74 40 30 42 62 43 42 44 61 45
REMARK SMILES IDX 43 46 46 47 60 48 79 49 44 50 45 51 59 53 80 54 47 55 31 56
REMARK SMILES IDX 32 57 40 58 33 59 34 60 38 61 41 62 35 63 36 64 39 65 37 66
REMARK SMILES IDX 63 67 64 68 72 69 65 70 66 71 70 72 73 73 67 74 68 75 71 76
REMARK SMILES IDX 69 77 48 78 49 79 57 80 50 81 51 82 55 83 58 84 52 85 53 86
REMARK SMILES IDX 56 87 54 88
REMARK H PARENT 15 6 19 22 78 41 46 52
REMARK Flexibility Score: inf
ROOT
ATOM      1  C   UNL A   1      37.942  21.792  25.206  1.00  0.00     0.042 C 
ENDROOT
BRANCH   1   2
ATOM      2  C   UNL A   1      36.498  21.448  25.550  1.00  0.00     0.117 C 
BRANCH   2   3
ATOM      3  N   UNL A   1      35.537  22.090  24.659  1.00  0.00    -0.356 N 
ATOM      4  C   UNL A   1      34.179  22.219  24.718  1.00  0.00     0.224 C 
ATOM      5  O   UNL A   1      33.637  22.823  23.788  1.00  0.00    -0.275 OA
ATOM      6  H   UNL A   1      35.945  22.508  23.866  1.00  0.00     0.163 HD
BRANCH   4   7
ATOM      7  C   UNL A   1      33.336  21.625  25.844  1.00  0.00     0.095 C 
BRANCH   7   8
ATOM      8  C   UNL A   1      32.875  22.772  26.760  1.00  0.00     0.103 C 
BRANCH   8   9
ATOM      9  C   UNL A   1      31.363  22.909  26.823  1.00  0.00    -0.106 C 
ATOM     10  C   UNL A   1      30.066  23.027  26.877  1.00  0.00     0.004 C 
ENDBRANCH   8   9
ENDBRANCH   7   8
BRANCH   7  11
ATOM     11  C   UNL A   1      32.227  20.707  25.277  1.00  0.00     0.050 C 
BRANCH  11  12
ATOM     12  C   UNL A   1      32.554  19.362  24.651  1.00  0.00    -0.047 A 
ATOM     13  C   UNL A   1      32.361  19.251  23.260  1.00  0.00     0.004 A 
ATOM     14  C   UNL A   1      33.047  18.246  25.338  1.00  0.00     0.007 A 
ATOM     15  C   UNL A   1      32.671  18.079  22.573  1.00  0.00     0.001 A 
ATOM     16  C   UNL A   1      33.372  17.061  24.652  1.00  0.00    -0.051 A 
ATOM     17  C   UNL A   1      33.181  16.989  23.267  1.00  0.00     0.003 A 
ATOM     18  C   UNL A   1      33.935  15.875  25.378  1.00  0.00     0.044 C 
ENDBRANCH  11  12
ENDBRANCH   7  11
ENDBRANCH   4   7
ENDBRANCH   2   3
ENDBRANCH   1   2
BRANCH   1  19
ATOM     19  C   UNL A   1      38.505  22.940  26.017  1.00  0.00     0.118 C 
BRANCH  19  20
ATOM     20  N   UNL A   1      39.953  22.919  26.164  1.00  0.00    -0.352 N 
ATOM     21  C   UNL A   1      40.773  23.980  26.536  1.00  0.00     0.251 C 
ATOM     22  H   UNL A   1      40.402  22.062  25.981  1.00  0.00     0.163 HD
ATOM     23  O   UNL A   1      41.966  23.855  26.670  1.00  0.00    -0.269 OA
BRANCH  21  24
ATOM     24  C   UNL A   1      40.088  25.252  26.873  1.00  0.00     0.039 A 
ATOM     25  C   UNL A   1      40.530  26.408  26.226  1.00  0.00     0.014 A 
ATOM     26  C   UNL A   1      39.309  25.320  28.027  1.00  0.00     0.014 A 
ATOM     27  C   UNL A   1      40.399  27.629  26.878  1.00  0.00     0.010 A 
ATOM     28  C   UNL A   1      39.270  26.517  28.718  1.00  0.00     0.010 A 
ATOM     29  C   UNL A   1      39.886  27.653  28.176  1.00  0.00    -0.014 A 
BRANCH  29  30
ATOM     30  C   UNL A   1      40.081  28.789  29.072  1.00  0.00     0.031 A 
ATOM     31  C   UNL A   1      39.084  29.879  29.126  1.00  0.00     0.074 A 
ATOM     32  C   UNL A   1      41.176  28.844  29.867  1.00  0.00     0.049 A 
ATOM     33  N   UNL A   1      39.344  31.064  29.570  1.00  0.00    -0.248 NA
ATOM     34  C   UNL A   1      37.732  29.758  28.587  1.00  0.00     0.031 C 
ATOM     35  C   UNL A   1      41.414  29.756  30.985  1.00  0.00     0.029 A 
ATOM     36  N   UNL A   1      42.420  28.214  29.667  1.00  0.00    -0.354 N 
ATOM     37  C   UNL A   1      38.158  31.749  29.652  1.00  0.00     0.074 A 
ATOM     38  C   UNL A   1      37.224  30.957  28.894  1.00  0.00     0.031 C 
ATOM     39  C   UNL A   1      42.737  29.879  31.170  1.00  0.00     0.029 A 
ATOM     40  C   UNL A   1      43.388  29.156  30.096  1.00  0.00     0.049 A 
ATOM     41  H   UNL A   1      42.582  27.311  29.308  1.00  0.00     0.167 HD
ATOM     42  C   UNL A   1      38.087  32.837  30.469  1.00  0.00     0.037 A 
ATOM     43  C   UNL A   1      44.330  29.673  29.256  1.00  0.00     0.037 A 
ATOM     44  C   UNL A   1      39.423  33.282  30.864  1.00  0.00     0.049 A 
ATOM     45  C   UNL A   1      44.334  31.181  29.177  1.00  0.00     0.074 A 
ATOM     46  C   UNL A   1      40.143  33.225  32.044  1.00  0.00     0.029 A 
ATOM     47  N   UNL A   1      40.312  33.698  29.877  1.00  0.00    -0.354 N 
ATOM     48  N   UNL A   1      43.348  31.928  29.587  1.00  0.00    -0.248 NA
ATOM     49  C   UNL A   1      45.411  31.962  28.573  1.00  0.00     0.031 C 
ATOM     50  C   UNL A   1      41.497  33.535  31.741  1.00  0.00     0.029 A 
ATOM     51  C   UNL A   1      41.586  33.824  30.389  1.00  0.00     0.049 A 
ATOM     52  H   UNL A   1      40.065  33.875  28.940  1.00  0.00     0.167 HD
ATOM     53  C   UNL A   1      43.607  33.237  29.281  1.00  0.00     0.074 A 
ATOM     54  C   UNL A   1      44.924  33.213  28.673  1.00  0.00     0.031 C 
ATOM     55  C   UNL A   1      42.693  34.220  29.531  1.00  0.00     0.037 A 
BRANCH  42  56
ATOM     56  C   UNL A   1      36.820  33.408  31.081  1.00  0.00     0.064 A 
ATOM     57  C   UNL A   1      36.482  33.101  32.421  1.00  0.00     0.173 A 
ATOM     58  C   UNL A   1      35.830  34.135  30.386  1.00  0.00     0.173 A 
ATOM     59  F   UNL A   1      37.322  32.417  33.211  1.00  0.00    -0.203 F 
ATOM     60  C   UNL A   1      35.258  33.465  32.994  1.00  0.00     0.198 A 
ATOM     61  C   UNL A   1      34.630  34.545  30.977  1.00  0.00     0.198 A 
ATOM     62  F   UNL A   1      35.937  34.438  29.090  1.00  0.00    -0.203 F 
ATOM     63  F   UNL A   1      34.969  33.086  34.247  1.00  0.00    -0.200 F 
ATOM     64  C   UNL A   1      34.334  34.194  32.275  1.00  0.00     0.200 A 
ATOM     65  F   UNL A   1      33.749  35.255  30.257  1.00  0.00    -0.200 F 
ATOM     66  F   UNL A   1      33.161  34.543  32.818  1.00  0.00    -0.200 F 
ENDBRANCH  42  56
BRANCH  43  67
ATOM     67  C   UNL A   1      44.697  28.761  28.144  1.00  0.00     0.064 A 
ATOM     68  C   UNL A   1      45.486  27.632  28.438  1.00  0.00     0.173 A 
ATOM     69  C   UNL A   1      44.002  28.768  26.930  1.00  0.00     0.173 A 
ATOM     70  F   UNL A   1      46.168  27.572  29.593  1.00  0.00    -0.203 F 
ATOM     71  C   UNL A   1      45.481  26.511  27.613  1.00  0.00     0.198 A 
ATOM     72  C   UNL A   1      44.014  27.648  26.096  1.00  0.00     0.198 A 
ATOM     73  F   UNL A   1      43.216  29.804  26.605  1.00  0.00    -0.203 F 
ATOM     74  F   UNL A   1      46.142  25.405  27.984  1.00  0.00    -0.200 F 
ATOM     75  C   UNL A   1      44.722  26.510  26.456  1.00  0.00     0.200 A 
ATOM     76  F   UNL A   1      43.251  27.632  24.994  1.00  0.00    -0.200 F 
ATOM     77  F   UNL A   1      44.633  25.398  25.712  1.00  0.00    -0.200 F 
ENDBRANCH  43  67
BRANCH  55  78
ATOM     78  C   UNL A   1      42.763  35.650  29.046  1.00  0.00     0.064 A 
ATOM     79  C   UNL A   1      42.080  36.134  27.917  1.00  0.00     0.173 A 
ATOM     80  C   UNL A   1      43.422  36.632  29.825  1.00  0.00     0.173 A 
ATOM     81  F   UNL A   1      41.325  35.329  27.159  1.00  0.00    -0.203 F 
ATOM     82  C   UNL A   1      42.102  37.488  27.564  1.00  0.00     0.198 A 
ATOM     83  C   UNL A   1      43.394  37.987  29.503  1.00  0.00     0.198 A 
ATOM     84  F   UNL A   1      44.091  36.304  30.940  1.00  0.00    -0.203 F 
ATOM     85  F   UNL A   1      41.464  37.896  26.458  1.00  0.00    -0.200 F 
ATOM     86  C   UNL A   1      42.745  38.415  28.363  1.00  0.00     0.200 A 
ATOM     87  F   UNL A   1      43.981  38.879  30.315  1.00  0.00    -0.200 F 
ATOM     88  F   UNL A   1      42.722  39.717  28.047  1.00  0.00    -0.200 F 
ENDBRANCH  55  78
ENDBRANCH  29  30
ENDBRANCH  21  24
ENDBRANCH  19  20
ENDBRANCH   1  19
TORSDOF 14
ENDMDL
