MODEL 1
REMARK VINA RESULT:     -13.3      0.000      0.000
REMARK SMILES CN(C)C(=O)CCc1cccc(NC(=O)[C@H]2CCCC[C@@H]2C(=O)NCCCNC(=O)c2ccc(-c3c4nc(c(-c5c(F)c(F)c(F)c(F)c5F)c5ccc([nH]5)c(-c5c(F)c(F)c(F)c(F)c5F)c5nc(c(-c6c(F)c(F)c(F)c(F)c6F)c6ccc3[nH]6)C=C5)C=C4)cc2)c1
REMARK SMILES IDX 22 1 23 2 24 3 21 5 16 6 17 7 18 8 20 9 19 10 14 11 13 12
REMARK SMILES IDX 15 14 12 15 8 16 9 17 94 18 10 19 11 20 7 21 6 22 4 23 1 24
REMARK SMILES IDX 2 25 3 26 5 27 25 28 26 29 27 30 28 31 29 32 30 34 31 35
REMARK SMILES IDX 32 36 93 37 33 38 92 39 34 40 35 41 36 42 86 43 37 44 91 45
REMARK SMILES IDX 85 46 87 47 38 48 90 49 84 50 83 51 39 53 71 54 51 55 70 56
REMARK SMILES IDX 52 57 55 58 69 59 88 60 53 61 54 62 68 64 89 65 56 66 40 67
REMARK SMILES IDX 41 68 49 69 42 70 43 71 47 72 50 73 44 74 45 75 48 76 46 77
REMARK SMILES IDX 72 78 73 79 81 80 74 81 75 82 79 83 82 84 76 85 77 86 80 87
REMARK SMILES IDX 78 88 57 89 58 90 66 91 59 92 60 93 64 94 67 95 61 96 62 97
REMARK SMILES IDX 65 98 63 99
REMARK H PARENT 24 4 13 13 28 33 87 52 55 63
REMARK Flexibility Score: inf
ROOT
ATOM      1  C   UNL A   1      32.334  24.434  26.367  1.00  0.00     0.223 C 
ATOM      2  O   UNL A   1      32.502  23.391  27.003  1.00  0.00    -0.275 OA
ATOM      3  N   UNL A   1      31.357  25.265  26.840  1.00  0.00    -0.356 N 
ATOM      4  H   UNL A   1      30.984  24.992  27.709  1.00  0.00     0.163 HD
ENDROOT
BRANCH   1   5
ATOM      5  C   UNL A   1      33.162  24.777  25.104  1.00  0.00     0.091 C 
ATOM      6  C   UNL A   1      32.798  23.853  23.894  1.00  0.00     0.091 C 
ATOM      7  C   UNL A   1      33.409  22.444  24.160  1.00  0.00     0.014 C 
ATOM      8  C   UNL A   1      34.921  22.515  24.384  1.00  0.00     0.001 C 
ATOM      9  C   UNL A   1      34.666  24.820  25.375  1.00  0.00     0.014 C 
ATOM     10  C   UNL A   1      35.278  23.438  25.542  1.00  0.00     0.001 C 
BRANCH   6  11
ATOM     11  C   UNL A   1      33.178  24.226  22.417  1.00  0.00     0.228 C 
ATOM     12  N   UNL A   1      33.176  25.463  21.852  1.00  0.00    -0.326 N 
ATOM     13  H   UNL A   1      33.545  25.491  20.940  1.00  0.00     0.169 HD
ATOM     14  O   UNL A   1      33.520  23.331  21.627  1.00  0.00    -0.274 OA
BRANCH  12  15
ATOM     15  C   UNL A   1      32.748  26.693  22.330  1.00  0.00     0.041 A 
ATOM     16  C   UNL A   1      30.897  28.226  22.544  1.00  0.00    -0.045 A 
ATOM     17  C   UNL A   1      31.831  29.237  22.351  1.00  0.00     0.004 A 
ATOM     18  C   UNL A   1      31.372  26.915  22.483  1.00  0.00     0.029 A 
ATOM     19  C   UNL A   1      33.183  29.009  22.546  1.00  0.00     0.002 A 
ATOM     20  C   UNL A   1      33.649  27.713  22.581  1.00  0.00     0.026 A 
BRANCH  16  21
ATOM     21  C   UNL A   1      29.437  28.566  22.755  1.00  0.00     0.045 C 
BRANCH  21  22
ATOM     22  C   UNL A   1      29.180  30.072  23.011  1.00  0.00     0.105 C 
BRANCH  22  23
ATOM     23  C   UNL A   1      28.448  30.728  21.847  1.00  0.00     0.222 C 
ATOM     24  C   UNL A   1      27.903  32.680  20.501  1.00  0.00     0.146 C 
ATOM     25  N   UNL A   1      28.333  32.115  21.772  1.00  0.00    -0.349 N 
ATOM     26  C   UNL A   1      28.778  33.092  22.764  1.00  0.00     0.146 C 
ATOM     27  O   UNL A   1      28.030  30.004  20.937  1.00  0.00    -0.275 OA
ENDBRANCH  22  23
ENDBRANCH  21  22
ENDBRANCH  16  21
ENDBRANCH  12  15
ENDBRANCH   6  11
ENDBRANCH   1   5
BRANCH   3  28
ATOM     28  C   UNL A   1      30.766  26.478  26.291  1.00  0.00     0.117 C 
BRANCH  28  29
ATOM     29  C   UNL A   1      31.403  27.745  26.877  1.00  0.00     0.042 C 
BRANCH  29  30
ATOM     30  C   UNL A   1      32.312  28.540  25.939  1.00  0.00     0.118 C 
BRANCH  30  31
ATOM     31  N   UNL A   1      32.208  29.981  26.135  1.00  0.00    -0.352 N 
ATOM     32  C   UNL A   1      32.924  30.894  26.861  1.00  0.00     0.251 C 
ATOM     33  H   UNL A   1      31.460  30.384  25.638  1.00  0.00     0.163 HD
ATOM     34  O   UNL A   1      32.454  32.042  26.943  1.00  0.00    -0.269 OA
BRANCH  32  35
ATOM     35  C   UNL A   1      34.198  30.610  27.574  1.00  0.00     0.039 A 
ATOM     36  C   UNL A   1      35.075  31.687  27.802  1.00  0.00     0.014 A 
ATOM     37  C   UNL A   1      34.616  29.332  27.943  1.00  0.00     0.014 A 
ATOM     38  C   UNL A   1      36.305  31.498  28.444  1.00  0.00     0.010 A 
ATOM     39  C   UNL A   1      35.819  29.149  28.640  1.00  0.00     0.010 A 
ATOM     40  C   UNL A   1      36.678  30.229  28.905  1.00  0.00    -0.014 A 
BRANCH  40  41
ATOM     41  C   UNL A   1      37.948  30.007  29.653  1.00  0.00     0.031 A 
ATOM     42  C   UNL A   1      39.016  29.101  29.098  1.00  0.00     0.074 A 
ATOM     43  C   UNL A   1      38.122  30.563  30.869  1.00  0.00     0.049 A 
ATOM     44  N   UNL A   1      40.113  28.663  29.667  1.00  0.00    -0.248 NA
ATOM     45  C   UNL A   1      38.812  28.603  27.730  1.00  0.00     0.031 C 
ATOM     46  C   UNL A   1      37.172  31.455  31.534  1.00  0.00     0.029 A 
ATOM     47  N   UNL A   1      39.151  30.440  31.772  1.00  0.00    -0.354 N 
ATOM     48  C   UNL A   1      40.711  27.819  28.741  1.00  0.00     0.074 A 
ATOM     49  C   UNL A   1      39.845  27.785  27.582  1.00  0.00     0.031 C 
ATOM     50  C   UNL A   1      37.659  31.798  32.738  1.00  0.00     0.029 A 
ATOM     51  C   UNL A   1      38.935  31.117  32.948  1.00  0.00     0.049 A 
ATOM     52  H   UNL A   1      39.965  29.918  31.593  1.00  0.00     0.167 HD
ATOM     53  C   UNL A   1      41.882  27.141  28.843  1.00  0.00     0.037 A 
ATOM     54  C   UNL A   1      39.664  31.166  34.080  1.00  0.00     0.037 A 
ATOM     55  C   UNL A   1      42.771  27.207  29.973  1.00  0.00     0.049 A 
ATOM     56  C   UNL A   1      40.953  30.395  34.172  1.00  0.00     0.074 A 
ATOM     57  C   UNL A   1      44.013  26.613  30.129  1.00  0.00     0.029 A 
ATOM     58  N   UNL A   1      42.517  27.909  31.140  1.00  0.00    -0.354 N 
ATOM     59  N   UNL A   1      41.521  29.626  33.277  1.00  0.00    -0.248 NA
ATOM     60  C   UNL A   1      41.698  30.494  35.437  1.00  0.00     0.031 C 
ATOM     61  C   UNL A   1      44.493  26.926  31.405  1.00  0.00     0.029 A 
ATOM     62  C   UNL A   1      43.567  27.743  32.030  1.00  0.00     0.049 A 
ATOM     63  H   UNL A   1      41.710  28.446  31.312  1.00  0.00     0.167 HD
ATOM     64  C   UNL A   1      42.695  29.166  33.859  1.00  0.00     0.074 A 
ATOM     65  C   UNL A   1      42.766  29.752  35.181  1.00  0.00     0.031 C 
ATOM     66  C   UNL A   1      43.627  28.329  33.344  1.00  0.00     0.037 A 
BRANCH  53  67
ATOM     67  C   UNL A   1      42.276  26.257  27.696  1.00  0.00     0.064 A 
ATOM     68  C   UNL A   1      43.213  26.670  26.737  1.00  0.00     0.173 A 
ATOM     69  C   UNL A   1      41.751  24.960  27.588  1.00  0.00     0.173 A 
ATOM     70  F   UNL A   1      43.737  27.903  26.793  1.00  0.00    -0.203 F 
ATOM     71  C   UNL A   1      43.593  25.822  25.699  1.00  0.00     0.198 A 
ATOM     72  C   UNL A   1      42.153  24.108  26.563  1.00  0.00     0.198 A 
ATOM     73  F   UNL A   1      40.859  24.515  28.486  1.00  0.00    -0.203 F 
ATOM     74  F   UNL A   1      44.462  26.251  24.773  1.00  0.00    -0.200 F 
ATOM     75  C   UNL A   1      43.068  24.541  25.617  1.00  0.00     0.200 A 
ATOM     76  F   UNL A   1      41.653  22.866  26.492  1.00  0.00    -0.200 F 
ATOM     77  F   UNL A   1      43.441  23.725  24.621  1.00  0.00    -0.200 F 
ENDBRANCH  53  67
BRANCH  54  78
ATOM     78  C   UNL A   1      39.186  31.971  35.234  1.00  0.00     0.064 A 
ATOM     79  C   UNL A   1      39.466  33.341  35.320  1.00  0.00     0.173 A 
ATOM     80  C   UNL A   1      38.448  31.386  36.274  1.00  0.00     0.173 A 
ATOM     81  F   UNL A   1      40.189  33.937  34.362  1.00  0.00    -0.203 F 
ATOM     82  C   UNL A   1      39.038  34.094  36.411  1.00  0.00     0.198 A 
ATOM     83  C   UNL A   1      38.001  32.146  37.352  1.00  0.00     0.198 A 
ATOM     84  F   UNL A   1      38.153  30.079  36.236  1.00  0.00    -0.203 F 
ATOM     85  F   UNL A   1      39.354  35.394  36.490  1.00  0.00    -0.200 F 
ATOM     86  C   UNL A   1      38.302  33.498  37.424  1.00  0.00     0.200 A 
ATOM     87  F   UNL A   1      37.278  31.567  38.322  1.00  0.00    -0.200 F 
ATOM     88  F   UNL A   1      37.887  34.223  38.471  1.00  0.00    -0.200 F 
ENDBRANCH  54  78
BRANCH  66  89
ATOM     89  C   UNL A   1      44.812  28.007  34.204  1.00  0.00     0.064 A 
ATOM     90  C   UNL A   1      45.970  28.798  34.180  1.00  0.00     0.173 A 
ATOM     91  C   UNL A   1      44.777  26.920  35.090  1.00  0.00     0.173 A 
ATOM     92  F   UNL A   1      46.058  29.838  33.335  1.00  0.00    -0.203 F 
ATOM     93  C   UNL A   1      47.057  28.501  34.997  1.00  0.00     0.198 A 
ATOM     94  C   UNL A   1      45.856  26.640  35.924  1.00  0.00     0.198 A 
ATOM     95  F   UNL A   1      43.690  26.135  35.154  1.00  0.00    -0.203 F 
ATOM     96  F   UNL A   1      48.169  29.247  34.929  1.00  0.00    -0.200 F 
ATOM     97  C   UNL A   1      46.998  27.427  35.873  1.00  0.00     0.200 A 
ATOM     98  F   UNL A   1      45.794  25.607  36.776  1.00  0.00    -0.200 F 
ATOM     99  F   UNL A   1      48.042  27.146  36.663  1.00  0.00    -0.200 F 
ENDBRANCH  66  89
ENDBRANCH  40  41
ENDBRANCH  32  35
ENDBRANCH  30  31
ENDBRANCH  29  30
ENDBRANCH  28  29
ENDBRANCH   3  28
TORSDOF 15
ENDMDL
MODEL 2
REMARK VINA RESULT:     -12.8      2.388      7.406
REMARK SMILES CN(C)C(=O)CCc1cccc(NC(=O)[C@H]2CCCC[C@@H]2C(=O)NCCCNC(=O)c2ccc(-c3c4nc(c(-c5c(F)c(F)c(F)c(F)c5F)c5ccc([nH]5)c(-c5c(F)c(F)c(F)c(F)c5F)c5nc(c(-c6c(F)c(F)c(F)c(F)c6F)c6ccc3[nH]6)C=C5)C=C4)cc2)c1
REMARK SMILES IDX 22 1 23 2 24 3 21 5 16 6 17 7 18 8 20 9 19 10 14 11 13 12
REMARK SMILES IDX 15 14 12 15 8 16 9 17 94 18 10 19 11 20 7 21 6 22 4 23 1 24
REMARK SMILES IDX 2 25 3 26 5 27 25 28 26 29 27 30 28 31 29 32 30 34 31 35
REMARK SMILES IDX 32 36 93 37 33 38 92 39 34 40 35 41 36 42 86 43 37 44 91 45
REMARK SMILES IDX 85 46 87 47 38 48 90 49 84 50 83 51 39 53 71 54 51 55 70 56
REMARK SMILES IDX 52 57 55 58 69 59 88 60 53 61 54 62 68 64 89 65 56 66 40 67
REMARK SMILES IDX 41 68 49 69 42 70 43 71 47 72 50 73 44 74 45 75 48 76 46 77
REMARK SMILES IDX 72 78 73 79 81 80 74 81 75 82 79 83 82 84 76 85 77 86 80 87
REMARK SMILES IDX 78 88 57 89 58 90 66 91 59 92 60 93 64 94 67 95 61 96 62 97
REMARK SMILES IDX 65 98 63 99
REMARK H PARENT 24 4 13 13 28 33 87 52 55 63
REMARK Flexibility Score: inf
ROOT
ATOM      1  C   UNL A   1      32.123  24.363  26.344  1.00  0.00     0.223 C 
ATOM      2  O   UNL A   1      32.000  23.244  26.849  1.00  0.00    -0.275 OA
ATOM      3  N   UNL A   1      31.358  25.350  26.900  1.00  0.00    -0.356 N 
ATOM      4  H   UNL A   1      30.889  25.080  27.722  1.00  0.00     0.163 HD
ENDROOT
BRANCH   1   5
ATOM      5  C   UNL A   1      33.069  24.633  25.149  1.00  0.00     0.091 C 
ATOM      6  C   UNL A   1      32.632  23.853  23.865  1.00  0.00     0.091 C 
ATOM      7  C   UNL A   1      32.987  22.349  24.068  1.00  0.00     0.014 C 
ATOM      8  C   UNL A   1      34.475  22.154  24.370  1.00  0.00     0.001 C 
ATOM      9  C   UNL A   1      34.542  24.409  25.495  1.00  0.00     0.014 C 
ATOM     10  C   UNL A   1      34.909  22.938  25.602  1.00  0.00     0.001 C 
BRANCH   6  11
ATOM     11  C   UNL A   1      33.155  24.239  22.436  1.00  0.00     0.228 C 
ATOM     12  N   UNL A   1      33.236  25.486  21.897  1.00  0.00    -0.326 N 
ATOM     13  H   UNL A   1      33.687  25.518  21.023  1.00  0.00     0.169 HD
ATOM     14  O   UNL A   1      33.544  23.348  21.663  1.00  0.00    -0.274 OA
BRANCH  12  15
ATOM     15  C   UNL A   1      32.798  26.718  22.357  1.00  0.00     0.041 A 
ATOM     16  C   UNL A   1      30.936  28.242  22.543  1.00  0.00    -0.045 A 
ATOM     17  C   UNL A   1      31.865  29.257  22.342  1.00  0.00     0.004 A 
ATOM     18  C   UNL A   1      31.420  26.934  22.501  1.00  0.00     0.029 A 
ATOM     19  C   UNL A   1      33.217  29.040  22.546  1.00  0.00     0.002 A 
ATOM     20  C   UNL A   1      33.691  27.747  22.600  1.00  0.00     0.026 A 
BRANCH  16  21
ATOM     21  C   UNL A   1      29.474  28.575  22.744  1.00  0.00     0.045 C 
BRANCH  21  22
ATOM     22  C   UNL A   1      29.208  30.079  23.002  1.00  0.00     0.105 C 
BRANCH  22  23
ATOM     23  C   UNL A   1      28.451  30.729  21.849  1.00  0.00     0.222 C 
ATOM     24  C   UNL A   1      27.869  32.675  20.511  1.00  0.00     0.146 C 
ATOM     25  N   UNL A   1      28.324  32.115  21.776  1.00  0.00    -0.349 N 
ATOM     26  C   UNL A   1      28.778  33.096  22.759  1.00  0.00     0.146 C 
ATOM     27  O   UNL A   1      28.026  30.000  20.947  1.00  0.00    -0.275 OA
ENDBRANCH  22  23
ENDBRANCH  21  22
ENDBRANCH  16  21
ENDBRANCH  12  15
ENDBRANCH   6  11
ENDBRANCH   1   5
BRANCH   3  28
ATOM     28  C   UNL A   1      31.109  26.727  26.496  1.00  0.00     0.117 C 
BRANCH  28  29
ATOM     29  C   UNL A   1      31.822  27.733  27.410  1.00  0.00     0.042 C 
BRANCH  29  30
ATOM     30  C   UNL A   1      33.169  28.258  26.912  1.00  0.00     0.118 C 
BRANCH  30  31
ATOM     31  N   UNL A   1      33.306  29.702  27.066  1.00  0.00    -0.352 N 
ATOM     32  C   UNL A   1      34.256  30.511  27.629  1.00  0.00     0.251 C 
ATOM     33  H   UNL A   1      32.551  30.204  26.681  1.00  0.00     0.163 HD
ATOM     34  O   UNL A   1      33.974  31.717  27.741  1.00  0.00    -0.269 OA
BRANCH  32  35
ATOM     35  C   UNL A   1      35.576  30.054  28.137  1.00  0.00     0.039 A 
ATOM     36  C   UNL A   1      36.671  30.105  27.255  1.00  0.00     0.014 A 
ATOM     37  C   UNL A   1      35.773  29.491  29.398  1.00  0.00     0.014 A 
ATOM     38  C   UNL A   1      37.943  29.669  27.649  1.00  0.00     0.010 A 
ATOM     39  C   UNL A   1      37.058  29.110  29.816  1.00  0.00     0.010 A 
ATOM     40  C   UNL A   1      38.160  29.199  28.950  1.00  0.00    -0.014 A 
BRANCH  40  41
ATOM     41  C   UNL A   1      39.514  28.792  29.422  1.00  0.00     0.031 A 
ATOM     42  C   UNL A   1      40.319  29.700  30.314  1.00  0.00     0.074 A 
ATOM     43  C   UNL A   1      40.060  27.636  28.994  1.00  0.00     0.049 A 
ATOM     44  N   UNL A   1      41.568  29.594  30.700  1.00  0.00    -0.248 NA
ATOM     45  C   UNL A   1      39.635  30.897  30.825  1.00  0.00     0.031 C 
ATOM     46  C   UNL A   1      39.402  26.662  28.123  1.00  0.00     0.029 A 
ATOM     47  N   UNL A   1      41.304  27.094  29.217  1.00  0.00    -0.354 N 
ATOM     48  C   UNL A   1      41.826  30.721  31.469  1.00  0.00     0.074 A 
ATOM     49  C   UNL A   1      40.613  31.511  31.477  1.00  0.00     0.031 C 
ATOM     50  C   UNL A   1      40.246  25.645  27.883  1.00  0.00     0.029 A 
ATOM     51  C   UNL A   1      41.519  25.914  28.548  1.00  0.00     0.049 A 
ATOM     52  H   UNL A   1      41.976  27.512  29.801  1.00  0.00     0.167 HD
ATOM     53  C   UNL A   1      42.967  31.061  32.118  1.00  0.00     0.037 A 
ATOM     54  C   UNL A   1      42.621  25.145  28.456  1.00  0.00     0.037 A 
ATOM     55  C   UNL A   1      44.162  30.258  32.153  1.00  0.00     0.049 A 
ATOM     56  C   UNL A   1      43.878  25.551  29.176  1.00  0.00     0.074 A 
ATOM     57  C   UNL A   1      45.338  30.490  32.849  1.00  0.00     0.029 A 
ATOM     58  N   UNL A   1      44.334  29.067  31.468  1.00  0.00    -0.354 N 
ATOM     59  N   UNL A   1      44.097  26.603  29.925  1.00  0.00    -0.248 NA
ATOM     60  C   UNL A   1      45.043  24.665  29.031  1.00  0.00     0.031 C 
ATOM     61  C   UNL A   1      46.234  29.458  32.553  1.00  0.00     0.029 A 
ATOM     62  C   UNL A   1      45.605  28.565  31.703  1.00  0.00     0.049 A 
ATOM     63  H   UNL A   1      43.655  28.640  30.897  1.00  0.00     0.167 HD
ATOM     64  C   UNL A   1      45.414  26.498  30.354  1.00  0.00     0.074 A 
ATOM     65  C   UNL A   1      45.941  25.271  29.794  1.00  0.00     0.031 C 
ATOM     66  C   UNL A   1      46.121  27.345  31.140  1.00  0.00     0.037 A 
BRANCH  53  67
ATOM     67  C   UNL A   1      42.987  32.372  32.850  1.00  0.00     0.064 A 
ATOM     68  C   UNL A   1      43.251  33.580  32.189  1.00  0.00     0.173 A 
ATOM     69  C   UNL A   1      42.681  32.424  34.218  1.00  0.00     0.173 A 
ATOM     70  F   UNL A   1      43.557  33.581  30.883  1.00  0.00    -0.203 F 
ATOM     71  C   UNL A   1      43.230  34.791  32.877  1.00  0.00     0.198 A 
ATOM     72  C   UNL A   1      42.637  33.639  34.897  1.00  0.00     0.198 A 
ATOM     73  F   UNL A   1      42.411  31.296  34.894  1.00  0.00    -0.203 F 
ATOM     74  F   UNL A   1      43.524  35.929  32.233  1.00  0.00    -0.200 F 
ATOM     75  C   UNL A   1      42.917  34.819  34.228  1.00  0.00     0.200 A 
ATOM     76  F   UNL A   1      42.323  33.666  36.200  1.00  0.00    -0.200 F 
ATOM     77  F   UNL A   1      42.891  35.986  34.886  1.00  0.00    -0.200 F 
ENDBRANCH  53  67
BRANCH  54  78
ATOM     78  C   UNL A   1      42.592  23.906  27.634  1.00  0.00     0.064 A 
ATOM     79  C   UNL A   1      42.218  22.679  28.197  1.00  0.00     0.173 A 
ATOM     80  C   UNL A   1      42.945  23.925  26.277  1.00  0.00     0.173 A 
ATOM     81  F   UNL A   1      41.897  22.609  29.497  1.00  0.00    -0.203 F 
ATOM     82  C   UNL A   1      42.212  21.512  27.436  1.00  0.00     0.198 A 
ATOM     83  C   UNL A   1      42.915  22.762  25.511  1.00  0.00     0.198 A 
ATOM     84  F   UNL A   1      43.308  25.076  25.693  1.00  0.00    -0.203 F 
ATOM     85  F   UNL A   1      41.889  20.344  28.007  1.00  0.00    -0.200 F 
ATOM     86  C   UNL A   1      42.555  21.555  26.092  1.00  0.00     0.200 A 
ATOM     87  F   UNL A   1      43.235  22.811  24.210  1.00  0.00    -0.200 F 
ATOM     88  F   UNL A   1      42.544  20.434  25.359  1.00  0.00    -0.200 F 
ENDBRANCH  54  78
BRANCH  66  89
ATOM     89  C   UNL A   1      47.539  26.970  31.453  1.00  0.00     0.064 A 
ATOM     90  C   UNL A   1      47.847  26.080  32.491  1.00  0.00     0.173 A 
ATOM     91  C   UNL A   1      48.598  27.475  30.684  1.00  0.00     0.173 A 
ATOM     92  F   UNL A   1      46.869  25.584  33.267  1.00  0.00    -0.203 F 
ATOM     93  C   UNL A   1      49.166  25.723  32.761  1.00  0.00     0.198 A 
ATOM     94  C   UNL A   1      49.913  27.098  30.940  1.00  0.00     0.198 A 
ATOM     95  F   UNL A   1      48.355  28.327  29.676  1.00  0.00    -0.203 F 
ATOM     96  F   UNL A   1      49.440  24.900  33.783  1.00  0.00    -0.200 F 
ATOM     97  C   UNL A   1      50.197  26.226  31.982  1.00  0.00     0.200 A 
ATOM     98  F   UNL A   1      50.908  27.578  30.181  1.00  0.00    -0.200 F 
ATOM     99  F   UNL A   1      51.464  25.878  32.239  1.00  0.00    -0.200 F 
ENDBRANCH  66  89
ENDBRANCH  40  41
ENDBRANCH  32  35
ENDBRANCH  30  31
ENDBRANCH  29  30
ENDBRANCH  28  29
ENDBRANCH   3  28
TORSDOF 15
ENDMDL
MODEL 3
REMARK VINA RESULT:     -12.7      4.186      9.874
REMARK SMILES CN(C)C(=O)CCc1cccc(NC(=O)[C@H]2CCCC[C@@H]2C(=O)NCCCNC(=O)c2ccc(-c3c4nc(c(-c5c(F)c(F)c(F)c(F)c5F)c5ccc([nH]5)c(-c5c(F)c(F)c(F)c(F)c5F)c5nc(c(-c6c(F)c(F)c(F)c(F)c6F)c6ccc3[nH]6)C=C5)C=C4)cc2)c1
REMARK SMILES IDX 22 1 23 2 24 3 21 5 16 6 17 7 18 8 20 9 19 10 14 11 13 12
REMARK SMILES IDX 15 14 12 15 8 16 9 17 94 18 10 19 11 20 7 21 6 22 4 23 1 24
REMARK SMILES IDX 2 25 3 26 5 27 25 28 26 29 27 30 28 31 29 32 30 34 31 35
REMARK SMILES IDX 32 36 93 37 33 38 92 39 34 40 35 41 36 42 86 43 37 44 91 45
REMARK SMILES IDX 85 46 87 47 38 48 90 49 84 50 83 51 39 53 71 54 51 55 70 56
REMARK SMILES IDX 52 57 55 58 69 59 88 60 53 61 54 62 68 64 89 65 56 66 40 67
REMARK SMILES IDX 41 68 49 69 42 70 43 71 47 72 50 73 44 74 45 75 48 76 46 77
REMARK SMILES IDX 72 78 73 79 81 80 74 81 75 82 79 83 82 84 76 85 77 86 80 87
REMARK SMILES IDX 78 88 57 89 58 90 66 91 59 92 60 93 64 94 67 95 61 96 62 97
REMARK SMILES IDX 65 98 63 99
REMARK H PARENT 24 4 13 13 28 33 87 52 55 63
REMARK Flexibility Score: inf
ROOT
ATOM      1  C   UNL A   1      33.563  25.770  23.420  1.00  0.00     0.223 C 
ATOM      2  O   UNL A   1      33.476  26.889  22.908  1.00  0.00    -0.275 OA
ATOM      3  N   UNL A   1      34.129  24.804  22.636  1.00  0.00    -0.356 N 
ATOM      4  H   UNL A   1      34.517  25.143  21.798  1.00  0.00     0.163 HD
ENDROOT
BRANCH   1   5
ATOM      5  C   UNL A   1      33.050  25.471  24.849  1.00  0.00     0.091 C 
ATOM      6  C   UNL A   1      31.486  25.439  24.918  1.00  0.00     0.091 C 
ATOM      7  C   UNL A   1      30.968  26.905  24.821  1.00  0.00     0.014 C 
ATOM      8  C   UNL A   1      31.565  27.792  25.915  1.00  0.00     0.001 C 
ATOM      9  C   UNL A   1      33.662  26.393  25.905  1.00  0.00     0.014 C 
ATOM     10  C   UNL A   1      33.087  27.800  25.869  1.00  0.00     0.001 C 
BRANCH   6  11
ATOM     11  C   UNL A   1      30.718  24.780  26.118  1.00  0.00     0.228 C 
ATOM     12  N   UNL A   1      31.089  23.681  26.831  1.00  0.00    -0.326 N 
ATOM     13  H   UNL A   1      30.515  23.494  27.609  1.00  0.00     0.169 HD
ATOM     14  O   UNL A   1      29.641  25.267  26.501  1.00  0.00    -0.274 OA
BRANCH  12  15
ATOM     15  C   UNL A   1      32.128  22.780  26.660  1.00  0.00     0.041 A 
ATOM     16  C   UNL A   1      32.879  20.774  25.548  1.00  0.00    -0.045 A 
ATOM     17  C   UNL A   1      33.534  20.471  26.736  1.00  0.00     0.004 A 
ATOM     18  C   UNL A   1      32.116  21.943  25.534  1.00  0.00     0.029 A 
ATOM     19  C   UNL A   1      33.803  21.452  27.675  1.00  0.00     0.002 A 
ATOM     20  C   UNL A   1      33.122  22.648  27.614  1.00  0.00     0.026 A 
BRANCH  16  21
ATOM     21  C   UNL A   1      32.968  19.834  24.365  1.00  0.00     0.045 C 
BRANCH  21  22
ATOM     22  C   UNL A   1      33.848  18.587  24.628  1.00  0.00     0.105 C 
BRANCH  22  23
ATOM     23  C   UNL A   1      33.006  17.347  24.906  1.00  0.00     0.222 C 
ATOM     24  C   UNL A   1      32.770  15.078  25.751  1.00  0.00     0.146 C 
ATOM     25  N   UNL A   1      33.615  16.127  25.198  1.00  0.00    -0.349 N 
ATOM     26  C   UNL A   1      35.046  15.833  25.198  1.00  0.00     0.146 C 
ATOM     27  O   UNL A   1      31.778  17.471  24.942  1.00  0.00    -0.275 OA
ENDBRANCH  22  23
ENDBRANCH  21  22
ENDBRANCH  16  21
ENDBRANCH  12  15
ENDBRANCH   6  11
ENDBRANCH   1   5
BRANCH   3  28
ATOM     28  C   UNL A   1      34.260  23.364  22.815  1.00  0.00     0.117 C 
BRANCH  28  29
ATOM     29  C   UNL A   1      35.643  22.975  23.354  1.00  0.00     0.042 C 
BRANCH  29  30
ATOM     30  C   UNL A   1      35.725  22.683  24.853  1.00  0.00     0.118 C 
BRANCH  30  31
ATOM     31  N   UNL A   1      36.674  21.623  25.173  1.00  0.00    -0.352 N 
ATOM     32  C   UNL A   1      37.958  21.609  25.645  1.00  0.00     0.251 C 
ATOM     33  H   UNL A   1      36.311  20.721  25.015  1.00  0.00     0.163 HD
ATOM     34  O   UNL A   1      38.547  20.514  25.645  1.00  0.00    -0.269 OA
BRANCH  32  35
ATOM     35  C   UNL A   1      38.705  22.801  26.127  1.00  0.00     0.039 A 
ATOM     36  C   UNL A   1      39.878  22.582  26.873  1.00  0.00     0.014 A 
ATOM     37  C   UNL A   1      38.262  24.115  25.968  1.00  0.00     0.014 A 
ATOM     38  C   UNL A   1      40.625  23.651  27.384  1.00  0.00     0.010 A 
ATOM     39  C   UNL A   1      39.040  25.189  26.427  1.00  0.00     0.010 A 
ATOM     40  C   UNL A   1      40.232  24.973  27.136  1.00  0.00    -0.014 A 
BRANCH  40  41
ATOM     41  C   UNL A   1      41.041  26.133  27.608  1.00  0.00     0.031 A 
ATOM     42  C   UNL A   1      40.401  27.241  28.402  1.00  0.00     0.074 A 
ATOM     43  C   UNL A   1      42.341  26.233  27.265  1.00  0.00     0.049 A 
ATOM     44  N   UNL A   1      40.899  28.399  28.765  1.00  0.00    -0.248 NA
ATOM     45  C   UNL A   1      39.010  27.029  28.827  1.00  0.00     0.031 C 
ATOM     46  C   UNL A   1      43.092  25.242  26.494  1.00  0.00     0.029 A 
ATOM     47  N   UNL A   1      43.257  27.231  27.503  1.00  0.00    -0.354 N 
ATOM     48  C   UNL A   1      39.876  29.061  29.430  1.00  0.00     0.074 A 
ATOM     49  C   UNL A   1      38.721  28.188  29.401  1.00  0.00     0.031 C 
ATOM     50  C   UNL A   1      44.350  25.679  26.321  1.00  0.00     0.029 A 
ATOM     51  C   UNL A   1      44.484  27.001  26.930  1.00  0.00     0.049 A 
ATOM     52  H   UNL A   1      43.053  28.034  28.034  1.00  0.00     0.167 HD
ATOM     53  C   UNL A   1      39.899  30.282  30.022  1.00  0.00     0.037 A 
ATOM     54  C   UNL A   1      45.587  27.772  26.876  1.00  0.00     0.037 A 
ATOM     55  C   UNL A   1      41.057  31.135  30.095  1.00  0.00     0.049 A 
ATOM     56  C   UNL A   1      45.583  29.128  27.529  1.00  0.00     0.074 A 
ATOM     57  C   UNL A   1      41.190  32.354  30.740  1.00  0.00     0.029 A 
ATOM     58  N   UNL A   1      42.281  30.860  29.508  1.00  0.00    -0.354 N 
ATOM     59  N   UNL A   1      44.619  29.727  28.182  1.00  0.00    -0.248 NA
ATOM     60  C   UNL A   1      46.821  29.917  27.431  1.00  0.00     0.031 C 
ATOM     61  C   UNL A   1      42.484  32.834  30.511  1.00  0.00     0.029 A 
ATOM     62  C   UNL A   1      43.167  31.897  29.753  1.00  0.00     0.049 A 
ATOM     63  H   UNL A   1      42.490  30.048  28.991  1.00  0.00     0.167 HD
ATOM     64  C   UNL A   1      45.135  30.951  28.587  1.00  0.00     0.074 A 
ATOM     65  C   UNL A   1      46.505  31.004  28.119  1.00  0.00     0.031 C 
ATOM     66  C   UNL A   1      44.527  31.942  29.282  1.00  0.00     0.037 A 
BRANCH  53  67
ATOM     67  C   UNL A   1      38.626  30.780  30.640  1.00  0.00     0.064 A 
ATOM     68  C   UNL A   1      38.405  30.714  32.024  1.00  0.00     0.173 A 
ATOM     69  C   UNL A   1      37.639  31.381  29.844  1.00  0.00     0.173 A 
ATOM     70  F   UNL A   1      39.316  30.141  32.825  1.00  0.00    -0.203 F 
ATOM     71  C   UNL A   1      37.232  31.213  32.585  1.00  0.00     0.198 A 
ATOM     72  C   UNL A   1      36.479  31.901  30.412  1.00  0.00     0.198 A 
ATOM     73  F   UNL A   1      37.807  31.476  28.517  1.00  0.00    -0.203 F 
ATOM     74  F   UNL A   1      37.026  31.106  33.905  1.00  0.00    -0.200 F 
ATOM     75  C   UNL A   1      36.274  31.811  31.780  1.00  0.00     0.200 A 
ATOM     76  F   UNL A   1      35.559  32.489  29.634  1.00  0.00    -0.200 F 
ATOM     77  F   UNL A   1      35.149  32.297  32.323  1.00  0.00    -0.200 F 
ENDBRANCH  53  67
BRANCH  54  78
ATOM     78  C   UNL A   1      46.796  27.286  26.162  1.00  0.00     0.064 A 
ATOM     79  C   UNL A   1      47.794  26.574  26.840  1.00  0.00     0.173 A 
ATOM     80  C   UNL A   1      46.980  27.529  24.793  1.00  0.00     0.173 A 
ATOM     81  F   UNL A   1      47.673  26.341  28.155  1.00  0.00    -0.203 F 
ATOM     82  C   UNL A   1      48.940  26.136  26.179  1.00  0.00     0.198 A 
ATOM     83  C   UNL A   1      48.114  27.068  24.128  1.00  0.00     0.198 A 
ATOM     84  F   UNL A   1      46.052  28.203  24.099  1.00  0.00    -0.203 F 
ATOM     85  F   UNL A   1      49.899  25.493  26.860  1.00  0.00    -0.200 F 
ATOM     86  C   UNL A   1      49.096  26.378  24.823  1.00  0.00     0.200 A 
ATOM     87  F   UNL A   1      48.255  27.294  22.814  1.00  0.00    -0.200 F 
ATOM     88  F   UNL A   1      50.196  25.953  24.186  1.00  0.00    -0.200 F 
ENDBRANCH  54  78
BRANCH  66  89
ATOM     89  C   UNL A   1      45.339  33.164  29.591  1.00  0.00     0.064 A 
ATOM     90  C   UNL A   1      45.328  34.282  28.746  1.00  0.00     0.173 A 
ATOM     91  C   UNL A   1      46.107  33.233  30.763  1.00  0.00     0.173 A 
ATOM     92  F   UNL A   1      44.624  34.257  27.603  1.00  0.00    -0.203 F 
ATOM     93  C   UNL A   1      46.071  35.419  29.053  1.00  0.00     0.198 A 
ATOM     94  C   UNL A   1      46.829  34.380  31.080  1.00  0.00     0.198 A 
ATOM     95  F   UNL A   1      46.146  32.190  31.607  1.00  0.00    -0.203 F 
ATOM     96  F   UNL A   1      46.076  36.462  28.211  1.00  0.00    -0.200 F 
ATOM     97  C   UNL A   1      46.815  35.470  30.222  1.00  0.00     0.200 A 
ATOM     98  F   UNL A   1      47.541  34.431  32.215  1.00  0.00    -0.200 F 
ATOM     99  F   UNL A   1      47.525  36.567  30.519  1.00  0.00    -0.200 F 
ENDBRANCH  66  89
ENDBRANCH  40  41
ENDBRANCH  32  35
ENDBRANCH  30  31
ENDBRANCH  29  30
ENDBRANCH  28  29
ENDBRANCH   3  28
TORSDOF 15
ENDMDL
