MODEL 1
REMARK VINA RESULT:     -13.1      0.000      0.000
REMARK SMILES O=C(C[C@H](NS(=O)(=O)c1cccs1)c1ccccc1Cl)NCCCNC(=O)c1ccc(-c2c3nc(c(-c4c(F)c(F)c(F)c(F)c4F)c4ccc([nH]4)c(-c4c(F)c(F)c(F)c(F)c4F)c4nc(c(-c5c(F)c(F)c(F)c(F)c5F)c5ccc2[nH]5)C=C4)C=C3)cc1
REMARK SMILES IDX 22 1 21 2 1 3 2 4 3 6 4 7 14 8 15 9 19 10 16 11 18 12 20 13
REMARK SMILES IDX 17 14 5 15 6 17 7 18 8 19 9 20 10 21 13 22 11 23 12 24 23 25
REMARK SMILES IDX 24 26 25 27 26 28 27 30 28 31 29 32 90 33 30 34 89 35 31 36
REMARK SMILES IDX 32 37 33 38 83 39 34 40 88 41 82 42 84 43 35 44 87 45 81 46
REMARK SMILES IDX 80 47 36 49 68 50 48 51 67 52 49 53 52 54 66 55 85 56 50 57
REMARK SMILES IDX 51 58 65 60 86 61 53 62 37 63 38 64 46 65 39 66 40 67 44 68
REMARK SMILES IDX 47 69 41 70 42 71 45 72 43 73 69 74 70 75 78 76 71 77 72 78
REMARK SMILES IDX 76 79 79 80 73 81 74 82 77 83 75 84 54 85 55 86 63 87 56 88
REMARK SMILES IDX 57 89 61 90 64 91 58 92 59 93 62 94 60 95
REMARK H PARENT 21 5 5 16 25 29 84 48 52 59
REMARK Flexibility Score: inf
ROOT
ATOM      1  C   UNL A   1      31.772  30.527  26.689  1.00  0.00     0.117 C 
ENDROOT
BRANCH   1   2
ATOM      2  N   UNL A   1      31.983  30.070  25.329  1.00  0.00    -0.356 N 
ATOM      3  O   UNL A   1      31.444  27.866  25.706  1.00  0.00    -0.275 OA
ATOM      4  C   UNL A   1      31.824  28.755  24.955  1.00  0.00     0.221 C 
ATOM      5  H   UNL A   1      32.253  30.727  24.646  1.00  0.00     0.163 HD
BRANCH   4   6
ATOM      6  C   UNL A   1      32.186  28.479  23.516  1.00  0.00     0.125 C 
BRANCH   6   7
ATOM      7  C   UNL A   1      31.100  27.652  22.808  1.00  0.00     0.111 C 
BRANCH   7   8
ATOM      8  C   UNL A   1      29.874  28.536  22.637  1.00  0.00    -0.011 A 
ATOM      9  C   UNL A   1      30.012  29.788  22.003  1.00  0.00     0.007 A 
ATOM     10  C   UNL A   1      28.602  28.170  23.108  1.00  0.00     0.045 A 
ATOM     11  C   UNL A   1      28.913  30.625  21.812  1.00  0.00     0.000 A 
ATOM     12  C   UNL A   1      27.499  29.005  22.901  1.00  0.00     0.021 A 
ATOM     13  Cl  UNL A   1      28.326  26.702  23.977  1.00  0.00    -0.084 Cl
ATOM     14  C   UNL A   1      27.653  30.228  22.250  1.00  0.00     0.002 A 
ENDBRANCH   7   8
BRANCH   7  15
ATOM     15  N   UNL A   1      31.629  27.148  21.509  1.00  0.00    -0.202 NA
ATOM     16  H   UNL A   1      32.014  27.944  21.001  1.00  0.00     0.142 HD
BRANCH  15  17
ATOM     17  S   UNL A   1      32.837  25.954  21.590  1.00  0.00     0.250 S 
ATOM     18  O   UNL A   1      32.781  25.262  20.319  1.00  0.00    -0.206 OA
ATOM     19  O   UNL A   1      34.048  26.582  22.058  1.00  0.00    -0.206 OA
BRANCH  17  20
ATOM     20  C   UNL A   1      32.328  24.732  22.780  1.00  0.00     0.134 A 
ATOM     21  C   UNL A   1      31.069  24.276  23.129  1.00  0.00     0.033 A 
ATOM     22  S   UNL A   1      33.547  23.943  23.684  1.00  0.00    -0.131 S 
ATOM     23  C   UNL A   1      31.107  23.332  24.196  1.00  0.00     0.013 A 
ATOM     24  C   UNL A   1      32.395  23.079  24.609  1.00  0.00     0.066 A 
ENDBRANCH  17  20
ENDBRANCH  15  17
ENDBRANCH   7  15
ENDBRANCH   6   7
ENDBRANCH   4   6
ENDBRANCH   1   2
BRANCH   1  25
ATOM     25  C   UNL A   1      31.569  32.037  26.755  1.00  0.00     0.042 C 
BRANCH  25  26
ATOM     26  C   UNL A   1      32.795  32.829  27.207  1.00  0.00     0.118 C 
BRANCH  26  27
ATOM     27  N   UNL A   1      32.481  34.186  27.626  1.00  0.00    -0.352 N 
ATOM     28  C   UNL A   1      33.036  34.958  28.618  1.00  0.00     0.251 C 
ATOM     29  H   UNL A   1      31.758  34.620  27.119  1.00  0.00     0.163 HD
ATOM     30  O   UNL A   1      32.529  36.038  28.906  1.00  0.00    -0.269 OA
BRANCH  28  31
ATOM     31  C   UNL A   1      34.220  34.487  29.370  1.00  0.00     0.039 A 
ATOM     32  C   UNL A   1      34.027  33.928  30.637  1.00  0.00     0.014 A 
ATOM     33  C   UNL A   1      35.512  34.605  28.850  1.00  0.00     0.014 A 
ATOM     34  C   UNL A   1      35.115  33.411  31.345  1.00  0.00     0.010 A 
ATOM     35  C   UNL A   1      36.589  34.032  29.527  1.00  0.00     0.010 A 
ATOM     36  C   UNL A   1      36.398  33.416  30.774  1.00  0.00    -0.014 A 
BRANCH  36  37
ATOM     37  C   UNL A   1      37.540  32.744  31.445  1.00  0.00     0.031 A 
ATOM     38  C   UNL A   1      38.218  31.564  30.808  1.00  0.00     0.074 A 
ATOM     39  C   UNL A   1      37.916  33.152  32.673  1.00  0.00     0.049 A 
ATOM     40  N   UNL A   1      39.159  30.792  31.289  1.00  0.00    -0.248 NA
ATOM     41  C   UNL A   1      37.762  31.190  29.461  1.00  0.00     0.031 C 
ATOM     42  C   UNL A   1      37.314  34.260  33.417  1.00  0.00     0.029 A 
ATOM     43  N   UNL A   1      38.882  32.670  33.522  1.00  0.00    -0.354 N 
ATOM     44  C   UNL A   1      39.400  29.835  30.312  1.00  0.00     0.074 A 
ATOM     45  C   UNL A   1      38.476  30.098  29.228  1.00  0.00     0.031 C 
ATOM     46  C   UNL A   1      37.931  34.381  34.602  1.00  0.00     0.029 A 
ATOM     47  C   UNL A   1      38.942  33.335  34.722  1.00  0.00     0.049 A 
ATOM     48  H   UNL A   1      39.477  31.919  33.292  1.00  0.00     0.167 HD
ATOM     49  C   UNL A   1      40.318  28.839  30.314  1.00  0.00     0.037 A 
ATOM     50  C   UNL A   1      39.712  33.117  35.804  1.00  0.00     0.037 A 
ATOM     51  C   UNL A   1      41.251  28.592  31.383  1.00  0.00     0.049 A 
ATOM     52  C   UNL A   1      40.707  31.990  35.788  1.00  0.00     0.074 A 
ATOM     53  C   UNL A   1      42.261  27.647  31.445  1.00  0.00     0.029 A 
ATOM     54  N   UNL A   1      41.284  29.290  32.580  1.00  0.00    -0.354 N 
ATOM     55  N   UNL A   1      40.966  31.129  34.834  1.00  0.00    -0.248 NA
ATOM     56  C   UNL A   1      41.518  31.804  37.000  1.00  0.00     0.031 C 
ATOM     57  C   UNL A   1      42.876  27.744  32.698  1.00  0.00     0.029 A 
ATOM     58  C   UNL A   1      42.279  28.778  33.399  1.00  0.00     0.049 A 
ATOM     59  H   UNL A   1      40.689  30.038  32.814  1.00  0.00     0.167 HD
ATOM     60  C   UNL A   1      41.980  30.315  35.320  1.00  0.00     0.074 A 
ATOM     61  C   UNL A   1      42.302  30.796  36.648  1.00  0.00     0.031 C 
ATOM     62  C   UNL A   1      42.589  29.264  34.720  1.00  0.00     0.037 A 
BRANCH  49  63
ATOM     63  C   UNL A   1      40.362  27.934  29.117  1.00  0.00     0.064 A 
ATOM     64  C   UNL A   1      39.627  26.741  29.070  1.00  0.00     0.173 A 
ATOM     65  C   UNL A   1      41.112  28.288  27.985  1.00  0.00     0.173 A 
ATOM     66  F   UNL A   1      38.902  26.354  30.130  1.00  0.00    -0.203 F 
ATOM     67  C   UNL A   1      39.661  25.921  27.945  1.00  0.00     0.198 A 
ATOM     68  C   UNL A   1      41.122  27.480  26.850  1.00  0.00     0.198 A 
ATOM     69  F   UNL A   1      41.828  29.422  27.973  1.00  0.00    -0.203 F 
ATOM     70  F   UNL A   1      38.984  24.765  27.940  1.00  0.00    -0.200 F 
ATOM     71  C   UNL A   1      40.402  26.294  26.834  1.00  0.00     0.200 A 
ATOM     72  F   UNL A   1      41.829  27.847  25.774  1.00  0.00    -0.200 F 
ATOM     73  F   UNL A   1      40.428  25.508  25.750  1.00  0.00    -0.200 F 
ENDBRANCH  49  63
BRANCH  50  74
ATOM     74  C   UNL A   1      39.576  33.992  36.999  1.00  0.00     0.064 A 
ATOM     75  C   UNL A   1      38.781  33.604  38.085  1.00  0.00     0.173 A 
ATOM     76  C   UNL A   1      40.234  35.228  37.077  1.00  0.00     0.173 A 
ATOM     77  F   UNL A   1      38.113  32.442  38.044  1.00  0.00    -0.203 F 
ATOM     78  C   UNL A   1      38.632  34.429  39.198  1.00  0.00     0.198 A 
ATOM     79  C   UNL A   1      40.108  36.039  38.203  1.00  0.00     0.198 A 
ATOM     80  F   UNL A   1      41.011  35.641  36.064  1.00  0.00    -0.203 F 
ATOM     81  F   UNL A   1      37.831  34.054  40.204  1.00  0.00    -0.200 F 
ATOM     82  C   UNL A   1      39.302  35.643  39.258  1.00  0.00     0.200 A 
ATOM     83  F   UNL A   1      40.766  37.204  38.262  1.00  0.00    -0.200 F 
ATOM     84  F   UNL A   1      39.162  36.434  40.331  1.00  0.00    -0.200 F 
ENDBRANCH  50  74
BRANCH  62  85
ATOM     85  C   UNL A   1      43.677  28.572  35.486  1.00  0.00     0.064 A 
ATOM     86  C   UNL A   1      45.024  28.935  35.335  1.00  0.00     0.173 A 
ATOM     87  C   UNL A   1      43.368  27.560  36.406  1.00  0.00     0.173 A 
ATOM     88  F   UNL A   1      45.372  29.885  34.454  1.00  0.00    -0.203 F 
ATOM     89  C   UNL A   1      46.024  28.293  36.061  1.00  0.00     0.198 A 
ATOM     90  C   UNL A   1      44.367  26.940  37.151  1.00  0.00     0.198 A 
ATOM     91  F   UNL A   1      42.095  27.179  36.591  1.00  0.00    -0.203 F 
ATOM     92  F   UNL A   1      47.308  28.625  35.869  1.00  0.00    -0.200 F 
ATOM     93  C   UNL A   1      45.694  27.302  36.974  1.00  0.00     0.200 A 
ATOM     94  F   UNL A   1      44.046  25.990  38.041  1.00  0.00    -0.200 F 
ATOM     95  F   UNL A   1      46.657  26.690  37.677  1.00  0.00    -0.200 F 
ENDBRANCH  62  85
ENDBRANCH  36  37
ENDBRANCH  28  31
ENDBRANCH  26  27
ENDBRANCH  25  26
ENDBRANCH   1  25
TORSDOF 15
ENDMDL
MODEL 2
REMARK VINA RESULT:     -13.0      0.500      1.274
REMARK SMILES O=C(C[C@H](NS(=O)(=O)c1cccs1)c1ccccc1Cl)NCCCNC(=O)c1ccc(-c2c3nc(c(-c4c(F)c(F)c(F)c(F)c4F)c4ccc([nH]4)c(-c4c(F)c(F)c(F)c(F)c4F)c4nc(c(-c5c(F)c(F)c(F)c(F)c5F)c5ccc2[nH]5)C=C4)C=C3)cc1
REMARK SMILES IDX 22 1 21 2 1 3 2 4 3 6 4 7 14 8 15 9 19 10 16 11 18 12 20 13
REMARK SMILES IDX 17 14 5 15 6 17 7 18 8 19 9 20 10 21 13 22 11 23 12 24 23 25
REMARK SMILES IDX 24 26 25 27 26 28 27 30 28 31 29 32 90 33 30 34 89 35 31 36
REMARK SMILES IDX 32 37 33 38 83 39 34 40 88 41 82 42 84 43 35 44 87 45 81 46
REMARK SMILES IDX 80 47 36 49 68 50 48 51 67 52 49 53 52 54 66 55 85 56 50 57
REMARK SMILES IDX 51 58 65 60 86 61 53 62 37 63 38 64 46 65 39 66 40 67 44 68
REMARK SMILES IDX 47 69 41 70 42 71 45 72 43 73 69 74 70 75 78 76 71 77 72 78
REMARK SMILES IDX 76 79 79 80 73 81 74 82 77 83 75 84 54 85 55 86 63 87 56 88
REMARK SMILES IDX 57 89 61 90 64 91 58 92 59 93 62 94 60 95
REMARK H PARENT 21 5 5 16 25 29 84 48 52 59
REMARK Flexibility Score: inf
ROOT
ATOM      1  C   UNL A   1      31.776  30.508  26.513  1.00  0.00     0.117 C 
ENDROOT
BRANCH   1   2
ATOM      2  N   UNL A   1      31.667  30.109  25.123  1.00  0.00    -0.356 N 
ATOM      3  O   UNL A   1      33.411  28.607  25.145  1.00  0.00    -0.275 OA
ATOM      4  C   UNL A   1      32.522  29.199  24.543  1.00  0.00     0.221 C 
ATOM      5  H   UNL A   1      30.954  30.504  24.571  1.00  0.00     0.163 HD
BRANCH   4   6
ATOM      6  C   UNL A   1      32.294  28.997  23.066  1.00  0.00     0.125 C 
BRANCH   6   7
ATOM      7  C   UNL A   1      31.224  27.926  22.800  1.00  0.00     0.111 C 
BRANCH   7   8
ATOM      8  C   UNL A   1      29.881  28.626  22.667  1.00  0.00    -0.011 A 
ATOM      9  C   UNL A   1      29.824  29.894  22.053  1.00  0.00     0.007 A 
ATOM     10  C   UNL A   1      28.684  28.073  23.155  1.00  0.00     0.045 A 
ATOM     11  C   UNL A   1      28.612  30.566  21.897  1.00  0.00     0.000 A 
ATOM     12  C   UNL A   1      27.468  28.744  22.983  1.00  0.00     0.021 A 
ATOM     13  Cl  UNL A   1      28.641  26.568  24.002  1.00  0.00    -0.084 Cl
ATOM     14  C   UNL A   1      27.432  29.986  22.351  1.00  0.00     0.002 A 
ENDBRANCH   7   8
BRANCH   7  15
ATOM     15  N   UNL A   1      31.590  27.152  21.579  1.00  0.00    -0.202 NA
ATOM     16  H   UNL A   1      31.623  27.805  20.797  1.00  0.00     0.142 HD
BRANCH  15  17
ATOM     17  S   UNL A   1      33.072  26.320  21.621  1.00  0.00     0.250 S 
ATOM     18  O   UNL A   1      32.998  25.345  20.553  1.00  0.00    -0.206 OA
ATOM     19  O   UNL A   1      34.128  27.302  21.678  1.00  0.00    -0.206 OA
BRANCH  17  20
ATOM     20  C   UNL A   1      33.118  25.344  23.108  1.00  0.00     0.134 A 
ATOM     21  C   UNL A   1      34.032  25.315  24.146  1.00  0.00     0.033 A 
ATOM     22  S   UNL A   1      31.846  24.230  23.370  1.00  0.00    -0.131 S 
ATOM     23  C   UNL A   1      33.723  24.319  25.118  1.00  0.00     0.013 A 
ATOM     24  C   UNL A   1      32.569  23.638  24.804  1.00  0.00     0.066 A 
ENDBRANCH  17  20
ENDBRANCH  15  17
ENDBRANCH   7  15
ENDBRANCH   6   7
ENDBRANCH   4   6
ENDBRANCH   1   2
BRANCH   1  25
ATOM     25  C   UNL A   1      31.560  32.007  26.691  1.00  0.00     0.042 C 
BRANCH  25  26
ATOM     26  C   UNL A   1      32.767  32.767  27.237  1.00  0.00     0.118 C 
BRANCH  26  27
ATOM     27  N   UNL A   1      32.457  34.133  27.632  1.00  0.00    -0.352 N 
ATOM     28  C   UNL A   1      33.020  34.924  28.603  1.00  0.00     0.251 C 
ATOM     29  H   UNL A   1      31.729  34.557  27.122  1.00  0.00     0.163 HD
ATOM     30  O   UNL A   1      32.515  36.009  28.874  1.00  0.00    -0.269 OA
BRANCH  28  31
ATOM     31  C   UNL A   1      34.210  34.467  29.355  1.00  0.00     0.039 A 
ATOM     32  C   UNL A   1      34.020  33.831  30.585  1.00  0.00     0.014 A 
ATOM     33  C   UNL A   1      35.505  34.674  28.870  1.00  0.00     0.014 A 
ATOM     34  C   UNL A   1      35.116  33.327  31.287  1.00  0.00     0.010 A 
ATOM     35  C   UNL A   1      36.594  34.116  29.539  1.00  0.00     0.010 A 
ATOM     36  C   UNL A   1      36.409  33.423  30.746  1.00  0.00    -0.014 A 
BRANCH  36  37
ATOM     37  C   UNL A   1      37.569  32.769  31.404  1.00  0.00     0.031 A 
ATOM     38  C   UNL A   1      38.257  31.600  30.760  1.00  0.00     0.074 A 
ATOM     39  C   UNL A   1      37.952  33.182  32.628  1.00  0.00     0.049 A 
ATOM     40  N   UNL A   1      39.216  30.842  31.230  1.00  0.00    -0.248 NA
ATOM     41  C   UNL A   1      37.793  31.219  29.418  1.00  0.00     0.031 C 
ATOM     42  C   UNL A   1      37.341  34.282  33.378  1.00  0.00     0.029 A 
ATOM     43  N   UNL A   1      38.934  32.716  33.466  1.00  0.00    -0.354 N 
ATOM     44  C   UNL A   1      39.460  29.889  30.251  1.00  0.00     0.074 A 
ATOM     45  C   UNL A   1      38.521  30.137  29.177  1.00  0.00     0.031 C 
ATOM     46  C   UNL A   1      37.969  34.412  34.557  1.00  0.00     0.029 A 
ATOM     47  C   UNL A   1      38.997  33.382  34.666  1.00  0.00     0.049 A 
ATOM     48  H   UNL A   1      39.538  31.974  33.230  1.00  0.00     0.167 HD
ATOM     49  C   UNL A   1      40.394  28.907  30.242  1.00  0.00     0.037 A 
ATOM     50  C   UNL A   1      39.782  33.176  35.740  1.00  0.00     0.037 A 
ATOM     51  C   UNL A   1      41.342  28.674  31.301  1.00  0.00     0.049 A 
ATOM     52  C   UNL A   1      40.794  32.065  35.713  1.00  0.00     0.074 A 
ATOM     53  C   UNL A   1      42.368  27.745  31.352  1.00  0.00     0.029 A 
ATOM     54  N   UNL A   1      41.377  29.373  32.498  1.00  0.00    -0.354 N 
ATOM     55  N   UNL A   1      41.056  31.208  34.756  1.00  0.00    -0.248 NA
ATOM     56  C   UNL A   1      41.621  31.891  36.916  1.00  0.00     0.031 C 
ATOM     57  C   UNL A   1      42.994  27.852  32.599  1.00  0.00     0.029 A 
ATOM     58  C   UNL A   1      42.390  28.877  33.306  1.00  0.00     0.049 A 
ATOM     59  H   UNL A   1      40.774  30.112  32.739  1.00  0.00     0.167 HD
ATOM     60  C   UNL A   1      42.088  30.410  35.231  1.00  0.00     0.074 A 
ATOM     61  C   UNL A   1      42.417  30.895  36.555  1.00  0.00     0.031 C 
ATOM     62  C   UNL A   1      42.706  29.367  34.624  1.00  0.00     0.037 A 
BRANCH  49  63
ATOM     63  C   UNL A   1      40.439  28.003  29.045  1.00  0.00     0.064 A 
ATOM     64  C   UNL A   1      39.690  26.818  28.990  1.00  0.00     0.173 A 
ATOM     65  C   UNL A   1      41.204  28.349  27.921  1.00  0.00     0.173 A 
ATOM     66  F   UNL A   1      38.950  26.439  30.043  1.00  0.00    -0.203 F 
ATOM     67  C   UNL A   1      39.725  25.999  27.865  1.00  0.00     0.198 A 
ATOM     68  C   UNL A   1      41.215  27.542  26.786  1.00  0.00     0.198 A 
ATOM     69  F   UNL A   1      41.933  29.475  27.918  1.00  0.00    -0.203 F 
ATOM     70  F   UNL A   1      39.035  24.851  27.852  1.00  0.00    -0.200 F 
ATOM     71  C   UNL A   1      40.481  26.365  26.762  1.00  0.00     0.200 A 
ATOM     72  F   UNL A   1      41.937  27.902  25.716  1.00  0.00    -0.200 F 
ATOM     73  F   UNL A   1      40.508  25.579  25.676  1.00  0.00    -0.200 F 
ENDBRANCH  49  63
BRANCH  50  74
ATOM     74  C   UNL A   1      39.646  34.048  36.935  1.00  0.00     0.064 A 
ATOM     75  C   UNL A   1      40.321  35.274  37.010  1.00  0.00     0.173 A 
ATOM     76  C   UNL A   1      38.843  33.676  38.023  1.00  0.00     0.173 A 
ATOM     77  F   UNL A   1      41.119  35.660  36.005  1.00  0.00    -0.203 F 
ATOM     78  C   UNL A   1      40.214  36.086  38.137  1.00  0.00     0.198 A 
ATOM     79  C   UNL A   1      38.715  34.502  39.138  1.00  0.00     0.198 A 
ATOM     80  F   UNL A   1      38.173  32.514  37.997  1.00  0.00    -0.203 F 
ATOM     81  F   UNL A   1      40.905  37.232  38.202  1.00  0.00    -0.200 F 
ATOM     82  C   UNL A   1      39.406  35.702  39.197  1.00  0.00     0.200 A 
ATOM     83  F   UNL A   1      37.923  34.133  40.153  1.00  0.00    -0.200 F 
ATOM     84  F   UNL A   1      39.300  36.485  40.279  1.00  0.00    -0.200 F 
ENDBRANCH  50  74
BRANCH  62  85
ATOM     85  C   UNL A   1      43.813  28.693  35.377  1.00  0.00     0.064 A 
ATOM     86  C   UNL A   1      45.153  29.067  35.202  1.00  0.00     0.173 A 
ATOM     87  C   UNL A   1      43.529  27.685  36.311  1.00  0.00     0.173 A 
ATOM     88  F   UNL A   1      45.478  30.013  34.309  1.00  0.00    -0.203 F 
ATOM     89  C   UNL A   1      46.171  28.441  35.918  1.00  0.00     0.198 A 
ATOM     90  C   UNL A   1      44.546  27.081  37.045  1.00  0.00     0.198 A 
ATOM     91  F   UNL A   1      42.262  27.293  36.519  1.00  0.00    -0.203 F 
ATOM     92  F   UNL A   1      47.449  28.784  35.702  1.00  0.00    -0.200 F 
ATOM     93  C   UNL A   1      45.865  27.455  36.844  1.00  0.00     0.200 A 
ATOM     94  F   UNL A   1      44.248  26.135  37.947  1.00  0.00    -0.200 F 
ATOM     95  F   UNL A   1      46.845  26.858  37.536  1.00  0.00    -0.200 F 
ENDBRANCH  62  85
ENDBRANCH  36  37
ENDBRANCH  28  31
ENDBRANCH  26  27
ENDBRANCH  25  26
ENDBRANCH   1  25
TORSDOF 15
ENDMDL
MODEL 3
REMARK VINA RESULT:     -12.8      0.705      7.215
REMARK SMILES O=C(C[C@H](NS(=O)(=O)c1cccs1)c1ccccc1Cl)NCCCNC(=O)c1ccc(-c2c3nc(c(-c4c(F)c(F)c(F)c(F)c4F)c4ccc([nH]4)c(-c4c(F)c(F)c(F)c(F)c4F)c4nc(c(-c5c(F)c(F)c(F)c(F)c5F)c5ccc2[nH]5)C=C4)C=C3)cc1
REMARK SMILES IDX 22 1 21 2 1 3 2 4 3 6 4 7 14 8 15 9 19 10 16 11 18 12 20 13
REMARK SMILES IDX 17 14 5 15 6 17 7 18 8 19 9 20 10 21 13 22 11 23 12 24 23 25
REMARK SMILES IDX 24 26 25 27 26 28 27 30 28 31 29 32 90 33 30 34 89 35 31 36
REMARK SMILES IDX 32 37 33 38 83 39 34 40 88 41 82 42 84 43 35 44 87 45 81 46
REMARK SMILES IDX 80 47 36 49 68 50 48 51 67 52 49 53 52 54 66 55 85 56 50 57
REMARK SMILES IDX 51 58 65 60 86 61 53 62 37 63 38 64 46 65 39 66 40 67 44 68
REMARK SMILES IDX 47 69 41 70 42 71 45 72 43 73 69 74 70 75 78 76 71 77 72 78
REMARK SMILES IDX 76 79 79 80 73 81 74 82 77 83 75 84 54 85 55 86 63 87 56 88
REMARK SMILES IDX 57 89 61 90 64 91 58 92 59 93 62 94 60 95
REMARK H PARENT 21 5 5 16 25 29 84 48 52 59
REMARK Flexibility Score: inf
ROOT
ATOM      1  C   UNL A   1      31.729  30.630  26.643  1.00  0.00     0.117 C 
ENDROOT
BRANCH   1   2
ATOM      2  N   UNL A   1      31.773  30.225  25.251  1.00  0.00    -0.356 N 
ATOM      3  O   UNL A   1      32.366  28.035  25.634  1.00  0.00    -0.275 OA
ATOM      4  C   UNL A   1      32.117  28.952  24.859  1.00  0.00     0.221 C 
ATOM      5  H   UNL A   1      31.547  30.888  24.558  1.00  0.00     0.163 HD
BRANCH   4   6
ATOM      6  C   UNL A   1      32.192  28.769  23.363  1.00  0.00     0.125 C 
BRANCH   6   7
ATOM      7  C   UNL A   1      31.116  27.793  22.858  1.00  0.00     0.111 C 
BRANCH   7   8
ATOM      8  C   UNL A   1      29.815  28.565  22.708  1.00  0.00    -0.011 A 
ATOM      9  C   UNL A   1      29.839  29.845  22.117  1.00  0.00     0.007 A 
ATOM     10  C   UNL A   1      28.580  28.068  23.159  1.00  0.00     0.045 A 
ATOM     11  C   UNL A   1      28.668  30.583  21.947  1.00  0.00     0.000 A 
ATOM     12  C   UNL A   1      27.405  28.804  22.972  1.00  0.00     0.021 A 
ATOM     13  Cl  UNL A   1      28.439  26.552  23.976  1.00  0.00    -0.084 Cl
ATOM     14  C   UNL A   1      27.449  30.057  22.362  1.00  0.00     0.002 A 
ENDBRANCH   7   8
BRANCH   7  15
ATOM     15  N   UNL A   1      31.568  27.177  21.578  1.00  0.00    -0.202 NA
ATOM     16  H   UNL A   1      31.628  27.919  20.881  1.00  0.00     0.142 HD
BRANCH  15  17
ATOM     17  S   UNL A   1      33.067  26.373  21.606  1.00  0.00     0.250 S 
ATOM     18  O   UNL A   1      33.021  25.434  20.505  1.00  0.00    -0.206 OA
ATOM     19  O   UNL A   1      34.102  27.374  21.706  1.00  0.00    -0.206 OA
BRANCH  17  20
ATOM     20  C   UNL A   1      33.118  25.349  23.060  1.00  0.00     0.134 A 
ATOM     21  C   UNL A   1      33.992  25.338  24.132  1.00  0.00     0.033 A 
ATOM     22  S   UNL A   1      31.910  24.150  23.233  1.00  0.00    -0.131 S 
ATOM     23  C   UNL A   1      33.711  24.291  25.056  1.00  0.00     0.013 A 
ATOM     24  C   UNL A   1      32.615  23.552  24.674  1.00  0.00     0.066 A 
ENDBRANCH  17  20
ENDBRANCH  15  17
ENDBRANCH   7  15
ENDBRANCH   6   7
ENDBRANCH   4   6
ENDBRANCH   1   2
BRANCH   1  25
ATOM     25  C   UNL A   1      31.487  32.129  26.790  1.00  0.00     0.042 C 
BRANCH  25  26
ATOM     26  C   UNL A   1      32.743  32.957  27.057  1.00  0.00     0.118 C 
BRANCH  26  27
ATOM     27  N   UNL A   1      32.457  34.283  27.584  1.00  0.00    -0.352 N 
ATOM     28  C   UNL A   1      33.013  34.952  28.647  1.00  0.00     0.251 C 
ATOM     29  H   UNL A   1      31.755  34.777  27.103  1.00  0.00     0.163 HD
ATOM     30  O   UNL A   1      32.529  36.017  29.016  1.00  0.00    -0.269 OA
BRANCH  28  31
ATOM     31  C   UNL A   1      34.169  34.386  29.376  1.00  0.00     0.039 A 
ATOM     32  C   UNL A   1      33.931  33.673  30.555  1.00  0.00     0.014 A 
ATOM     33  C   UNL A   1      35.479  34.565  28.922  1.00  0.00     0.014 A 
ATOM     34  C   UNL A   1      34.992  33.068  31.231  1.00  0.00     0.010 A 
ATOM     35  C   UNL A   1      36.531  33.909  29.562  1.00  0.00     0.010 A 
ATOM     36  C   UNL A   1      36.296  33.140  30.712  1.00  0.00    -0.014 A 
BRANCH  36  37
ATOM     37  C   UNL A   1      37.414  32.386  31.334  1.00  0.00     0.031 A 
ATOM     38  C   UNL A   1      37.935  32.767  32.691  1.00  0.00     0.074 A 
ATOM     39  C   UNL A   1      38.015  31.403  30.636  1.00  0.00     0.049 A 
ATOM     40  N   UNL A   1      38.964  32.291  33.345  1.00  0.00    -0.248 NA
ATOM     41  C   UNL A   1      37.217  33.838  33.396  1.00  0.00     0.031 C 
ATOM     42  C   UNL A   1      37.629  30.962  29.294  1.00  0.00     0.029 A 
ATOM     43  N   UNL A   1      39.090  30.607  30.949  1.00  0.00    -0.354 N 
ATOM     44  C   UNL A   1      39.026  33.012  34.530  1.00  0.00     0.074 A 
ATOM     45  C   UNL A   1      37.955  33.986  34.487  1.00  0.00     0.031 C 
ATOM     46  C   UNL A   1      38.446  29.970  28.905  1.00  0.00     0.029 A 
ATOM     47  C   UNL A   1      39.437  29.733  29.949  1.00  0.00     0.049 A 
ATOM     48  H   UNL A   1      39.566  30.659  31.809  1.00  0.00     0.167 HD
ATOM     49  C   UNL A   1      39.887  32.862  35.565  1.00  0.00     0.037 A 
ATOM     50  C   UNL A   1      40.450  28.849  29.874  1.00  0.00     0.037 A 
ATOM     51  C   UNL A   1      40.938  31.879  35.616  1.00  0.00     0.049 A 
ATOM     52  C   UNL A   1      41.405  28.720  31.028  1.00  0.00     0.074 A 
ATOM     53  C   UNL A   1      41.818  31.610  36.652  1.00  0.00     0.029 A 
ATOM     54  N   UNL A   1      41.256  31.007  34.587  1.00  0.00    -0.354 N 
ATOM     55  N   UNL A   1      41.416  29.366  32.168  1.00  0.00    -0.248 NA
ATOM     56  C   UNL A   1      42.490  27.738  30.884  1.00  0.00     0.031 C 
ATOM     57  C   UNL A   1      42.697  30.606  36.230  1.00  0.00     0.029 A 
ATOM     58  C   UNL A   1      42.336  30.218  34.951  1.00  0.00     0.049 A 
ATOM     59  H   UNL A   1      40.784  30.956  33.724  1.00  0.00     0.167 HD
ATOM     60  C   UNL A   1      42.491  28.857  32.885  1.00  0.00     0.074 A 
ATOM     61  C   UNL A   1      43.099  27.835  32.057  1.00  0.00     0.031 C 
ATOM     62  C   UNL A   1      42.934  29.206  34.117  1.00  0.00     0.037 A 
BRANCH  49  63
ATOM     63  C   UNL A   1      39.730  33.788  36.737  1.00  0.00     0.064 A 
ATOM     64  C   UNL A   1      38.909  33.462  37.826  1.00  0.00     0.173 A 
ATOM     65  C   UNL A   1      40.445  34.994  36.791  1.00  0.00     0.173 A 
ATOM     66  F   UNL A   1      38.197  32.326  37.817  1.00  0.00    -0.203 F 
ATOM     67  C   UNL A   1      38.789  34.322  38.915  1.00  0.00     0.198 A 
ATOM     68  C   UNL A   1      40.345  35.838  37.894  1.00  0.00     0.198 A 
ATOM     69  F   UNL A   1      41.251  35.350  35.779  1.00  0.00    -0.203 F 
ATOM     70  F   UNL A   1      37.965  34.009  39.925  1.00  0.00    -0.200 F 
ATOM     71  C   UNL A   1      39.511  35.504  38.952  1.00  0.00     0.200 A 
ATOM     72  F   UNL A   1      41.053  36.974  37.934  1.00  0.00    -0.200 F 
ATOM     73  F   UNL A   1      39.401  36.326  40.004  1.00  0.00    -0.200 F 
ENDBRANCH  49  63
BRANCH  50  74
ATOM     74  C   UNL A   1      40.612  28.010  28.658  1.00  0.00     0.064 A 
ATOM     75  C   UNL A   1      39.974  26.767  28.554  1.00  0.00     0.173 A 
ATOM     76  C   UNL A   1      41.407  28.430  27.581  1.00  0.00     0.173 A 
ATOM     77  F   UNL A   1      39.224  26.313  29.568  1.00  0.00    -0.203 F 
ATOM     78  C   UNL A   1      40.139  25.966  27.426  1.00  0.00     0.198 A 
ATOM     79  C   UNL A   1      41.549  27.640  26.442  1.00  0.00     0.198 A 
ATOM     80  F   UNL A   1      42.035  29.614  27.632  1.00  0.00    -0.203 F 
ATOM     81  F   UNL A   1      39.553  24.762  27.370  1.00  0.00    -0.200 F 
ATOM     82  C   UNL A   1      40.921  26.406  26.369  1.00  0.00     0.200 A 
ATOM     83  F   UNL A   1      42.295  28.075  25.418  1.00  0.00    -0.200 F 
ATOM     84  F   UNL A   1      41.076  25.637  25.282  1.00  0.00    -0.200 F 
ENDBRANCH  50  74
BRANCH  62  85
ATOM     85  C   UNL A   1      44.122  28.465  34.654  1.00  0.00     0.064 A 
ATOM     86  C   UNL A   1      45.427  28.949  34.481  1.00  0.00     0.173 A 
ATOM     87  C   UNL A   1      43.953  27.276  35.379  1.00  0.00     0.173 A 
ATOM     88  F   UNL A   1      45.643  30.072  33.780  1.00  0.00    -0.203 F 
ATOM     89  C   UNL A   1      46.521  28.257  34.995  1.00  0.00     0.198 A 
ATOM     90  C   UNL A   1      45.046  26.602  35.917  1.00  0.00     0.198 A 
ATOM     91  F   UNL A   1      42.724  26.774  35.577  1.00  0.00    -0.203 F 
ATOM     92  F   UNL A   1      47.763  28.714  34.780  1.00  0.00    -0.200 F 
ATOM     93  C   UNL A   1      46.329  27.090  35.719  1.00  0.00     0.200 A 
ATOM     94  F   UNL A   1      44.857  25.480  36.624  1.00  0.00    -0.200 F 
ATOM     95  F   UNL A   1      47.382  26.429  36.219  1.00  0.00    -0.200 F 
ENDBRANCH  62  85
ENDBRANCH  36  37
ENDBRANCH  28  31
ENDBRANCH  26  27
ENDBRANCH  25  26
ENDBRANCH   1  25
TORSDOF 15
ENDMDL
