MODEL 1
REMARK VINA RESULT:     -11.4      0.000      0.000
REMARK SMILES O=C(NCCCNC(=O)c1ccc(-c2c3nc(c(-c4c(F)c(F)c(F)c(F)c4F)c4ccc([nH]4)c(-c4c(F)c(F)c(F)c(F)c4F)c4nc(c(-c5c(F)c(F)c(F)c(F)c5F)c5ccc2[nH]5)C=C4)C=C3)cc1)C1=Cc2cc(Cl)c(Cl)cc2O[C@@H]1C(F)(F)F
REMARK SMILES IDX 5 1 4 2 3 3 1 4 2 5 73 7 74 8 84 9 75 10 83 11 76 12 82 13
REMARK SMILES IDX 77 14 81 15 78 16 79 17 80 18 85 19 86 20 87 21 88 22 6 23
REMARK SMILES IDX 7 24 8 25 9 27 10 28 11 29 72 30 12 31 71 32 13 33 14 34
REMARK SMILES IDX 15 35 65 36 16 37 70 38 64 39 66 40 17 41 69 42 63 43 62 44
REMARK SMILES IDX 18 46 50 47 30 48 49 49 31 50 34 51 48 52 67 53 32 54 33 55
REMARK SMILES IDX 47 57 68 58 35 59 19 60 20 61 28 62 21 63 22 64 26 65 29 66
REMARK SMILES IDX 23 67 24 68 27 69 25 70 51 71 52 72 60 73 53 74 54 75 58 76
REMARK SMILES IDX 61 77 55 78 56 79 59 80 57 81 36 82 37 83 45 84 38 85 39 86
REMARK SMILES IDX 43 87 46 88 40 89 41 90 44 91 42 92
REMARK H PARENT 3 6 7 26 66 45 34 56
REMARK Flexibility Score: inf
ROOT
ATOM      1  C   UNL A   1      34.599  33.082  29.637  1.00  0.00     0.042 C 
ENDROOT
BRANCH   1   2
ATOM      2  C   UNL A   1      35.552  34.184  30.082  1.00  0.00     0.118 C 
BRANCH   2   3
ATOM      3  N   UNL A   1      35.052  34.953  31.221  1.00  0.00    -0.352 N 
ATOM      4  O   UNL A   1      35.094  35.877  33.289  1.00  0.00    -0.270 OA
ATOM      5  C   UNL A   1      35.511  35.028  32.514  1.00  0.00     0.251 C 
ATOM      6  H   UNL A   1      34.261  35.506  31.031  1.00  0.00     0.163 HD
BRANCH   5   7
ATOM      7  C   UNL A   1      36.583  34.095  32.905  1.00  0.00     0.067 C 
ATOM      8  C   UNL A   1      37.826  34.578  33.031  1.00  0.00     0.025 C 
ATOM      9  C   UNL A   1      36.161  32.790  33.506  1.00  0.00     0.314 C 
ATOM     10  C   UNL A   1      38.417  34.247  34.336  1.00  0.00     0.019 A 
ATOM     11  O   UNL A   1      36.657  32.618  34.857  1.00  0.00    -0.475 OA
ATOM     12  C   UNL A   1      39.390  35.119  34.839  1.00  0.00     0.034 A 
ATOM     13  C   UNL A   1      37.737  33.388  35.220  1.00  0.00     0.129 A 
ATOM     14  C   UNL A   1      39.600  35.211  36.219  1.00  0.00     0.060 A 
ATOM     15  C   UNL A   1      37.979  33.451  36.592  1.00  0.00     0.069 A 
ATOM     16  Cl  UNL A   1      40.667  36.451  36.776  1.00  0.00    -0.083 Cl
ATOM     17  C   UNL A   1      38.880  34.391  37.097  1.00  0.00     0.063 A 
ATOM     18  Cl  UNL A   1      38.980  34.564  38.812  1.00  0.00    -0.083 Cl
BRANCH   9  19
ATOM     19  C   UNL A   1      36.596  31.617  32.614  1.00  0.00     0.429 C 
ATOM     20  F   UNL A   1      35.527  30.890  32.212  1.00  0.00    -0.167 F 
ATOM     21  F   UNL A   1      37.227  32.040  31.494  1.00  0.00    -0.167 F 
ATOM     22  F   UNL A   1      37.438  30.771  33.255  1.00  0.00    -0.167 F 
ENDBRANCH   9  19
ENDBRANCH   5   7
ENDBRANCH   2   3
ENDBRANCH   1   2
BRANCH   1  23
ATOM     23  C   UNL A   1      34.673  32.830  28.138  1.00  0.00     0.118 C 
BRANCH  23  24
ATOM     24  N   UNL A   1      33.984  31.618  27.706  1.00  0.00    -0.352 N 
ATOM     25  C   UNL A   1      34.428  30.312  27.637  1.00  0.00     0.251 C 
ATOM     26  H   UNL A   1      33.053  31.754  27.416  1.00  0.00     0.163 HD
ATOM     27  O   UNL A   1      33.704  29.448  27.181  1.00  0.00    -0.269 OA
BRANCH  25  28
ATOM     28  C   UNL A   1      35.798  29.970  28.090  1.00  0.00     0.039 A 
ATOM     29  C   UNL A   1      35.984  29.447  29.373  1.00  0.00     0.014 A 
ATOM     30  C   UNL A   1      36.897  30.152  27.252  1.00  0.00     0.014 A 
ATOM     31  C   UNL A   1      37.261  29.050  29.782  1.00  0.00     0.010 A 
ATOM     32  C   UNL A   1      38.129  29.622  27.601  1.00  0.00     0.010 A 
ATOM     33  C   UNL A   1      38.339  29.103  28.884  1.00  0.00    -0.014 A 
BRANCH  33  34
ATOM     34  C   UNL A   1      39.715  28.704  29.276  1.00  0.00     0.031 A 
ATOM     35  C   UNL A   1      40.515  29.606  30.182  1.00  0.00     0.074 A 
ATOM     36  C   UNL A   1      40.270  27.590  28.763  1.00  0.00     0.049 A 
ATOM     37  N   UNL A   1      41.767  29.515  30.555  1.00  0.00    -0.248 NA
ATOM     38  C   UNL A   1      39.830  30.806  30.693  1.00  0.00     0.031 C 
ATOM     39  C   UNL A   1      39.627  26.675  27.819  1.00  0.00     0.029 A 
ATOM     40  N   UNL A   1      41.512  27.042  28.961  1.00  0.00    -0.354 N 
ATOM     41  C   UNL A   1      42.020  30.661  31.300  1.00  0.00     0.074 A 
ATOM     42  C   UNL A   1      40.825  31.471  31.257  1.00  0.00     0.031 C 
ATOM     43  C   UNL A   1      40.463  25.658  27.552  1.00  0.00     0.029 A 
ATOM     44  C   UNL A   1      41.712  25.869  28.277  1.00  0.00     0.049 A 
ATOM     45  H   UNL A   1      42.197  27.451  29.538  1.00  0.00     0.167 HD
ATOM     46  C   UNL A   1      43.133  30.990  31.997  1.00  0.00     0.037 A 
ATOM     47  C   UNL A   1      42.783  25.053  28.248  1.00  0.00     0.037 A 
ATOM     48  C   UNL A   1      44.292  30.146  32.092  1.00  0.00     0.049 A 
ATOM     49  C   UNL A   1      43.987  25.407  29.080  1.00  0.00     0.074 A 
ATOM     50  C   UNL A   1      45.446  30.339  32.828  1.00  0.00     0.029 A 
ATOM     51  N   UNL A   1      44.432  28.931  31.436  1.00  0.00    -0.354 N 
ATOM     52  N   UNL A   1      44.192  26.461  29.835  1.00  0.00    -0.248 NA
ATOM     53  C   UNL A   1      45.100  24.450  29.070  1.00  0.00     0.031 C 
ATOM     54  C   UNL A   1      46.301  29.257  32.587  1.00  0.00     0.029 A 
ATOM     55  C   UNL A   1      45.657  28.365  31.744  1.00  0.00     0.049 A 
ATOM     56  H   UNL A   1      43.758  28.530  30.838  1.00  0.00     0.167 HD
ATOM     57  C   UNL A   1      45.440  26.277  30.415  1.00  0.00     0.074 A 
ATOM     58  C   UNL A   1      45.935  25.002  29.938  1.00  0.00     0.031 C 
ATOM     59  C   UNL A   1      46.119  27.089  31.264  1.00  0.00     0.037 A 
BRANCH  46  60
ATOM     60  C   UNL A   1      43.132  32.306  32.724  1.00  0.00     0.064 A 
ATOM     61  C   UNL A   1      43.486  33.506  32.084  1.00  0.00     0.173 A 
ATOM     62  C   UNL A   1      42.776  32.371  34.079  1.00  0.00     0.173 A 
ATOM     63  F   UNL A   1      43.853  33.500  30.794  1.00  0.00    -0.203 F 
ATOM     64  C   UNL A   1      43.525  34.709  32.783  1.00  0.00     0.198 A 
ATOM     65  C   UNL A   1      42.779  33.584  34.765  1.00  0.00     0.198 A 
ATOM     66  F   UNL A   1      42.426  31.258  34.743  1.00  0.00    -0.203 F 
ATOM     67  F   UNL A   1      43.937  35.826  32.166  1.00  0.00    -0.200 F 
ATOM     68  C   UNL A   1      43.166  34.749  34.120  1.00  0.00     0.200 A 
ATOM     69  F   UNL A   1      42.419  33.623  36.056  1.00  0.00    -0.200 F 
ATOM     70  F   UNL A   1      43.202  35.909  34.792  1.00  0.00    -0.200 F 
ENDBRANCH  46  60
BRANCH  47  71
ATOM     71  C   UNL A   1      42.744  23.797  27.453  1.00  0.00     0.064 A 
ATOM     72  C   UNL A   1      42.291  22.600  28.026  1.00  0.00     0.173 A 
ATOM     73  C   UNL A   1      43.156  23.762  26.114  1.00  0.00     0.173 A 
ATOM     74  F   UNL A   1      41.903  22.578  29.311  1.00  0.00    -0.203 F 
ATOM     75  C   UNL A   1      42.278  21.412  27.299  1.00  0.00     0.198 A 
ATOM     76  C   UNL A   1      43.114  22.579  25.378  1.00  0.00     0.198 A 
ATOM     77  F   UNL A   1      43.589  24.881  25.514  1.00  0.00    -0.203 F 
ATOM     78  F   UNL A   1      41.888  20.273  27.889  1.00  0.00    -0.200 F 
ATOM     79  C   UNL A   1      42.684  21.402  25.974  1.00  0.00     0.200 A 
ATOM     80  F   UNL A   1      43.492  22.577  24.093  1.00  0.00    -0.200 F 
ATOM     81  F   UNL A   1      42.668  20.260  25.274  1.00  0.00    -0.200 F 
ENDBRANCH  47  71
BRANCH  59  82
ATOM     82  C   UNL A   1      47.445  26.595  31.765  1.00  0.00     0.064 A 
ATOM     83  C   UNL A   1      47.547  25.766  32.891  1.00  0.00     0.173 A 
ATOM     84  C   UNL A   1      48.628  26.944  31.095  1.00  0.00     0.173 A 
ATOM     85  F   UNL A   1      46.446  25.414  33.573  1.00  0.00    -0.203 F 
ATOM     86  C   UNL A   1      48.789  25.339  33.354  1.00  0.00     0.198 A 
ATOM     87  C   UNL A   1      49.864  26.486  31.539  1.00  0.00     0.198 A 
ATOM     88  F   UNL A   1      48.583  27.725  30.005  1.00  0.00    -0.203 F 
ATOM     89  F   UNL A   1      48.868  24.601  34.470  1.00  0.00    -0.200 F 
ATOM     90  C   UNL A   1      49.946  25.695  32.675  1.00  0.00     0.200 A 
ATOM     91  F   UNL A   1      50.978  26.816  30.872  1.00  0.00    -0.200 F 
ATOM     92  F   UNL A   1      51.139  25.282  33.121  1.00  0.00    -0.200 F 
ENDBRANCH  59  82
ENDBRANCH  33  34
ENDBRANCH  25  28
ENDBRANCH  23  24
ENDBRANCH   1  23
TORSDOF 11
ENDMDL
MODEL 2
REMARK VINA RESULT:     -11.3      6.130     11.919
REMARK SMILES O=C(NCCCNC(=O)c1ccc(-c2c3nc(c(-c4c(F)c(F)c(F)c(F)c4F)c4ccc([nH]4)c(-c4c(F)c(F)c(F)c(F)c4F)c4nc(c(-c5c(F)c(F)c(F)c(F)c5F)c5ccc2[nH]5)C=C4)C=C3)cc1)C1=Cc2cc(Cl)c(Cl)cc2O[C@@H]1C(F)(F)F
REMARK SMILES IDX 5 1 4 2 3 3 1 4 2 5 73 7 74 8 84 9 75 10 83 11 76 12 82 13
REMARK SMILES IDX 77 14 81 15 78 16 79 17 80 18 85 19 86 20 87 21 88 22 6 23
REMARK SMILES IDX 7 24 8 25 9 27 10 28 11 29 72 30 12 31 71 32 13 33 14 34
REMARK SMILES IDX 15 35 65 36 16 37 70 38 64 39 66 40 17 41 69 42 63 43 62 44
REMARK SMILES IDX 18 46 50 47 30 48 49 49 31 50 34 51 48 52 67 53 32 54 33 55
REMARK SMILES IDX 47 57 68 58 35 59 19 60 20 61 28 62 21 63 22 64 26 65 29 66
REMARK SMILES IDX 23 67 24 68 27 69 25 70 51 71 52 72 60 73 53 74 54 75 58 76
REMARK SMILES IDX 61 77 55 78 56 79 59 80 57 81 36 82 37 83 45 84 38 85 39 86
REMARK SMILES IDX 43 87 46 88 40 89 41 90 44 91 42 92
REMARK H PARENT 3 6 7 26 66 45 34 56
REMARK Flexibility Score: inf
ROOT
ATOM      1  C   UNL A   1      36.419  23.680  24.816  1.00  0.00     0.042 C 
ENDROOT
BRANCH   1   2
ATOM      2  C   UNL A   1      34.929  23.935  25.006  1.00  0.00     0.118 C 
BRANCH   2   3
ATOM      3  N   UNL A   1      34.370  23.245  26.169  1.00  0.00    -0.352 N 
ATOM      4  O   UNL A   1      33.620  21.489  27.387  1.00  0.00    -0.270 OA
ATOM      5  C   UNL A   1      33.863  21.975  26.291  1.00  0.00     0.251 C 
ATOM      6  H   UNL A   1      34.357  23.777  26.997  1.00  0.00     0.163 HD
BRANCH   5   7
ATOM      7  C   UNL A   1      33.696  21.193  25.052  1.00  0.00     0.067 C 
ATOM      8  C   UNL A   1      34.686  20.367  24.689  1.00  0.00     0.025 C 
ATOM      9  C   UNL A   1      32.307  21.074  24.506  1.00  0.00     0.314 C 
ATOM     10  C   UNL A   1      34.203  19.000  24.444  1.00  0.00     0.019 A 
ATOM     11  O   UNL A   1      31.850  19.700  24.450  1.00  0.00    -0.475 OA
ATOM     12  C   UNL A   1      35.113  17.954  24.639  1.00  0.00     0.034 A 
ATOM     13  C   UNL A   1      32.822  18.727  24.465  1.00  0.00     0.129 A 
ATOM     14  C   UNL A   1      34.648  16.674  24.961  1.00  0.00     0.060 A 
ATOM     15  C   UNL A   1      32.360  17.441  24.744  1.00  0.00     0.069 A 
ATOM     16  Cl  UNL A   1      35.829  15.487  25.388  1.00  0.00    -0.083 Cl
ATOM     17  C   UNL A   1      33.272  16.423  25.033  1.00  0.00     0.063 A 
ATOM     18  Cl  UNL A   1      32.638  14.911  25.575  1.00  0.00    -0.083 Cl
BRANCH   9  19
ATOM     19  C   UNL A   1      32.211  21.737  23.122  1.00  0.00     0.429 C 
ATOM     20  F   UNL A   1      31.239  22.678  23.100  1.00  0.00    -0.167 F 
ATOM     21  F   UNL A   1      33.365  22.354  22.777  1.00  0.00    -0.167 F 
ATOM     22  F   UNL A   1      31.926  20.842  22.146  1.00  0.00    -0.167 F 
ENDBRANCH   9  19
ENDBRANCH   5   7
ENDBRANCH   2   3
ENDBRANCH   1   2
BRANCH   1  23
ATOM     23  C   UNL A   1      37.146  23.505  26.140  1.00  0.00     0.118 C 
BRANCH  23  24
ATOM     24  N   UNL A   1      38.290  22.602  26.075  1.00  0.00    -0.352 N 
ATOM     25  C   UNL A   1      39.619  22.816  26.387  1.00  0.00     0.251 C 
ATOM     26  H   UNL A   1      38.081  21.694  25.756  1.00  0.00     0.163 HD
ATOM     27  O   UNL A   1      40.435  21.935  26.198  1.00  0.00    -0.269 OA
BRANCH  25  28
ATOM     28  C   UNL A   1      40.053  24.129  26.922  1.00  0.00     0.039 A 
ATOM     29  C   UNL A   1      40.405  25.147  26.031  1.00  0.00     0.014 A 
ATOM     30  C   UNL A   1      40.105  24.363  28.295  1.00  0.00     0.014 A 
ATOM     31  C   UNL A   1      40.742  26.412  26.523  1.00  0.00     0.010 A 
ATOM     32  C   UNL A   1      40.292  25.651  28.771  1.00  0.00     0.010 A 
ATOM     33  C   UNL A   1      40.655  26.683  27.897  1.00  0.00    -0.014 A 
BRANCH  33  34
ATOM     34  C   UNL A   1      41.014  28.006  28.467  1.00  0.00     0.031 A 
ATOM     35  C   UNL A   1      42.455  28.298  28.803  1.00  0.00     0.074 A 
ATOM     36  C   UNL A   1      40.053  28.904  28.756  1.00  0.00     0.049 A 
ATOM     37  N   UNL A   1      42.975  29.334  29.412  1.00  0.00    -0.248 NA
ATOM     38  C   UNL A   1      43.439  27.258  28.457  1.00  0.00     0.031 C 
ATOM     39  C   UNL A   1      38.617  28.711  28.547  1.00  0.00     0.029 A 
ATOM     40  N   UNL A   1      40.143  30.162  29.297  1.00  0.00    -0.354 N 
ATOM     41  C   UNL A   1      44.327  29.044  29.557  1.00  0.00     0.074 A 
ATOM     42  C   UNL A   1      44.532  27.706  29.051  1.00  0.00     0.031 C 
ATOM     43  C   UNL A   1      37.965  29.827  28.917  1.00  0.00     0.029 A 
ATOM     44  C   UNL A   1      38.932  30.796  29.420  1.00  0.00     0.049 A 
ATOM     45  H   UNL A   1      40.995  30.572  29.570  1.00  0.00     0.167 HD
ATOM     46  C   UNL A   1      45.319  29.835  30.026  1.00  0.00     0.037 A 
ATOM     47  C   UNL A   1      38.641  32.028  29.882  1.00  0.00     0.037 A 
ATOM     48  C   UNL A   1      45.118  31.191  30.462  1.00  0.00     0.049 A 
ATOM     49  C   UNL A   1      39.767  32.915  30.341  1.00  0.00     0.074 A 
ATOM     50  C   UNL A   1      46.057  32.113  30.886  1.00  0.00     0.029 A 
ATOM     51  N   UNL A   1      43.883  31.821  30.512  1.00  0.00    -0.354 N 
ATOM     52  N   UNL A   1      41.052  32.655  30.411  1.00  0.00    -0.248 NA
ATOM     53  C   UNL A   1      39.405  34.272  30.767  1.00  0.00     0.031 C 
ATOM     54  C   UNL A   1      45.384  33.292  31.228  1.00  0.00     0.029 A 
ATOM     55  C   UNL A   1      44.033  33.121  30.966  1.00  0.00     0.049 A 
ATOM     56  H   UNL A   1      43.025  31.406  30.261  1.00  0.00     0.167 HD
ATOM     57  C   UNL A   1      41.653  33.824  30.856  1.00  0.00     0.074 A 
ATOM     58  C   UNL A   1      40.594  34.799  31.021  1.00  0.00     0.031 C 
ATOM     59  C   UNL A   1      42.963  34.073  31.109  1.00  0.00     0.037 A 
BRANCH  46  60
ATOM     60  C   UNL A   1      46.707  29.259  30.068  1.00  0.00     0.064 A 
ATOM     61  C   UNL A   1      47.572  29.332  28.963  1.00  0.00     0.173 A 
ATOM     62  C   UNL A   1      47.180  28.623  31.224  1.00  0.00     0.173 A 
ATOM     63  F   UNL A   1      47.165  29.913  27.824  1.00  0.00    -0.203 F 
ATOM     64  C   UNL A   1      48.837  28.753  29.001  1.00  0.00     0.198 A 
ATOM     65  C   UNL A   1      48.462  28.079  31.272  1.00  0.00     0.198 A 
ATOM     66  F   UNL A   1      46.400  28.525  32.312  1.00  0.00    -0.203 F 
ATOM     67  F   UNL A   1      49.614  28.774  27.908  1.00  0.00    -0.200 F 
ATOM     68  C   UNL A   1      49.284  28.133  30.157  1.00  0.00     0.200 A 
ATOM     69  F   UNL A   1      48.897  27.490  32.394  1.00  0.00    -0.200 F 
ATOM     70  F   UNL A   1      50.503  27.577  30.192  1.00  0.00    -0.200 F 
ENDBRANCH  46  60
BRANCH  47  71
ATOM     71  C   UNL A   1      37.235  32.514  29.877  1.00  0.00     0.064 A 
ATOM     72  C   UNL A   1      36.732  33.236  28.786  1.00  0.00     0.173 A 
ATOM     73  C   UNL A   1      36.370  32.272  30.952  1.00  0.00     0.173 A 
ATOM     74  F   UNL A   1      37.526  33.509  27.739  1.00  0.00    -0.203 F 
ATOM     75  C   UNL A   1      35.426  33.722  28.783  1.00  0.00     0.198 A 
ATOM     76  C   UNL A   1      35.055  32.732  30.936  1.00  0.00     0.198 A 
ATOM     77  F   UNL A   1      36.799  31.577  32.017  1.00  0.00    -0.203 F 
ATOM     78  F   UNL A   1      34.987  34.453  27.749  1.00  0.00    -0.200 F 
ATOM     79  C   UNL A   1      34.586  33.466  29.855  1.00  0.00     0.200 A 
ATOM     80  F   UNL A   1      34.241  32.468  31.967  1.00  0.00    -0.200 F 
ATOM     81  F   UNL A   1      33.329  33.929  29.852  1.00  0.00    -0.200 F 
ENDBRANCH  47  71
BRANCH  59  82
ATOM     82  C   UNL A   1      43.321  35.464  31.542  1.00  0.00     0.064 A 
ATOM     83  C   UNL A   1      43.724  36.444  30.623  1.00  0.00     0.173 A 
ATOM     84  C   UNL A   1      43.245  35.825  32.896  1.00  0.00     0.173 A 
ATOM     85  F   UNL A   1      43.825  36.145  29.318  1.00  0.00    -0.203 F 
ATOM     86  C   UNL A   1      44.076  37.722  31.048  1.00  0.00     0.198 A 
ATOM     87  C   UNL A   1      43.563  37.114  33.314  1.00  0.00     0.198 A 
ATOM     88  F   UNL A   1      42.854  34.928  33.814  1.00  0.00    -0.203 F 
ATOM     89  F   UNL A   1      44.519  38.623  30.160  1.00  0.00    -0.200 F 
ATOM     90  C   UNL A   1      43.990  38.057  32.392  1.00  0.00     0.200 A 
ATOM     91  F   UNL A   1      43.463  37.440  34.609  1.00  0.00    -0.200 F 
ATOM     92  F   UNL A   1      44.329  39.287  32.799  1.00  0.00    -0.200 F 
ENDBRANCH  59  82
ENDBRANCH  33  34
ENDBRANCH  25  28
ENDBRANCH  23  24
ENDBRANCH   1  23
TORSDOF 11
ENDMDL
MODEL 3
REMARK VINA RESULT:     -11.3      4.295     11.285
REMARK SMILES O=C(NCCCNC(=O)c1ccc(-c2c3nc(c(-c4c(F)c(F)c(F)c(F)c4F)c4ccc([nH]4)c(-c4c(F)c(F)c(F)c(F)c4F)c4nc(c(-c5c(F)c(F)c(F)c(F)c5F)c5ccc2[nH]5)C=C4)C=C3)cc1)C1=Cc2cc(Cl)c(Cl)cc2O[C@@H]1C(F)(F)F
REMARK SMILES IDX 5 1 4 2 3 3 1 4 2 5 73 7 74 8 84 9 75 10 83 11 76 12 82 13
REMARK SMILES IDX 77 14 81 15 78 16 79 17 80 18 85 19 86 20 87 21 88 22 6 23
REMARK SMILES IDX 7 24 8 25 9 27 10 28 11 29 72 30 12 31 71 32 13 33 14 34
REMARK SMILES IDX 15 35 65 36 16 37 70 38 64 39 66 40 17 41 69 42 63 43 62 44
REMARK SMILES IDX 18 46 50 47 30 48 49 49 31 50 34 51 48 52 67 53 32 54 33 55
REMARK SMILES IDX 47 57 68 58 35 59 19 60 20 61 28 62 21 63 22 64 26 65 29 66
REMARK SMILES IDX 23 67 24 68 27 69 25 70 51 71 52 72 60 73 53 74 54 75 58 76
REMARK SMILES IDX 61 77 55 78 56 79 59 80 57 81 36 82 37 83 45 84 38 85 39 86
REMARK SMILES IDX 43 87 46 88 40 89 41 90 44 91 42 92
REMARK H PARENT 3 6 7 26 66 45 34 56
REMARK Flexibility Score: inf
ROOT
ATOM      1  C   UNL A   1      41.836  21.551  26.102  1.00  0.00     0.042 C 
ENDROOT
BRANCH   1   2
ATOM      2  C   UNL A   1      43.134  21.580  26.898  1.00  0.00     0.118 C 
BRANCH   2   3
ATOM      3  N   UNL A   1      44.301  21.172  26.114  1.00  0.00    -0.352 N 
ATOM      4  O   UNL A   1      46.402  21.314  25.281  1.00  0.00    -0.270 OA
ATOM      5  C   UNL A   1      45.432  21.873  25.774  1.00  0.00     0.251 C 
ATOM      6  H   UNL A   1      44.270  20.248  25.778  1.00  0.00     0.163 HD
BRANCH   5   7
ATOM      7  C   UNL A   1      45.460  23.310  26.100  1.00  0.00     0.067 C 
ATOM      8  C   UNL A   1      46.195  23.707  27.147  1.00  0.00     0.025 C 
ATOM      9  C   UNL A   1      45.001  24.256  25.034  1.00  0.00     0.314 C 
ATOM     10  C   UNL A   1      47.133  24.780  26.788  1.00  0.00     0.019 A 
ATOM     11  O   UNL A   1      46.043  25.178  24.626  1.00  0.00    -0.475 OA
ATOM     12  C   UNL A   1      48.309  24.883  27.542  1.00  0.00     0.034 A 
ATOM     13  C   UNL A   1      47.082  25.362  25.507  1.00  0.00     0.129 A 
ATOM     14  C   UNL A   1      49.452  25.461  26.980  1.00  0.00     0.060 A 
ATOM     15  C   UNL A   1      48.210  25.976  24.964  1.00  0.00     0.069 A 
ATOM     16  Cl  UNL A   1      50.917  25.367  27.892  1.00  0.00    -0.083 Cl
ATOM     17  C   UNL A   1      49.408  25.989  25.683  1.00  0.00     0.063 A 
ATOM     18  Cl  UNL A   1      50.819  26.573  24.877  1.00  0.00    -0.083 Cl
BRANCH   9  19
ATOM     19  C   UNL A   1      43.748  25.020  25.491  1.00  0.00     0.429 C 
ATOM     20  F   UNL A   1      43.992  26.349  25.575  1.00  0.00    -0.167 F 
ATOM     21  F   UNL A   1      42.717  24.862  24.628  1.00  0.00    -0.167 F 
ATOM     22  F   UNL A   1      43.318  24.613  26.710  1.00  0.00    -0.167 F 
ENDBRANCH   9  19
ENDBRANCH   5   7
ENDBRANCH   2   3
ENDBRANCH   1   2
BRANCH   1  23
ATOM     23  C   UNL A   1      40.610  21.589  27.001  1.00  0.00     0.118 C 
BRANCH  23  24
ATOM     24  N   UNL A   1      39.372  21.915  26.302  1.00  0.00    -0.352 N 
ATOM     25  C   UNL A   1      38.677  23.106  26.218  1.00  0.00     0.251 C 
ATOM     26  H   UNL A   1      38.965  21.164  25.811  1.00  0.00     0.163 HD
ATOM     27  O   UNL A   1      37.615  23.150  25.628  1.00  0.00    -0.269 OA
BRANCH  25  28
ATOM     28  C   UNL A   1      39.210  24.323  26.877  1.00  0.00     0.039 A 
ATOM     29  C   UNL A   1      39.960  25.233  26.126  1.00  0.00     0.014 A 
ATOM     30  C   UNL A   1      38.967  24.574  28.226  1.00  0.00     0.014 A 
ATOM     31  C   UNL A   1      40.402  26.421  26.717  1.00  0.00     0.010 A 
ATOM     32  C   UNL A   1      39.275  25.812  28.767  1.00  0.00     0.010 A 
ATOM     33  C   UNL A   1      40.033  26.735  28.035  1.00  0.00    -0.014 A 
BRANCH  33  34
ATOM     34  C   UNL A   1      40.489  27.977  28.709  1.00  0.00     0.031 A 
ATOM     35  C   UNL A   1      41.939  28.116  29.099  1.00  0.00     0.074 A 
ATOM     36  C   UNL A   1      39.602  28.933  29.042  1.00  0.00     0.049 A 
ATOM     37  N   UNL A   1      42.530  29.055  29.795  1.00  0.00    -0.248 NA
ATOM     38  C   UNL A   1      42.839  27.020  28.699  1.00  0.00     0.031 C 
ATOM     39  C   UNL A   1      38.161  28.884  28.787  1.00  0.00     0.029 A 
ATOM     40  N   UNL A   1      39.784  30.136  29.676  1.00  0.00    -0.354 N 
ATOM     41  C   UNL A   1      43.847  28.636  29.948  1.00  0.00     0.074 A 
ATOM     42  C   UNL A   1      43.950  27.326  29.349  1.00  0.00     0.031 C 
ATOM     43  C   UNL A   1      37.597  30.023  29.224  1.00  0.00     0.029 A 
ATOM     44  C   UNL A   1      38.629  30.865  29.819  1.00  0.00     0.049 A 
ATOM     45  H   UNL A   1      40.660  30.448  29.999  1.00  0.00     0.167 HD
ATOM     46  C   UNL A   1      44.889  29.302  30.497  1.00  0.00     0.037 A 
ATOM     47  C   UNL A   1      38.433  32.081  30.363  1.00  0.00     0.037 A 
ATOM     48  C   UNL A   1      44.794  30.635  31.027  1.00  0.00     0.049 A 
ATOM     49  C   UNL A   1      39.618  32.830  30.913  1.00  0.00     0.074 A 
ATOM     50  C   UNL A   1      45.796  31.437  31.540  1.00  0.00     0.029 A 
ATOM     51  N   UNL A   1      43.617  31.367  31.096  1.00  0.00    -0.354 N 
ATOM     52  N   UNL A   1      40.872  32.453  30.993  1.00  0.00    -0.248 NA
ATOM     53  C   UNL A   1      39.363  34.180  31.429  1.00  0.00     0.031 C 
ATOM     54  C   UNL A   1      45.218  32.643  31.953  1.00  0.00     0.029 A 
ATOM     55  C   UNL A   1      43.866  32.612  31.648  1.00  0.00     0.049 A 
ATOM     56  H   UNL A   1      42.734  31.048  30.795  1.00  0.00     0.167 HD
ATOM     57  C   UNL A   1      41.559  33.529  31.537  1.00  0.00     0.074 A 
ATOM     58  C   UNL A   1      40.584  34.580  31.749  1.00  0.00     0.031 C 
ATOM     59  C   UNL A   1      42.878  33.642  31.837  1.00  0.00     0.037 A 
BRANCH  46  60
ATOM     60  C   UNL A   1      46.220  28.603  30.527  1.00  0.00     0.064 A 
ATOM     61  C   UNL A   1      46.591  27.761  31.589  1.00  0.00     0.173 A 
ATOM     62  C   UNL A   1      47.140  28.778  29.484  1.00  0.00     0.173 A 
ATOM     63  F   UNL A   1      45.756  27.571  32.623  1.00  0.00    -0.203 F 
ATOM     64  C   UNL A   1      47.844  27.158  31.625  1.00  0.00     0.198 A 
ATOM     65  C   UNL A   1      48.380  28.142  29.504  1.00  0.00     0.198 A 
ATOM     66  F   UNL A   1      46.842  29.569  28.441  1.00  0.00    -0.203 F 
ATOM     67  F   UNL A   1      48.199  26.418  32.685  1.00  0.00    -0.200 F 
ATOM     68  C   UNL A   1      48.735  27.343  30.580  1.00  0.00     0.200 A 
ATOM     69  F   UNL A   1      49.236  28.312  28.487  1.00  0.00    -0.200 F 
ATOM     70  F   UNL A   1      49.942  26.760  30.616  1.00  0.00    -0.200 F 
ENDBRANCH  46  60
BRANCH  47  71
ATOM     71  C   UNL A   1      37.076  32.689  30.362  1.00  0.00     0.064 A 
ATOM     72  C   UNL A   1      36.668  33.528  29.316  1.00  0.00     0.173 A 
ATOM     73  C   UNL A   1      36.162  32.449  31.398  1.00  0.00     0.173 A 
ATOM     74  F   UNL A   1      37.512  33.803  28.310  1.00  0.00    -0.203 F 
ATOM     75  C   UNL A   1      35.409  34.127  29.320  1.00  0.00     0.198 A 
ATOM     76  C   UNL A   1      34.892  33.023  31.386  1.00  0.00     0.198 A 
ATOM     77  F   UNL A   1      36.498  31.645  32.418  1.00  0.00    -0.203 F 
ATOM     78  F   UNL A   1      35.066  34.965  28.332  1.00  0.00    -0.200 F 
ATOM     79  C   UNL A   1      34.520  33.870  30.351  1.00  0.00     0.200 A 
ATOM     80  F   UNL A   1      34.030  32.760  32.376  1.00  0.00    -0.200 F 
ATOM     81  F   UNL A   1      33.309  34.442  30.353  1.00  0.00    -0.200 F 
ENDBRANCH  47  71
BRANCH  59  82
ATOM     82  C   UNL A   1      43.343  34.962  32.380  1.00  0.00     0.064 A 
ATOM     83  C   UNL A   1      43.414  35.210  33.759  1.00  0.00     0.173 A 
ATOM     84  C   UNL A   1      43.739  35.986  31.507  1.00  0.00     0.173 A 
ATOM     85  F   UNL A   1      43.034  34.267  34.635  1.00  0.00    -0.203 F 
ATOM     86  C   UNL A   1      43.825  36.449  34.242  1.00  0.00     0.198 A 
ATOM     87  C   UNL A   1      44.184  37.211  31.993  1.00  0.00     0.198 A 
ATOM     88  F   UNL A   1      43.702  35.795  30.179  1.00  0.00    -0.203 F 
ATOM     89  F   UNL A   1      43.823  36.686  35.561  1.00  0.00    -0.200 F 
ATOM     90  C   UNL A   1      44.214  37.446  33.359  1.00  0.00     0.200 A 
ATOM     91  F   UNL A   1      44.575  38.167  31.140  1.00  0.00    -0.200 F 
ATOM     92  F   UNL A   1      44.610  38.638  33.826  1.00  0.00    -0.200 F 
ENDBRANCH  59  82
ENDBRANCH  33  34
ENDBRANCH  25  28
ENDBRANCH  23  24
ENDBRANCH   1  23
TORSDOF 11
ENDMDL
