MODEL 1
REMARK VINA RESULT:     -10.5      0.000      0.000
REMARK SMILES C#CCN(CC(=O)NCCCNC(=O)c1ccc(-c2c3nc(c(-c4c(F)c(F)c(F)c(F)c4F)c4ccc([nH]4)c(-c4c(F)c(F)c(F)c(F)c4F)c4nc(c(-c5c(F)c(F)c(F)c(F)c5F)c5ccc2[nH]5)C=C4)C=C3)cc1)C(=O)NCCc1ccco1
REMARK SMILES IDX 6 1 7 2 8 3 5 5 4 6 3 7 2 8 1 9 78 10 79 11 80 12 81 14
REMARK SMILES IDX 82 15 83 16 84 17 87 18 85 19 86 20 9 21 10 22 11 23 12 24
REMARK SMILES IDX 13 25 14 27 15 28 16 29 77 30 17 31 76 32 18 33 19 34 20 35
REMARK SMILES IDX 70 36 21 37 75 38 69 39 71 40 22 41 74 42 68 43 67 44 23 46
REMARK SMILES IDX 55 47 35 48 54 49 36 50 39 51 53 52 72 53 37 54 38 55 52 57
REMARK SMILES IDX 73 58 40 59 24 60 25 61 33 62 26 63 27 64 31 65 34 66 28 67
REMARK SMILES IDX 29 68 32 69 30 70 56 71 57 72 65 73 58 74 59 75 63 76 66 77
REMARK SMILES IDX 60 78 61 79 64 80 62 81 41 82 42 83 50 84 43 85 44 86 48 87
REMARK SMILES IDX 51 88 45 89 46 90 49 91 47 92
REMARK H PARENT 8 4 80 13 12 26 71 45 39 56
REMARK Flexibility Score: inf
ROOT
ATOM      1  C   UNL A   1      37.332  23.223  25.645  1.00  0.00     0.239 C 
ATOM      2  O   UNL A   1      38.094  24.063  26.137  1.00  0.00    -0.273 OA
ATOM      3  N   UNL A   1      37.905  22.216  24.925  1.00  0.00    -0.354 N 
ATOM      4  H   UNL A   1      38.836  22.381  24.645  1.00  0.00     0.163 HD
ENDROOT
BRANCH   1   5
ATOM      5  C   UNL A   1      35.828  23.250  25.960  1.00  0.00     0.222 C 
BRANCH   5   6
ATOM      6  N   UNL A   1      34.986  23.759  24.880  1.00  0.00    -0.304 N 
BRANCH   6   7
ATOM      7  C   UNL A   1      34.459  25.106  25.059  1.00  0.00     0.211 C 
BRANCH   7   8
ATOM      8  C   UNL A   1      33.112  25.138  25.763  1.00  0.00    -0.085 C 
ATOM      9  C   UNL A   1      31.958  25.166  26.367  1.00  0.00     0.006 C 
ENDBRANCH   7   8
ENDBRANCH   6   7
BRANCH   6  10
ATOM     10  C   UNL A   1      34.638  23.121  23.724  1.00  0.00     0.318 C 
ATOM     11  O   UNL A   1      35.289  23.283  22.686  1.00  0.00    -0.249 OA
ATOM     12  N   UNL A   1      33.578  22.308  23.598  1.00  0.00    -0.337 N 
ATOM     13  H   UNL A   1      33.485  22.002  22.669  1.00  0.00     0.165 HD
BRANCH  12  14
ATOM     14  C   UNL A   1      32.524  21.746  24.434  1.00  0.00     0.125 C 
BRANCH  14  15
ATOM     15  C   UNL A   1      33.093  20.857  25.544  1.00  0.00     0.096 C 
BRANCH  15  16
ATOM     16  C   UNL A   1      33.296  19.460  25.076  1.00  0.00     0.105 A 
ATOM     17  C   UNL A   1      34.365  18.814  24.491  1.00  0.00     0.045 A 
ATOM     18  O   UNL A   1      32.246  18.602  25.211  1.00  0.00    -0.469 OA
ATOM     19  C   UNL A   1      33.945  17.485  24.253  1.00  0.00     0.042 A 
ATOM     20  C   UNL A   1      32.650  17.405  24.711  1.00  0.00     0.195 A 
ENDBRANCH  15  16
ENDBRANCH  14  15
ENDBRANCH  12  14
ENDBRANCH   6  10
ENDBRANCH   5   6
ENDBRANCH   1   5
BRANCH   3  21
ATOM     21  C   UNL A   1      37.356  20.944  24.509  1.00  0.00     0.117 C 
BRANCH  21  22
ATOM     22  C   UNL A   1      38.261  19.755  24.813  1.00  0.00     0.042 C 
BRANCH  22  23
ATOM     23  C   UNL A   1      39.166  19.927  26.029  1.00  0.00     0.118 C 
BRANCH  23  24
ATOM     24  N   UNL A   1      40.349  19.082  25.976  1.00  0.00    -0.352 N 
ATOM     25  C   UNL A   1      41.683  19.380  26.032  1.00  0.00     0.251 C 
ATOM     26  H   UNL A   1      40.154  18.122  25.882  1.00  0.00     0.163 HD
ATOM     27  O   UNL A   1      42.496  18.492  25.771  1.00  0.00    -0.269 OA
BRANCH  25  28
ATOM     28  C   UNL A   1      42.179  20.728  26.395  1.00  0.00     0.039 A 
ATOM     29  C   UNL A   1      42.274  21.055  27.753  1.00  0.00     0.014 A 
ATOM     30  C   UNL A   1      42.457  21.705  25.435  1.00  0.00     0.014 A 
ATOM     31  C   UNL A   1      42.676  22.333  28.147  1.00  0.00     0.010 A 
ATOM     32  C   UNL A   1      42.928  22.960  25.825  1.00  0.00     0.010 A 
ATOM     33  C   UNL A   1      43.025  23.292  27.184  1.00  0.00    -0.014 A 
BRANCH  33  34
ATOM     34  C   UNL A   1      43.458  24.655  27.586  1.00  0.00     0.031 A 
ATOM     35  C   UNL A   1      42.440  25.699  27.952  1.00  0.00     0.074 A 
ATOM     36  C   UNL A   1      44.769  24.965  27.584  1.00  0.00     0.049 A 
ATOM     37  N   UNL A   1      42.620  26.952  28.288  1.00  0.00    -0.248 NA
ATOM     38  C   UNL A   1      41.028  25.287  27.915  1.00  0.00     0.031 C 
ATOM     39  C   UNL A   1      45.851  24.056  27.209  1.00  0.00     0.029 A 
ATOM     40  N   UNL A   1      45.411  26.136  27.902  1.00  0.00    -0.354 N 
ATOM     41  C   UNL A   1      41.350  27.480  28.479  1.00  0.00     0.074 A 
ATOM     42  C   UNL A   1      40.405  26.425  28.183  1.00  0.00     0.031 C 
ATOM     43  C   UNL A   1      47.025  24.695  27.340  1.00  0.00     0.029 A 
ATOM     44  C   UNL A   1      46.776  26.064  27.779  1.00  0.00     0.049 A 
ATOM     45  H   UNL A   1      44.938  26.950  28.190  1.00  0.00     0.167 HD
ATOM     46  C   UNL A   1      41.003  28.726  28.884  1.00  0.00     0.037 A 
ATOM     47  C   UNL A   1      47.721  26.999  27.998  1.00  0.00     0.037 A 
ATOM     48  C   UNL A   1      41.942  29.764  29.213  1.00  0.00     0.049 A 
ATOM     49  C   UNL A   1      47.312  28.365  28.470  1.00  0.00     0.074 A 
ATOM     50  C   UNL A   1      41.691  31.040  29.687  1.00  0.00     0.029 A 
ATOM     51  N   UNL A   1      43.320  29.642  29.105  1.00  0.00    -0.354 N 
ATOM     52  N   UNL A   1      46.110  28.834  28.704  1.00  0.00    -0.248 NA
ATOM     53  C   UNL A   1      48.392  29.330  28.720  1.00  0.00     0.031 C 
ATOM     54  C   UNL A   1      42.916  31.701  29.838  1.00  0.00     0.029 A 
ATOM     55  C   UNL A   1      43.932  30.824  29.494  1.00  0.00     0.049 A 
ATOM     56  H   UNL A   1      43.794  28.836  28.798  1.00  0.00     0.167 HD
ATOM     57  C   UNL A   1      46.289  30.136  29.152  1.00  0.00     0.074 A 
ATOM     58  C   UNL A   1      47.717  30.380  29.168  1.00  0.00     0.031 C 
ATOM     59  C   UNL A   1      45.354  31.045  29.517  1.00  0.00     0.037 A 
BRANCH  46  60
ATOM     60  C   UNL A   1      39.538  29.033  29.000  1.00  0.00     0.064 A 
ATOM     61  C   UNL A   1      38.772  29.380  27.877  1.00  0.00     0.173 A 
ATOM     62  C   UNL A   1      38.888  28.949  30.239  1.00  0.00     0.173 A 
ATOM     63  F   UNL A   1      39.349  29.485  26.671  1.00  0.00    -0.203 F 
ATOM     64  C   UNL A   1      37.413  29.660  27.997  1.00  0.00     0.198 A 
ATOM     65  C   UNL A   1      37.524  29.204  30.351  1.00  0.00     0.198 A 
ATOM     66  F   UNL A   1      39.574  28.615  31.343  1.00  0.00    -0.203 F 
ATOM     67  F   UNL A   1      36.710  30.036  26.919  1.00  0.00    -0.200 F 
ATOM     68  C   UNL A   1      36.789  29.567  29.232  1.00  0.00     0.200 A 
ATOM     69  F   UNL A   1      36.919  29.103  31.543  1.00  0.00    -0.200 F 
ATOM     70  F   UNL A   1      35.480  29.834  29.345  1.00  0.00    -0.200 F 
ENDBRANCH  46  60
BRANCH  47  71
ATOM     71  C   UNL A   1      49.153  26.653  27.814  1.00  0.00     0.064 A 
ATOM     72  C   UNL A   1      49.949  26.296  28.911  1.00  0.00     0.173 A 
ATOM     73  C   UNL A   1      49.750  26.663  26.546  1.00  0.00     0.173 A 
ATOM     74  F   UNL A   1      49.425  26.293  30.145  1.00  0.00    -0.203 F 
ATOM     75  C   UNL A   1      51.294  25.973  28.747  1.00  0.00     0.198 A 
ATOM     76  C   UNL A   1      51.090  26.317  26.381  1.00  0.00     0.198 A 
ATOM     77  F   UNL A   1      49.028  26.995  25.466  1.00  0.00    -0.203 F 
ATOM     78  F   UNL A   1      52.043  25.669  29.817  1.00  0.00    -0.200 F 
ATOM     79  C   UNL A   1      51.862  25.978  27.482  1.00  0.00     0.200 A 
ATOM     80  F   UNL A   1      51.633  26.312  25.156  1.00  0.00    -0.200 F 
ATOM     81  F   UNL A   1      53.154  25.662  27.325  1.00  0.00    -0.200 F 
ENDBRANCH  47  71
BRANCH  59  82
ATOM     82  C   UNL A   1      45.844  32.377  30.002  1.00  0.00     0.064 A 
ATOM     83  C   UNL A   1      46.145  32.601  31.352  1.00  0.00     0.173 A 
ATOM     84  C   UNL A   1      46.052  33.427  29.095  1.00  0.00     0.173 A 
ATOM     85  F   UNL A   1      45.948  31.631  32.258  1.00  0.00    -0.203 F 
ATOM     86  C   UNL A   1      46.619  33.838  31.782  1.00  0.00     0.198 A 
ATOM     87  C   UNL A   1      46.548  34.655  29.525  1.00  0.00     0.198 A 
ATOM     88  F   UNL A   1      45.783  33.259  27.792  1.00  0.00    -0.203 F 
ATOM     89  F   UNL A   1      46.863  34.044  33.083  1.00  0.00    -0.200 F 
ATOM     90  C   UNL A   1      46.826  34.861  30.868  1.00  0.00     0.200 A 
ATOM     91  F   UNL A   1      46.756  35.639  28.640  1.00  0.00    -0.200 F 
ATOM     92  F   UNL A   1      47.287  36.048  31.284  1.00  0.00    -0.200 F 
ENDBRANCH  59  82
ENDBRANCH  33  34
ENDBRANCH  25  28
ENDBRANCH  23  24
ENDBRANCH  22  23
ENDBRANCH  21  22
ENDBRANCH   3  21
TORSDOF 17
ENDMDL
MODEL 2
REMARK VINA RESULT:     -10.4      4.560      9.538
REMARK SMILES C#CCN(CC(=O)NCCCNC(=O)c1ccc(-c2c3nc(c(-c4c(F)c(F)c(F)c(F)c4F)c4ccc([nH]4)c(-c4c(F)c(F)c(F)c(F)c4F)c4nc(c(-c5c(F)c(F)c(F)c(F)c5F)c5ccc2[nH]5)C=C4)C=C3)cc1)C(=O)NCCc1ccco1
REMARK SMILES IDX 6 1 7 2 8 3 5 5 4 6 3 7 2 8 1 9 78 10 79 11 80 12 81 14
REMARK SMILES IDX 82 15 83 16 84 17 87 18 85 19 86 20 9 21 10 22 11 23 12 24
REMARK SMILES IDX 13 25 14 27 15 28 16 29 77 30 17 31 76 32 18 33 19 34 20 35
REMARK SMILES IDX 70 36 21 37 75 38 69 39 71 40 22 41 74 42 68 43 67 44 23 46
REMARK SMILES IDX 55 47 35 48 54 49 36 50 39 51 53 52 72 53 37 54 38 55 52 57
REMARK SMILES IDX 73 58 40 59 24 60 25 61 33 62 26 63 27 64 31 65 34 66 28 67
REMARK SMILES IDX 29 68 32 69 30 70 56 71 57 72 65 73 58 74 59 75 63 76 66 77
REMARK SMILES IDX 60 78 61 79 64 80 62 81 41 82 42 83 50 84 43 85 44 86 48 87
REMARK SMILES IDX 51 88 45 89 46 90 49 91 47 92
REMARK H PARENT 8 4 80 13 12 26 71 45 39 56
REMARK Flexibility Score: inf
ROOT
ATOM      1  C   UNL A   1      31.938  24.656  26.431  1.00  0.00     0.239 C 
ATOM      2  O   UNL A   1      31.398  23.897  27.243  1.00  0.00    -0.273 OA
ATOM      3  N   UNL A   1      31.174  25.669  25.929  1.00  0.00    -0.354 N 
ATOM      4  H   UNL A   1      30.203  25.560  26.055  1.00  0.00     0.163 HD
ENDROOT
BRANCH   1   5
ATOM      5  C   UNL A   1      33.438  24.533  26.122  1.00  0.00     0.222 C 
BRANCH   5   6
ATOM      6  N   UNL A   1      33.820  23.313  25.417  1.00  0.00    -0.304 N 
BRANCH   6   7
ATOM      7  C   UNL A   1      34.005  23.436  23.976  1.00  0.00     0.211 C 
BRANCH   7   8
ATOM      8  C   UNL A   1      35.425  23.138  23.523  1.00  0.00    -0.085 C 
ATOM      9  C   UNL A   1      36.642  22.883  23.134  1.00  0.00     0.006 C 
ENDBRANCH   7   8
ENDBRANCH   6   7
BRANCH   6  10
ATOM     10  C   UNL A   1      34.027  22.072  25.950  1.00  0.00     0.318 C 
ATOM     11  O   UNL A   1      34.949  21.867  26.747  1.00  0.00    -0.249 OA
ATOM     12  N   UNL A   1      33.294  20.990  25.651  1.00  0.00    -0.337 N 
ATOM     13  H   UNL A   1      33.650  20.194  26.106  1.00  0.00     0.165 HD
BRANCH  12  14
ATOM     14  C   UNL A   1      32.125  20.645  24.850  1.00  0.00     0.125 C 
BRANCH  14  15
ATOM     15  C   UNL A   1      32.491  19.732  23.676  1.00  0.00     0.096 C 
BRANCH  15  16
ATOM     16  C   UNL A   1      32.781  18.346  24.132  1.00  0.00     0.105 A 
ATOM     17  C   UNL A   1      33.552  17.330  23.608  1.00  0.00     0.045 A 
ATOM     18  O   UNL A   1      32.181  17.934  25.284  1.00  0.00    -0.469 OA
ATOM     19  C   UNL A   1      33.415  16.232  24.490  1.00  0.00     0.042 A 
ATOM     20  C   UNL A   1      32.574  16.650  25.495  1.00  0.00     0.195 A 
ENDBRANCH  15  16
ENDBRANCH  14  15
ENDBRANCH  12  14
ENDBRANCH   6  10
ENDBRANCH   5   6
ENDBRANCH   1   5
BRANCH   3  21
ATOM     21  C   UNL A   1      31.572  26.877  25.239  1.00  0.00     0.117 C 
BRANCH  21  22
ATOM     22  C   UNL A   1      31.934  28.027  26.174  1.00  0.00     0.042 C 
BRANCH  22  23
ATOM     23  C   UNL A   1      32.903  29.051  25.591  1.00  0.00     0.118 C 
BRANCH  23  24
ATOM     24  N   UNL A   1      32.568  30.417  25.960  1.00  0.00    -0.352 N 
ATOM     25  C   UNL A   1      33.090  31.258  26.906  1.00  0.00     0.251 C 
ATOM     26  H   UNL A   1      31.834  30.808  25.435  1.00  0.00     0.163 HD
ATOM     27  O   UNL A   1      32.497  32.309  27.150  1.00  0.00    -0.269 OA
BRANCH  25  28
ATOM     28  C   UNL A   1      34.337  30.946  27.642  1.00  0.00     0.039 A 
ATOM     29  C   UNL A   1      34.488  29.659  28.173  1.00  0.00     0.014 A 
ATOM     30  C   UNL A   1      35.312  31.913  27.904  1.00  0.00     0.014 A 
ATOM     31  C   UNL A   1      35.617  29.333  28.928  1.00  0.00     0.010 A 
ATOM     32  C   UNL A   1      36.474  31.570  28.597  1.00  0.00     0.010 A 
ATOM     33  C   UNL A   1      36.629  30.282  29.132  1.00  0.00    -0.014 A 
BRANCH  33  34
ATOM     34  C   UNL A   1      37.838  29.950  29.929  1.00  0.00     0.031 A 
ATOM     35  C   UNL A   1      38.884  29.024  29.372  1.00  0.00     0.074 A 
ATOM     36  C   UNL A   1      37.975  30.450  31.172  1.00  0.00     0.049 A 
ATOM     37  N   UNL A   1      39.984  28.583  29.931  1.00  0.00    -0.248 NA
ATOM     38  C   UNL A   1      38.654  28.506  28.015  1.00  0.00     0.031 C 
ATOM     39  C   UNL A   1      37.012  31.324  31.841  1.00  0.00     0.029 A 
ATOM     40  N   UNL A   1      38.977  30.289  32.096  1.00  0.00    -0.354 N 
ATOM     41  C   UNL A   1      40.561  27.724  29.006  1.00  0.00     0.074 A 
ATOM     42  C   UNL A   1      39.672  27.672  27.865  1.00  0.00     0.031 C 
ATOM     43  C   UNL A   1      37.480  31.641  33.059  1.00  0.00     0.029 A 
ATOM     44  C   UNL A   1      38.759  30.970  33.267  1.00  0.00     0.049 A 
ATOM     45  H   UNL A   1      39.776  29.737  31.934  1.00  0.00     0.167 HD
ATOM     46  C   UNL A   1      41.736  27.054  29.090  1.00  0.00     0.037 A 
ATOM     47  C   UNL A   1      39.510  31.046  34.383  1.00  0.00     0.037 A 
ATOM     48  C   UNL A   1      42.638  27.133  30.209  1.00  0.00     0.049 A 
ATOM     49  C   UNL A   1      40.820  30.313  34.442  1.00  0.00     0.074 A 
ATOM     50  C   UNL A   1      43.877  26.538  30.365  1.00  0.00     0.029 A 
ATOM     51  N   UNL A   1      42.395  27.860  31.365  1.00  0.00    -0.354 N 
ATOM     52  N   UNL A   1      41.383  29.551  33.537  1.00  0.00    -0.248 NA
ATOM     53  C   UNL A   1      41.605  30.461  35.676  1.00  0.00     0.031 C 
ATOM     54  C   UNL A   1      44.372  26.880  31.629  1.00  0.00     0.029 A 
ATOM     55  C   UNL A   1      43.457  27.720  32.244  1.00  0.00     0.049 A 
ATOM     56  H   UNL A   1      41.587  28.396  31.538  1.00  0.00     0.167 HD
ATOM     57  C   UNL A   1      42.597  29.150  34.078  1.00  0.00     0.074 A 
ATOM     58  C   UNL A   1      42.694  29.762  35.387  1.00  0.00     0.031 C 
ATOM     59  C   UNL A   1      43.545  28.347  33.537  1.00  0.00     0.037 A 
BRANCH  46  60
ATOM     60  C   UNL A   1      42.117  26.177  27.933  1.00  0.00     0.064 A 
ATOM     61  C   UNL A   1      41.595  24.884  27.792  1.00  0.00     0.173 A 
ATOM     62  C   UNL A   1      42.990  26.647  26.941  1.00  0.00     0.173 A 
ATOM     63  F   UNL A   1      40.765  24.384  28.720  1.00  0.00    -0.203 F 
ATOM     64  C   UNL A   1      41.955  24.081  26.712  1.00  0.00     0.198 A 
ATOM     65  C   UNL A   1      43.327  25.851  25.849  1.00  0.00     0.198 A 
ATOM     66  F   UNL A   1      43.513  27.879  27.026  1.00  0.00    -0.203 F 
ATOM     67  F   UNL A   1      41.480  22.830  26.622  1.00  0.00    -0.200 F 
ATOM     68  C   UNL A   1      42.816  24.566  25.739  1.00  0.00     0.200 A 
ATOM     69  F   UNL A   1      44.150  26.324  24.904  1.00  0.00    -0.200 F 
ATOM     70  F   UNL A   1      43.158  23.793  24.699  1.00  0.00    -0.200 F 
ENDBRANCH  46  60
BRANCH  47  71
ATOM     71  C   UNL A   1      39.054  31.887  35.518  1.00  0.00     0.064 A 
ATOM     72  C   UNL A   1      39.423  33.236  35.603  1.00  0.00     0.173 A 
ATOM     73  C   UNL A   1      38.238  31.366  36.532  1.00  0.00     0.173 A 
ATOM     74  F   UNL A   1      40.220  33.772  34.667  1.00  0.00    -0.203 F 
ATOM     75  C   UNL A   1      39.002  34.031  36.666  1.00  0.00     0.198 A 
ATOM     76  C   UNL A   1      37.798  32.168  37.584  1.00  0.00     0.198 A 
ATOM     77  F   UNL A   1      37.856  30.081  36.493  1.00  0.00    -0.203 F 
ATOM     78  F   UNL A   1      39.398  35.309  36.742  1.00  0.00    -0.200 F 
ATOM     79  C   UNL A   1      38.186  33.498  37.652  1.00  0.00     0.200 A 
ATOM     80  F   UNL A   1      37.001  31.654  38.529  1.00  0.00    -0.200 F 
ATOM     81  F   UNL A   1      37.777  34.265  38.672  1.00  0.00    -0.200 F 
ENDBRANCH  47  71
BRANCH  59  82
ATOM     82  C   UNL A   1      44.787  28.113  34.343  1.00  0.00     0.064 A 
ATOM     83  C   UNL A   1      45.894  28.968  34.250  1.00  0.00     0.173 A 
ATOM     84  C   UNL A   1      44.853  27.043  35.248  1.00  0.00     0.173 A 
ATOM     85  F   UNL A   1      45.883  29.995  33.387  1.00  0.00    -0.203 F 
ATOM     86  C   UNL A   1      47.033  28.748  35.020  1.00  0.00     0.198 A 
ATOM     87  C   UNL A   1      45.984  26.840  36.034  1.00  0.00     0.198 A 
ATOM     88  F   UNL A   1      43.817  26.201  35.376  1.00  0.00    -0.203 F 
ATOM     89  F   UNL A   1      48.096  29.553  34.888  1.00  0.00    -0.200 F 
ATOM     90  C   UNL A   1      47.074  27.689  35.916  1.00  0.00     0.200 A 
ATOM     91  F   UNL A   1      46.020  25.823  36.905  1.00  0.00    -0.200 F 
ATOM     92  F   UNL A   1      48.169  27.482  36.660  1.00  0.00    -0.200 F 
ENDBRANCH  59  82
ENDBRANCH  33  34
ENDBRANCH  25  28
ENDBRANCH  23  24
ENDBRANCH  22  23
ENDBRANCH  21  22
ENDBRANCH   3  21
TORSDOF 17
ENDMDL
MODEL 3
REMARK VINA RESULT:     -10.4      4.184      7.814
REMARK SMILES C#CCN(CC(=O)NCCCNC(=O)c1ccc(-c2c3nc(c(-c4c(F)c(F)c(F)c(F)c4F)c4ccc([nH]4)c(-c4c(F)c(F)c(F)c(F)c4F)c4nc(c(-c5c(F)c(F)c(F)c(F)c5F)c5ccc2[nH]5)C=C4)C=C3)cc1)C(=O)NCCc1ccco1
REMARK SMILES IDX 6 1 7 2 8 3 5 5 4 6 3 7 2 8 1 9 78 10 79 11 80 12 81 14
REMARK SMILES IDX 82 15 83 16 84 17 87 18 85 19 86 20 9 21 10 22 11 23 12 24
REMARK SMILES IDX 13 25 14 27 15 28 16 29 77 30 17 31 76 32 18 33 19 34 20 35
REMARK SMILES IDX 70 36 21 37 75 38 69 39 71 40 22 41 74 42 68 43 67 44 23 46
REMARK SMILES IDX 55 47 35 48 54 49 36 50 39 51 53 52 72 53 37 54 38 55 52 57
REMARK SMILES IDX 73 58 40 59 24 60 25 61 33 62 26 63 27 64 31 65 34 66 28 67
REMARK SMILES IDX 29 68 32 69 30 70 56 71 57 72 65 73 58 74 59 75 63 76 66 77
REMARK SMILES IDX 60 78 61 79 64 80 62 81 41 82 42 83 50 84 43 85 44 86 48 87
REMARK SMILES IDX 51 88 45 89 46 90 49 91 47 92
REMARK H PARENT 8 4 80 13 12 26 71 45 39 56
REMARK Flexibility Score: inf
ROOT
ATOM      1  C   UNL A   1      31.792  24.143  26.676  1.00  0.00     0.239 C 
ATOM      2  O   UNL A   1      31.343  23.477  27.614  1.00  0.00    -0.273 OA
ATOM      3  N   UNL A   1      31.506  25.478  26.673  1.00  0.00    -0.354 N 
ATOM      4  H   UNL A   1      30.766  25.746  27.265  1.00  0.00     0.163 HD
ENDROOT
BRANCH   1   5
ATOM      5  C   UNL A   1      32.743  23.509  25.649  1.00  0.00     0.222 C 
BRANCH   5   6
ATOM      6  N   UNL A   1      32.951  22.073  25.813  1.00  0.00    -0.304 N 
BRANCH   6   7
ATOM      7  C   UNL A   1      32.006  21.204  25.122  1.00  0.00     0.211 C 
BRANCH   7   8
ATOM      8  C   UNL A   1      32.090  21.305  23.608  1.00  0.00    -0.085 C 
ATOM      9  C   UNL A   1      32.162  21.392  22.310  1.00  0.00     0.006 C 
ENDBRANCH   7   8
ENDBRANCH   6   7
BRANCH   6  10
ATOM     10  C   UNL A   1      33.929  21.450  26.535  1.00  0.00     0.318 C 
ATOM     11  O   UNL A   1      33.774  21.200  27.736  1.00  0.00    -0.249 OA
ATOM     12  N   UNL A   1      35.119  21.084  26.037  1.00  0.00    -0.337 N 
ATOM     13  H   UNL A   1      35.688  20.702  26.743  1.00  0.00     0.165 HD
BRANCH  12  14
ATOM     14  C   UNL A   1      35.820  21.088  24.758  1.00  0.00     0.125 C 
BRANCH  14  15
ATOM     15  C   UNL A   1      36.497  22.434  24.485  1.00  0.00     0.096 C 
BRANCH  15  16
ATOM     16  C   UNL A   1      37.663  22.652  25.383  1.00  0.00     0.105 A 
ATOM     17  C   UNL A   1      38.166  23.772  26.010  1.00  0.00     0.045 A 
ATOM     18  O   UNL A   1      38.436  21.567  25.668  1.00  0.00    -0.469 OA
ATOM     19  C   UNL A   1      39.315  23.349  26.718  1.00  0.00     0.042 A 
ATOM     20  C   UNL A   1      39.436  22.000  26.481  1.00  0.00     0.195 A 
ENDBRANCH  15  16
ENDBRANCH  14  15
ENDBRANCH  12  14
ENDBRANCH   6  10
ENDBRANCH   5   6
ENDBRANCH   1   5
BRANCH   3  21
ATOM     21  C   UNL A   1      32.122  26.557  25.932  1.00  0.00     0.117 C 
BRANCH  21  22
ATOM     22  C   UNL A   1      32.581  27.719  26.807  1.00  0.00     0.042 C 
BRANCH  22  23
ATOM     23  C   UNL A   1      33.791  28.484  26.282  1.00  0.00     0.118 C 
BRANCH  23  24
ATOM     24  N   UNL A   1      33.736  29.905  26.586  1.00  0.00    -0.352 N 
ATOM     25  C   UNL A   1      34.519  30.695  27.383  1.00  0.00     0.251 C 
ATOM     26  H   UNL A   1      33.003  30.385  26.137  1.00  0.00     0.163 HD
ATOM     27  O   UNL A   1      34.142  31.843  27.624  1.00  0.00    -0.269 OA
BRANCH  25  28
ATOM     28  C   UNL A   1      35.796  30.218  27.963  1.00  0.00     0.039 A 
ATOM     29  C   UNL A   1      35.772  29.666  29.250  1.00  0.00     0.014 A 
ATOM     30  C   UNL A   1      37.022  30.392  27.315  1.00  0.00     0.014 A 
ATOM     31  C   UNL A   1      36.958  29.258  29.866  1.00  0.00     0.010 A 
ATOM     32  C   UNL A   1      38.199  29.920  27.899  1.00  0.00     0.010 A 
ATOM     33  C   UNL A   1      38.181  29.366  29.187  1.00  0.00    -0.014 A 
BRANCH  33  34
ATOM     34  C   UNL A   1      39.449  28.933  29.828  1.00  0.00     0.031 A 
ATOM     35  C   UNL A   1      39.958  29.636  31.056  1.00  0.00     0.074 A 
ATOM     36  C   UNL A   1      40.165  27.933  29.280  1.00  0.00     0.049 A 
ATOM     37  N   UNL A   1      41.062  29.431  31.732  1.00  0.00    -0.248 NA
ATOM     38  C   UNL A   1      39.127  30.728  31.584  1.00  0.00     0.031 C 
ATOM     39  C   UNL A   1      39.802  27.201  28.067  1.00  0.00     0.029 A 
ATOM     40  N   UNL A   1      41.353  27.365  29.670  1.00  0.00    -0.354 N 
ATOM     41  C   UNL A   1      41.067  30.380  32.746  1.00  0.00     0.074 A 
ATOM     42  C   UNL A   1      39.878  31.188  32.575  1.00  0.00     0.031 C 
ATOM     43  C   UNL A   1      40.734  26.265  27.824  1.00  0.00     0.029 A 
ATOM     44  C   UNL A   1      41.773  26.351  28.846  1.00  0.00     0.049 A 
ATOM     45  H   UNL A   1      41.855  27.656  30.465  1.00  0.00     0.167 HD
ATOM     46  C   UNL A   1      41.970  30.550  33.741  1.00  0.00     0.037 A 
ATOM     47  C   UNL A   1      42.873  25.576  28.909  1.00  0.00     0.037 A 
ATOM     48  C   UNL A   1      43.133  29.726  33.933  1.00  0.00     0.049 A 
ATOM     49  C   UNL A   1      43.847  25.769  30.037  1.00  0.00     0.074 A 
ATOM     50  C   UNL A   1      44.077  29.782  34.943  1.00  0.00     0.029 A 
ATOM     51  N   UNL A   1      43.508  28.687  33.093  1.00  0.00    -0.354 N 
ATOM     52  N   UNL A   1      43.810  26.631  31.023  1.00  0.00    -0.248 NA
ATOM     53  C   UNL A   1      45.012  24.873  30.066  1.00  0.00     0.031 C 
ATOM     54  C   UNL A   1      45.041  28.797  34.699  1.00  0.00     0.029 A 
ATOM     55  C   UNL A   1      44.676  28.102  33.557  1.00  0.00     0.049 A 
ATOM     56  H   UNL A   1      43.018  28.407  32.286  1.00  0.00     0.167 HD
ATOM     57  C   UNL A   1      44.927  26.366  31.804  1.00  0.00     0.074 A 
ATOM     58  C   UNL A   1      45.617  25.255  31.182  1.00  0.00     0.031 C 
ATOM     59  C   UNL A   1      45.342  26.988  32.934  1.00  0.00     0.037 A 
BRANCH  46  60
ATOM     60  C   UNL A   1      41.731  31.674  34.707  1.00  0.00     0.064 A 
ATOM     61  C   UNL A   1      42.362  32.917  34.556  1.00  0.00     0.173 A 
ATOM     62  C   UNL A   1      40.839  31.515  35.778  1.00  0.00     0.173 A 
ATOM     63  F   UNL A   1      43.233  33.115  33.555  1.00  0.00    -0.203 F 
ATOM     64  C   UNL A   1      42.130  33.952  35.458  1.00  0.00     0.198 A 
ATOM     65  C   UNL A   1      40.589  32.561  36.663  1.00  0.00     0.198 A 
ATOM     66  F   UNL A   1      40.204  30.348  35.964  1.00  0.00    -0.203 F 
ATOM     67  F   UNL A   1      42.780  35.117  35.321  1.00  0.00    -0.200 F 
ATOM     68  C   UNL A   1      41.240  33.776  36.507  1.00  0.00     0.200 A 
ATOM     69  F   UNL A   1      39.721  32.393  37.670  1.00  0.00    -0.200 F 
ATOM     70  F   UNL A   1      41.016  34.775  37.373  1.00  0.00    -0.200 F 
ENDBRANCH  46  60
BRANCH  47  71
ATOM     71  C   UNL A   1      43.085  24.516  27.892  1.00  0.00     0.064 A 
ATOM     72  C   UNL A   1      42.712  23.190  28.153  1.00  0.00     0.173 A 
ATOM     73  C   UNL A   1      43.651  24.804  26.643  1.00  0.00     0.173 A 
ATOM     74  F   UNL A   1      42.186  22.865  29.343  1.00  0.00    -0.203 F 
ATOM     75  C   UNL A   1      42.910  22.189  27.206  1.00  0.00     0.198 A 
ATOM     76  C   UNL A   1      43.826  23.805  25.686  1.00  0.00     0.198 A 
ATOM     77  F   UNL A   1      44.020  26.059  26.345  1.00  0.00    -0.203 F 
ATOM     78  F   UNL A   1      42.577  20.923  27.493  1.00  0.00    -0.200 F 
ATOM     79  C   UNL A   1      43.461  22.498  25.971  1.00  0.00     0.200 A 
ATOM     80  F   UNL A   1      44.350  24.109  24.492  1.00  0.00    -0.200 F 
ATOM     81  F   UNL A   1      43.646  21.535  25.058  1.00  0.00    -0.200 F 
ENDBRANCH  47  71
BRANCH  59  82
ATOM     82  C   UNL A   1      46.579  26.458  33.594  1.00  0.00     0.064 A 
ATOM     83  C   UNL A   1      47.849  26.967  33.290  1.00  0.00     0.173 A 
ATOM     84  C   UNL A   1      46.486  25.454  34.571  1.00  0.00     0.173 A 
ATOM     85  F   UNL A   1      47.990  27.915  32.351  1.00  0.00    -0.203 F 
ATOM     86  C   UNL A   1      48.986  26.476  33.927  1.00  0.00     0.198 A 
ATOM     87  C   UNL A   1      47.622  24.983  35.222  1.00  0.00     0.198 A 
ATOM     88  F   UNL A   1      45.292  24.939  34.899  1.00  0.00    -0.203 F 
ATOM     89  F   UNL A   1      50.195  26.948  33.594  1.00  0.00    -0.200 F 
ATOM     90  C   UNL A   1      48.871  25.490  34.896  1.00  0.00     0.200 A 
ATOM     91  F   UNL A   1      47.509  24.038  36.164  1.00  0.00    -0.200 F 
ATOM     92  F   UNL A   1      49.966  25.023  35.511  1.00  0.00    -0.200 F 
ENDBRANCH  59  82
ENDBRANCH  33  34
ENDBRANCH  25  28
ENDBRANCH  23  24
ENDBRANCH  22  23
ENDBRANCH  21  22
ENDBRANCH   3  21
TORSDOF 17
ENDMDL
