MODEL 1
REMARK VINA RESULT:     -12.2      0.000      0.000
REMARK SMILES CC[C@](C)(NS(=O)(=O)c1ccc(OC)c(F)c1)C(=O)NCCCNC(=O)c1ccc(-c2c3nc(c(-c4c(F)c(F)c(F)c(F)c4F)c4ccc([nH]4)c(-c4c(F)c(F)c(F)c(F)c4F)c4nc(c(-c5c(F)c(F)c(F)c(F)c5F)c5ccc2[nH]5)C=C4)C=C3)cc1
REMARK SMILES IDX 21 1 20 2 18 3 19 4 3 6 4 7 2 8 1 9 5 10 6 12 7 13 8 14 9 15
REMARK SMILES IDX 10 16 17 17 11 18 15 19 12 20 16 21 13 22 14 23 22 24 23 25
REMARK SMILES IDX 24 26 25 27 26 29 27 30 28 31 89 32 29 33 88 34 30 35 31 36
REMARK SMILES IDX 32 37 82 38 33 39 87 40 81 41 83 42 34 43 86 44 80 45 79 46
REMARK SMILES IDX 35 48 67 49 47 50 66 51 48 52 51 53 65 54 84 55 49 56 50 57
REMARK SMILES IDX 64 59 85 60 52 61 36 62 37 63 45 64 38 65 39 66 43 67 46 68
REMARK SMILES IDX 40 69 41 70 44 71 42 72 68 73 69 74 77 75 70 76 71 77 75 78
REMARK SMILES IDX 78 79 72 80 73 81 76 82 74 83 53 84 54 85 62 86 55 87 56 88
REMARK SMILES IDX 60 89 63 90 57 91 58 92 61 93 59 94
REMARK H PARENT 20 5 5 11 24 28 83 47 51 58
REMARK Flexibility Score: inf
ROOT
ATOM      1  C   UNL A   1      36.688  20.725  24.914  1.00  0.00     0.117 C 
ENDROOT
BRANCH   1   2
ATOM      2  N   UNL A   1      35.969  21.096  26.122  1.00  0.00    -0.354 N 
ATOM      3  C   UNL A   1      34.992  22.008  26.426  1.00  0.00     0.241 C 
ATOM      4  O   UNL A   1      34.432  21.833  27.516  1.00  0.00    -0.273 OA
ATOM      5  H   UNL A   1      36.249  20.570  26.905  1.00  0.00     0.163 HD
BRANCH   3   6
ATOM      6  C   UNL A   1      34.613  23.236  25.550  1.00  0.00     0.108 C 
ATOM      7  C   UNL A   1      35.860  24.068  25.170  1.00  0.00     0.040 C 
BRANCH   6   8
ATOM      8  C   UNL A   1      33.644  24.200  26.299  1.00  0.00     0.030 C 
ATOM      9  C   UNL A   1      33.594  25.623  25.752  1.00  0.00     0.006 C 
ENDBRANCH   6   8
BRANCH   6  10
ATOM     10  N   UNL A   1      33.896  22.777  24.307  1.00  0.00    -0.196 NA
ATOM     11  H   UNL A   1      34.528  22.116  23.857  1.00  0.00     0.142 HD
BRANCH  10  12
ATOM     12  S   UNL A   1      32.369  22.030  24.292  1.00  0.00     0.241 S 
ATOM     13  O   UNL A   1      31.767  22.376  25.562  1.00  0.00    -0.207 OA
ATOM     14  O   UNL A   1      31.749  22.454  23.054  1.00  0.00    -0.207 OA
BRANCH  12  15
ATOM     15  C   UNL A   1      32.510  20.268  24.258  1.00  0.00     0.085 A 
ATOM     16  C   UNL A   1      32.853  19.518  25.380  1.00  0.00     0.026 A 
ATOM     17  C   UNL A   1      32.409  19.633  23.031  1.00  0.00     0.065 A 
ATOM     18  C   UNL A   1      33.058  18.132  25.251  1.00  0.00     0.051 A 
ATOM     19  C   UNL A   1      32.528  18.255  22.922  1.00  0.00     0.166 A 
ATOM     20  C   UNL A   1      32.899  17.486  24.017  1.00  0.00     0.154 A 
ATOM     21  F   UNL A   1      32.257  17.707  21.731  1.00  0.00    -0.203 F 
BRANCH  20  22
ATOM     22  O   UNL A   1      33.142  16.139  24.015  1.00  0.00    -0.494 OA
ATOM     23  C   UNL A   1      33.255  15.507  25.289  1.00  0.00     0.278 C 
ENDBRANCH  20  22
ENDBRANCH  12  15
ENDBRANCH  10  12
ENDBRANCH   6  10
ENDBRANCH   3   6
ENDBRANCH   1   2
BRANCH   1  24
ATOM     24  C   UNL A   1      37.865  19.743  25.006  1.00  0.00     0.042 C 
BRANCH  24  25
ATOM     25  C   UNL A   1      39.174  20.073  25.746  1.00  0.00     0.118 C 
BRANCH  25  26
ATOM     26  N   UNL A   1      40.165  19.029  25.877  1.00  0.00    -0.352 N 
ATOM     27  C   UNL A   1      41.512  19.203  26.133  1.00  0.00     0.251 C 
ATOM     28  H   UNL A   1      39.850  18.102  25.772  1.00  0.00     0.163 HD
ATOM     29  O   UNL A   1      42.280  18.246  26.104  1.00  0.00    -0.269 OA
BRANCH  27  30
ATOM     30  C   UNL A   1      42.055  20.559  26.400  1.00  0.00     0.039 A 
ATOM     31  C   UNL A   1      42.530  21.327  25.333  1.00  0.00     0.014 A 
ATOM     32  C   UNL A   1      42.157  21.053  27.703  1.00  0.00     0.014 A 
ATOM     33  C   UNL A   1      43.049  22.608  25.570  1.00  0.00     0.010 A 
ATOM     34  C   UNL A   1      42.661  22.337  27.939  1.00  0.00     0.010 A 
ATOM     35  C   UNL A   1      43.099  23.133  26.872  1.00  0.00    -0.014 A 
BRANCH  35  36
ATOM     36  C   UNL A   1      43.513  24.542  27.114  1.00  0.00     0.031 A 
ATOM     37  C   UNL A   1      42.544  25.573  27.619  1.00  0.00     0.074 A 
ATOM     38  C   UNL A   1      44.778  24.902  26.825  1.00  0.00     0.049 A 
ATOM     39  N   UNL A   1      42.756  26.838  27.893  1.00  0.00    -0.248 NA
ATOM     40  C   UNL A   1      41.160  25.134  27.837  1.00  0.00     0.031 C 
ATOM     41  C   UNL A   1      45.801  24.006  26.287  1.00  0.00     0.029 A 
ATOM     42  N   UNL A   1      45.419  26.112  26.934  1.00  0.00    -0.354 N 
ATOM     43  C   UNL A   1      41.538  27.343  28.327  1.00  0.00     0.074 A 
ATOM     44  C   UNL A   1      40.580  26.258  28.241  1.00  0.00     0.031 C 
ATOM     45  C   UNL A   1      46.943  24.691  26.125  1.00  0.00     0.029 A 
ATOM     46  C   UNL A   1      46.729  26.079  26.526  1.00  0.00     0.049 A 
ATOM     47  H   UNL A   1      44.979  26.927  27.271  1.00  0.00     0.167 HD
ATOM     48  C   UNL A   1      41.252  28.590  28.775  1.00  0.00     0.037 A 
ATOM     49  C   UNL A   1      47.657  27.054  26.478  1.00  0.00     0.037 A 
ATOM     50  C   UNL A   1      42.205  29.669  28.857  1.00  0.00     0.049 A 
ATOM     51  C   UNL A   1      47.307  28.438  26.949  1.00  0.00     0.074 A 
ATOM     52  C   UNL A   1      42.017  30.949  29.349  1.00  0.00     0.029 A 
ATOM     53  N   UNL A   1      43.521  29.599  28.422  1.00  0.00    -0.354 N 
ATOM     54  N   UNL A   1      46.174  28.880  27.437  1.00  0.00    -0.248 NA
ATOM     55  C   UNL A   1      48.365  29.457  26.872  1.00  0.00     0.031 C 
ATOM     56  C   UNL A   1      43.202  31.669  29.170  1.00  0.00     0.029 A 
ATOM     57  C   UNL A   1      44.145  30.824  28.610  1.00  0.00     0.049 A 
ATOM     58  H   UNL A   1      43.948  28.800  28.038  1.00  0.00     0.167 HD
ATOM     59  C   UNL A   1      46.385  30.217  27.742  1.00  0.00     0.074 A 
ATOM     60  C   UNL A   1      47.759  30.515  27.395  1.00  0.00     0.031 C 
ATOM     61  C   UNL A   1      45.514  31.113  28.264  1.00  0.00     0.037 A 
BRANCH  48  62
ATOM     62  C   UNL A   1      39.850  28.870  29.232  1.00  0.00     0.064 A 
ATOM     63  C   UNL A   1      39.460  28.606  30.554  1.00  0.00     0.173 A 
ATOM     64  C   UNL A   1      38.866  29.309  28.333  1.00  0.00     0.173 A 
ATOM     65  F   UNL A   1      40.358  28.169  31.449  1.00  0.00    -0.203 F 
ATOM     66  C   UNL A   1      38.135  28.760  30.955  1.00  0.00     0.198 A 
ATOM     67  C   UNL A   1      37.547  29.486  28.744  1.00  0.00     0.198 A 
ATOM     68  F   UNL A   1      39.187  29.574  27.058  1.00  0.00    -0.203 F 
ATOM     69  F   UNL A   1      37.779  28.471  32.214  1.00  0.00    -0.200 F 
ATOM     70  C   UNL A   1      37.181  29.204  30.051  1.00  0.00     0.200 A 
ATOM     71  F   UNL A   1      36.629  29.928  27.873  1.00  0.00    -0.200 F 
ATOM     72  F   UNL A   1      35.907  29.357  30.440  1.00  0.00    -0.200 F 
ENDBRANCH  48  62
BRANCH  49  73
ATOM     73  C   UNL A   1      49.024  26.733  25.995  1.00  0.00     0.064 A 
ATOM     74  C   UNL A   1      50.009  26.240  26.864  1.00  0.00     0.173 A 
ATOM     75  C   UNL A   1      49.382  26.953  24.658  1.00  0.00     0.173 A 
ATOM     76  F   UNL A   1      49.715  26.016  28.153  1.00  0.00    -0.203 F 
ATOM     77  C   UNL A   1      51.307  26.003  26.419  1.00  0.00     0.198 A 
ATOM     78  C   UNL A   1      50.675  26.693  24.209  1.00  0.00     0.198 A 
ATOM     79  F   UNL A   1      48.468  27.404  23.786  1.00  0.00    -0.203 F 
ATOM     80  F   UNL A   1      52.239  25.566  27.277  1.00  0.00    -0.200 F 
ATOM     81  C   UNL A   1      51.638  26.227  25.091  1.00  0.00     0.200 A 
ATOM     82  F   UNL A   1      50.986  26.891  22.920  1.00  0.00    -0.200 F 
ATOM     83  F   UNL A   1      52.885  25.993  24.660  1.00  0.00    -0.200 F 
ENDBRANCH  49  73
BRANCH  61  84
ATOM     84  C   UNL A   1      46.009  32.508  28.511  1.00  0.00     0.064 A 
ATOM     85  C   UNL A   1      46.533  32.865  29.763  1.00  0.00     0.173 A 
ATOM     86  C   UNL A   1      45.882  33.511  27.540  1.00  0.00     0.173 A 
ATOM     87  F   UNL A   1      46.669  31.942  30.727  1.00  0.00    -0.203 F 
ATOM     88  C   UNL A   1      46.892  34.181  30.040  1.00  0.00     0.198 A 
ATOM     89  C   UNL A   1      46.264  34.822  27.813  1.00  0.00     0.198 A 
ATOM     90  F   UNL A   1      45.399  33.215  26.324  1.00  0.00    -0.203 F 
ATOM     91  F   UNL A   1      47.358  34.507  31.254  1.00  0.00    -0.200 F 
ATOM     92  C   UNL A   1      46.758  35.158  29.065  1.00  0.00     0.200 A 
ATOM     93  F   UNL A   1      46.155  35.761  26.863  1.00  0.00    -0.200 F 
ATOM     94  F   UNL A   1      47.107  36.425  29.331  1.00  0.00    -0.200 F 
ENDBRANCH  61  84
ENDBRANCH  35  36
ENDBRANCH  27  30
ENDBRANCH  25  26
ENDBRANCH  24  25
ENDBRANCH   1  24
TORSDOF 15
ENDMDL
MODEL 2
REMARK VINA RESULT:     -12.2      0.552      7.484
REMARK SMILES CC[C@](C)(NS(=O)(=O)c1ccc(OC)c(F)c1)C(=O)NCCCNC(=O)c1ccc(-c2c3nc(c(-c4c(F)c(F)c(F)c(F)c4F)c4ccc([nH]4)c(-c4c(F)c(F)c(F)c(F)c4F)c4nc(c(-c5c(F)c(F)c(F)c(F)c5F)c5ccc2[nH]5)C=C4)C=C3)cc1
REMARK SMILES IDX 21 1 20 2 18 3 19 4 3 6 4 7 2 8 1 9 5 10 6 12 7 13 8 14 9 15
REMARK SMILES IDX 10 16 17 17 11 18 15 19 12 20 16 21 13 22 14 23 22 24 23 25
REMARK SMILES IDX 24 26 25 27 26 29 27 30 28 31 89 32 29 33 88 34 30 35 31 36
REMARK SMILES IDX 32 37 82 38 33 39 87 40 81 41 83 42 34 43 86 44 80 45 79 46
REMARK SMILES IDX 35 48 67 49 47 50 66 51 48 52 51 53 65 54 84 55 49 56 50 57
REMARK SMILES IDX 64 59 85 60 52 61 36 62 37 63 45 64 38 65 39 66 43 67 46 68
REMARK SMILES IDX 40 69 41 70 44 71 42 72 68 73 69 74 77 75 70 76 71 77 75 78
REMARK SMILES IDX 78 79 72 80 73 81 76 82 74 83 53 84 54 85 62 86 55 87 56 88
REMARK SMILES IDX 60 89 63 90 57 91 58 92 61 93 59 94
REMARK H PARENT 20 5 5 11 24 28 83 47 51 58
REMARK Flexibility Score: inf
ROOT
ATOM      1  C   UNL A   1      36.430  20.815  24.932  1.00  0.00     0.117 C 
ENDROOT
BRANCH   1   2
ATOM      2  N   UNL A   1      35.802  21.239  26.174  1.00  0.00    -0.354 N 
ATOM      3  C   UNL A   1      34.865  22.179  26.513  1.00  0.00     0.241 C 
ATOM      4  O   UNL A   1      34.379  22.050  27.644  1.00  0.00    -0.273 OA
ATOM      5  H   UNL A   1      36.128  20.733  26.953  1.00  0.00     0.163 HD
BRANCH   3   6
ATOM      6  C   UNL A   1      34.447  23.385  25.624  1.00  0.00     0.108 C 
ATOM      7  C   UNL A   1      35.668  24.249  25.231  1.00  0.00     0.040 C 
BRANCH   6   8
ATOM      8  C   UNL A   1      33.452  24.328  26.366  1.00  0.00     0.030 C 
ATOM      9  C   UNL A   1      33.415  25.764  25.851  1.00  0.00     0.006 C 
ENDBRANCH   6   8
BRANCH   6  10
ATOM     10  N   UNL A   1      33.741  22.890  24.389  1.00  0.00    -0.196 NA
ATOM     11  H   UNL A   1      34.384  22.228  23.955  1.00  0.00     0.142 HD
BRANCH  10  12
ATOM     12  S   UNL A   1      32.224  22.123  24.385  1.00  0.00     0.241 S 
ATOM     13  O   UNL A   1      31.638  22.436  25.671  1.00  0.00    -0.207 OA
ATOM     14  O   UNL A   1      31.578  22.563  23.166  1.00  0.00    -0.207 OA
BRANCH  12  15
ATOM     15  C   UNL A   1      32.387  20.364  24.314  1.00  0.00     0.085 A 
ATOM     16  C   UNL A   1      32.735  19.595  25.421  1.00  0.00     0.026 A 
ATOM     17  C   UNL A   1      32.300  19.754  23.073  1.00  0.00     0.065 A 
ATOM     18  C   UNL A   1      32.959  18.215  25.263  1.00  0.00     0.051 A 
ATOM     19  C   UNL A   1      32.437  18.380  22.935  1.00  0.00     0.166 A 
ATOM     20  C   UNL A   1      32.813  17.593  24.016  1.00  0.00     0.154 A 
ATOM     21  F   UNL A   1      32.180  17.855  21.731  1.00  0.00    -0.203 F 
BRANCH  20  22
ATOM     22  O   UNL A   1      33.073  16.250  23.986  1.00  0.00    -0.494 OA
ATOM     23  C   UNL A   1      33.121  15.579  25.245  1.00  0.00     0.278 C 
ENDBRANCH  20  22
ENDBRANCH  12  15
ENDBRANCH  10  12
ENDBRANCH   6  10
ENDBRANCH   3   6
ENDBRANCH   1   2
BRANCH   1  24
ATOM     24  C   UNL A   1      37.627  19.854  24.980  1.00  0.00     0.042 C 
BRANCH  24  25
ATOM     25  C   UNL A   1      38.959  20.210  25.665  1.00  0.00     0.118 C 
BRANCH  25  26
ATOM     26  N   UNL A   1      39.955  19.172  25.801  1.00  0.00    -0.352 N 
ATOM     27  C   UNL A   1      41.291  19.350  26.108  1.00  0.00     0.251 C 
ATOM     28  H   UNL A   1      39.653  18.246  25.658  1.00  0.00     0.163 HD
ATOM     29  O   UNL A   1      42.069  18.402  26.080  1.00  0.00    -0.269 OA
BRANCH  27  30
ATOM     30  C   UNL A   1      41.810  20.703  26.434  1.00  0.00     0.039 A 
ATOM     31  C   UNL A   1      42.240  21.537  25.398  1.00  0.00     0.014 A 
ATOM     32  C   UNL A   1      41.935  21.130  27.759  1.00  0.00     0.014 A 
ATOM     33  C   UNL A   1      42.737  22.815  25.690  1.00  0.00     0.010 A 
ATOM     34  C   UNL A   1      42.416  22.411  28.050  1.00  0.00     0.010 A 
ATOM     35  C   UNL A   1      42.809  23.272  27.017  1.00  0.00    -0.014 A 
BRANCH  35  36
ATOM     36  C   UNL A   1      43.198  24.675  27.323  1.00  0.00     0.031 A 
ATOM     37  C   UNL A   1      44.600  25.170  27.106  1.00  0.00     0.074 A 
ATOM     38  C   UNL A   1      42.275  25.501  27.852  1.00  0.00     0.049 A 
ATOM     39  N   UNL A   1      45.092  26.368  27.310  1.00  0.00    -0.248 NA
ATOM     40  C   UNL A   1      45.578  24.197  26.603  1.00  0.00     0.031 C 
ATOM     41  C   UNL A   1      40.894  25.128  28.153  1.00  0.00     0.029 A 
ATOM     42  N   UNL A   1      42.358  26.817  28.238  1.00  0.00    -0.354 N 
ATOM     43  C   UNL A   1      46.431  26.298  26.950  1.00  0.00     0.074 A 
ATOM     44  C   UNL A   1      46.686  24.927  26.553  1.00  0.00     0.031 C 
ATOM     45  C   UNL A   1      40.254  26.191  28.663  1.00  0.00     0.029 A 
ATOM     46  C   UNL A   1      41.184  27.315  28.747  1.00  0.00     0.049 A 
ATOM     47  H   UNL A   1      43.181  27.352  28.159  1.00  0.00     0.167 HD
ATOM     48  C   UNL A   1      47.354  27.290  26.934  1.00  0.00     0.037 A 
ATOM     49  C   UNL A   1      40.885  28.537  29.229  1.00  0.00     0.037 A 
ATOM     50  C   UNL A   1      47.100  28.652  27.333  1.00  0.00     0.049 A 
ATOM     51  C   UNL A   1      41.936  29.612  29.231  1.00  0.00     0.074 A 
ATOM     52  C   UNL A   1      47.961  29.736  27.297  1.00  0.00     0.029 A 
ATOM     53  N   UNL A   1      45.900  29.115  27.855  1.00  0.00    -0.354 N 
ATOM     54  N   UNL A   1      43.174  29.554  28.808  1.00  0.00    -0.248 NA
ATOM     55  C   UNL A   1      41.547  30.925  29.769  1.00  0.00     0.031 C 
ATOM     56  C   UNL A   1      47.300  30.842  27.840  1.00  0.00     0.029 A 
ATOM     57  C   UNL A   1      46.010  30.461  28.170  1.00  0.00     0.049 A 
ATOM     58  H   UNL A   1      45.091  28.569  27.982  1.00  0.00     0.167 HD
ATOM     59  C   UNL A   1      43.707  30.820  29.009  1.00  0.00     0.074 A 
ATOM     60  C   UNL A   1      42.653  31.632  29.582  1.00  0.00     0.031 C 
ATOM     61  C   UNL A   1      44.957  31.264  28.739  1.00  0.00     0.037 A 
BRANCH  48  62
ATOM     62  C   UNL A   1      48.737  26.958  26.455  1.00  0.00     0.064 A 
ATOM     63  C   UNL A   1      49.071  27.064  25.096  1.00  0.00     0.173 A 
ATOM     64  C   UNL A   1      49.704  26.438  27.329  1.00  0.00     0.173 A 
ATOM     65  F   UNL A   1      48.177  27.540  24.216  1.00  0.00    -0.203 F 
ATOM     66  C   UNL A   1      50.317  26.654  24.630  1.00  0.00     0.198 A 
ATOM     67  C   UNL A   1      50.958  26.052  26.863  1.00  0.00     0.198 A 
ATOM     68  F   UNL A   1      49.434  26.314  28.637  1.00  0.00    -0.203 F 
ATOM     69  F   UNL A   1      50.603  26.735  23.323  1.00  0.00    -0.200 F 
ATOM     70  C   UNL A   1      51.261  26.152  25.513  1.00  0.00     0.200 A 
ATOM     71  F   UNL A   1      51.874  25.580  27.720  1.00  0.00    -0.200 F 
ATOM     72  F   UNL A   1      52.462  25.762  25.064  1.00  0.00    -0.200 F 
ENDBRANCH  48  62
BRANCH  49  73
ATOM     73  C   UNL A   1      39.509  28.810  29.714  1.00  0.00     0.064 A 
ATOM     74  C   UNL A   1      38.537  29.375  28.874  1.00  0.00     0.173 A 
ATOM     75  C   UNL A   1      39.152  28.548  31.043  1.00  0.00     0.173 A 
ATOM     76  F   UNL A   1      38.831  29.646  27.594  1.00  0.00    -0.203 F 
ATOM     77  C   UNL A   1      37.267  29.689  29.354  1.00  0.00     0.198 A 
ATOM     78  C   UNL A   1      37.874  28.841  31.516  1.00  0.00     0.198 A 
ATOM     79  F   UNL A   1      40.042  27.989  31.877  1.00  0.00    -0.203 F 
ATOM     80  F   UNL A   1      36.369  30.261  28.541  1.00  0.00    -0.200 F 
ATOM     81  C   UNL A   1      36.937  29.420  30.673  1.00  0.00     0.200 A 
ATOM     82  F   UNL A   1      37.552  28.560  32.785  1.00  0.00    -0.200 F 
ATOM     83  F   UNL A   1      35.714  29.717  31.134  1.00  0.00    -0.200 F 
ENDBRANCH  49  73
BRANCH  61  84
ATOM     84  C   UNL A   1      45.271  32.699  29.044  1.00  0.00     0.064 A 
ATOM     85  C   UNL A   1      45.036  33.697  28.086  1.00  0.00     0.173 A 
ATOM     86  C   UNL A   1      45.886  33.073  30.248  1.00  0.00     0.173 A 
ATOM     87  F   UNL A   1      44.454  33.390  26.918  1.00  0.00    -0.203 F 
ATOM     88  C   UNL A   1      45.424  35.015  28.315  1.00  0.00     0.198 A 
ATOM     89  C   UNL A   1      46.252  34.395  30.482  1.00  0.00     0.198 A 
ATOM     90  F   UNL A   1      46.119  32.156  31.199  1.00  0.00    -0.203 F 
ATOM     91  F   UNL A   1      45.221  35.946  27.373  1.00  0.00    -0.200 F 
ATOM     92  C   UNL A   1      46.031  35.363  29.513  1.00  0.00     0.200 A 
ATOM     93  F   UNL A   1      46.819  34.735  31.648  1.00  0.00    -0.200 F 
ATOM     94  F   UNL A   1      46.403  36.632  29.733  1.00  0.00    -0.200 F 
ENDBRANCH  61  84
ENDBRANCH  35  36
ENDBRANCH  27  30
ENDBRANCH  25  26
ENDBRANCH  24  25
ENDBRANCH   1  24
TORSDOF 15
ENDMDL
MODEL 3
REMARK VINA RESULT:     -12.1      0.191      1.602
REMARK SMILES CC[C@](C)(NS(=O)(=O)c1ccc(OC)c(F)c1)C(=O)NCCCNC(=O)c1ccc(-c2c3nc(c(-c4c(F)c(F)c(F)c(F)c4F)c4ccc([nH]4)c(-c4c(F)c(F)c(F)c(F)c4F)c4nc(c(-c5c(F)c(F)c(F)c(F)c5F)c5ccc2[nH]5)C=C4)C=C3)cc1
REMARK SMILES IDX 21 1 20 2 18 3 19 4 3 6 4 7 2 8 1 9 5 10 6 12 7 13 8 14 9 15
REMARK SMILES IDX 10 16 17 17 11 18 15 19 12 20 16 21 13 22 14 23 22 24 23 25
REMARK SMILES IDX 24 26 25 27 26 29 27 30 28 31 89 32 29 33 88 34 30 35 31 36
REMARK SMILES IDX 32 37 82 38 33 39 87 40 81 41 83 42 34 43 86 44 80 45 79 46
REMARK SMILES IDX 35 48 67 49 47 50 66 51 48 52 51 53 65 54 84 55 49 56 50 57
REMARK SMILES IDX 64 59 85 60 52 61 36 62 37 63 45 64 38 65 39 66 43 67 46 68
REMARK SMILES IDX 40 69 41 70 44 71 42 72 68 73 69 74 77 75 70 76 71 77 75 78
REMARK SMILES IDX 78 79 72 80 73 81 76 82 74 83 53 84 54 85 62 86 55 87 56 88
REMARK SMILES IDX 60 89 63 90 57 91 58 92 61 93 59 94
REMARK H PARENT 20 5 5 11 24 28 83 47 51 58
REMARK Flexibility Score: inf
ROOT
ATOM      1  C   UNL A   1      36.601  20.701  24.910  1.00  0.00     0.117 C 
ENDROOT
BRANCH   1   2
ATOM      2  N   UNL A   1      35.915  21.109  26.126  1.00  0.00    -0.354 N 
ATOM      3  C   UNL A   1      34.959  22.042  26.431  1.00  0.00     0.241 C 
ATOM      4  O   UNL A   1      34.421  21.899  27.537  1.00  0.00    -0.273 OA
ATOM      5  H   UNL A   1      36.206  20.596  26.913  1.00  0.00     0.163 HD
BRANCH   3   6
ATOM      6  C   UNL A   1      34.577  23.256  25.537  1.00  0.00     0.108 C 
ATOM      7  C   UNL A   1      35.825  24.071  25.125  1.00  0.00     0.040 C 
BRANCH   6   8
ATOM      8  C   UNL A   1      33.625  24.240  26.279  1.00  0.00     0.030 C 
ATOM      9  C   UNL A   1      33.589  25.657  25.715  1.00  0.00     0.006 C 
ENDBRANCH   6   8
BRANCH   6  10
ATOM     10  N   UNL A   1      33.841  22.778  24.312  1.00  0.00    -0.196 NA
ATOM     11  H   UNL A   1      34.476  22.129  23.848  1.00  0.00     0.142 HD
BRANCH  10  12
ATOM     12  S   UNL A   1      32.330  21.998  24.336  1.00  0.00     0.241 S 
ATOM     13  O   UNL A   1      31.761  22.315  25.627  1.00  0.00    -0.207 OA
ATOM     14  O   UNL A   1      31.664  22.422  23.123  1.00  0.00    -0.207 OA
BRANCH  12  15
ATOM     15  C   UNL A   1      32.508  20.240  24.275  1.00  0.00     0.085 A 
ATOM     16  C   UNL A   1      32.902  19.485  25.377  1.00  0.00     0.026 A 
ATOM     17  C   UNL A   1      32.383  19.616  23.045  1.00  0.00     0.065 A 
ATOM     18  C   UNL A   1      33.133  18.105  25.225  1.00  0.00     0.051 A 
ATOM     19  C   UNL A   1      32.528  18.243  22.915  1.00  0.00     0.166 A 
ATOM     20  C   UNL A   1      32.949  17.470  23.989  1.00  0.00     0.154 A 
ATOM     21  F   UNL A   1      32.234  17.703  21.726  1.00  0.00    -0.203 F 
BRANCH  20  22
ATOM     22  O   UNL A   1      33.221  16.129  23.962  1.00  0.00    -0.494 OA
ATOM     23  C   UNL A   1      33.285  15.464  25.224  1.00  0.00     0.278 C 
ENDBRANCH  20  22
ENDBRANCH  12  15
ENDBRANCH  10  12
ENDBRANCH   6  10
ENDBRANCH   3   6
ENDBRANCH   1   2
BRANCH   1  24
ATOM     24  C   UNL A   1      37.783  19.724  25.001  1.00  0.00     0.042 C 
BRANCH  24  25
ATOM     25  C   UNL A   1      39.087  20.055  25.751  1.00  0.00     0.118 C 
BRANCH  25  26
ATOM     26  N   UNL A   1      40.086  19.019  25.871  1.00  0.00    -0.352 N 
ATOM     27  C   UNL A   1      41.432  19.201  26.126  1.00  0.00     0.251 C 
ATOM     28  H   UNL A   1      39.778  18.091  25.759  1.00  0.00     0.163 HD
ATOM     29  O   UNL A   1      42.208  18.251  26.088  1.00  0.00    -0.269 OA
BRANCH  27  30
ATOM     30  C   UNL A   1      41.964  20.560  26.404  1.00  0.00     0.039 A 
ATOM     31  C   UNL A   1      42.364  21.368  25.337  1.00  0.00     0.014 A 
ATOM     32  C   UNL A   1      42.130  21.017  27.714  1.00  0.00     0.014 A 
ATOM     33  C   UNL A   1      42.873  22.652  25.583  1.00  0.00     0.010 A 
ATOM     34  C   UNL A   1      42.623  22.303  27.961  1.00  0.00     0.010 A 
ATOM     35  C   UNL A   1      42.986  23.139  26.896  1.00  0.00    -0.014 A 
BRANCH  35  36
ATOM     36  C   UNL A   1      43.388  24.548  27.157  1.00  0.00     0.031 A 
ATOM     37  C   UNL A   1      42.412  25.561  27.684  1.00  0.00     0.074 A 
ATOM     38  C   UNL A   1      44.647  24.926  26.867  1.00  0.00     0.049 A 
ATOM     39  N   UNL A   1      42.612  26.823  27.977  1.00  0.00    -0.248 NA
ATOM     40  C   UNL A   1      41.033  25.105  27.903  1.00  0.00     0.031 C 
ATOM     41  C   UNL A   1      45.675  24.048  26.308  1.00  0.00     0.029 A 
ATOM     42  N   UNL A   1      45.276  26.140  26.990  1.00  0.00    -0.354 N 
ATOM     43  C   UNL A   1      41.392  27.309  28.426  1.00  0.00     0.074 A 
ATOM     44  C   UNL A   1      40.444  26.216  28.328  1.00  0.00     0.031 C 
ATOM     45  C   UNL A   1      46.809  24.748  26.150  1.00  0.00     0.029 A 
ATOM     46  C   UNL A   1      46.585  26.127  26.574  1.00  0.00     0.049 A 
ATOM     47  H   UNL A   1      44.831  26.945  27.343  1.00  0.00     0.167 HD
ATOM     48  C   UNL A   1      41.096  28.547  28.895  1.00  0.00     0.037 A 
ATOM     49  C   UNL A   1      47.502  27.112  26.535  1.00  0.00     0.037 A 
ATOM     50  C   UNL A   1      42.038  29.634  28.988  1.00  0.00     0.049 A 
ATOM     51  C   UNL A   1      47.141  28.485  27.030  1.00  0.00     0.074 A 
ATOM     52  C   UNL A   1      41.841  30.904  29.501  1.00  0.00     0.029 A 
ATOM     53  N   UNL A   1      43.352  29.584  28.544  1.00  0.00    -0.354 N 
ATOM     54  N   UNL A   1      46.007  28.908  27.532  1.00  0.00    -0.248 NA
ATOM     55  C   UNL A   1      48.188  29.516  26.963  1.00  0.00     0.031 C 
ATOM     56  C   UNL A   1      43.018  31.638  29.327  1.00  0.00     0.029 A 
ATOM     57  C   UNL A   1      43.966  30.812  28.747  1.00  0.00     0.049 A 
ATOM     58  H   UNL A   1      43.785  28.795  28.145  1.00  0.00     0.167 HD
ATOM     59  C   UNL A   1      46.206  30.242  27.857  1.00  0.00     0.074 A 
ATOM     60  C   UNL A   1      47.575  30.559  27.506  1.00  0.00     0.031 C 
ATOM     61  C   UNL A   1      45.329  31.120  28.398  1.00  0.00     0.037 A 
BRANCH  48  62
ATOM     62  C   UNL A   1      39.694  28.805  29.365  1.00  0.00     0.064 A 
ATOM     63  C   UNL A   1      38.751  29.403  28.514  1.00  0.00     0.173 A 
ATOM     64  C   UNL A   1      39.313  28.551  30.691  1.00  0.00     0.173 A 
ATOM     65  F   UNL A   1      39.070  29.682  27.241  1.00  0.00    -0.203 F 
ATOM     66  C   UNL A   1      37.483  29.745  28.977  1.00  0.00     0.198 A 
ATOM     67  C   UNL A   1      38.035  28.872  31.143  1.00  0.00     0.198 A 
ATOM     68  F   UNL A   1      40.178  27.983  31.544  1.00  0.00    -0.203 F 
ATOM     69  F   UNL A   1      36.610  30.345  28.156  1.00  0.00    -0.200 F 
ATOM     70  C   UNL A   1      37.125  29.476  30.290  1.00  0.00     0.200 A 
ATOM     71  F   UNL A   1      37.687  28.599  32.408  1.00  0.00    -0.200 F 
ATOM     72  F   UNL A   1      35.902  29.801  30.733  1.00  0.00    -0.200 F 
ENDBRANCH  48  62
BRANCH  49  73
ATOM     73  C   UNL A   1      48.869  26.812  26.039  1.00  0.00     0.064 A 
ATOM     74  C   UNL A   1      49.873  26.345  26.901  1.00  0.00     0.173 A 
ATOM     75  C   UNL A   1      49.208  27.028  24.697  1.00  0.00     0.173 A 
ATOM     76  F   UNL A   1      49.598  26.126  28.195  1.00  0.00    -0.203 F 
ATOM     77  C   UNL A   1      51.171  26.128  26.443  1.00  0.00     0.198 A 
ATOM     78  C   UNL A   1      50.500  26.788  24.234  1.00  0.00     0.198 A 
ATOM     79  F   UNL A   1      48.275  27.454  23.832  1.00  0.00    -0.203 F 
ATOM     80  F   UNL A   1      52.120  25.716  27.293  1.00  0.00    -0.200 F 
ATOM     81  C   UNL A   1      51.482  26.348  25.109  1.00  0.00     0.200 A 
ATOM     82  F   UNL A   1      50.792  26.981  22.941  1.00  0.00    -0.200 F 
ATOM     83  F   UNL A   1      52.728  26.133  24.666  1.00  0.00    -0.200 F 
ENDBRANCH  49  73
BRANCH  61  84
ATOM     84  C   UNL A   1      45.812  32.516  28.664  1.00  0.00     0.064 A 
ATOM     85  C   UNL A   1      45.675  33.514  27.687  1.00  0.00     0.173 A 
ATOM     86  C   UNL A   1      46.490  32.841  29.847  1.00  0.00     0.173 A 
ATOM     87  F   UNL A   1      45.039  33.251  26.536  1.00  0.00    -0.203 F 
ATOM     88  C   UNL A   1      46.217  34.782  27.879  1.00  0.00     0.198 A 
ATOM     89  C   UNL A   1      47.011  34.117  30.045  1.00  0.00     0.198 A 
ATOM     90  F   UNL A   1      46.635  31.924  30.815  1.00  0.00    -0.203 F 
ATOM     91  F   UNL A   1      46.104  35.710  26.918  1.00  0.00    -0.200 F 
ATOM     92  C   UNL A   1      46.884  35.083  29.057  1.00  0.00     0.200 A 
ATOM     93  F   UNL A   1      47.637  34.413  31.192  1.00  0.00    -0.200 F 
ATOM     94  F   UNL A   1      47.404  36.304  29.242  1.00  0.00    -0.200 F 
ENDBRANCH  61  84
ENDBRANCH  35  36
ENDBRANCH  27  30
ENDBRANCH  25  26
ENDBRANCH  24  25
ENDBRANCH   1  24
TORSDOF 15
ENDMDL
