MODEL 1
REMARK VINA RESULT:     -13.2      0.000      0.000
REMARK SMILES O=C(COc1cc(-c2ccncc2)nc(N2CCN(c3ccccc3F)CC2)n1)NCCCNC(=O)c1ccc(-c2c3nc(c(-c4c(F)c(F)c(F)c(F)c4F)c4ccc([nH]4)c(-c4c(F)c(F)c(F)c(F)c4F)c4nc(c(-c5c(F)c(F)c(F)c(F)c5F)c5ccc2[nH]5)C=C4)C=C3)cc1
REMARK SMILES IDX 31 1 30 2 1 3 2 4 3 6 4 7 5 8 6 9 29 10 7 11 15 12 14 13
REMARK SMILES IDX 8 14 9 15 13 16 10 17 12 18 11 19 16 20 17 21 28 22 18 23
REMARK SMILES IDX 27 24 19 25 20 26 21 27 25 28 22 29 24 30 26 31 23 32 32 33
REMARK SMILES IDX 33 34 34 35 35 36 36 38 37 39 38 40 99 41 39 42 98 43 40 44
REMARK SMILES IDX 41 45 42 46 92 47 43 48 97 49 91 50 93 51 44 52 96 53 90 54
REMARK SMILES IDX 89 55 45 57 77 58 57 59 76 60 58 61 61 62 75 63 94 64 59 65
REMARK SMILES IDX 60 66 74 68 95 69 62 70 46 71 47 72 55 73 48 74 49 75 53 76
REMARK SMILES IDX 56 77 50 78 51 79 54 80 52 81 78 82 79 83 87 84 80 85 81 86
REMARK SMILES IDX 85 87 88 88 82 89 83 90 86 91 84 92 63 93 64 94 72 95 65 96
REMARK SMILES IDX 66 97 70 98 73 99 67 100 68 101 71 102 69 103
REMARK H PARENT 30 5 34 37 93 56 61 67
REMARK Flexibility Score: inf
ROOT
ATOM      1  C   UNL A   1      33.934  33.488  28.696  1.00  0.00     0.117 C 
ENDROOT
BRANCH   1   2
ATOM      2  N   UNL A   1      33.676  32.405  27.768  1.00  0.00    -0.353 N 
ATOM      3  O   UNL A   1      35.707  31.360  28.035  1.00  0.00    -0.271 OA
ATOM      4  C   UNL A   1      34.554  31.346  27.614  1.00  0.00     0.258 C 
ATOM      5  H   UNL A   1      32.852  32.422  27.229  1.00  0.00     0.163 HD
BRANCH   4   6
ATOM      6  C   UNL A   1      33.947  30.126  26.911  1.00  0.00     0.331 C 
BRANCH   6   7
ATOM      7  O   UNL A   1      32.612  29.828  27.315  1.00  0.00    -0.467 OA
BRANCH   7   8
ATOM      8  C   UNL A   1      31.861  29.287  26.296  1.00  0.00     0.219 A 
ATOM      9  C   UNL A   1      31.170  30.099  25.438  1.00  0.00     0.097 A 
ATOM     10  N   UNL A   1      31.987  27.967  26.119  1.00  0.00    -0.177 NA
ATOM     11  C   UNL A   1      30.566  29.480  24.372  1.00  0.00     0.080 A 
ATOM     12  C   UNL A   1      31.433  27.449  25.011  1.00  0.00     0.229 A 
ATOM     13  N   UNL A   1      30.708  28.166  24.134  1.00  0.00    -0.213 NA
BRANCH  11  14
ATOM     14  C   UNL A   1      29.696  30.245  23.474  1.00  0.00     0.004 A 
ATOM     15  C   UNL A   1      29.503  29.858  22.141  1.00  0.00     0.030 A 
ATOM     16  C   UNL A   1      29.122  31.448  23.897  1.00  0.00     0.030 A 
ATOM     17  C   UNL A   1      28.778  30.687  21.301  1.00  0.00     0.111 A 
ATOM     18  C   UNL A   1      28.421  32.214  22.979  1.00  0.00     0.111 A 
ATOM     19  N   UNL A   1      28.244  31.862  21.688  1.00  0.00    -0.265 NA
ENDBRANCH  11  14
BRANCH  12  20
ATOM     20  N   UNL A   1      31.660  26.136  24.732  1.00  0.00    -0.337 N 
ATOM     21  C   UNL A   1      32.774  25.721  23.889  1.00  0.00     0.141 C 
ATOM     22  C   UNL A   1      30.884  25.090  25.392  1.00  0.00     0.141 C 
ATOM     23  C   UNL A   1      33.712  24.762  24.675  1.00  0.00     0.138 C 
ATOM     24  C   UNL A   1      31.799  24.116  26.154  1.00  0.00     0.138 C 
ATOM     25  N   UNL A   1      32.942  23.693  25.331  1.00  0.00    -0.366 N 
BRANCH  25  26
ATOM     26  C   UNL A   1      33.184  22.362  25.065  1.00  0.00     0.073 A 
ATOM     27  C   UNL A   1      32.239  21.599  24.364  1.00  0.00     0.029 A 
ATOM     28  C   UNL A   1      34.367  21.708  25.456  1.00  0.00     0.146 A 
ATOM     29  C   UNL A   1      32.471  20.253  24.053  1.00  0.00     0.002 A 
ATOM     30  C   UNL A   1      34.598  20.362  25.172  1.00  0.00     0.041 A 
ATOM     31  F   UNL A   1      35.303  22.375  26.153  1.00  0.00    -0.205 F 
ATOM     32  C   UNL A   1      33.649  19.632  24.462  1.00  0.00     0.003 A 
ENDBRANCH  25  26
ENDBRANCH  12  20
ENDBRANCH   7   8
ENDBRANCH   6   7
ENDBRANCH   4   6
ENDBRANCH   1   2
BRANCH   1  33
ATOM     33  C   UNL A   1      33.001  34.676  28.533  1.00  0.00     0.042 C 
BRANCH  33  34
ATOM     34  C   UNL A   1      33.352  35.884  29.394  1.00  0.00     0.118 C 
BRANCH  34  35
ATOM     35  N   UNL A   1      32.500  36.032  30.567  1.00  0.00    -0.352 N 
ATOM     36  C   UNL A   1      32.681  35.615  31.860  1.00  0.00     0.251 C 
ATOM     37  H   UNL A   1      31.656  36.511  30.403  1.00  0.00     0.163 HD
ATOM     38  O   UNL A   1      31.763  35.769  32.669  1.00  0.00    -0.269 OA
BRANCH  36  39
ATOM     39  C   UNL A   1      33.934  34.959  32.301  1.00  0.00     0.039 A 
ATOM     40  C   UNL A   1      33.863  33.646  32.779  1.00  0.00     0.014 A 
ATOM     41  C   UNL A   1      35.165  35.620  32.286  1.00  0.00     0.014 A 
ATOM     42  C   UNL A   1      35.025  32.981  33.178  1.00  0.00     0.010 A 
ATOM     43  C   UNL A   1      36.335  34.933  32.614  1.00  0.00     0.010 A 
ATOM     44  C   UNL A   1      36.277  33.605  33.065  1.00  0.00    -0.014 A 
BRANCH  44  45
ATOM     45  C   UNL A   1      37.526  32.876  33.406  1.00  0.00     0.031 A 
ATOM     46  C   UNL A   1      38.259  33.164  34.686  1.00  0.00     0.074 A 
ATOM     47  C   UNL A   1      38.023  31.973  32.538  1.00  0.00     0.049 A 
ATOM     48  N   UNL A   1      39.371  32.639  35.137  1.00  0.00    -0.248 NA
ATOM     49  C   UNL A   1      37.681  34.190  35.567  1.00  0.00     0.031 C 
ATOM     50  C   UNL A   1      37.434  31.636  31.241  1.00  0.00     0.029 A 
ATOM     51  N   UNL A   1      39.135  31.170  32.616  1.00  0.00    -0.354 N 
ATOM     52  C   UNL A   1      39.629  33.276  36.343  1.00  0.00     0.074 A 
ATOM     53  C   UNL A   1      38.586  34.261  36.533  1.00  0.00     0.031 C 
ATOM     54  C   UNL A   1      38.168  30.673  30.662  1.00  0.00     0.029 A 
ATOM     55  C   UNL A   1      39.296  30.347  31.529  1.00  0.00     0.049 A 
ATOM     56  H   UNL A   1      39.757  31.185  33.379  1.00  0.00     0.167 HD
ATOM     57  C   UNL A   1      40.630  33.042  37.226  1.00  0.00     0.037 A 
ATOM     58  C   UNL A   1      40.242  29.425  31.263  1.00  0.00     0.037 A 
ATOM     59  C   UNL A   1      41.651  32.042  37.053  1.00  0.00     0.049 A 
ATOM     60  C   UNL A   1      41.337  29.178  32.264  1.00  0.00     0.074 A 
ATOM     61  C   UNL A   1      42.674  31.697  37.920  1.00  0.00     0.029 A 
ATOM     62  N   UNL A   1      41.776  31.222  35.941  1.00  0.00    -0.354 N 
ATOM     63  N   UNL A   1      41.538  29.750  33.425  1.00  0.00    -0.248 NA
ATOM     64  C   UNL A   1      42.332  28.153  31.919  1.00  0.00     0.031 C 
ATOM     65  C   UNL A   1      43.441  30.695  37.317  1.00  0.00     0.029 A 
ATOM     66  C   UNL A   1      42.870  30.384  36.095  1.00  0.00     0.049 A 
ATOM     67  H   UNL A   1      41.178  31.234  35.160  1.00  0.00     0.167 HD
ATOM     68  C   UNL A   1      42.667  29.144  33.958  1.00  0.00     0.074 A 
ATOM     69  C   UNL A   1      43.099  28.148  33.000  1.00  0.00     0.031 C 
ATOM     70  C   UNL A   1      43.289  29.395  35.135  1.00  0.00     0.037 A 
BRANCH  57  71
ATOM     71  C   UNL A   1      40.667  33.870  38.476  1.00  0.00     0.064 A 
ATOM     72  C   UNL A   1      39.860  33.540  39.575  1.00  0.00     0.173 A 
ATOM     73  C   UNL A   1      41.449  35.031  38.559  1.00  0.00     0.173 A 
ATOM     74  F   UNL A   1      39.089  32.444  39.543  1.00  0.00    -0.203 F 
ATOM     75  C   UNL A   1      39.827  34.350  40.708  1.00  0.00     0.198 A 
ATOM     76  C   UNL A   1      41.435  35.824  39.704  1.00  0.00     0.198 A 
ATOM     77  F   UNL A   1      42.246  35.383  37.539  1.00  0.00    -0.203 F 
ATOM     78  F   UNL A   1      39.027  34.032  41.735  1.00  0.00    -0.200 F 
ATOM     79  C   UNL A   1      40.617  35.488  40.772  1.00  0.00     0.200 A 
ATOM     80  F   UNL A   1      42.215  36.911  39.774  1.00  0.00    -0.200 F 
ATOM     81  F   UNL A   1      40.592  36.262  41.867  1.00  0.00    -0.200 F 
ENDBRANCH  57  71
BRANCH  58  82
ATOM     82  C   UNL A   1      40.162  28.636  30.008  1.00  0.00     0.064 A 
ATOM     83  C   UNL A   1      39.519  27.391  29.965  1.00  0.00     0.173 A 
ATOM     84  C   UNL A   1      40.759  29.106  28.830  1.00  0.00     0.173 A 
ATOM     85  F   UNL A   1      38.938  26.897  31.067  1.00  0.00    -0.203 F 
ATOM     86  C   UNL A   1      39.490  26.638  28.793  1.00  0.00     0.198 A 
ATOM     87  C   UNL A   1      40.708  28.363  27.652  1.00  0.00     0.198 A 
ATOM     88  F   UNL A   1      41.367  30.300  28.818  1.00  0.00    -0.203 F 
ATOM     89  F   UNL A   1      38.894  25.438  28.785  1.00  0.00    -0.200 F 
ATOM     90  C   UNL A   1      40.081  27.126  27.637  1.00  0.00     0.200 A 
ATOM     91  F   UNL A   1      41.259  28.848  26.532  1.00  0.00    -0.200 F 
ATOM     92  F   UNL A   1      40.042  26.406  26.507  1.00  0.00    -0.200 F 
ENDBRANCH  58  82
BRANCH  70  93
ATOM     93  C   UNL A   1      44.496  28.571  35.471  1.00  0.00     0.064 A 
ATOM     94  C   UNL A   1      45.772  28.969  35.044  1.00  0.00     0.173 A 
ATOM     95  C   UNL A   1      44.383  27.353  36.158  1.00  0.00     0.173 A 
ATOM     96  F   UNL A   1      45.932  30.122  34.377  1.00  0.00    -0.203 F 
ATOM     97  C   UNL A   1      46.889  28.173  35.283  1.00  0.00     0.198 A 
ATOM     98  C   UNL A   1      45.506  26.572  36.419  1.00  0.00     0.198 A 
ATOM     99  F   UNL A   1      43.187  26.936  36.598  1.00  0.00    -0.203 F 
ATOM    100  F   UNL A   1      48.093  28.560  34.841  1.00  0.00    -0.200 F 
ATOM    101  C   UNL A   1      46.755  26.978  35.973  1.00  0.00     0.200 A 
ATOM    102  F   UNL A   1      45.379  25.428  37.105  1.00  0.00    -0.200 F 
ATOM    103  F   UNL A   1      47.833  26.219  36.214  1.00  0.00    -0.200 F 
ENDBRANCH  70  93
ENDBRANCH  44  45
ENDBRANCH  36  39
ENDBRANCH  34  35
ENDBRANCH  33  34
ENDBRANCH   1  33
TORSDOF 15
ENDMDL
MODEL 2
REMARK VINA RESULT:     -13.1      0.416      1.239
REMARK SMILES O=C(COc1cc(-c2ccncc2)nc(N2CCN(c3ccccc3F)CC2)n1)NCCCNC(=O)c1ccc(-c2c3nc(c(-c4c(F)c(F)c(F)c(F)c4F)c4ccc([nH]4)c(-c4c(F)c(F)c(F)c(F)c4F)c4nc(c(-c5c(F)c(F)c(F)c(F)c5F)c5ccc2[nH]5)C=C4)C=C3)cc1
REMARK SMILES IDX 31 1 30 2 1 3 2 4 3 6 4 7 5 8 6 9 29 10 7 11 15 12 14 13
REMARK SMILES IDX 8 14 9 15 13 16 10 17 12 18 11 19 16 20 17 21 28 22 18 23
REMARK SMILES IDX 27 24 19 25 20 26 21 27 25 28 22 29 24 30 26 31 23 32 32 33
REMARK SMILES IDX 33 34 34 35 35 36 36 38 37 39 38 40 99 41 39 42 98 43 40 44
REMARK SMILES IDX 41 45 42 46 92 47 43 48 97 49 91 50 93 51 44 52 96 53 90 54
REMARK SMILES IDX 89 55 45 57 77 58 57 59 76 60 58 61 61 62 75 63 94 64 59 65
REMARK SMILES IDX 60 66 74 68 95 69 62 70 46 71 47 72 55 73 48 74 49 75 53 76
REMARK SMILES IDX 56 77 50 78 51 79 54 80 52 81 78 82 79 83 87 84 80 85 81 86
REMARK SMILES IDX 85 87 88 88 82 89 83 90 86 91 84 92 63 93 64 94 72 95 65 96
REMARK SMILES IDX 66 97 70 98 73 99 67 100 68 101 71 102 69 103
REMARK H PARENT 30 5 34 37 93 56 61 67
REMARK Flexibility Score: inf
ROOT
ATOM      1  C   UNL A   1      34.061  33.547  28.710  1.00  0.00     0.117 C 
ENDROOT
BRANCH   1   2
ATOM      2  N   UNL A   1      33.928  32.557  27.660  1.00  0.00    -0.353 N 
ATOM      3  O   UNL A   1      35.193  30.934  28.686  1.00  0.00    -0.271 OA
ATOM      4  C   UNL A   1      34.410  31.267  27.802  1.00  0.00     0.258 C 
ATOM      5  H   UNL A   1      33.483  32.809  26.818  1.00  0.00     0.163 HD
BRANCH   4   6
ATOM      6  C   UNL A   1      33.841  30.270  26.785  1.00  0.00     0.331 C 
BRANCH   6   7
ATOM      7  O   UNL A   1      32.740  29.506  27.276  1.00  0.00    -0.467 OA
BRANCH   7   8
ATOM      8  C   UNL A   1      31.921  29.054  26.266  1.00  0.00     0.219 A 
ATOM      9  C   UNL A   1      31.319  29.939  25.413  1.00  0.00     0.097 A 
ATOM     10  N   UNL A   1      31.893  27.728  26.090  1.00  0.00    -0.177 NA
ATOM     11  C   UNL A   1      30.636  29.393  24.355  1.00  0.00     0.080 A 
ATOM     12  C   UNL A   1      31.271  27.276  24.989  1.00  0.00     0.229 A 
ATOM     13  N   UNL A   1      30.624  28.070  24.118  1.00  0.00    -0.213 NA
BRANCH  11  14
ATOM     14  C   UNL A   1      29.851  30.252  23.464  1.00  0.00     0.004 A 
ATOM     15  C   UNL A   1      29.161  31.371  23.950  1.00  0.00     0.030 A 
ATOM     16  C   UNL A   1      29.682  29.912  22.118  1.00  0.00     0.030 A 
ATOM     17  C   UNL A   1      28.330  32.071  23.092  1.00  0.00     0.111 A 
ATOM     18  C   UNL A   1      28.822  30.670  21.340  1.00  0.00     0.111 A 
ATOM     19  N   UNL A   1      28.137  31.737  21.801  1.00  0.00    -0.265 NA
ENDBRANCH  11  14
BRANCH  12  20
ATOM     20  N   UNL A   1      31.343  25.945  24.710  1.00  0.00    -0.337 N 
ATOM     21  C   UNL A   1      32.264  25.429  23.707  1.00  0.00     0.141 C 
ATOM     22  C   UNL A   1      30.607  24.976  25.516  1.00  0.00     0.141 C 
ATOM     23  C   UNL A   1      33.240  24.405  24.352  1.00  0.00     0.138 C 
ATOM     24  C   UNL A   1      31.555  23.938  26.142  1.00  0.00     0.138 C 
ATOM     25  N   UNL A   1      32.507  23.411  25.153  1.00  0.00    -0.366 N 
BRANCH  25  26
ATOM     26  C   UNL A   1      32.594  22.062  24.886  1.00  0.00     0.073 A 
ATOM     27  C   UNL A   1      32.255  21.570  23.617  1.00  0.00     0.029 A 
ATOM     28  C   UNL A   1      33.031  21.122  25.837  1.00  0.00     0.146 A 
ATOM     29  C   UNL A   1      32.363  20.208  23.308  1.00  0.00     0.002 A 
ATOM     30  C   UNL A   1      33.121  19.761  25.546  1.00  0.00     0.041 A 
ATOM     31  F   UNL A   1      33.349  21.523  27.080  1.00  0.00    -0.205 F 
ATOM     32  C   UNL A   1      32.791  19.302  24.274  1.00  0.00     0.003 A 
ENDBRANCH  25  26
ENDBRANCH  12  20
ENDBRANCH   7   8
ENDBRANCH   6   7
ENDBRANCH   4   6
ENDBRANCH   1   2
BRANCH   1  33
ATOM     33  C   UNL A   1      32.971  34.605  28.703  1.00  0.00     0.042 C 
BRANCH  33  34
ATOM     34  C   UNL A   1      33.302  35.867  29.491  1.00  0.00     0.118 C 
BRANCH  34  35
ATOM     35  N   UNL A   1      32.474  36.051  30.675  1.00  0.00    -0.352 N 
ATOM     36  C   UNL A   1      32.674  35.661  31.975  1.00  0.00     0.251 C 
ATOM     37  H   UNL A   1      31.632  36.535  30.516  1.00  0.00     0.163 HD
ATOM     38  O   UNL A   1      31.771  35.844  32.796  1.00  0.00    -0.269 OA
BRANCH  36  39
ATOM     39  C   UNL A   1      33.928  35.003  32.408  1.00  0.00     0.039 A 
ATOM     40  C   UNL A   1      33.854  33.698  32.905  1.00  0.00     0.014 A 
ATOM     41  C   UNL A   1      35.163  35.656  32.369  1.00  0.00     0.014 A 
ATOM     42  C   UNL A   1      35.017  33.030  33.299  1.00  0.00     0.010 A 
ATOM     43  C   UNL A   1      36.332  34.965  32.691  1.00  0.00     0.010 A 
ATOM     44  C   UNL A   1      36.271  33.644  33.161  1.00  0.00    -0.014 A 
BRANCH  44  45
ATOM     45  C   UNL A   1      37.520  32.910  33.496  1.00  0.00     0.031 A 
ATOM     46  C   UNL A   1      38.259  33.195  34.773  1.00  0.00     0.074 A 
ATOM     47  C   UNL A   1      38.011  32.008  32.625  1.00  0.00     0.049 A 
ATOM     48  N   UNL A   1      39.371  32.667  35.219  1.00  0.00    -0.248 NA
ATOM     49  C   UNL A   1      37.687  34.221  35.658  1.00  0.00     0.031 C 
ATOM     50  C   UNL A   1      37.416  31.675  31.329  1.00  0.00     0.029 A 
ATOM     51  N   UNL A   1      39.121  31.202  32.698  1.00  0.00    -0.354 N 
ATOM     52  C   UNL A   1      39.635  33.301  36.425  1.00  0.00     0.074 A 
ATOM     53  C   UNL A   1      38.596  34.288  36.621  1.00  0.00     0.031 C 
ATOM     54  C   UNL A   1      38.145  30.710  30.747  1.00  0.00     0.029 A 
ATOM     55  C   UNL A   1      39.275  30.379  31.608  1.00  0.00     0.049 A 
ATOM     56  H   UNL A   1      39.746  31.214  33.458  1.00  0.00     0.167 HD
ATOM     57  C   UNL A   1      40.639  33.064  37.304  1.00  0.00     0.037 A 
ATOM     58  C   UNL A   1      40.217  29.456  31.338  1.00  0.00     0.037 A 
ATOM     59  C   UNL A   1      41.656  32.060  37.125  1.00  0.00     0.049 A 
ATOM     60  C   UNL A   1      41.316  29.204  32.334  1.00  0.00     0.074 A 
ATOM     61  C   UNL A   1      42.682  31.712  37.988  1.00  0.00     0.029 A 
ATOM     62  N   UNL A   1      41.775  31.242  36.012  1.00  0.00    -0.354 N 
ATOM     63  N   UNL A   1      41.523  29.774  33.495  1.00  0.00    -0.248 NA
ATOM     64  C   UNL A   1      42.307  28.177  31.983  1.00  0.00     0.031 C 
ATOM     65  C   UNL A   1      43.444  30.709  37.381  1.00  0.00     0.029 A 
ATOM     66  C   UNL A   1      42.867  30.401  36.160  1.00  0.00     0.049 A 
ATOM     67  H   UNL A   1      41.174  31.257  35.233  1.00  0.00     0.167 HD
ATOM     68  C   UNL A   1      42.652  29.164  34.023  1.00  0.00     0.074 A 
ATOM     69  C   UNL A   1      43.078  28.168  33.061  1.00  0.00     0.031 C 
ATOM     70  C   UNL A   1      43.280  29.412  35.198  1.00  0.00     0.037 A 
BRANCH  57  71
ATOM     71  C   UNL A   1      40.683  33.890  38.554  1.00  0.00     0.064 A 
ATOM     72  C   UNL A   1      39.897  33.547  39.665  1.00  0.00     0.173 A 
ATOM     73  C   UNL A   1      41.451  35.061  38.629  1.00  0.00     0.173 A 
ATOM     74  F   UNL A   1      39.141  32.440  39.643  1.00  0.00    -0.203 F 
ATOM     75  C   UNL A   1      39.870  34.354  40.800  1.00  0.00     0.198 A 
ATOM     76  C   UNL A   1      41.442  35.852  39.775  1.00  0.00     0.198 A 
ATOM     77  F   UNL A   1      42.227  35.426  37.598  1.00  0.00    -0.203 F 
ATOM     78  F   UNL A   1      39.090  34.023  41.838  1.00  0.00    -0.200 F 
ATOM     79  C   UNL A   1      40.646  35.503  40.855  1.00  0.00     0.200 A 
ATOM     80  F   UNL A   1      42.209  36.949  39.836  1.00  0.00    -0.200 F 
ATOM     81  F   UNL A   1      40.626  36.273  41.952  1.00  0.00    -0.200 F 
ENDBRANCH  57  71
BRANCH  58  82
ATOM     82  C   UNL A   1      40.131  28.668  30.082  1.00  0.00     0.064 A 
ATOM     83  C   UNL A   1      39.465  27.435  30.034  1.00  0.00     0.173 A 
ATOM     84  C   UNL A   1      40.742  29.128  28.907  1.00  0.00     0.173 A 
ATOM     85  F   UNL A   1      38.868  26.952  31.133  1.00  0.00    -0.203 F 
ATOM     86  C   UNL A   1      39.429  26.684  28.862  1.00  0.00     0.198 A 
ATOM     87  C   UNL A   1      40.685  28.386  27.729  1.00  0.00     0.198 A 
ATOM     88  F   UNL A   1      41.373  30.311  28.899  1.00  0.00    -0.203 F 
ATOM     89  F   UNL A   1      38.811  25.495  28.850  1.00  0.00    -0.200 F 
ATOM     90  C   UNL A   1      40.035  27.161  27.709  1.00  0.00     0.200 A 
ATOM     91  F   UNL A   1      41.251  28.862  26.612  1.00  0.00    -0.200 F 
ATOM     92  F   UNL A   1      39.990  26.442  26.579  1.00  0.00    -0.200 F 
ENDBRANCH  58  82
BRANCH  70  93
ATOM     93  C   UNL A   1      44.486  28.584  35.527  1.00  0.00     0.064 A 
ATOM     94  C   UNL A   1      44.354  27.390  36.254  1.00  0.00     0.173 A 
ATOM     95  C   UNL A   1      45.779  29.004  35.182  1.00  0.00     0.173 A 
ATOM     96  F   UNL A   1      43.139  26.949  36.614  1.00  0.00    -0.203 F 
ATOM     97  C   UNL A   1      45.473  26.654  36.631  1.00  0.00     0.198 A 
ATOM     98  C   UNL A   1      46.895  28.251  35.539  1.00  0.00     0.198 A 
ATOM     99  F   UNL A   1      45.956  30.131  34.477  1.00  0.00    -0.203 F 
ATOM    100  F   UNL A   1      45.324  25.532  37.349  1.00  0.00    -0.200 F 
ATOM    101  C   UNL A   1      46.741  27.082  36.270  1.00  0.00     0.200 A 
ATOM    102  F   UNL A   1      48.118  28.655  35.170  1.00  0.00    -0.200 F 
ATOM    103  F   UNL A   1      47.817  26.366  36.624  1.00  0.00    -0.200 F 
ENDBRANCH  70  93
ENDBRANCH  44  45
ENDBRANCH  36  39
ENDBRANCH  34  35
ENDBRANCH  33  34
ENDBRANCH   1  33
TORSDOF 15
ENDMDL
MODEL 3
REMARK VINA RESULT:     -13.1      3.591      9.575
REMARK SMILES O=C(COc1cc(-c2ccncc2)nc(N2CCN(c3ccccc3F)CC2)n1)NCCCNC(=O)c1ccc(-c2c3nc(c(-c4c(F)c(F)c(F)c(F)c4F)c4ccc([nH]4)c(-c4c(F)c(F)c(F)c(F)c4F)c4nc(c(-c5c(F)c(F)c(F)c(F)c5F)c5ccc2[nH]5)C=C4)C=C3)cc1
REMARK SMILES IDX 31 1 30 2 1 3 2 4 3 6 4 7 5 8 6 9 29 10 7 11 15 12 14 13
REMARK SMILES IDX 8 14 9 15 13 16 10 17 12 18 11 19 16 20 17 21 28 22 18 23
REMARK SMILES IDX 27 24 19 25 20 26 21 27 25 28 22 29 24 30 26 31 23 32 32 33
REMARK SMILES IDX 33 34 34 35 35 36 36 38 37 39 38 40 99 41 39 42 98 43 40 44
REMARK SMILES IDX 41 45 42 46 92 47 43 48 97 49 91 50 93 51 44 52 96 53 90 54
REMARK SMILES IDX 89 55 45 57 77 58 57 59 76 60 58 61 61 62 75 63 94 64 59 65
REMARK SMILES IDX 60 66 74 68 95 69 62 70 46 71 47 72 55 73 48 74 49 75 53 76
REMARK SMILES IDX 56 77 50 78 51 79 54 80 52 81 78 82 79 83 87 84 80 85 81 86
REMARK SMILES IDX 85 87 88 88 82 89 83 90 86 91 84 92 63 93 64 94 72 95 65 96
REMARK SMILES IDX 66 97 70 98 73 99 67 100 68 101 71 102 69 103
REMARK H PARENT 30 5 34 37 93 56 61 67
REMARK Flexibility Score: inf
ROOT
ATOM      1  C   UNL A   1      41.959  21.299  26.935  1.00  0.00     0.117 C 
ENDROOT
BRANCH   1   2
ATOM      2  N   UNL A   1      40.608  20.936  26.552  1.00  0.00    -0.353 N 
ATOM      3  O   UNL A   1      39.663  22.984  26.995  1.00  0.00    -0.271 OA
ATOM      4  C   UNL A   1      39.586  21.867  26.494  1.00  0.00     0.258 C 
ATOM      5  H   UNL A   1      40.412  19.997  26.327  1.00  0.00     0.163 HD
BRANCH   4   6
ATOM      6  C   UNL A   1      38.358  21.400  25.704  1.00  0.00     0.331 C 
BRANCH   6   7
ATOM      7  O   UNL A   1      37.537  22.465  25.225  1.00  0.00    -0.467 OA
BRANCH   7   8
ATOM      8  C   UNL A   1      36.284  22.036  24.851  1.00  0.00     0.219 A 
ATOM      9  C   UNL A   1      35.920  20.727  25.017  1.00  0.00     0.097 A 
ATOM     10  N   UNL A   1      35.428  22.996  24.479  1.00  0.00    -0.177 NA
ATOM     11  C   UNL A   1      34.609  20.423  24.748  1.00  0.00     0.080 A 
ATOM     12  C   UNL A   1      34.146  22.633  24.310  1.00  0.00     0.229 A 
ATOM     13  N   UNL A   1      33.709  21.365  24.418  1.00  0.00    -0.213 NA
BRANCH  11  14
ATOM     14  C   UNL A   1      34.158  19.029  24.771  1.00  0.00     0.004 A 
ATOM     15  C   UNL A   1      32.889  18.680  25.254  1.00  0.00     0.030 A 
ATOM     16  C   UNL A   1      35.028  17.996  24.410  1.00  0.00     0.030 A 
ATOM     17  C   UNL A   1      32.563  17.340  25.376  1.00  0.00     0.111 A 
ATOM     18  C   UNL A   1      34.614  16.684  24.576  1.00  0.00     0.111 A 
ATOM     19  N   UNL A   1      33.403  16.335  25.059  1.00  0.00    -0.265 NA
ENDBRANCH  11  14
BRANCH  12  20
ATOM     20  N   UNL A   1      33.229  23.608  24.066  1.00  0.00    -0.337 N 
ATOM     21  C   UNL A   1      32.262  24.010  25.078  1.00  0.00     0.141 C 
ATOM     22  C   UNL A   1      33.282  24.388  22.833  1.00  0.00     0.141 C 
ATOM     23  C   UNL A   1      32.420  25.523  25.399  1.00  0.00     0.138 C 
ATOM     24  C   UNL A   1      33.412  25.892  23.131  1.00  0.00     0.138 C 
ATOM     25  N   UNL A   1      32.457  26.322  24.163  1.00  0.00    -0.366 N 
BRANCH  25  26
ATOM     26  C   UNL A   1      31.541  27.324  23.923  1.00  0.00     0.073 A 
ATOM     27  C   UNL A   1      30.315  27.028  23.309  1.00  0.00     0.029 A 
ATOM     28  C   UNL A   1      31.765  28.665  24.283  1.00  0.00     0.146 A 
ATOM     29  C   UNL A   1      29.353  28.019  23.080  1.00  0.00     0.002 A 
ATOM     30  C   UNL A   1      30.823  29.665  24.039  1.00  0.00     0.041 A 
ATOM     31  F   UNL A   1      32.929  29.022  24.853  1.00  0.00    -0.205 F 
ATOM     32  C   UNL A   1      29.609  29.340  23.440  1.00  0.00     0.003 A 
ENDBRANCH  25  26
ENDBRANCH  12  20
ENDBRANCH   7   8
ENDBRANCH   6   7
ENDBRANCH   4   6
ENDBRANCH   1   2
BRANCH   1  33
ATOM     33  C   UNL A   1      42.898  21.514  25.760  1.00  0.00     0.042 C 
BRANCH  33  34
ATOM     34  C   UNL A   1      42.717  22.842  25.035  1.00  0.00     0.118 C 
BRANCH  34  35
ATOM     35  N   UNL A   1      43.973  23.486  24.675  1.00  0.00    -0.352 N 
ATOM     36  C   UNL A   1      44.536  24.656  25.117  1.00  0.00     0.251 C 
ATOM     37  H   UNL A   1      44.506  23.001  24.005  1.00  0.00     0.163 HD
ATOM     38  O   UNL A   1      45.576  25.055  24.585  1.00  0.00    -0.269 OA
BRANCH  36  39
ATOM     39  C   UNL A   1      43.914  25.465  26.190  1.00  0.00     0.039 A 
ATOM     40  C   UNL A   1      43.056  24.823  27.090  1.00  0.00     0.014 A 
ATOM     41  C   UNL A   1      44.128  26.840  26.305  1.00  0.00     0.014 A 
ATOM     42  C   UNL A   1      42.470  25.543  28.135  1.00  0.00     0.010 A 
ATOM     43  C   UNL A   1      43.603  27.544  27.391  1.00  0.00     0.010 A 
ATOM     44  C   UNL A   1      42.767  26.903  28.317  1.00  0.00    -0.014 A 
BRANCH  44  45
ATOM     45  C   UNL A   1      42.216  27.655  29.474  1.00  0.00     0.031 A 
ATOM     46  C   UNL A   1      42.897  27.610  30.814  1.00  0.00     0.074 A 
ATOM     47  C   UNL A   1      41.074  28.355  29.326  1.00  0.00     0.049 A 
ATOM     48  N   UNL A   1      42.548  28.186  31.937  1.00  0.00    -0.248 NA
ATOM     49  C   UNL A   1      44.116  26.795  30.913  1.00  0.00     0.031 C 
ATOM     50  C   UNL A   1      40.291  28.440  28.093  1.00  0.00     0.029 A 
ATOM     51  N   UNL A   1      40.374  29.129  30.219  1.00  0.00    -0.354 N 
ATOM     52  C   UNL A   1      43.496  27.797  32.873  1.00  0.00     0.074 A 
ATOM     53  C   UNL A   1      44.408  26.896  32.202  1.00  0.00     0.031 C 
ATOM     54  C   UNL A   1      39.241  29.250  28.295  1.00  0.00     0.029 A 
ATOM     55  C   UNL A   1      39.256  29.715  29.679  1.00  0.00     0.049 A 
ATOM     56  H   UNL A   1      40.648  29.252  31.156  1.00  0.00     0.167 HD
ATOM     57  C   UNL A   1      43.612  28.177  34.168  1.00  0.00     0.037 A 
ATOM     58  C   UNL A   1      38.348  30.542  30.233  1.00  0.00     0.037 A 
ATOM     59  C   UNL A   1      42.724  29.098  34.829  1.00  0.00     0.049 A 
ATOM     60  C   UNL A   1      38.504  30.957  31.670  1.00  0.00     0.074 A 
ATOM     61  C   UNL A   1      42.795  29.583  36.124  1.00  0.00     0.029 A 
ATOM     62  N   UNL A   1      41.606  29.677  34.246  1.00  0.00    -0.354 N 
ATOM     63  N   UNL A   1      39.436  30.623  32.528  1.00  0.00    -0.248 NA
ATOM     64  C   UNL A   1      37.487  31.868  32.212  1.00  0.00     0.031 C 
ATOM     65  C   UNL A   1      41.699  30.426  36.336  1.00  0.00     0.029 A 
ATOM     66  C   UNL A   1      40.971  30.501  35.161  1.00  0.00     0.049 A 
ATOM     67  H   UNL A   1      41.308  29.524  33.320  1.00  0.00     0.167 HD
ATOM     68  C   UNL A   1      39.131  31.295  33.703  1.00  0.00     0.074 A 
ATOM     69  C   UNL A   1      37.935  32.070  33.443  1.00  0.00     0.031 C 
ATOM     70  C   UNL A   1      39.783  31.269  34.890  1.00  0.00     0.037 A 
BRANCH  57  71
ATOM     71  C   UNL A   1      44.753  27.615  34.963  1.00  0.00     0.064 A 
ATOM     72  C   UNL A   1      46.003  28.252  34.968  1.00  0.00     0.173 A 
ATOM     73  C   UNL A   1      44.628  26.405  35.663  1.00  0.00     0.173 A 
ATOM     74  F   UNL A   1      46.176  29.407  34.309  1.00  0.00    -0.203 F 
ATOM     75  C   UNL A   1      47.089  27.692  35.637  1.00  0.00     0.198 A 
ATOM     76  C   UNL A   1      45.709  25.862  36.352  1.00  0.00     0.198 A 
ATOM     77  F   UNL A   1      43.451  25.764  35.697  1.00  0.00    -0.203 F 
ATOM     78  F   UNL A   1      48.282  28.303  35.604  1.00  0.00    -0.200 F 
ATOM     79  C   UNL A   1      46.940  26.501  36.331  1.00  0.00     0.200 A 
ATOM     80  F   UNL A   1      45.558  24.723  37.041  1.00  0.00    -0.200 F 
ATOM     81  F   UNL A   1      47.984  25.968  36.981  1.00  0.00    -0.200 F 
ENDBRANCH  57  71
BRANCH  58  82
ATOM     82  C   UNL A   1      37.234  31.067  29.403  1.00  0.00     0.064 A 
ATOM     83  C   UNL A   1      37.215  32.397  28.959  1.00  0.00     0.173 A 
ATOM     84  C   UNL A   1      36.149  30.248  29.065  1.00  0.00     0.173 A 
ATOM     85  F   UNL A   1      38.228  33.220  29.262  1.00  0.00    -0.203 F 
ATOM     86  C   UNL A   1      36.142  32.891  28.220  1.00  0.00     0.198 A 
ATOM     87  C   UNL A   1      35.088  30.737  28.304  1.00  0.00     0.198 A 
ATOM     88  F   UNL A   1      36.133  28.964  29.449  1.00  0.00    -0.203 F 
ATOM     89  F   UNL A   1      36.134  34.173  27.832  1.00  0.00    -0.200 F 
ATOM     90  C   UNL A   1      35.082  32.060  27.890  1.00  0.00     0.200 A 
ATOM     91  F   UNL A   1      34.077  29.925  27.968  1.00  0.00    -0.200 F 
ATOM     92  F   UNL A   1      34.056  32.534  27.169  1.00  0.00    -0.200 F 
ENDBRANCH  58  82
BRANCH  70  93
ATOM     93  C   UNL A   1      39.234  32.114  36.002  1.00  0.00     0.064 A 
ATOM     94  C   UNL A   1      39.696  33.425  36.194  1.00  0.00     0.173 A 
ATOM     95  C   UNL A   1      38.301  31.605  36.916  1.00  0.00     0.173 A 
ATOM     96  F   UNL A   1      40.595  33.956  35.351  1.00  0.00    -0.203 F 
ATOM     97  C   UNL A   1      39.251  34.191  37.267  1.00  0.00     0.198 A 
ATOM     98  C   UNL A   1      37.837  32.383  37.973  1.00  0.00     0.198 A 
ATOM     99  F   UNL A   1      37.820  30.361  36.767  1.00  0.00    -0.203 F 
ATOM    100  F   UNL A   1      39.727  35.431  37.447  1.00  0.00    -0.200 F 
ATOM    101  C   UNL A   1      38.319  33.671  38.153  1.00  0.00     0.200 A 
ATOM    102  F   UNL A   1      36.921  31.888  38.816  1.00  0.00    -0.200 F 
ATOM    103  F   UNL A   1      37.882  34.414  39.179  1.00  0.00    -0.200 F 
ENDBRANCH  70  93
ENDBRANCH  44  45
ENDBRANCH  36  39
ENDBRANCH  34  35
ENDBRANCH  33  34
ENDBRANCH   1  33
TORSDOF 15
ENDMDL
