MODEL 1
REMARK VINA RESULT:     -10.4      0.000      0.000
REMARK SMILES O=C(Nc1c(F)cc(F)cc1F)N[C@H]1C=C[C@H](C(=O)NCCCNC(=O)c2ccc(-c3c4nc(c(-c5c(F)c(F)c(F)c(F)c5F)c5ccc([nH]5)c(-c5c(F)c(F)c(F)c(F)c5F)c5nc(c(-c6c(F)c(F)c(F)c(F)c6F)c6ccc3[nH]6)C=C5)C=C4)cc2)C1
REMARK SMILES IDX 22 1 21 2 20 3 18 4 19 5 17 7 14 8 15 9 90 10 16 11 13 12
REMARK SMILES IDX 1 13 2 14 3 15 4 18 5 19 11 20 6 21 7 22 10 23 12 24 8 25
REMARK SMILES IDX 9 26 23 27 24 28 25 29 26 31 27 32 28 33 89 34 29 35 88 36
REMARK SMILES IDX 30 37 31 38 32 39 82 40 33 41 87 42 81 43 83 44 34 45 86 46
REMARK SMILES IDX 80 47 79 48 35 50 67 51 47 52 66 53 48 54 51 55 65 56 84 57
REMARK SMILES IDX 49 58 50 59 64 61 85 62 52 63 36 64 37 65 45 66 38 67 39 68
REMARK SMILES IDX 43 69 46 70 40 71 41 72 44 73 42 74 68 75 69 76 77 77 70 78
REMARK SMILES IDX 71 79 75 80 78 81 72 82 73 83 76 84 74 85 53 86 54 87 62 88
REMARK SMILES IDX 55 89 56 90 60 91 63 92 57 93 58 94 61 95 59 96
REMARK H PARENT 20 6 3 16 13 17 24 30 83 49 51 60
REMARK Flexibility Score: inf
ROOT
ATOM      1  C   UNL A   1      42.013  21.607  26.081  1.00  0.00     0.042 C 
ENDROOT
BRANCH   1   2
ATOM      2  C   UNL A   1      42.776  22.891  25.767  1.00  0.00     0.117 C 
BRANCH   2   3
ATOM      3  N   UNL A   1      44.212  22.684  25.785  1.00  0.00    -0.356 N 
ATOM      4  C   UNL A   1      45.240  23.390  26.315  1.00  0.00     0.227 C 
ATOM      5  O   UNL A   1      46.373  22.932  26.112  1.00  0.00    -0.274 OA
ATOM      6  H   UNL A   1      44.496  21.864  25.319  1.00  0.00     0.163 HD
BRANCH   4   7
ATOM      7  C   UNL A   1      45.092  24.651  27.179  1.00  0.00     0.103 C 
ATOM      8  C   UNL A   1      46.244  26.664  26.363  1.00  0.00     0.107 C 
ATOM      9  C   UNL A   1      46.801  26.181  27.662  1.00  0.00    -0.006 C 
ATOM     10  C   UNL A   1      44.926  25.883  26.270  1.00  0.00     0.047 C 
ATOM     11  C   UNL A   1      46.175  25.086  28.108  1.00  0.00    -0.016 C 
BRANCH   8  12
ATOM     12  N   UNL A   1      46.020  28.085  26.428  1.00  0.00    -0.332 N 
ATOM     13  O   UNL A   1      46.690  28.570  24.318  1.00  0.00    -0.248 OA
ATOM     14  C   UNL A   1      46.262  28.939  25.411  1.00  0.00     0.319 C 
ATOM     15  N   UNL A   1      45.983  30.258  25.585  1.00  0.00    -0.303 N 
ATOM     16  H   UNL A   1      46.144  30.788  24.771  1.00  0.00     0.172 HD
ATOM     17  H   UNL A   1      45.667  28.458  27.269  1.00  0.00     0.165 HD
BRANCH  15  18
ATOM     18  C   UNL A   1      45.513  31.046  26.659  1.00  0.00     0.115 A 
ATOM     19  C   UNL A   1      44.302  30.906  27.345  1.00  0.00     0.152 A 
ATOM     20  C   UNL A   1      46.362  32.084  27.072  1.00  0.00     0.152 A 
ATOM     21  F   UNL A   1      43.458  29.899  27.087  1.00  0.00    -0.204 F 
ATOM     22  C   UNL A   1      43.923  31.797  28.347  1.00  0.00     0.081 A 
ATOM     23  C   UNL A   1      45.999  32.989  28.064  1.00  0.00     0.081 A 
ATOM     24  F   UNL A   1      47.551  32.240  26.468  1.00  0.00    -0.204 F 
ATOM     25  C   UNL A   1      44.769  32.841  28.686  1.00  0.00     0.129 A 
ATOM     26  F   UNL A   1      44.394  33.714  29.628  1.00  0.00    -0.207 F 
ENDBRANCH  15  18
ENDBRANCH   8  12
ENDBRANCH   4   7
ENDBRANCH   2   3
ENDBRANCH   1   2
BRANCH   1  27
ATOM     27  C   UNL A   1      40.762  21.844  26.925  1.00  0.00     0.118 C 
BRANCH  27  28
ATOM     28  N   UNL A   1      39.625  22.267  26.116  1.00  0.00    -0.352 N 
ATOM     29  C   UNL A   1      38.885  23.422  26.141  1.00  0.00     0.251 C 
ATOM     30  H   UNL A   1      39.341  21.613  25.436  1.00  0.00     0.163 HD
ATOM     31  O   UNL A   1      37.827  23.475  25.523  1.00  0.00    -0.269 OA
BRANCH  29  32
ATOM     32  C   UNL A   1      39.345  24.601  26.902  1.00  0.00     0.039 A 
ATOM     33  C   UNL A   1      40.158  25.542  26.261  1.00  0.00     0.014 A 
ATOM     34  C   UNL A   1      39.032  24.757  28.255  1.00  0.00     0.014 A 
ATOM     35  C   UNL A   1      40.607  26.665  26.958  1.00  0.00     0.010 A 
ATOM     36  C   UNL A   1      39.413  25.914  28.927  1.00  0.00     0.010 A 
ATOM     37  C   UNL A   1      40.210  26.876  28.288  1.00  0.00    -0.014 A 
BRANCH  37  38
ATOM     38  C   UNL A   1      40.617  28.093  29.032  1.00  0.00     0.031 A 
ATOM     39  C   UNL A   1      42.018  28.221  29.562  1.00  0.00     0.074 A 
ATOM     40  C   UNL A   1      39.706  29.051  29.286  1.00  0.00     0.049 A 
ATOM     41  N   UNL A   1      42.536  29.161  30.311  1.00  0.00    -0.248 NA
ATOM     42  C   UNL A   1      42.952  27.134  29.231  1.00  0.00     0.031 C 
ATOM     43  C   UNL A   1      38.308  29.019  28.857  1.00  0.00     0.029 A 
ATOM     44  N   UNL A   1      39.816  30.233  29.974  1.00  0.00    -0.354 N 
ATOM     45  C   UNL A   1      43.845  28.770  30.555  1.00  0.00     0.074 A 
ATOM     46  C   UNL A   1      44.030  27.485  29.919  1.00  0.00     0.031 C 
ATOM     47  C   UNL A   1      37.697  30.142  29.264  1.00  0.00     0.029 A 
ATOM     48  C   UNL A   1      38.648  30.954  30.018  1.00  0.00     0.049 A 
ATOM     49  H   UNL A   1      40.653  30.535  30.396  1.00  0.00     0.167 HD
ATOM     50  C   UNL A   1      44.813  29.436  31.229  1.00  0.00     0.037 A 
ATOM     51  C   UNL A   1      38.374  32.135  30.603  1.00  0.00     0.037 A 
ATOM     52  C   UNL A   1      44.631  30.730  31.832  1.00  0.00     0.049 A 
ATOM     53  C   UNL A   1      39.464  32.855  31.349  1.00  0.00     0.074 A 
ATOM     54  C   UNL A   1      45.564  31.515  32.485  1.00  0.00     0.029 A 
ATOM     55  N   UNL A   1      43.434  31.432  31.851  1.00  0.00    -0.354 N 
ATOM     56  N   UNL A   1      40.711  32.497  31.534  1.00  0.00    -0.248 NA
ATOM     57  C   UNL A   1      39.108  34.140  31.966  1.00  0.00     0.031 C 
ATOM     58  C   UNL A   1      44.923  32.672  32.936  1.00  0.00     0.029 A 
ATOM     59  C   UNL A   1      43.600  32.632  32.522  1.00  0.00     0.049 A 
ATOM     60  H   UNL A   1      42.591  31.122  31.447  1.00  0.00     0.167 HD
ATOM     61  C   UNL A   1      41.295  33.517  32.272  1.00  0.00     0.074 A 
ATOM     62  C   UNL A   1      40.268  34.516  32.487  1.00  0.00     0.031 C 
ATOM     63  C   UNL A   1      42.567  33.615  32.729  1.00  0.00     0.037 A 
BRANCH  50  64
ATOM     64  C   UNL A   1      46.160  28.783  31.343  1.00  0.00     0.064 A 
ATOM     65  C   UNL A   1      47.104  28.909  30.313  1.00  0.00     0.173 A 
ATOM     66  C   UNL A   1      46.501  27.993  32.452  1.00  0.00     0.173 A 
ATOM     67  F   UNL A   1      46.827  29.647  29.228  1.00  0.00    -0.203 F 
ATOM     68  C   UNL A   1      48.336  28.264  30.387  1.00  0.00     0.198 A 
ATOM     69  C   UNL A   1      47.746  27.376  32.537  1.00  0.00     0.198 A 
ATOM     70  F   UNL A   1      45.638  27.850  33.470  1.00  0.00    -0.203 F 
ATOM     71  F   UNL A   1      49.213  28.379  29.379  1.00  0.00    -0.200 F 
ATOM     72  C   UNL A   1      48.659  27.505  31.501  1.00  0.00     0.200 A 
ATOM     73  F   UNL A   1      48.065  26.664  33.626  1.00  0.00    -0.200 F 
ATOM     74  F   UNL A   1      49.853  26.900  31.579  1.00  0.00    -0.200 F 
ENDBRANCH  50  64
BRANCH  51  75
ATOM     75  C   UNL A   1      37.018  32.720  30.463  1.00  0.00     0.064 A 
ATOM     76  C   UNL A   1      36.672  33.517  29.362  1.00  0.00     0.173 A 
ATOM     77  C   UNL A   1      36.053  32.533  31.463  1.00  0.00     0.173 A 
ATOM     78  F   UNL A   1      37.562  33.731  28.382  1.00  0.00    -0.203 F 
ATOM     79  C   UNL A   1      35.420  34.123  29.278  1.00  0.00     0.198 A 
ATOM     80  C   UNL A   1      34.793  33.119  31.365  1.00  0.00     0.198 A 
ATOM     81  F   UNL A   1      36.332  31.764  32.525  1.00  0.00    -0.203 F 
ATOM     82  F   UNL A   1      35.128  34.910  28.234  1.00  0.00    -0.200 F 
ATOM     83  C   UNL A   1      34.481  33.922  30.279  1.00  0.00     0.200 A 
ATOM     84  F   UNL A   1      33.881  32.907  32.325  1.00  0.00    -0.200 F 
ATOM     85  F   UNL A   1      33.275  34.501  30.195  1.00  0.00    -0.200 F 
ENDBRANCH  51  75
BRANCH  63  86
ATOM     86  C   UNL A   1      42.934  34.848  33.499  1.00  0.00     0.064 A 
ATOM     87  C   UNL A   1      42.821  34.872  34.898  1.00  0.00     0.173 A 
ATOM     88  C   UNL A   1      43.319  36.029  32.849  1.00  0.00     0.173 A 
ATOM     89  F   UNL A   1      42.450  33.770  35.566  1.00  0.00    -0.203 F 
ATOM     90  C   UNL A   1      43.063  36.040  35.615  1.00  0.00     0.198 A 
ATOM     91  C   UNL A   1      43.586  37.187  33.571  1.00  0.00     0.198 A 
ATOM     92  F   UNL A   1      43.453  36.050  31.514  1.00  0.00    -0.203 F 
ATOM     93  F   UNL A   1      42.914  36.051  36.947  1.00  0.00    -0.200 F 
ATOM     94  C   UNL A   1      43.448  37.196  34.952  1.00  0.00     0.200 A 
ATOM     95  F   UNL A   1      43.979  38.298  32.932  1.00  0.00    -0.200 F 
ATOM     96  F   UNL A   1      43.688  38.318  35.644  1.00  0.00    -0.200 F 
ENDBRANCH  63  86
ENDBRANCH  37  38
ENDBRANCH  29  32
ENDBRANCH  27  28
ENDBRANCH   1  27
TORSDOF 12
ENDMDL
MODEL 2
REMARK VINA RESULT:     -10.3      3.725     10.198
REMARK SMILES O=C(Nc1c(F)cc(F)cc1F)N[C@H]1C=C[C@H](C(=O)NCCCNC(=O)c2ccc(-c3c4nc(c(-c5c(F)c(F)c(F)c(F)c5F)c5ccc([nH]5)c(-c5c(F)c(F)c(F)c(F)c5F)c5nc(c(-c6c(F)c(F)c(F)c(F)c6F)c6ccc3[nH]6)C=C5)C=C4)cc2)C1
REMARK SMILES IDX 22 1 21 2 20 3 18 4 19 5 17 7 14 8 15 9 90 10 16 11 13 12
REMARK SMILES IDX 1 13 2 14 3 15 4 18 5 19 11 20 6 21 7 22 10 23 12 24 8 25
REMARK SMILES IDX 9 26 23 27 24 28 25 29 26 31 27 32 28 33 89 34 29 35 88 36
REMARK SMILES IDX 30 37 31 38 32 39 82 40 33 41 87 42 81 43 83 44 34 45 86 46
REMARK SMILES IDX 80 47 79 48 35 50 67 51 47 52 66 53 48 54 51 55 65 56 84 57
REMARK SMILES IDX 49 58 50 59 64 61 85 62 52 63 36 64 37 65 45 66 38 67 39 68
REMARK SMILES IDX 43 69 46 70 40 71 41 72 44 73 42 74 68 75 69 76 77 77 70 78
REMARK SMILES IDX 71 79 75 80 78 81 72 82 73 83 76 84 74 85 53 86 54 87 62 88
REMARK SMILES IDX 55 89 56 90 60 91 63 92 57 93 58 94 61 95 59 96
REMARK H PARENT 20 6 3 16 13 17 24 30 83 49 51 60
REMARK Flexibility Score: inf
ROOT
ATOM      1  C   UNL A   1      34.675  33.027  29.682  1.00  0.00     0.042 C 
ENDROOT
BRANCH   1   2
ATOM      2  C   UNL A   1      35.839  33.972  29.966  1.00  0.00     0.117 C 
BRANCH   2   3
ATOM      3  N   UNL A   1      35.793  34.493  31.320  1.00  0.00    -0.356 N 
ATOM      4  C   UNL A   1      36.645  34.410  32.370  1.00  0.00     0.227 C 
ATOM      5  O   UNL A   1      36.270  34.959  33.415  1.00  0.00    -0.274 OA
ATOM      6  H   UNL A   1      34.979  35.013  31.513  1.00  0.00     0.163 HD
BRANCH   4   7
ATOM      7  C   UNL A   1      38.032  33.752  32.332  1.00  0.00     0.103 C 
ATOM      8  C   UNL A   1      38.687  32.489  34.338  1.00  0.00     0.107 C 
ATOM      9  C   UNL A   1      39.557  33.682  34.111  1.00  0.00    -0.006 C 
ATOM     10  C   UNL A   1      37.962  32.362  32.990  1.00  0.00     0.047 C 
ATOM     11  C   UNL A   1      39.203  34.369  33.020  1.00  0.00    -0.016 C 
BRANCH   8  12
ATOM     12  N   UNL A   1      39.504  31.337  34.616  1.00  0.00    -0.332 N 
ATOM     13  O   UNL A   1      38.592  30.828  36.628  1.00  0.00    -0.248 OA
ATOM     14  C   UNL A   1      39.408  30.591  35.738  1.00  0.00     0.319 C 
ATOM     15  N   UNL A   1      40.217  29.508  35.873  1.00  0.00    -0.303 N 
ATOM     16  H   UNL A   1      40.035  29.002  36.698  1.00  0.00     0.172 HD
ATOM     17  H   UNL A   1      40.176  31.075  33.945  1.00  0.00     0.165 HD
BRANCH  15  18
ATOM     18  C   UNL A   1      41.257  28.936  35.106  1.00  0.00     0.115 A 
ATOM     19  C   UNL A   1      41.179  28.469  33.790  1.00  0.00     0.152 A 
ATOM     20  C   UNL A   1      42.500  28.825  35.749  1.00  0.00     0.152 A 
ATOM     21  F   UNL A   1      40.065  28.602  33.059  1.00  0.00    -0.204 F 
ATOM     22  C   UNL A   1      42.266  27.858  33.166  1.00  0.00     0.081 A 
ATOM     23  C   UNL A   1      43.594  28.212  35.147  1.00  0.00     0.081 A 
ATOM     24  F   UNL A   1      42.636  29.289  37.001  1.00  0.00    -0.204 F 
ATOM     25  C   UNL A   1      43.460  27.722  33.857  1.00  0.00     0.129 A 
ATOM     26  F   UNL A   1      44.495  27.111  33.270  1.00  0.00    -0.207 F 
ENDBRANCH  15  18
ENDBRANCH   8  12
ENDBRANCH   4   7
ENDBRANCH   2   3
ENDBRANCH   1   2
BRANCH   1  27
ATOM     27  C   UNL A   1      34.563  32.641  28.208  1.00  0.00     0.118 C 
BRANCH  27  28
ATOM     28  N   UNL A   1      33.893  31.358  28.024  1.00  0.00    -0.352 N 
ATOM     29  C   UNL A   1      34.400  30.089  27.912  1.00  0.00     0.251 C 
ATOM     30  H   UNL A   1      32.911  31.414  27.973  1.00  0.00     0.163 HD
ATOM     31  O   UNL A   1      33.669  29.178  27.535  1.00  0.00    -0.269 OA
BRANCH  29  32
ATOM     32  C   UNL A   1      35.811  29.804  28.239  1.00  0.00     0.039 A 
ATOM     33  C   UNL A   1      36.125  29.331  29.518  1.00  0.00     0.014 A 
ATOM     34  C   UNL A   1      36.832  30.053  27.318  1.00  0.00     0.014 A 
ATOM     35  C   UNL A   1      37.452  29.055  29.852  1.00  0.00     0.010 A 
ATOM     36  C   UNL A   1      38.144  29.704  27.624  1.00  0.00     0.010 A 
ATOM     37  C   UNL A   1      38.468  29.208  28.896  1.00  0.00    -0.014 A 
BRANCH  37  38
ATOM     38  C   UNL A   1      39.877  28.859  29.203  1.00  0.00     0.031 A 
ATOM     39  C   UNL A   1      40.739  29.812  29.981  1.00  0.00     0.074 A 
ATOM     40  C   UNL A   1      40.396  27.714  28.722  1.00  0.00     0.049 A 
ATOM     41  N   UNL A   1      42.013  29.729  30.268  1.00  0.00    -0.248 NA
ATOM     42  C   UNL A   1      40.090  31.036  30.477  1.00  0.00     0.031 C 
ATOM     43  C   UNL A   1      39.667  26.729  27.921  1.00  0.00     0.029 A 
ATOM     44  N   UNL A   1      41.658  27.187  28.828  1.00  0.00    -0.354 N 
ATOM     45  C   UNL A   1      42.320  30.893  30.959  1.00  0.00     0.074 A 
ATOM     46  C   UNL A   1      41.115  31.690  31.005  1.00  0.00     0.031 C 
ATOM     47  C   UNL A   1      40.485  25.705  27.634  1.00  0.00     0.029 A 
ATOM     48  C   UNL A   1      41.805  25.978  28.194  1.00  0.00     0.049 A 
ATOM     49  H   UNL A   1      42.390  27.634  29.312  1.00  0.00     0.167 HD
ATOM     50  C   UNL A   1      43.497  31.252  31.526  1.00  0.00     0.037 A 
ATOM     51  C   UNL A   1      42.884  25.182  28.074  1.00  0.00     0.037 A 
ATOM     52  C   UNL A   1      44.684  30.438  31.505  1.00  0.00     0.049 A 
ATOM     53  C   UNL A   1      44.181  25.602  28.709  1.00  0.00     0.074 A 
ATOM     54  C   UNL A   1      45.908  30.684  32.100  1.00  0.00     0.029 A 
ATOM     55  N   UNL A   1      44.792  29.215  30.856  1.00  0.00    -0.354 N 
ATOM     56  N   UNL A   1      44.448  26.684  29.399  1.00  0.00    -0.248 NA
ATOM     57  C   UNL A   1      45.324  24.693  28.548  1.00  0.00     0.031 C 
ATOM     58  C   UNL A   1      46.771  29.632  31.777  1.00  0.00     0.029 A 
ATOM     59  C   UNL A   1      46.069  28.705  31.020  1.00  0.00     0.049 A 
ATOM     60  H   UNL A   1      44.068  28.776  30.354  1.00  0.00     0.167 HD
ATOM     61  C   UNL A   1      45.781  26.580  29.771  1.00  0.00     0.074 A 
ATOM     62  C   UNL A   1      46.264  25.321  29.241  1.00  0.00     0.031 C 
ATOM     63  C   UNL A   1      46.535  27.450  30.485  1.00  0.00     0.037 A 
BRANCH  50  64
ATOM     64  C   UNL A   1      43.559  32.578  32.226  1.00  0.00     0.064 A 
ATOM     65  C   UNL A   1      43.175  32.694  33.571  1.00  0.00     0.173 A 
ATOM     66  C   UNL A   1      43.956  33.745  31.555  1.00  0.00     0.173 A 
ATOM     67  F   UNL A   1      42.781  31.611  34.258  1.00  0.00    -0.203 F 
ATOM     68  C   UNL A   1      43.179  33.929  34.214  1.00  0.00     0.198 A 
ATOM     69  C   UNL A   1      43.989  34.972  32.210  1.00  0.00     0.198 A 
ATOM     70  F   UNL A   1      44.344  33.686  30.272  1.00  0.00    -0.203 F 
ATOM     71  F   UNL A   1      42.783  34.020  35.492  1.00  0.00    -0.200 F 
ATOM     72  C   UNL A   1      43.593  35.065  33.536  1.00  0.00     0.200 A 
ATOM     73  F   UNL A   1      44.414  36.065  31.560  1.00  0.00    -0.200 F 
ATOM     74  F   UNL A   1      43.615  36.251  34.162  1.00  0.00    -0.200 F 
ENDBRANCH  50  64
BRANCH  51  75
ATOM     75  C   UNL A   1      42.759  23.888  27.357  1.00  0.00     0.064 A 
ATOM     76  C   UNL A   1      42.320  22.727  28.010  1.00  0.00     0.173 A 
ATOM     77  C   UNL A   1      43.129  23.780  26.009  1.00  0.00     0.173 A 
ATOM     78  F   UNL A   1      41.961  22.777  29.301  1.00  0.00    -0.203 F 
ATOM     79  C   UNL A   1      42.278  21.502  27.347  1.00  0.00     0.198 A 
ATOM     80  C   UNL A   1      43.063  22.560  25.341  1.00  0.00     0.198 A 
ATOM     81  F   UNL A   1      43.537  24.868  25.340  1.00  0.00    -0.203 F 
ATOM     82  F   UNL A   1      41.891  20.400  28.003  1.00  0.00    -0.200 F 
ATOM     83  C   UNL A   1      42.648  21.421  26.012  1.00  0.00     0.200 A 
ATOM     84  F   UNL A   1      43.402  22.489  24.046  1.00  0.00    -0.200 F 
ATOM     85  F   UNL A   1      42.603  20.243  25.373  1.00  0.00    -0.200 F 
ENDBRANCH  51  75
BRANCH  63  86
ATOM     86  C   UNL A   1      47.961  27.074  30.753  1.00  0.00     0.064 A 
ATOM     87  C   UNL A   1      48.979  27.476  29.874  1.00  0.00     0.173 A 
ATOM     88  C   UNL A   1      48.310  26.250  31.832  1.00  0.00     0.173 A 
ATOM     89  F   UNL A   1      48.695  28.260  28.823  1.00  0.00    -0.203 F 
ATOM     90  C   UNL A   1      50.292  27.051  30.057  1.00  0.00     0.198 A 
ATOM     91  C   UNL A   1      49.628  25.849  32.027  1.00  0.00     0.198 A 
ATOM     92  F   UNL A   1      47.374  25.851  32.706  1.00  0.00    -0.203 F 
ATOM     93  F   UNL A   1      51.241  27.417  29.185  1.00  0.00    -0.200 F 
ATOM     94  C   UNL A   1      50.616  26.240  31.134  1.00  0.00     0.200 A 
ATOM     95  F   UNL A   1      49.945  25.083  33.081  1.00  0.00    -0.200 F 
ATOM     96  F   UNL A   1      51.881  25.837  31.313  1.00  0.00    -0.200 F 
ENDBRANCH  63  86
ENDBRANCH  37  38
ENDBRANCH  29  32
ENDBRANCH  27  28
ENDBRANCH   1  27
TORSDOF 12
ENDMDL
MODEL 3
REMARK VINA RESULT:     -10.3      4.716     11.283
REMARK SMILES O=C(Nc1c(F)cc(F)cc1F)N[C@H]1C=C[C@H](C(=O)NCCCNC(=O)c2ccc(-c3c4nc(c(-c5c(F)c(F)c(F)c(F)c5F)c5ccc([nH]5)c(-c5c(F)c(F)c(F)c(F)c5F)c5nc(c(-c6c(F)c(F)c(F)c(F)c6F)c6ccc3[nH]6)C=C5)C=C4)cc2)C1
REMARK SMILES IDX 22 1 21 2 20 3 18 4 19 5 17 7 14 8 15 9 90 10 16 11 13 12
REMARK SMILES IDX 1 13 2 14 3 15 4 18 5 19 11 20 6 21 7 22 10 23 12 24 8 25
REMARK SMILES IDX 9 26 23 27 24 28 25 29 26 31 27 32 28 33 89 34 29 35 88 36
REMARK SMILES IDX 30 37 31 38 32 39 82 40 33 41 87 42 81 43 83 44 34 45 86 46
REMARK SMILES IDX 80 47 79 48 35 50 67 51 47 52 66 53 48 54 51 55 65 56 84 57
REMARK SMILES IDX 49 58 50 59 64 61 85 62 52 63 36 64 37 65 45 66 38 67 39 68
REMARK SMILES IDX 43 69 46 70 40 71 41 72 44 73 42 74 68 75 69 76 77 77 70 78
REMARK SMILES IDX 71 79 75 80 78 81 72 82 73 83 76 84 74 85 53 86 54 87 62 88
REMARK SMILES IDX 55 89 56 90 60 91 63 92 57 93 58 94 61 95 59 96
REMARK H PARENT 20 6 3 16 13 17 24 30 83 49 51 60
REMARK Flexibility Score: inf
ROOT
ATOM      1  C   UNL A   1      37.954  19.423  25.001  1.00  0.00     0.042 C 
ENDROOT
BRANCH   1   2
ATOM      2  C   UNL A   1      36.820  20.412  24.740  1.00  0.00     0.117 C 
BRANCH   2   3
ATOM      3  N   UNL A   1      35.526  19.852  25.086  1.00  0.00    -0.356 N 
ATOM      4  C   UNL A   1      34.256  20.291  24.915  1.00  0.00     0.227 C 
ATOM      5  O   UNL A   1      33.365  19.561  25.369  1.00  0.00    -0.274 OA
ATOM      6  H   UNL A   1      35.584  18.978  25.535  1.00  0.00     0.163 HD
BRANCH   4   7
ATOM      7  C   UNL A   1      33.858  21.568  24.160  1.00  0.00     0.103 C 
ATOM      8  C   UNL A   1      31.832  22.711  24.958  1.00  0.00     0.107 C 
ATOM      9  C   UNL A   1      31.672  22.178  23.572  1.00  0.00    -0.006 C 
ATOM     10  C   UNL A   1      33.351  22.623  25.161  1.00  0.00     0.047 C 
ATOM     11  C   UNL A   1      32.773  21.557  23.136  1.00  0.00    -0.016 C 
BRANCH   8  12
ATOM     12  N   UNL A   1      31.363  24.071  25.015  1.00  0.00    -0.332 N 
ATOM     13  O   UNL A   1      30.795  24.079  27.209  1.00  0.00    -0.248 OA
ATOM     14  C   UNL A   1      30.872  24.659  26.126  1.00  0.00     0.319 C 
ATOM     15  N   UNL A   1      30.487  25.961  26.060  1.00  0.00    -0.303 N 
ATOM     16  H   UNL A   1      30.193  26.312  26.932  1.00  0.00     0.172 HD
ATOM     17  H   UNL A   1      31.402  24.606  24.189  1.00  0.00     0.165 HD
BRANCH  15  18
ATOM     18  C   UNL A   1      30.409  26.928  25.034  1.00  0.00     0.115 A 
ATOM     19  C   UNL A   1      29.472  26.988  23.996  1.00  0.00     0.152 A 
ATOM     20  C   UNL A   1      31.389  27.932  25.064  1.00  0.00     0.152 A 
ATOM     21  F   UNL A   1      28.448  26.129  23.921  1.00  0.00    -0.204 F 
ATOM     22  C   UNL A   1      29.546  27.959  23.000  1.00  0.00     0.081 A 
ATOM     23  C   UNL A   1      31.486  28.905  24.075  1.00  0.00     0.081 A 
ATOM     24  F   UNL A   1      32.292  27.939  26.058  1.00  0.00    -0.204 F 
ATOM     25  C   UNL A   1      30.564  28.900  23.040  1.00  0.00     0.129 A 
ATOM     26  F   UNL A   1      30.653  29.815  22.069  1.00  0.00    -0.207 F 
ENDBRANCH  15  18
ENDBRANCH   8  12
ENDBRANCH   4   7
ENDBRANCH   2   3
ENDBRANCH   1   2
BRANCH   1  27
ATOM     27  C   UNL A   1      39.130  20.046  25.751  1.00  0.00     0.118 C 
BRANCH  27  28
ATOM     28  N   UNL A   1      40.223  19.099  25.943  1.00  0.00    -0.352 N 
ATOM     29  C   UNL A   1      41.567  19.305  26.126  1.00  0.00     0.251 C 
ATOM     30  H   UNL A   1      39.950  18.153  25.941  1.00  0.00     0.163 HD
ATOM     31  O   UNL A   1      42.340  18.356  26.039  1.00  0.00    -0.269 OA
BRANCH  29  32
ATOM     32  C   UNL A   1      42.094  20.652  26.425  1.00  0.00     0.039 A 
ATOM     33  C   UNL A   1      42.468  21.479  25.361  1.00  0.00     0.014 A 
ATOM     34  C   UNL A   1      42.278  21.082  27.741  1.00  0.00     0.014 A 
ATOM     35  C   UNL A   1      42.971  22.757  25.616  1.00  0.00     0.010 A 
ATOM     36  C   UNL A   1      42.705  22.382  27.993  1.00  0.00     0.010 A 
ATOM     37  C   UNL A   1      43.062  23.230  26.934  1.00  0.00    -0.014 A 
BRANCH  37  38
ATOM     38  C   UNL A   1      43.529  24.607  27.231  1.00  0.00     0.031 A 
ATOM     39  C   UNL A   1      42.569  25.630  27.769  1.00  0.00     0.074 A 
ATOM     40  C   UNL A   1      44.800  24.950  26.950  1.00  0.00     0.049 A 
ATOM     41  N   UNL A   1      42.762  26.903  28.001  1.00  0.00    -0.248 NA
ATOM     42  C   UNL A   1      41.202  25.168  28.055  1.00  0.00     0.031 C 
ATOM     43  C   UNL A   1      45.811  24.054  26.389  1.00  0.00     0.029 A 
ATOM     44  N   UNL A   1      45.457  26.147  27.090  1.00  0.00    -0.354 N 
ATOM     45  C   UNL A   1      41.542  27.396  28.442  1.00  0.00     0.074 A 
ATOM     46  C   UNL A   1      40.600  26.299  28.396  1.00  0.00     0.031 C 
ATOM     47  C   UNL A   1      46.968  24.722  26.261  1.00  0.00     0.029 A 
ATOM     48  C   UNL A   1      46.770  26.103  26.691  1.00  0.00     0.049 A 
ATOM     49  H   UNL A   1      45.027  26.960  27.443  1.00  0.00     0.167 HD
ATOM     50  C   UNL A   1      41.241  28.645  28.869  1.00  0.00     0.037 A 
ATOM     51  C   UNL A   1      47.707  27.069  26.670  1.00  0.00     0.037 A 
ATOM     52  C   UNL A   1      42.191  29.723  28.943  1.00  0.00     0.049 A 
ATOM     53  C   UNL A   1      47.349  28.449  27.147  1.00  0.00     0.074 A 
ATOM     54  C   UNL A   1      42.002  31.009  29.418  1.00  0.00     0.029 A 
ATOM     55  N   UNL A   1      43.515  29.639  28.535  1.00  0.00    -0.354 N 
ATOM     56  N   UNL A   1      46.204  28.892  27.604  1.00  0.00    -0.248 NA
ATOM     57  C   UNL A   1      48.413  29.463  27.104  1.00  0.00     0.031 C 
ATOM     58  C   UNL A   1      43.197  31.715  29.257  1.00  0.00     0.029 A 
ATOM     59  C   UNL A   1      44.148  30.856  28.727  1.00  0.00     0.049 A 
ATOM     60  H   UNL A   1      43.942  28.833  28.163  1.00  0.00     0.167 HD
ATOM     61  C   UNL A   1      46.410  30.228  27.921  1.00  0.00     0.074 A 
ATOM     62  C   UNL A   1      47.796  30.519  27.617  1.00  0.00     0.031 C 
ATOM     63  C   UNL A   1      45.529  31.129  28.418  1.00  0.00     0.037 A 
BRANCH  50  64
ATOM     64  C   UNL A   1      39.829  28.914  29.301  1.00  0.00     0.064 A 
ATOM     65  C   UNL A   1      39.423  28.655  30.619  1.00  0.00     0.173 A 
ATOM     66  C   UNL A   1      38.863  29.387  28.399  1.00  0.00     0.173 A 
ATOM     67  F   UNL A   1      40.304  28.196  31.520  1.00  0.00    -0.203 F 
ATOM     68  C   UNL A   1      38.102  28.852  31.014  1.00  0.00     0.198 A 
ATOM     69  C   UNL A   1      37.551  29.612  28.806  1.00  0.00     0.198 A 
ATOM     70  F   UNL A   1      39.203  29.662  27.130  1.00  0.00    -0.203 F 
ATOM     71  F   UNL A   1      37.732  28.573  32.272  1.00  0.00    -0.200 F 
ATOM     72  C   UNL A   1      37.170  29.338  30.110  1.00  0.00     0.200 A 
ATOM     73  F   UNL A   1      36.658  30.106  27.938  1.00  0.00    -0.200 F 
ATOM     74  F   UNL A   1      35.903  29.545  30.498  1.00  0.00    -0.200 F 
ENDBRANCH  50  64
BRANCH  51  75
ATOM     75  C   UNL A   1      49.083  26.740  26.220  1.00  0.00     0.064 A 
ATOM     76  C   UNL A   1      50.049  26.249  27.111  1.00  0.00     0.173 A 
ATOM     77  C   UNL A   1      49.471  26.961  24.891  1.00  0.00     0.173 A 
ATOM     78  F   UNL A   1      49.729  26.027  28.393  1.00  0.00    -0.203 F 
ATOM     79  C   UNL A   1      51.357  26.015  26.693  1.00  0.00     0.198 A 
ATOM     80  C   UNL A   1      50.773  26.703  24.470  1.00  0.00     0.198 A 
ATOM     81  F   UNL A   1      48.576  27.412  24.001  1.00  0.00    -0.203 F 
ATOM     82  F   UNL A   1      52.272  25.582  27.572  1.00  0.00    -0.200 F 
ATOM     83  C   UNL A   1      51.718  26.240  25.373  1.00  0.00     0.200 A 
ATOM     84  F   UNL A   1      51.113  26.903  23.189  1.00  0.00    -0.200 F 
ATOM     85  F   UNL A   1      52.975  26.010  24.971  1.00  0.00    -0.200 F 
ENDBRANCH  51  75
BRANCH  63  86
ATOM     86  C   UNL A   1      46.031  32.518  28.680  1.00  0.00     0.064 A 
ATOM     87  C   UNL A   1      45.976  33.495  27.673  1.00  0.00     0.173 A 
ATOM     88  C   UNL A   1      46.639  32.859  29.895  1.00  0.00     0.173 A 
ATOM     89  F   UNL A   1      45.410  33.215  26.490  1.00  0.00    -0.203 F 
ATOM     90  C   UNL A   1      46.528  34.757  27.870  1.00  0.00     0.198 A 
ATOM     91  C   UNL A   1      47.167  34.130  30.099  1.00  0.00     0.198 A 
ATOM     92  F   UNL A   1      46.704  31.962  30.891  1.00  0.00    -0.203 F 
ATOM     93  F   UNL A   1      46.497  35.663  26.883  1.00  0.00    -0.200 F 
ATOM     94  C   UNL A   1      47.121  35.074  29.083  1.00  0.00     0.200 A 
ATOM     95  F   UNL A   1      47.720  34.444  31.279  1.00  0.00    -0.200 F 
ATOM     96  F   UNL A   1      47.646  36.292  29.274  1.00  0.00    -0.200 F 
ENDBRANCH  63  86
ENDBRANCH  37  38
ENDBRANCH  29  32
ENDBRANCH  27  28
ENDBRANCH   1  27
TORSDOF 12
ENDMDL
