MODEL 1
REMARK VINA RESULT:     -12.1      0.000      0.000
REMARK SMILES [NH3+][C@@]1(C(=O)NCCCNC(=O)c2ccc(-c3c4nc(c(-c5c(F)c(F)c(F)c(F)c5F)c5ccc([nH]5)c(-c5c(F)c(F)c(F)c(F)c5F)c5nc(c(-c6c(F)c(F)c(F)c(F)c6F)c6ccc3[nH]6)C=C5)C=C4)cc2)CC[C@H](SC2CCOCC2)C1
REMARK SMILES IDX 7 1 6 2 5 3 3 4 4 5 2 7 75 8 85 9 76 10 77 11 1 12 78 16
REMARK SMILES IDX 79 17 80 18 84 19 81 20 83 21 82 22 8 23 9 24 10 25 11 27
REMARK SMILES IDX 12 28 13 29 74 30 14 31 73 32 15 33 16 34 17 35 67 36 18 37
REMARK SMILES IDX 72 38 66 39 68 40 19 41 71 42 65 43 64 44 20 46 52 47 32 48
REMARK SMILES IDX 51 49 33 50 36 51 50 52 69 53 34 54 35 55 49 57 70 58 37 59
REMARK SMILES IDX 21 60 22 61 30 62 23 63 24 64 28 65 31 66 25 67 26 68 29 69
REMARK SMILES IDX 27 70 53 71 54 72 62 73 55 74 56 75 60 76 63 77 57 78 58 79
REMARK SMILES IDX 61 80 59 81 38 82 39 83 47 84 40 85 41 86 45 87 48 88 42 89
REMARK SMILES IDX 43 90 46 91 44 92
REMARK H PARENT 5 6 1 13 1 14 1 15 9 26 68 45 36 56
REMARK Flexibility Score: inf
ROOT
ATOM      1  C   UNL A   1      31.081  32.053  26.140  1.00  0.00     0.042 C 
ENDROOT
BRANCH   1   2
ATOM      2  C   UNL A   1      31.214  30.702  25.456  1.00  0.00     0.118 C 
BRANCH   2   3
ATOM      3  N   UNL A   1      31.860  29.706  26.275  1.00  0.00    -0.351 N 
ATOM      4  C   UNL A   1      32.348  28.473  25.995  1.00  0.00     0.281 C 
ATOM      5  O   UNL A   1      32.902  27.909  26.953  1.00  0.00    -0.268 OA
ATOM      6  H   UNL A   1      31.967  29.973  27.217  1.00  0.00     0.163 HD
BRANCH   4   7
ATOM      7  C   UNL A   1      32.269  27.736  24.595  1.00  0.00     0.175 C 
ATOM      8  C   UNL A   1      32.909  28.485  23.428  1.00  0.00     0.080 C 
ATOM      9  C   UNL A   1      30.858  27.366  24.131  1.00  0.00     0.093 C 
ATOM     10  C   UNL A   1      31.770  29.040  22.577  1.00  0.00     0.022 C 
ATOM     11  C   UNL A   1      30.542  28.168  22.842  1.00  0.00     0.054 C 
BRANCH   7  12
ATOM     12  N   UNL A   1      33.038  26.466  24.772  1.00  0.00    -0.345 N 
ATOM     13  H   UNL A   1      32.390  25.695  24.924  1.00  0.00     0.345 HD
ATOM     14  H   UNL A   1      33.658  26.553  25.578  1.00  0.00     0.345 HD
ATOM     15  H   UNL A   1      33.592  26.285  23.934  1.00  0.00     0.345 HD
ENDBRANCH   7  12
BRANCH  11  16
ATOM     16  S   UNL A   1      28.866  28.890  23.111  1.00  0.00    -0.155 SA
BRANCH  16  17
ATOM     17  C   UNL A   1      28.807  30.581  22.416  1.00  0.00     0.051 C 
ATOM     18  C   UNL A   1      28.494  31.651  23.453  1.00  0.00     0.043 C 
ATOM     19  C   UNL A   1      28.002  30.802  21.140  1.00  0.00     0.043 C 
ATOM     20  C   UNL A   1      28.681  33.027  22.814  1.00  0.00     0.161 C 
ATOM     21  C   UNL A   1      28.243  32.215  20.625  1.00  0.00     0.161 C 
ATOM     22  O   UNL A   1      27.890  33.162  21.633  1.00  0.00    -0.381 OA
ENDBRANCH  16  17
ENDBRANCH  11  16
ENDBRANCH   4   7
ENDBRANCH   2   3
ENDBRANCH   1   2
BRANCH   1  23
ATOM     23  C   UNL A   1      32.278  32.402  27.002  1.00  0.00     0.118 C 
BRANCH  23  24
ATOM     24  N   UNL A   1      32.265  33.808  27.404  1.00  0.00    -0.352 N 
ATOM     25  C   UNL A   1      32.985  34.486  28.354  1.00  0.00     0.251 C 
ATOM     26  H   UNL A   1      31.626  34.367  26.905  1.00  0.00     0.163 HD
ATOM     27  O   UNL A   1      32.602  35.609  28.703  1.00  0.00    -0.269 OA
BRANCH  25  28
ATOM     28  C   UNL A   1      34.195  33.907  28.980  1.00  0.00     0.039 A 
ATOM     29  C   UNL A   1      35.450  34.455  28.688  1.00  0.00     0.014 A 
ATOM     30  C   UNL A   1      34.117  32.791  29.811  1.00  0.00     0.014 A 
ATOM     31  C   UNL A   1      36.603  33.928  29.281  1.00  0.00     0.010 A 
ATOM     32  C   UNL A   1      35.241  32.350  30.498  1.00  0.00     0.010 A 
ATOM     33  C   UNL A   1      36.503  32.895  30.227  1.00  0.00    -0.014 A 
BRANCH  33  34
ATOM     34  C   UNL A   1      37.691  32.326  30.915  1.00  0.00     0.031 A 
ATOM     35  C   UNL A   1      38.487  31.232  30.249  1.00  0.00     0.074 A 
ATOM     36  C   UNL A   1      37.996  32.714  32.169  1.00  0.00     0.049 A 
ATOM     37  N   UNL A   1      39.447  30.487  30.735  1.00  0.00    -0.248 NA
ATOM     38  C   UNL A   1      38.122  30.900  28.860  1.00  0.00     0.031 C 
ATOM     39  C   UNL A   1      37.279  33.729  32.943  1.00  0.00     0.029 A 
ATOM     40  N   UNL A   1      38.983  32.285  33.023  1.00  0.00    -0.354 N 
ATOM     41  C   UNL A   1      39.766  29.579  29.732  1.00  0.00     0.074 A 
ATOM     42  C   UNL A   1      38.866  29.829  28.630  1.00  0.00     0.031 C 
ATOM     43  C   UNL A   1      37.865  33.863  34.144  1.00  0.00     0.029 A 
ATOM     44  C   UNL A   1      38.963  32.909  34.247  1.00  0.00     0.049 A 
ATOM     45  H   UNL A   1      39.641  31.595  32.781  1.00  0.00     0.167 HD
ATOM     46  C   UNL A   1      40.740  28.639  29.722  1.00  0.00     0.037 A 
ATOM     47  C   UNL A   1      39.737  32.722  35.333  1.00  0.00     0.037 A 
ATOM     48  C   UNL A   1      41.675  28.438  30.796  1.00  0.00     0.049 A 
ATOM     49  C   UNL A   1      40.824  31.680  35.287  1.00  0.00     0.074 A 
ATOM     50  C   UNL A   1      42.753  27.572  30.850  1.00  0.00     0.029 A 
ATOM     51  N   UNL A   1      41.649  29.121  32.003  1.00  0.00    -0.354 N 
ATOM     52  N   UNL A   1      41.159  30.874  34.309  1.00  0.00    -0.248 NA
ATOM     53  C   UNL A   1      41.645  31.526  36.497  1.00  0.00     0.031 C 
ATOM     54  C   UNL A   1      43.351  27.698  32.107  1.00  0.00     0.029 A 
ATOM     55  C   UNL A   1      42.681  28.682  32.815  1.00  0.00     0.049 A 
ATOM     56  H   UNL A   1      40.994  29.815  32.245  1.00  0.00     0.167 HD
ATOM     57  C   UNL A   1      42.249  30.148  34.769  1.00  0.00     0.074 A 
ATOM     58  C   UNL A   1      42.527  30.615  36.110  1.00  0.00     0.031 C 
ATOM     59  C   UNL A   1      42.958  29.181  34.137  1.00  0.00     0.037 A 
BRANCH  46  60
ATOM     60  C   UNL A   1      40.858  27.761  28.509  1.00  0.00     0.064 A 
ATOM     61  C   UNL A   1      40.161  26.547  28.405  1.00  0.00     0.173 A 
ATOM     62  C   UNL A   1      41.636  28.165  27.413  1.00  0.00     0.173 A 
ATOM     63  F   UNL A   1      39.412  26.108  29.428  1.00  0.00    -0.203 F 
ATOM     64  C   UNL A   1      40.261  25.758  27.262  1.00  0.00     0.198 A 
ATOM     65  C   UNL A   1      41.707  27.390  26.258  1.00  0.00     0.198 A 
ATOM     66  F   UNL A   1      42.318  29.320  27.457  1.00  0.00    -0.203 F 
ATOM     67  F   UNL A   1      39.625  24.581  27.205  1.00  0.00    -0.200 F 
ATOM     68  C   UNL A   1      41.025  26.185  26.186  1.00  0.00     0.200 A 
ATOM     69  F   UNL A   1      42.434  27.810  25.214  1.00  0.00    -0.200 F 
ATOM     70  F   UNL A   1      41.109  25.431  25.081  1.00  0.00    -0.200 F 
ENDBRANCH  46  60
BRANCH  47  71
ATOM     71  C   UNL A   1      39.537  33.552  36.551  1.00  0.00     0.064 A 
ATOM     72  C   UNL A   1      38.728  33.096  37.602  1.00  0.00     0.173 A 
ATOM     73  C   UNL A   1      40.121  34.819  36.682  1.00  0.00     0.173 A 
ATOM     74  F   UNL A   1      38.131  31.898  37.516  1.00  0.00    -0.203 F 
ATOM     75  C   UNL A   1      38.488  33.887  38.723  1.00  0.00     0.198 A 
ATOM     76  C   UNL A   1      39.905  35.597  37.818  1.00  0.00     0.198 A 
ATOM     77  F   UNL A   1      40.908  35.301  35.709  1.00  0.00    -0.203 F 
ATOM     78  F   UNL A   1      37.665  33.449  39.686  1.00  0.00    -0.200 F 
ATOM     79  C   UNL A   1      39.080  35.136  38.833  1.00  0.00     0.200 A 
ATOM     80  F   UNL A   1      40.492  36.797  37.927  1.00  0.00    -0.200 F 
ATOM     81  F   UNL A   1      38.847  35.899  39.910  1.00  0.00    -0.200 F 
ENDBRANCH  47  71
BRANCH  59  82
ATOM     82  C   UNL A   1      44.141  28.605  34.858  1.00  0.00     0.064 A 
ATOM     83  C   UNL A   1      45.410  29.197  34.790  1.00  0.00     0.173 A 
ATOM     84  C   UNL A   1      43.985  27.473  35.673  1.00  0.00     0.173 A 
ATOM     85  F   UNL A   1      45.613  30.272  34.013  1.00  0.00    -0.203 F 
ATOM     86  C   UNL A   1      46.486  28.663  35.494  1.00  0.00     0.198 A 
ATOM     87  C   UNL A   1      45.055  26.961  36.401  1.00  0.00     0.198 A 
ATOM     88  F   UNL A   1      42.790  26.875  35.779  1.00  0.00    -0.203 F 
ATOM     89  F   UNL A   1      47.700  29.219  35.380  1.00  0.00    -0.200 F 
ATOM     90  C   UNL A   1      46.305  27.553  36.306  1.00  0.00     0.200 A 
ATOM     91  F   UNL A   1      44.876  25.899  37.197  1.00  0.00    -0.200 F 
ATOM     92  F   UNL A   1      47.339  27.049  36.993  1.00  0.00    -0.200 F 
ENDBRANCH  59  82
ENDBRANCH  33  34
ENDBRANCH  25  28
ENDBRANCH  23  24
ENDBRANCH   1  23
TORSDOF 13
ENDMDL
MODEL 2
REMARK VINA RESULT:     -12.0      0.297      2.017
REMARK SMILES [NH3+][C@@]1(C(=O)NCCCNC(=O)c2ccc(-c3c4nc(c(-c5c(F)c(F)c(F)c(F)c5F)c5ccc([nH]5)c(-c5c(F)c(F)c(F)c(F)c5F)c5nc(c(-c6c(F)c(F)c(F)c(F)c6F)c6ccc3[nH]6)C=C5)C=C4)cc2)CC[C@H](SC2CCOCC2)C1
REMARK SMILES IDX 7 1 6 2 5 3 3 4 4 5 2 7 75 8 85 9 76 10 77 11 1 12 78 16
REMARK SMILES IDX 79 17 80 18 84 19 81 20 83 21 82 22 8 23 9 24 10 25 11 27
REMARK SMILES IDX 12 28 13 29 74 30 14 31 73 32 15 33 16 34 17 35 67 36 18 37
REMARK SMILES IDX 72 38 66 39 68 40 19 41 71 42 65 43 64 44 20 46 52 47 32 48
REMARK SMILES IDX 51 49 33 50 36 51 50 52 69 53 34 54 35 55 49 57 70 58 37 59
REMARK SMILES IDX 21 60 22 61 30 62 23 63 24 64 28 65 31 66 25 67 26 68 29 69
REMARK SMILES IDX 27 70 53 71 54 72 62 73 55 74 56 75 60 76 63 77 57 78 58 79
REMARK SMILES IDX 61 80 59 81 38 82 39 83 47 84 40 85 41 86 45 87 48 88 42 89
REMARK SMILES IDX 43 90 46 91 44 92
REMARK H PARENT 5 6 1 13 1 14 1 15 9 26 68 45 36 56
REMARK Flexibility Score: inf
ROOT
ATOM      1  C   UNL A   1      31.020  32.043  26.048  1.00  0.00     0.042 C 
ENDROOT
BRANCH   1   2
ATOM      2  C   UNL A   1      31.110  30.671  25.400  1.00  0.00     0.118 C 
BRANCH   2   3
ATOM      3  N   UNL A   1      31.778  29.692  26.222  1.00  0.00    -0.351 N 
ATOM      4  C   UNL A   1      32.255  28.451  25.956  1.00  0.00     0.281 C 
ATOM      5  O   UNL A   1      32.836  27.908  26.910  1.00  0.00    -0.268 OA
ATOM      6  H   UNL A   1      31.912  29.979  27.154  1.00  0.00     0.163 HD
BRANCH   4   7
ATOM      7  C   UNL A   1      32.136  27.684  24.576  1.00  0.00     0.175 C 
ATOM      8  C   UNL A   1      32.776  28.388  23.381  1.00  0.00     0.080 C 
ATOM      9  C   UNL A   1      30.709  27.340  24.142  1.00  0.00     0.093 C 
ATOM     10  C   UNL A   1      31.638  28.953  22.535  1.00  0.00     0.022 C 
ATOM     11  C   UNL A   1      30.392  28.119  22.839  1.00  0.00     0.054 C 
BRANCH   7  12
ATOM     12  N   UNL A   1      32.876  26.400  24.770  1.00  0.00    -0.345 N 
ATOM     13  H   UNL A   1      33.851  26.525  24.503  1.00  0.00     0.345 HD
ATOM     14  H   UNL A   1      32.455  25.674  24.190  1.00  0.00     0.345 HD
ATOM     15  H   UNL A   1      32.825  26.124  25.751  1.00  0.00     0.345 HD
ENDBRANCH   7  12
BRANCH  11  16
ATOM     16  S   UNL A   1      28.739  28.889  23.116  1.00  0.00    -0.155 SA
BRANCH  16  17
ATOM     17  C   UNL A   1      28.719  30.572  22.400  1.00  0.00     0.051 C 
ATOM     18  C   UNL A   1      28.298  31.648  23.392  1.00  0.00     0.043 C 
ATOM     19  C   UNL A   1      28.027  30.767  21.055  1.00  0.00     0.043 C 
ATOM     20  C   UNL A   1      28.522  33.019  22.756  1.00  0.00     0.161 C 
ATOM     21  C   UNL A   1      28.293  32.179  20.547  1.00  0.00     0.161 C 
ATOM     22  O   UNL A   1      27.838  33.130  21.508  1.00  0.00    -0.381 OA
ENDBRANCH  16  17
ENDBRANCH  11  16
ENDBRANCH   4   7
ENDBRANCH   2   3
ENDBRANCH   1   2
BRANCH   1  23
ATOM     23  C   UNL A   1      32.229  32.378  26.899  1.00  0.00     0.118 C 
BRANCH  23  24
ATOM     24  N   UNL A   1      32.215  33.774  27.334  1.00  0.00    -0.352 N 
ATOM     25  C   UNL A   1      32.924  34.426  28.311  1.00  0.00     0.251 C 
ATOM     26  H   UNL A   1      31.587  34.347  26.839  1.00  0.00     0.163 HD
ATOM     27  O   UNL A   1      32.540  35.542  28.680  1.00  0.00    -0.269 OA
BRANCH  25  28
ATOM     28  C   UNL A   1      34.122  33.827  28.940  1.00  0.00     0.039 A 
ATOM     29  C   UNL A   1      35.382  34.383  28.689  1.00  0.00     0.014 A 
ATOM     30  C   UNL A   1      34.028  32.686  29.735  1.00  0.00     0.014 A 
ATOM     31  C   UNL A   1      36.524  33.837  29.287  1.00  0.00     0.010 A 
ATOM     32  C   UNL A   1      35.139  32.223  30.429  1.00  0.00     0.010 A 
ATOM     33  C   UNL A   1      36.406  32.776  30.198  1.00  0.00    -0.014 A 
BRANCH  33  34
ATOM     34  C   UNL A   1      37.580  32.185  30.891  1.00  0.00     0.031 A 
ATOM     35  C   UNL A   1      38.401  31.126  30.198  1.00  0.00     0.074 A 
ATOM     36  C   UNL A   1      37.852  32.520  32.168  1.00  0.00     0.049 A 
ATOM     37  N   UNL A   1      39.354  30.366  30.675  1.00  0.00    -0.248 NA
ATOM     38  C   UNL A   1      38.073  30.851  28.788  1.00  0.00     0.031 C 
ATOM     39  C   UNL A   1      37.109  33.496  32.967  1.00  0.00     0.029 A 
ATOM     40  N   UNL A   1      38.820  32.060  33.026  1.00  0.00    -0.354 N 
ATOM     41  C   UNL A   1      39.704  29.505  29.643  1.00  0.00     0.074 A 
ATOM     42  C   UNL A   1      38.830  29.796  28.530  1.00  0.00     0.031 C 
ATOM     43  C   UNL A   1      37.664  33.581  34.186  1.00  0.00     0.029 A 
ATOM     44  C   UNL A   1      38.767  32.630  34.276  1.00  0.00     0.049 A 
ATOM     45  H   UNL A   1      39.490  31.385  32.771  1.00  0.00     0.167 HD
ATOM     46  C   UNL A   1      40.685  28.572  29.616  1.00  0.00     0.037 A 
ATOM     47  C   UNL A   1      39.515  32.401  35.371  1.00  0.00     0.037 A 
ATOM     48  C   UNL A   1      41.595  28.331  30.703  1.00  0.00     0.049 A 
ATOM     49  C   UNL A   1      40.610  31.369  35.308  1.00  0.00     0.074 A 
ATOM     50  C   UNL A   1      42.677  27.469  30.746  1.00  0.00     0.029 A 
ATOM     51  N   UNL A   1      41.534  28.961  31.937  1.00  0.00    -0.354 N 
ATOM     52  N   UNL A   1      40.975  30.608  34.304  1.00  0.00    -0.248 NA
ATOM     53  C   UNL A   1      41.402  31.168  36.529  1.00  0.00     0.031 C 
ATOM     54  C   UNL A   1      43.244  27.545  32.022  1.00  0.00     0.029 A 
ATOM     55  C   UNL A   1      42.549  28.493  32.755  1.00  0.00     0.049 A 
ATOM     56  H   UNL A   1      40.868  29.639  32.192  1.00  0.00     0.167 HD
ATOM     57  C   UNL A   1      42.059  29.870  34.759  1.00  0.00     0.074 A 
ATOM     58  C   UNL A   1      42.300  30.280  36.126  1.00  0.00     0.031 C 
ATOM     59  C   UNL A   1      42.790  28.936  34.104  1.00  0.00     0.037 A 
BRANCH  46  60
ATOM     60  C   UNL A   1      40.839  27.748  28.370  1.00  0.00     0.064 A 
ATOM     61  C   UNL A   1      41.660  28.158  27.308  1.00  0.00     0.173 A 
ATOM     62  C   UNL A   1      40.196  26.505  28.258  1.00  0.00     0.173 A 
ATOM     63  F   UNL A   1      42.288  29.342  27.359  1.00  0.00    -0.203 F 
ATOM     64  C   UNL A   1      41.812  27.367  26.172  1.00  0.00     0.198 A 
ATOM     65  C   UNL A   1      40.376  25.702  27.134  1.00  0.00     0.198 A 
ATOM     66  F   UNL A   1      39.403  26.061  29.246  1.00  0.00    -0.203 F 
ATOM     67  F   UNL A   1      42.563  27.802  25.152  1.00  0.00    -0.200 F 
ATOM     68  C   UNL A   1      41.178  26.136  26.090  1.00  0.00     0.200 A 
ATOM     69  F   UNL A   1      39.774  24.507  27.062  1.00  0.00    -0.200 F 
ATOM     70  F   UNL A   1      41.335  25.371  25.001  1.00  0.00    -0.200 F 
ENDBRANCH  46  60
BRANCH  47  71
ATOM     71  C   UNL A   1      39.278  33.176  36.619  1.00  0.00     0.064 A 
ATOM     72  C   UNL A   1      39.925  34.402  36.833  1.00  0.00     0.173 A 
ATOM     73  C   UNL A   1      38.428  32.703  37.628  1.00  0.00     0.173 A 
ATOM     74  F   UNL A   1      40.763  34.888  35.905  1.00  0.00    -0.203 F 
ATOM     75  C   UNL A   1      39.754  35.110  38.021  1.00  0.00     0.198 A 
ATOM     76  C   UNL A   1      38.234  33.428  38.804  1.00  0.00     0.198 A 
ATOM     77  F   UNL A   1      37.780  31.540  37.472  1.00  0.00    -0.203 F 
ATOM     78  F   UNL A   1      40.429  36.250  38.221  1.00  0.00    -0.200 F 
ATOM     79  C   UNL A   1      38.906  34.625  39.004  1.00  0.00     0.200 A 
ATOM     80  F   UNL A   1      37.401  32.963  39.745  1.00  0.00    -0.200 F 
ATOM     81  F   UNL A   1      38.744  35.304  40.148  1.00  0.00    -0.200 F 
ENDBRANCH  47  71
BRANCH  59  82
ATOM     82  C   UNL A   1      43.959  28.337  34.829  1.00  0.00     0.064 A 
ATOM     83  C   UNL A   1      43.845  27.145  35.558  1.00  0.00     0.173 A 
ATOM     84  C   UNL A   1      45.224  28.940  34.746  1.00  0.00     0.173 A 
ATOM     85  F   UNL A   1      42.654  26.539  35.680  1.00  0.00    -0.203 F 
ATOM     86  C   UNL A   1      44.951  26.591  36.197  1.00  0.00     0.198 A 
ATOM     87  C   UNL A   1      46.334  28.366  35.358  1.00  0.00     0.198 A 
ATOM     88  F   UNL A   1      45.387  30.077  34.053  1.00  0.00    -0.203 F 
ATOM     89  F   UNL A   1      44.811  25.475  36.926  1.00  0.00    -0.200 F 
ATOM     90  C   UNL A   1      46.195  27.196  36.088  1.00  0.00     0.200 A 
ATOM     91  F   UNL A   1      47.536  28.942  35.238  1.00  0.00    -0.200 F 
ATOM     92  F   UNL A   1      47.260  26.653  36.693  1.00  0.00    -0.200 F 
ENDBRANCH  59  82
ENDBRANCH  33  34
ENDBRANCH  25  28
ENDBRANCH  23  24
ENDBRANCH   1  23
TORSDOF 13
ENDMDL
MODEL 3
REMARK VINA RESULT:     -11.8      1.068      2.453
REMARK SMILES [NH3+][C@@]1(C(=O)NCCCNC(=O)c2ccc(-c3c4nc(c(-c5c(F)c(F)c(F)c(F)c5F)c5ccc([nH]5)c(-c5c(F)c(F)c(F)c(F)c5F)c5nc(c(-c6c(F)c(F)c(F)c(F)c6F)c6ccc3[nH]6)C=C5)C=C4)cc2)CC[C@H](SC2CCOCC2)C1
REMARK SMILES IDX 7 1 6 2 5 3 3 4 4 5 2 7 75 8 85 9 76 10 77 11 1 12 78 16
REMARK SMILES IDX 79 17 80 18 84 19 81 20 83 21 82 22 8 23 9 24 10 25 11 27
REMARK SMILES IDX 12 28 13 29 74 30 14 31 73 32 15 33 16 34 17 35 67 36 18 37
REMARK SMILES IDX 72 38 66 39 68 40 19 41 71 42 65 43 64 44 20 46 52 47 32 48
REMARK SMILES IDX 51 49 33 50 36 51 50 52 69 53 34 54 35 55 49 57 70 58 37 59
REMARK SMILES IDX 21 60 22 61 30 62 23 63 24 64 28 65 31 66 25 67 26 68 29 69
REMARK SMILES IDX 27 70 53 71 54 72 62 73 55 74 56 75 60 76 63 77 57 78 58 79
REMARK SMILES IDX 61 80 59 81 38 82 39 83 47 84 40 85 41 86 45 87 48 88 42 89
REMARK SMILES IDX 43 90 46 91 44 92
REMARK H PARENT 5 6 1 13 1 14 1 15 9 26 68 45 36 56
REMARK Flexibility Score: inf
ROOT
ATOM      1  C   UNL A   1      31.080  32.079  26.105  1.00  0.00     0.042 C 
ENDROOT
BRANCH   1   2
ATOM      2  C   UNL A   1      31.021  30.608  25.727  1.00  0.00     0.118 C 
BRANCH   2   3
ATOM      3  N   UNL A   1      32.245  30.118  25.140  1.00  0.00    -0.351 N 
ATOM      4  C   UNL A   1      32.911  28.945  25.269  1.00  0.00     0.281 C 
ATOM      5  O   UNL A   1      33.921  28.845  24.553  1.00  0.00    -0.268 OA
ATOM      6  H   UNL A   1      32.679  30.758  24.531  1.00  0.00     0.163 HD
BRANCH   4   7
ATOM      7  C   UNL A   1      32.507  27.744  26.219  1.00  0.00     0.175 C 
ATOM      8  C   UNL A   1      33.300  26.455  26.014  1.00  0.00     0.080 C 
ATOM      9  C   UNL A   1      31.031  27.340  26.168  1.00  0.00     0.093 C 
ATOM     10  C   UNL A   1      32.376  25.473  25.298  1.00  0.00     0.022 C 
ATOM     11  C   UNL A   1      30.939  25.896  25.608  1.00  0.00     0.054 C 
BRANCH   7  12
ATOM     12  N   UNL A   1      32.801  28.220  27.606  1.00  0.00    -0.345 N 
ATOM     13  H   UNL A   1      33.312  29.101  27.562  1.00  0.00     0.345 HD
ATOM     14  H   UNL A   1      33.366  27.523  28.092  1.00  0.00     0.345 HD
ATOM     15  H   UNL A   1      31.925  28.360  28.110  1.00  0.00     0.345 HD
ENDBRANCH   7  12
BRANCH  11  16
ATOM     16  S   UNL A   1      29.631  25.955  24.310  1.00  0.00    -0.155 SA
BRANCH  16  17
ATOM     17  C   UNL A   1      29.626  27.604  23.518  1.00  0.00     0.051 C 
ATOM     18  C   UNL A   1      28.236  28.081  23.121  1.00  0.00     0.043 C 
ATOM     19  C   UNL A   1      30.634  27.864  22.404  1.00  0.00     0.043 C 
ATOM     20  C   UNL A   1      28.325  29.540  22.673  1.00  0.00     0.161 C 
ATOM     21  C   UNL A   1      30.600  29.339  22.022  1.00  0.00     0.161 C 
ATOM     22  O   UNL A   1      29.279  29.703  21.623  1.00  0.00    -0.381 OA
ENDBRANCH  16  17
ENDBRANCH  11  16
ENDBRANCH   4   7
ENDBRANCH   2   3
ENDBRANCH   1   2
BRANCH   1  23
ATOM     23  C   UNL A   1      32.336  32.446  26.871  1.00  0.00     0.118 C 
BRANCH  23  24
ATOM     24  N   UNL A   1      32.289  33.822  27.363  1.00  0.00    -0.352 N 
ATOM     25  C   UNL A   1      32.968  34.446  28.378  1.00  0.00     0.251 C 
ATOM     26  H   UNL A   1      31.658  34.404  26.880  1.00  0.00     0.163 HD
ATOM     27  O   UNL A   1      32.557  35.538  28.786  1.00  0.00    -0.269 OA
BRANCH  25  28
ATOM     28  C   UNL A   1      34.165  33.843  29.005  1.00  0.00     0.039 A 
ATOM     29  C   UNL A   1      35.428  34.387  28.741  1.00  0.00     0.014 A 
ATOM     30  C   UNL A   1      34.068  32.708  29.808  1.00  0.00     0.014 A 
ATOM     31  C   UNL A   1      36.569  33.838  29.336  1.00  0.00     0.010 A 
ATOM     32  C   UNL A   1      35.180  32.242  30.499  1.00  0.00     0.010 A 
ATOM     33  C   UNL A   1      36.450  32.784  30.256  1.00  0.00    -0.014 A 
BRANCH  33  34
ATOM     34  C   UNL A   1      37.625  32.189  30.945  1.00  0.00     0.031 A 
ATOM     35  C   UNL A   1      38.443  31.132  30.248  1.00  0.00     0.074 A 
ATOM     36  C   UNL A   1      37.898  32.520  32.223  1.00  0.00     0.049 A 
ATOM     37  N   UNL A   1      39.396  30.370  30.722  1.00  0.00    -0.248 NA
ATOM     38  C   UNL A   1      38.113  30.862  28.837  1.00  0.00     0.031 C 
ATOM     39  C   UNL A   1      37.156  33.494  33.025  1.00  0.00     0.029 A 
ATOM     40  N   UNL A   1      38.866  32.056  33.079  1.00  0.00    -0.354 N 
ATOM     41  C   UNL A   1      39.744  29.511  29.686  1.00  0.00     0.074 A 
ATOM     42  C   UNL A   1      38.869  29.807  28.575  1.00  0.00     0.031 C 
ATOM     43  C   UNL A   1      37.713  33.575  34.245  1.00  0.00     0.029 A 
ATOM     44  C   UNL A   1      38.815  32.623  34.330  1.00  0.00     0.049 A 
ATOM     45  H   UNL A   1      39.535  31.382  32.821  1.00  0.00     0.167 HD
ATOM     46  C   UNL A   1      40.724  28.578  29.655  1.00  0.00     0.037 A 
ATOM     47  C   UNL A   1      39.564  32.389  35.424  1.00  0.00     0.037 A 
ATOM     48  C   UNL A   1      41.635  28.332  30.740  1.00  0.00     0.049 A 
ATOM     49  C   UNL A   1      40.658  31.356  35.356  1.00  0.00     0.074 A 
ATOM     50  C   UNL A   1      42.716  27.469  30.780  1.00  0.00     0.029 A 
ATOM     51  N   UNL A   1      41.576  28.958  31.977  1.00  0.00    -0.354 N 
ATOM     52  N   UNL A   1      41.021  30.598  34.349  1.00  0.00    -0.248 NA
ATOM     53  C   UNL A   1      41.451  31.150  36.576  1.00  0.00     0.031 C 
ATOM     54  C   UNL A   1      43.284  27.540  32.055  1.00  0.00     0.029 A 
ATOM     55  C   UNL A   1      42.591  28.486  32.792  1.00  0.00     0.049 A 
ATOM     56  H   UNL A   1      40.911  29.636  32.235  1.00  0.00     0.167 HD
ATOM     57  C   UNL A   1      42.104  29.857  34.801  1.00  0.00     0.074 A 
ATOM     58  C   UNL A   1      42.348  30.263  36.169  1.00  0.00     0.031 C 
ATOM     59  C   UNL A   1      42.834  28.925  34.141  1.00  0.00     0.037 A 
BRANCH  46  60
ATOM     60  C   UNL A   1      40.875  27.757  28.406  1.00  0.00     0.064 A 
ATOM     61  C   UNL A   1      41.702  28.166  27.348  1.00  0.00     0.173 A 
ATOM     62  C   UNL A   1      40.225  26.519  28.288  1.00  0.00     0.173 A 
ATOM     63  F   UNL A   1      42.338  29.346  27.405  1.00  0.00    -0.203 F 
ATOM     64  C   UNL A   1      41.851  27.379  26.209  1.00  0.00     0.198 A 
ATOM     65  C   UNL A   1      40.403  25.719  27.161  1.00  0.00     0.198 A 
ATOM     66  F   UNL A   1      39.427  26.077  29.271  1.00  0.00    -0.203 F 
ATOM     67  F   UNL A   1      42.609  27.813  25.193  1.00  0.00    -0.200 F 
ATOM     68  C   UNL A   1      41.210  26.152  26.120  1.00  0.00     0.200 A 
ATOM     69  F   UNL A   1      39.793  24.528  27.083  1.00  0.00    -0.200 F 
ATOM     70  F   UNL A   1      41.365  25.391  25.029  1.00  0.00    -0.200 F 
ENDBRANCH  46  60
BRANCH  47  71
ATOM     71  C   UNL A   1      39.329  33.160  36.674  1.00  0.00     0.064 A 
ATOM     72  C   UNL A   1      40.005  34.367  36.908  1.00  0.00     0.173 A 
ATOM     73  C   UNL A   1      38.453  32.702  37.668  1.00  0.00     0.173 A 
ATOM     74  F   UNL A   1      40.868  34.838  35.996  1.00  0.00    -0.203 F 
ATOM     75  C   UNL A   1      39.836  35.070  38.099  1.00  0.00     0.198 A 
ATOM     76  C   UNL A   1      38.261  33.422  38.846  1.00  0.00     0.198 A 
ATOM     77  F   UNL A   1      37.777  31.557  37.493  1.00  0.00    -0.203 F 
ATOM     78  F   UNL A   1      40.537  36.190  38.318  1.00  0.00    -0.200 F 
ATOM     79  C   UNL A   1      38.960  34.599  39.065  1.00  0.00     0.200 A 
ATOM     80  F   UNL A   1      37.402  32.972  39.771  1.00  0.00    -0.200 F 
ATOM     81  F   UNL A   1      38.799  35.274  40.212  1.00  0.00    -0.200 F 
ENDBRANCH  47  71
BRANCH  59  82
ATOM     82  C   UNL A   1      44.003  28.322  34.864  1.00  0.00     0.064 A 
ATOM     83  C   UNL A   1      43.886  27.135  35.600  1.00  0.00     0.173 A 
ATOM     84  C   UNL A   1      45.271  28.917  34.770  1.00  0.00     0.173 A 
ATOM     85  F   UNL A   1      42.692  26.537  35.731  1.00  0.00    -0.203 F 
ATOM     86  C   UNL A   1      44.992  26.577  36.236  1.00  0.00     0.198 A 
ATOM     87  C   UNL A   1      46.381  28.339  35.379  1.00  0.00     0.198 A 
ATOM     88  F   UNL A   1      45.438  30.049  34.071  1.00  0.00    -0.203 F 
ATOM     89  F   UNL A   1      44.849  25.465  36.971  1.00  0.00    -0.200 F 
ATOM     90  C   UNL A   1      46.238  27.173  36.116  1.00  0.00     0.200 A 
ATOM     91  F   UNL A   1      47.586  28.907  35.250  1.00  0.00    -0.200 F 
ATOM     92  F   UNL A   1      47.304  26.627  36.719  1.00  0.00    -0.200 F 
ENDBRANCH  59  82
ENDBRANCH  33  34
ENDBRANCH  25  28
ENDBRANCH  23  24
ENDBRANCH   1  23
TORSDOF 13
ENDMDL
