MODEL 1
REMARK VINA RESULT:     -10.5      0.000      0.000
REMARK SMILES CCCN(CC)S(=O)(=O)c1ccc(C(=O)NCCCNC(=O)c2ccc(-c3c4nc(c(-c5c(F)c(F)c(F)c(F)c5F)c5ccc([nH]5)c(-c5c(F)c(F)c(F)c(F)c5F)c5nc(c(-c6c(F)c(F)c(F)c(F)c6F)c6ccc3[nH]6)C=C5)C=C4)cc2)o1
REMARK SMILES IDX 17 1 16 2 14 3 15 4 13 6 10 7 11 8 86 9 12 10 7 11 8 12 9 13
REMARK SMILES IDX 4 14 3 15 2 16 1 17 5 18 6 19 18 20 19 21 20 22 21 23 22 25
REMARK SMILES IDX 23 26 24 27 85 28 25 29 84 30 26 31 27 32 28 33 78 34 29 35
REMARK SMILES IDX 83 36 77 37 79 38 30 39 82 40 76 41 75 42 31 44 63 45 43 46
REMARK SMILES IDX 62 47 44 48 47 49 61 50 80 51 45 52 46 53 60 55 81 56 48 57
REMARK SMILES IDX 32 58 33 59 41 60 34 61 35 62 39 63 42 64 36 65 37 66 40 67
REMARK SMILES IDX 38 68 64 69 65 70 73 71 66 72 67 73 71 74 74 75 68 76 69 77
REMARK SMILES IDX 72 78 70 79 49 80 50 81 58 82 51 83 52 84 56 85 59 86 53 87
REMARK SMILES IDX 54 88 57 89 55 90
REMARK H PARENT 16 5 20 24 79 43 47 54
REMARK Flexibility Score: inf
ROOT
ATOM      1  C   UNL A   1      37.405  20.924  24.679  1.00  0.00     0.118 C 
ENDROOT
BRANCH   1   2
ATOM      2  N   UNL A   1      37.993  22.132  25.218  1.00  0.00    -0.349 N 
ATOM      3  C   UNL A   1      37.405  23.290  25.669  1.00  0.00     0.287 C 
ATOM      4  O   UNL A   1      38.168  24.134  26.140  1.00  0.00    -0.266 OA
ATOM      5  H   UNL A   1      38.976  22.123  25.271  1.00  0.00     0.163 HD
BRANCH   3   6
ATOM      6  C   UNL A   1      35.967  23.468  25.601  1.00  0.00     0.193 A 
ATOM      7  C   UNL A   1      34.125  24.267  24.623  1.00  0.00     0.234 A 
ATOM      8  C   UNL A   1      33.737  23.648  25.802  1.00  0.00     0.065 A 
ATOM      9  O   UNL A   1      35.487  24.133  24.505  1.00  0.00    -0.438 OA
ATOM     10  C   UNL A   1      34.898  23.110  26.400  1.00  0.00     0.058 A 
BRANCH   7  11
ATOM     11  S   UNL A   1      33.137  25.108  23.390  1.00  0.00     0.276 S 
ATOM     12  O   UNL A   1      31.883  24.395  23.307  1.00  0.00    -0.204 OA
ATOM     13  O   UNL A   1      34.031  25.202  22.257  1.00  0.00    -0.204 OA
BRANCH  11  14
ATOM     14  N   UNL A   1      32.836  26.686  23.990  1.00  0.00    -0.195 NA
BRANCH  14  15
ATOM     15  C   UNL A   1      33.730  27.128  25.100  1.00  0.00     0.102 C 
BRANCH  15  16
ATOM     16  C   UNL A   1      32.968  27.445  26.388  1.00  0.00     0.013 C 
ATOM     17  C   UNL A   1      31.626  26.734  26.519  1.00  0.00     0.005 C 
ENDBRANCH  15  16
ENDBRANCH  14  15
BRANCH  14  18
ATOM     18  C   UNL A   1      32.628  27.751  22.959  1.00  0.00     0.099 C 
ATOM     19  C   UNL A   1      33.871  28.561  22.629  1.00  0.00     0.022 C 
ENDBRANCH  14  18
ENDBRANCH  11  14
ENDBRANCH   7  11
ENDBRANCH   3   6
ENDBRANCH   1   2
BRANCH   1  20
ATOM     20  C   UNL A   1      38.286  19.708  24.955  1.00  0.00     0.042 C 
BRANCH  20  21
ATOM     21  C   UNL A   1      39.180  19.880  26.180  1.00  0.00     0.118 C 
BRANCH  21  22
ATOM     22  N   UNL A   1      40.400  19.094  26.076  1.00  0.00    -0.352 N 
ATOM     23  C   UNL A   1      41.712  19.486  26.036  1.00  0.00     0.251 C 
ATOM     24  H   UNL A   1      40.261  18.121  26.026  1.00  0.00     0.163 HD
ATOM     25  O   UNL A   1      42.570  18.677  25.697  1.00  0.00    -0.269 OA
BRANCH  23  26
ATOM     26  C   UNL A   1      42.107  20.865  26.395  1.00  0.00     0.039 A 
ATOM     27  C   UNL A   1      42.225  21.811  25.372  1.00  0.00     0.014 A 
ATOM     28  C   UNL A   1      42.431  21.216  27.709  1.00  0.00     0.014 A 
ATOM     29  C   UNL A   1      42.633  23.111  25.671  1.00  0.00     0.010 A 
ATOM     30  C   UNL A   1      42.764  22.533  28.017  1.00  0.00     0.010 A 
ATOM     31  C   UNL A   1      42.884  23.490  26.999  1.00  0.00    -0.014 A 
BRANCH  31  32
ATOM     32  C   UNL A   1      43.279  24.882  27.326  1.00  0.00     0.031 A 
ATOM     33  C   UNL A   1      44.679  25.360  27.061  1.00  0.00     0.074 A 
ATOM     34  C   UNL A   1      42.378  25.706  27.894  1.00  0.00     0.049 A 
ATOM     35  N   UNL A   1      45.207  26.538  27.280  1.00  0.00    -0.248 NA
ATOM     36  C   UNL A   1      45.620  24.379  26.499  1.00  0.00     0.031 C 
ATOM     37  C   UNL A   1      41.007  25.338  28.250  1.00  0.00     0.029 A 
ATOM     38  N   UNL A   1      42.478  27.021  28.270  1.00  0.00    -0.354 N 
ATOM     39  C   UNL A   1      46.537  26.436  26.893  1.00  0.00     0.074 A 
ATOM     40  C   UNL A   1      46.752  25.067  26.480  1.00  0.00     0.031 C 
ATOM     41  C   UNL A   1      40.382  26.411  28.761  1.00  0.00     0.029 A 
ATOM     42  C   UNL A   1      41.317  27.531  28.797  1.00  0.00     0.049 A 
ATOM     43  H   UNL A   1      43.303  27.548  28.171  1.00  0.00     0.167 HD
ATOM     44  C   UNL A   1      47.485  27.404  26.860  1.00  0.00     0.037 A 
ATOM     45  C   UNL A   1      41.038  28.766  29.253  1.00  0.00     0.037 A 
ATOM     46  C   UNL A   1      47.258  28.771  27.253  1.00  0.00     0.049 A 
ATOM     47  C   UNL A   1      42.104  29.826  29.190  1.00  0.00     0.074 A 
ATOM     48  C   UNL A   1      48.135  29.841  27.206  1.00  0.00     0.029 A 
ATOM     49  N   UNL A   1      46.065  29.256  27.766  1.00  0.00    -0.354 N 
ATOM     50  N   UNL A   1      43.338  29.736  28.754  1.00  0.00    -0.248 NA
ATOM     51  C   UNL A   1      41.734  31.162  29.673  1.00  0.00     0.031 C 
ATOM     52  C   UNL A   1      47.486  30.963  27.733  1.00  0.00     0.029 A 
ATOM     53  C   UNL A   1      46.187  30.605  28.059  1.00  0.00     0.049 A 
ATOM     54  H   UNL A   1      45.250  28.720  27.902  1.00  0.00     0.167 HD
ATOM     55  C   UNL A   1      43.882  31.006  28.886  1.00  0.00     0.074 A 
ATOM     56  C   UNL A   1      42.836  31.853  29.420  1.00  0.00     0.031 C 
ATOM     57  C   UNL A   1      45.135  31.432  28.592  1.00  0.00     0.037 A 
BRANCH  44  58
ATOM     58  C   UNL A   1      48.854  27.017  26.378  1.00  0.00     0.064 A 
ATOM     59  C   UNL A   1      49.199  27.075  25.018  1.00  0.00     0.173 A 
ATOM     60  C   UNL A   1      49.846  26.616  27.286  1.00  0.00     0.173 A 
ATOM     61  F   UNL A   1      48.286  27.441  24.106  1.00  0.00    -0.203 F 
ATOM     62  C   UNL A   1      50.472  26.717  24.584  1.00  0.00     0.198 A 
ATOM     63  C   UNL A   1      51.127  26.289  26.852  1.00  0.00     0.198 A 
ATOM     64  F   UNL A   1      49.574  26.549  28.598  1.00  0.00    -0.203 F 
ATOM     65  F   UNL A   1      50.760  26.731  23.275  1.00  0.00    -0.200 F 
ATOM     66  C   UNL A   1      51.438  26.331  25.501  1.00  0.00     0.200 A 
ATOM     67  F   UNL A   1      52.064  25.928  27.741  1.00  0.00    -0.200 F 
ATOM     68  F   UNL A   1      52.665  25.993  25.081  1.00  0.00    -0.200 F 
ENDBRANCH  44  58
BRANCH  45  69
ATOM     69  C   UNL A   1      39.680  29.078  29.767  1.00  0.00     0.064 A 
ATOM     70  C   UNL A   1      39.366  28.900  31.123  1.00  0.00     0.173 A 
ATOM     71  C   UNL A   1      38.671  29.560  28.921  1.00  0.00     0.173 A 
ATOM     72  F   UNL A   1      40.293  28.426  31.968  1.00  0.00    -0.203 F 
ATOM     73  C   UNL A   1      38.088  29.169  31.606  1.00  0.00     0.198 A 
ATOM     74  C   UNL A   1      37.402  29.857  29.412  1.00  0.00     0.198 A 
ATOM     75  F   UNL A   1      38.923  29.756  27.618  1.00  0.00    -0.203 F 
ATOM     76  F   UNL A   1      37.801  28.946  32.896  1.00  0.00    -0.200 F 
ATOM     77  C   UNL A   1      37.108  29.653  30.752  1.00  0.00     0.200 A 
ATOM     78  F   UNL A   1      36.463  30.340  28.587  1.00  0.00    -0.200 F 
ATOM     79  F   UNL A   1      35.881  29.917  31.219  1.00  0.00    -0.200 F 
ENDBRANCH  45  69
BRANCH  57  80
ATOM     80  C   UNL A   1      45.429  32.887  28.818  1.00  0.00     0.064 A 
ATOM     81  C   UNL A   1      45.960  33.350  30.032  1.00  0.00     0.173 A 
ATOM     82  C   UNL A   1      45.188  33.827  27.805  1.00  0.00     0.173 A 
ATOM     83  F   UNL A   1      46.194  32.494  31.038  1.00  0.00    -0.203 F 
ATOM     84  C   UNL A   1      46.203  34.706  30.235  1.00  0.00     0.198 A 
ATOM     85  C   UNL A   1      45.464  35.177  28.000  1.00  0.00     0.198 A 
ATOM     86  F   UNL A   1      44.689  33.435  26.624  1.00  0.00    -0.203 F 
ATOM     87  F   UNL A   1      46.652  35.133  31.424  1.00  0.00    -0.200 F 
ATOM     88  C   UNL A   1      45.960  35.618  29.218  1.00  0.00     0.200 A 
ATOM     89  F   UNL A   1      45.241  36.054  27.012  1.00  0.00    -0.200 F 
ATOM     90  F   UNL A   1      46.193  36.922  29.416  1.00  0.00    -0.200 F 
ENDBRANCH  57  80
ENDBRANCH  31  32
ENDBRANCH  23  26
ENDBRANCH  21  22
ENDBRANCH  20  21
ENDBRANCH   1  20
TORSDOF 15
ENDMDL
MODEL 2
REMARK VINA RESULT:     -10.5      0.274      1.667
REMARK SMILES CCCN(CC)S(=O)(=O)c1ccc(C(=O)NCCCNC(=O)c2ccc(-c3c4nc(c(-c5c(F)c(F)c(F)c(F)c5F)c5ccc([nH]5)c(-c5c(F)c(F)c(F)c(F)c5F)c5nc(c(-c6c(F)c(F)c(F)c(F)c6F)c6ccc3[nH]6)C=C5)C=C4)cc2)o1
REMARK SMILES IDX 17 1 16 2 14 3 15 4 13 6 10 7 11 8 86 9 12 10 7 11 8 12 9 13
REMARK SMILES IDX 4 14 3 15 2 16 1 17 5 18 6 19 18 20 19 21 20 22 21 23 22 25
REMARK SMILES IDX 23 26 24 27 85 28 25 29 84 30 26 31 27 32 28 33 78 34 29 35
REMARK SMILES IDX 83 36 77 37 79 38 30 39 82 40 76 41 75 42 31 44 63 45 43 46
REMARK SMILES IDX 62 47 44 48 47 49 61 50 80 51 45 52 46 53 60 55 81 56 48 57
REMARK SMILES IDX 32 58 33 59 41 60 34 61 35 62 39 63 42 64 36 65 37 66 40 67
REMARK SMILES IDX 38 68 64 69 65 70 73 71 66 72 67 73 71 74 74 75 68 76 69 77
REMARK SMILES IDX 72 78 70 79 49 80 50 81 58 82 51 83 52 84 56 85 59 86 53 87
REMARK SMILES IDX 54 88 57 89 55 90
REMARK H PARENT 16 5 20 24 79 43 47 54
REMARK Flexibility Score: inf
ROOT
ATOM      1  C   UNL A   1      37.407  21.049  24.548  1.00  0.00     0.118 C 
ENDROOT
BRANCH   1   2
ATOM      2  N   UNL A   1      37.962  22.204  25.222  1.00  0.00    -0.349 N 
ATOM      3  C   UNL A   1      37.345  23.304  25.767  1.00  0.00     0.287 C 
ATOM      4  O   UNL A   1      38.082  24.105  26.343  1.00  0.00    -0.266 OA
ATOM      5  H   UNL A   1      38.943  22.200  25.303  1.00  0.00     0.163 HD
BRANCH   3   6
ATOM      6  C   UNL A   1      35.907  23.473  25.674  1.00  0.00     0.193 A 
ATOM      7  C   UNL A   1      34.070  24.176  24.616  1.00  0.00     0.234 A 
ATOM      8  C   UNL A   1      33.675  23.664  25.843  1.00  0.00     0.065 A 
ATOM      9  O   UNL A   1      35.433  24.034  24.519  1.00  0.00    -0.438 OA
ATOM     10  C   UNL A   1      34.833  23.185  26.495  1.00  0.00     0.058 A 
BRANCH   7  11
ATOM     11  S   UNL A   1      33.090  24.899  23.305  1.00  0.00     0.276 S 
ATOM     12  O   UNL A   1      31.887  24.105  23.201  1.00  0.00    -0.204 OA
ATOM     13  O   UNL A   1      34.027  25.002  22.208  1.00  0.00    -0.204 OA
BRANCH  11  14
ATOM     14  N   UNL A   1      32.665  26.479  23.821  1.00  0.00    -0.195 NA
BRANCH  14  15
ATOM     15  C   UNL A   1      33.646  27.139  24.730  1.00  0.00     0.102 C 
BRANCH  15  16
ATOM     16  C   UNL A   1      32.989  27.762  25.963  1.00  0.00     0.013 C 
ATOM     17  C   UNL A   1      31.796  26.983  26.505  1.00  0.00     0.005 C 
ENDBRANCH  15  16
ENDBRANCH  14  15
BRANCH  14  18
ATOM     18  C   UNL A   1      32.155  27.400  22.757  1.00  0.00     0.099 C 
ATOM     19  C   UNL A   1      30.660  27.669  22.818  1.00  0.00     0.022 C 
ENDBRANCH  14  18
ENDBRANCH  11  14
ENDBRANCH   7  11
ENDBRANCH   3   6
ENDBRANCH   1   2
BRANCH   1  20
ATOM     20  C   UNL A   1      38.183  19.780  24.893  1.00  0.00     0.042 C 
BRANCH  20  21
ATOM     21  C   UNL A   1      39.043  19.925  26.145  1.00  0.00     0.118 C 
BRANCH  21  22
ATOM     22  N   UNL A   1      40.253  19.119  26.068  1.00  0.00    -0.352 N 
ATOM     23  C   UNL A   1      41.571  19.491  26.051  1.00  0.00     0.251 C 
ATOM     24  H   UNL A   1      40.099  18.148  26.019  1.00  0.00     0.163 HD
ATOM     25  O   UNL A   1      42.423  18.667  25.731  1.00  0.00    -0.269 OA
BRANCH  23  26
ATOM     26  C   UNL A   1      41.980  20.866  26.410  1.00  0.00     0.039 A 
ATOM     27  C   UNL A   1      42.139  21.803  25.385  1.00  0.00     0.014 A 
ATOM     28  C   UNL A   1      42.279  21.219  27.730  1.00  0.00     0.014 A 
ATOM     29  C   UNL A   1      42.561  23.097  25.686  1.00  0.00     0.010 A 
ATOM     30  C   UNL A   1      42.626  22.533  28.038  1.00  0.00     0.010 A 
ATOM     31  C   UNL A   1      42.787  23.481  27.018  1.00  0.00    -0.014 A 
BRANCH  31  32
ATOM     32  C   UNL A   1      43.198  24.868  27.346  1.00  0.00     0.031 A 
ATOM     33  C   UNL A   1      44.598  25.336  27.066  1.00  0.00     0.074 A 
ATOM     34  C   UNL A   1      42.310  25.696  27.928  1.00  0.00     0.049 A 
ATOM     35  N   UNL A   1      45.138  26.509  27.283  1.00  0.00    -0.248 NA
ATOM     36  C   UNL A   1      45.524  24.349  26.488  1.00  0.00     0.031 C 
ATOM     37  C   UNL A   1      40.940  25.339  28.299  1.00  0.00     0.029 A 
ATOM     38  N   UNL A   1      42.426  27.009  28.309  1.00  0.00    -0.354 N 
ATOM     39  C   UNL A   1      46.463  26.397  26.880  1.00  0.00     0.074 A 
ATOM     40  C   UNL A   1      46.661  25.028  26.458  1.00  0.00     0.031 C 
ATOM     41  C   UNL A   1      40.331  26.414  28.823  1.00  0.00     0.029 A 
ATOM     42  C   UNL A   1      41.275  27.526  28.852  1.00  0.00     0.049 A 
ATOM     43  H   UNL A   1      43.253  27.530  28.202  1.00  0.00     0.167 HD
ATOM     44  C   UNL A   1      47.418  27.357  26.839  1.00  0.00     0.037 A 
ATOM     45  C   UNL A   1      41.012  28.762  29.316  1.00  0.00     0.037 A 
ATOM     46  C   UNL A   1      47.207  28.724  27.240  1.00  0.00     0.049 A 
ATOM     47  C   UNL A   1      42.086  29.813  29.246  1.00  0.00     0.074 A 
ATOM     48  C   UNL A   1      48.092  29.787  27.188  1.00  0.00     0.029 A 
ATOM     49  N   UNL A   1      46.024  29.217  27.770  1.00  0.00    -0.354 N 
ATOM     50  N   UNL A   1      43.313  29.715  28.794  1.00  0.00    -0.248 NA
ATOM     51  C   UNL A   1      41.733  31.150  29.739  1.00  0.00     0.031 C 
ATOM     52  C   UNL A   1      47.458  30.912  27.727  1.00  0.00     0.029 A 
ATOM     53  C   UNL A   1      46.161  30.564  28.068  1.00  0.00     0.049 A 
ATOM     54  H   UNL A   1      45.206  28.688  27.914  1.00  0.00     0.167 HD
ATOM     55  C   UNL A   1      43.870  30.979  28.924  1.00  0.00     0.074 A 
ATOM     56  C   UNL A   1      42.838  31.833  29.475  1.00  0.00     0.031 C 
ATOM     57  C   UNL A   1      45.123  31.397  28.617  1.00  0.00     0.037 A 
BRANCH  44  58
ATOM     58  C   UNL A   1      48.778  26.962  26.338  1.00  0.00     0.064 A 
ATOM     59  C   UNL A   1      49.114  27.045  24.978  1.00  0.00     0.173 A 
ATOM     60  C   UNL A   1      49.770  26.527  27.230  1.00  0.00     0.173 A 
ATOM     61  F   UNL A   1      48.200  27.444  24.080  1.00  0.00    -0.203 F 
ATOM     62  C   UNL A   1      50.378  26.678  24.526  1.00  0.00     0.198 A 
ATOM     63  C   UNL A   1      51.043  26.191  26.780  1.00  0.00     0.198 A 
ATOM     64  F   UNL A   1      49.506  26.435  28.542  1.00  0.00    -0.203 F 
ATOM     65  F   UNL A   1      50.658  26.716  23.216  1.00  0.00    -0.200 F 
ATOM     66  C   UNL A   1      51.345  26.258  25.428  1.00  0.00     0.200 A 
ATOM     67  F   UNL A   1      51.981  25.797  27.654  1.00  0.00    -0.200 F 
ATOM     68  F   UNL A   1      52.564  25.911  24.992  1.00  0.00    -0.200 F 
ENDBRANCH  44  58
BRANCH  45  69
ATOM     69  C   UNL A   1      39.663  29.083  29.849  1.00  0.00     0.064 A 
ATOM     70  C   UNL A   1      38.660  29.588  29.009  1.00  0.00     0.173 A 
ATOM     71  C   UNL A   1      39.347  28.891  31.201  1.00  0.00     0.173 A 
ATOM     72  F   UNL A   1      38.919  29.804  27.711  1.00  0.00    -0.203 F 
ATOM     73  C   UNL A   1      37.400  29.912  29.507  1.00  0.00     0.198 A 
ATOM     74  C   UNL A   1      38.077  29.188  31.692  1.00  0.00     0.198 A 
ATOM     75  F   UNL A   1      40.268  28.402  32.044  1.00  0.00    -0.203 F 
ATOM     76  F   UNL A   1      36.474  30.437  28.692  1.00  0.00    -0.200 F 
ATOM     77  C   UNL A   1      37.108  29.706  30.847  1.00  0.00     0.200 A 
ATOM     78  F   UNL A   1      37.793  28.971  32.984  1.00  0.00    -0.200 F 
ATOM     79  F   UNL A   1      35.894  30.012  31.324  1.00  0.00    -0.200 F 
ENDBRANCH  45  69
BRANCH  57  80
ATOM     80  C   UNL A   1      45.431  32.849  28.846  1.00  0.00     0.064 A 
ATOM     81  C   UNL A   1      45.157  33.822  27.874  1.00  0.00     0.173 A 
ATOM     82  C   UNL A   1      45.997  33.272  30.059  1.00  0.00     0.173 A 
ATOM     83  F   UNL A   1      44.632  33.467  26.692  1.00  0.00    -0.203 F 
ATOM     84  C   UNL A   1      45.474  35.160  28.092  1.00  0.00     0.198 A 
ATOM     85  C   UNL A   1      46.280  34.615  30.287  1.00  0.00     0.198 A 
ATOM     86  F   UNL A   1      46.271  32.382  31.024  1.00  0.00    -0.203 F 
ATOM     87  F   UNL A   1      45.260  36.064  27.126  1.00  0.00    -0.200 F 
ATOM     88  C   UNL A   1      46.029  35.557  29.300  1.00  0.00     0.200 A 
ATOM     89  F   UNL A   1      46.805  34.997  31.459  1.00  0.00    -0.200 F 
ATOM     90  F   UNL A   1      46.334  36.845  29.508  1.00  0.00    -0.200 F 
ENDBRANCH  57  80
ENDBRANCH  31  32
ENDBRANCH  23  26
ENDBRANCH  21  22
ENDBRANCH  20  21
ENDBRANCH   1  20
TORSDOF 15
ENDMDL
MODEL 3
REMARK VINA RESULT:     -10.5      4.660     10.159
REMARK SMILES CCCN(CC)S(=O)(=O)c1ccc(C(=O)NCCCNC(=O)c2ccc(-c3c4nc(c(-c5c(F)c(F)c(F)c(F)c5F)c5ccc([nH]5)c(-c5c(F)c(F)c(F)c(F)c5F)c5nc(c(-c6c(F)c(F)c(F)c(F)c6F)c6ccc3[nH]6)C=C5)C=C4)cc2)o1
REMARK SMILES IDX 17 1 16 2 14 3 15 4 13 6 10 7 11 8 86 9 12 10 7 11 8 12 9 13
REMARK SMILES IDX 4 14 3 15 2 16 1 17 5 18 6 19 18 20 19 21 20 22 21 23 22 25
REMARK SMILES IDX 23 26 24 27 85 28 25 29 84 30 26 31 27 32 28 33 78 34 29 35
REMARK SMILES IDX 83 36 77 37 79 38 30 39 82 40 76 41 75 42 31 44 63 45 43 46
REMARK SMILES IDX 62 47 44 48 47 49 61 50 80 51 45 52 46 53 60 55 81 56 48 57
REMARK SMILES IDX 32 58 33 59 41 60 34 61 35 62 39 63 42 64 36 65 37 66 40 67
REMARK SMILES IDX 38 68 64 69 65 70 73 71 66 72 67 73 71 74 74 75 68 76 69 77
REMARK SMILES IDX 72 78 70 79 49 80 50 81 58 82 51 83 52 84 56 85 59 86 53 87
REMARK SMILES IDX 54 88 57 89 55 90
REMARK H PARENT 16 5 20 24 79 43 47 54
REMARK Flexibility Score: inf
ROOT
ATOM      1  C   UNL A   1      32.208  28.266  23.334  1.00  0.00     0.118 C 
ENDROOT
BRANCH   1   2
ATOM      2  N   UNL A   1      32.714  27.367  22.319  1.00  0.00    -0.349 N 
ATOM      3  C   UNL A   1      33.276  26.117  22.428  1.00  0.00     0.287 C 
ATOM      4  O   UNL A   1      33.556  25.558  21.368  1.00  0.00    -0.266 OA
ATOM      5  H   UNL A   1      32.645  27.707  21.397  1.00  0.00     0.163 HD
BRANCH   3   6
ATOM      6  C   UNL A   1      33.492  25.510  23.728  1.00  0.00     0.193 A 
ATOM      7  C   UNL A   1      33.079  23.940  25.262  1.00  0.00     0.234 A 
ATOM      8  C   UNL A   1      33.971  24.844  25.819  1.00  0.00     0.065 A 
ATOM      9  O   UNL A   1      32.811  24.349  23.978  1.00  0.00    -0.438 OA
ATOM     10  C   UNL A   1      34.261  25.815  24.835  1.00  0.00     0.058 A 
BRANCH   7  11
ATOM     11  S   UNL A   1      32.348  22.467  25.968  1.00  0.00     0.276 S 
ATOM     12  O   UNL A   1      30.961  22.458  25.565  1.00  0.00    -0.204 OA
ATOM     13  O   UNL A   1      32.731  22.543  27.361  1.00  0.00    -0.204 OA
BRANCH  11  14
ATOM     14  N   UNL A   1      33.141  21.128  25.247  1.00  0.00    -0.195 NA
BRANCH  14  15
ATOM     15  C   UNL A   1      32.303  20.315  24.318  1.00  0.00     0.102 C 
BRANCH  15  16
ATOM     16  C   UNL A   1      32.756  18.856  24.232  1.00  0.00     0.013 C 
ATOM     17  C   UNL A   1      32.694  18.095  25.551  1.00  0.00     0.005 C 
ENDBRANCH  15  16
ENDBRANCH  14  15
BRANCH  14  18
ATOM     18  C   UNL A   1      34.511  21.392  24.706  1.00  0.00     0.099 C 
ATOM     19  C   UNL A   1      35.627  21.284  25.733  1.00  0.00     0.022 C 
ENDBRANCH  14  18
ENDBRANCH  11  14
ENDBRANCH   7  11
ENDBRANCH   3   6
ENDBRANCH   1   2
BRANCH   1  20
ATOM     20  C   UNL A   1      33.319  29.151  23.894  1.00  0.00     0.042 C 
BRANCH  20  21
ATOM     21  C   UNL A   1      33.280  29.273  25.415  1.00  0.00     0.118 C 
BRANCH  21  22
ATOM     22  N   UNL A   1      32.883  30.607  25.842  1.00  0.00    -0.352 N 
ATOM     23  C   UNL A   1      33.331  31.379  26.880  1.00  0.00     0.251 C 
ATOM     24  H   UNL A   1      32.177  31.021  25.296  1.00  0.00     0.163 HD
ATOM     25  O   UNL A   1      32.688  32.371  27.212  1.00  0.00    -0.269 OA
BRANCH  23  26
ATOM     26  C   UNL A   1      34.574  31.037  27.604  1.00  0.00     0.039 A 
ATOM     27  C   UNL A   1      34.721  29.738  28.098  1.00  0.00     0.014 A 
ATOM     28  C   UNL A   1      35.557  31.997  27.865  1.00  0.00     0.014 A 
ATOM     29  C   UNL A   1      35.864  29.393  28.819  1.00  0.00     0.010 A 
ATOM     30  C   UNL A   1      36.732  31.631  28.517  1.00  0.00     0.010 A 
ATOM     31  C   UNL A   1      36.891  30.331  29.015  1.00  0.00    -0.014 A 
BRANCH  31  32
ATOM     32  C   UNL A   1      38.126  29.956  29.747  1.00  0.00     0.031 A 
ATOM     33  C   UNL A   1      38.377  30.474  31.136  1.00  0.00     0.074 A 
ATOM     34  C   UNL A   1      39.037  29.173  29.141  1.00  0.00     0.049 A 
ATOM     35  N   UNL A   1      39.396  30.256  31.929  1.00  0.00    -0.248 NA
ATOM     36  C   UNL A   1      37.361  31.376  31.701  1.00  0.00     0.031 C 
ATOM     37  C   UNL A   1      38.931  28.656  27.776  1.00  0.00     0.029 A 
ATOM     38  N   UNL A   1      40.232  28.672  29.594  1.00  0.00    -0.354 N 
ATOM     39  C   UNL A   1      39.149  30.999  33.076  1.00  0.00     0.074 A 
ATOM     40  C   UNL A   1      37.914  31.719  32.856  1.00  0.00     0.031 C 
ATOM     41  C   UNL A   1      39.997  27.884  27.513  1.00  0.00     0.029 A 
ATOM     42  C   UNL A   1      40.876  27.877  28.678  1.00  0.00     0.049 A 
ATOM     43  H   UNL A   1      40.592  28.865  30.489  1.00  0.00     0.167 HD
ATOM     44  C   UNL A   1      39.873  31.052  34.221  1.00  0.00     0.037 A 
ATOM     45  C   UNL A   1      42.043  27.213  28.772  1.00  0.00     0.037 A 
ATOM     46  C   UNL A   1      41.090  30.316  34.442  1.00  0.00     0.049 A 
ATOM     47  C   UNL A   1      42.819  27.278  30.059  1.00  0.00     0.074 A 
ATOM     48  C   UNL A   1      41.871  30.259  35.584  1.00  0.00     0.029 A 
ATOM     49  N   UNL A   1      41.705  29.507  33.499  1.00  0.00    -0.354 N 
ATOM     50  N   UNL A   1      42.538  27.926  31.164  1.00  0.00    -0.248 NA
ATOM     51  C   UNL A   1      44.069  26.509  30.114  1.00  0.00     0.031 C 
ATOM     52  C   UNL A   1      42.981  29.450  35.316  1.00  0.00     0.029 A 
ATOM     53  C   UNL A   1      42.866  28.961  34.025  1.00  0.00     0.049 A 
ATOM     54  H   UNL A   1      41.366  29.344  32.588  1.00  0.00     0.167 HD
ATOM     55  C   UNL A   1      43.560  27.624  32.053  1.00  0.00     0.074 A 
ATOM     56  C   UNL A   1      44.454  26.715  31.366  1.00  0.00     0.031 C 
ATOM     57  C   UNL A   1      43.743  28.059  33.324  1.00  0.00     0.037 A 
BRANCH  44  58
ATOM     58  C   UNL A   1      39.362  31.936  35.323  1.00  0.00     0.064 A 
ATOM     59  C   UNL A   1      38.503  31.447  36.320  1.00  0.00     0.173 A 
ATOM     60  C   UNL A   1      39.762  33.279  35.407  1.00  0.00     0.173 A 
ATOM     61  F   UNL A   1      38.081  30.175  36.282  1.00  0.00    -0.203 F 
ATOM     62  C   UNL A   1      38.039  32.276  37.338  1.00  0.00     0.198 A 
ATOM     63  C   UNL A   1      39.321  34.096  36.444  1.00  0.00     0.198 A 
ATOM     64  F   UNL A   1      40.587  33.797  34.485  1.00  0.00    -0.203 F 
ATOM     65  F   UNL A   1      37.177  31.799  38.248  1.00  0.00    -0.200 F 
ATOM     66  C   UNL A   1      38.453  33.597  37.404  1.00  0.00     0.200 A 
ATOM     67  F   UNL A   1      39.733  35.370  36.514  1.00  0.00    -0.200 F 
ATOM     68  F   UNL A   1      38.010  34.392  38.388  1.00  0.00    -0.200 F 
ENDBRANCH  44  58
BRANCH  45  69
ATOM     69  C   UNL A   1      42.525  26.394  27.630  1.00  0.00     0.064 A 
ATOM     70  C   UNL A   1      43.490  26.894  26.744  1.00  0.00     0.173 A 
ATOM     71  C   UNL A   1      42.036  25.101  27.400  1.00  0.00     0.173 A 
ATOM     72  F   UNL A   1      43.975  28.133  26.912  1.00  0.00    -0.203 F 
ATOM     73  C   UNL A   1      43.929  26.141  25.658  1.00  0.00     0.198 A 
ATOM     74  C   UNL A   1      42.497  24.337  26.331  1.00  0.00     0.198 A 
ATOM     75  F   UNL A   1      41.118  24.573  28.224  1.00  0.00    -0.203 F 
ATOM     76  F   UNL A   1      44.817  26.661  24.799  1.00  0.00    -0.200 F 
ATOM     77  C   UNL A   1      43.436  24.860  25.455  1.00  0.00     0.200 A 
ATOM     78  F   UNL A   1      42.032  23.093  26.148  1.00  0.00    -0.200 F 
ATOM     79  F   UNL A   1      43.863  24.133  24.414  1.00  0.00    -0.200 F 
ENDBRANCH  45  69
BRANCH  57  80
ATOM     80  C   UNL A   1      44.944  27.533  34.057  1.00  0.00     0.064 A 
ATOM     81  C   UNL A   1      46.174  28.208  34.034  1.00  0.00     0.173 A 
ATOM     82  C   UNL A   1      44.858  26.347  34.801  1.00  0.00     0.173 A 
ATOM     83  F   UNL A   1      46.312  29.337  33.325  1.00  0.00    -0.203 F 
ATOM     84  C   UNL A   1      47.284  27.693  34.698  1.00  0.00     0.198 A 
ATOM     85  C   UNL A   1      45.961  25.853  35.491  1.00  0.00     0.198 A 
ATOM     86  F   UNL A   1      43.703  25.668  34.863  1.00  0.00    -0.203 F 
ATOM     87  F   UNL A   1      48.465  28.321  34.612  1.00  0.00    -0.200 F 
ATOM     88  C   UNL A   1      47.176  26.520  35.431  1.00  0.00     0.200 A 
ATOM     89  F   UNL A   1      45.851  24.727  36.209  1.00  0.00    -0.200 F 
ATOM     90  F   UNL A   1      48.246  26.025  36.068  1.00  0.00    -0.200 F 
ENDBRANCH  57  80
ENDBRANCH  31  32
ENDBRANCH  23  26
ENDBRANCH  21  22
ENDBRANCH  20  21
ENDBRANCH   1  20
TORSDOF 15
ENDMDL
