MODEL 1
REMARK VINA RESULT:     -13.0      0.000      0.000
REMARK SMILES COC(=O)c1ccc(Cl)c(-c2ccc(C(=O)NCCCNC(=O)c3ccc(-c4c5nc(c(-c6c(F)c(F)c(F)c(F)c6F)c6ccc([nH]6)c(-c6c(F)c(F)c(F)c(F)c6F)c6nc(c(-c7c(F)c(F)c(F)c(F)c7F)c7ccc4[nH]7)C=C6)C=C5)cc3)c(F)c2)c1
REMARK SMILES IDX 18 1 17 2 15 3 16 4 14 6 11 7 12 8 89 9 13 10 87 11 88 12
REMARK SMILES IDX 10 13 5 14 6 15 90 16 7 17 8 18 9 19 3 20 4 21 2 22 1 23
REMARK SMILES IDX 19 24 20 25 21 26 22 27 23 29 24 30 25 31 86 32 26 33 85 34
REMARK SMILES IDX 27 35 28 36 29 37 79 38 30 39 84 40 78 41 80 42 31 43 83 44
REMARK SMILES IDX 77 45 76 46 32 48 64 49 44 50 63 51 45 52 48 53 62 54 81 55
REMARK SMILES IDX 46 56 47 57 61 59 82 60 49 61 33 62 34 63 42 64 35 65 36 66
REMARK SMILES IDX 40 67 43 68 37 69 38 70 41 71 39 72 65 73 66 74 74 75 67 76
REMARK SMILES IDX 68 77 72 78 75 79 69 80 70 81 73 82 71 83 50 84 51 85 59 86
REMARK SMILES IDX 52 87 53 88 57 89 60 90 54 91 55 92 58 93 56 94
REMARK H PARENT 17 5 21 28 80 47 48 58
REMARK Flexibility Score: inf
ROOT
ATOM      1  C   UNL A   1      32.252  27.057  26.465  1.00  0.00     0.118 C 
ENDROOT
BRANCH   1   2
ATOM      2  N   UNL A   1      30.994  26.349  26.615  1.00  0.00    -0.352 N 
ATOM      3  C   UNL A   1      30.636  25.043  26.412  1.00  0.00     0.254 C 
ATOM      4  O   UNL A   1      29.464  24.748  26.654  1.00  0.00    -0.269 OA
ATOM      5  H   UNL A   1      30.254  26.919  26.925  1.00  0.00     0.163 HD
BRANCH   3   6
ATOM      6  C   UNL A   1      31.562  23.960  25.985  1.00  0.00     0.075 A 
ATOM      7  C   UNL A   1      33.357  21.829  25.413  1.00  0.00    -0.014 A 
ATOM      8  C   UNL A   1      33.240  22.330  26.714  1.00  0.00     0.010 A 
ATOM      9  C   UNL A   1      32.560  22.399  24.414  1.00  0.00     0.048 A 
ATOM     10  C   UNL A   1      32.356  23.382  26.994  1.00  0.00     0.017 A 
ATOM     11  C   UNL A   1      31.662  23.424  24.706  1.00  0.00     0.136 A 
ATOM     12  F   UNL A   1      30.878  23.811  23.697  1.00  0.00    -0.206 F 
BRANCH   7  13
ATOM     13  C   UNL A   1      34.254  20.721  25.070  1.00  0.00     0.001 A 
ATOM     14  C   UNL A   1      34.490  18.363  24.463  1.00  0.00     0.060 A 
ATOM     15  C   UNL A   1      35.875  18.453  24.626  1.00  0.00     0.017 A 
ATOM     16  C   UNL A   1      33.690  19.496  24.667  1.00  0.00     0.026 A 
ATOM     17  C   UNL A   1      36.453  19.668  24.996  1.00  0.00     0.022 A 
ATOM     18  C   UNL A   1      35.652  20.792  25.224  1.00  0.00     0.048 A 
ATOM     19  Cl  UNL A   1      36.440  22.241  25.747  1.00  0.00    -0.084 Cl
BRANCH  14  20
ATOM     20  C   UNL A   1      33.812  17.090  24.107  1.00  0.00     0.337 C 
ATOM     21  O   UNL A   1      33.196  16.923  23.074  1.00  0.00    -0.246 OA
BRANCH  20  22
ATOM     22  O   UNL A   1      33.923  16.211  25.135  1.00  0.00    -0.465 OA
ATOM     23  C   UNL A   1      32.737  15.452  25.377  1.00  0.00     0.282 C 
ENDBRANCH  20  22
ENDBRANCH  14  20
ENDBRANCH   7  13
ENDBRANCH   3   6
ENDBRANCH   1   2
BRANCH   1  24
ATOM     24  C   UNL A   1      32.199  28.018  25.277  1.00  0.00     0.042 C 
BRANCH  24  25
ATOM     25  C   UNL A   1      33.241  29.124  25.346  1.00  0.00     0.118 C 
BRANCH  25  26
ATOM     26  N   UNL A   1      32.671  30.383  25.802  1.00  0.00    -0.352 N 
ATOM     27  C   UNL A   1      33.044  31.174  26.860  1.00  0.00     0.251 C 
ATOM     28  H   UNL A   1      31.907  30.715  25.277  1.00  0.00     0.163 HD
ATOM     29  O   UNL A   1      32.312  32.086  27.234  1.00  0.00    -0.269 OA
BRANCH  27  30
ATOM     30  C   UNL A   1      34.323  30.926  27.555  1.00  0.00     0.039 A 
ATOM     31  C   UNL A   1      35.241  31.972  27.693  1.00  0.00     0.014 A 
ATOM     32  C   UNL A   1      34.628  29.654  28.049  1.00  0.00     0.014 A 
ATOM     33  C   UNL A   1      36.441  31.757  28.376  1.00  0.00     0.010 A 
ATOM     34  C   UNL A   1      35.786  29.461  28.790  1.00  0.00     0.010 A 
ATOM     35  C   UNL A   1      36.708  30.507  28.956  1.00  0.00    -0.014 A 
BRANCH  35  36
ATOM     36  C   UNL A   1      37.952  30.239  29.718  1.00  0.00     0.031 A 
ATOM     37  C   UNL A   1      38.978  29.302  29.144  1.00  0.00     0.074 A 
ATOM     38  C   UNL A   1      38.107  30.745  30.956  1.00  0.00     0.049 A 
ATOM     39  N   UNL A   1      40.027  28.771  29.716  1.00  0.00    -0.248 NA
ATOM     40  C   UNL A   1      38.779  28.883  27.746  1.00  0.00     0.031 C 
ATOM     41  C   UNL A   1      37.171  31.650  31.623  1.00  0.00     0.029 A 
ATOM     42  N   UNL A   1      39.098  30.547  31.887  1.00  0.00    -0.354 N 
ATOM     43  C   UNL A   1      40.591  27.935  28.762  1.00  0.00     0.074 A 
ATOM     44  C   UNL A   1      39.752  27.997  27.587  1.00  0.00     0.031 C 
ATOM     45  C   UNL A   1      37.632  31.933  32.852  1.00  0.00     0.029 A 
ATOM     46  C   UNL A   1      38.867  31.188  33.081  1.00  0.00     0.049 A 
ATOM     47  H   UNL A   1      39.898  29.999  31.715  1.00  0.00     0.167 HD
ATOM     48  C   UNL A   1      41.719  27.195  28.860  1.00  0.00     0.037 A 
ATOM     49  C   UNL A   1      39.559  31.154  34.238  1.00  0.00     0.037 A 
ATOM     50  C   UNL A   1      42.570  27.177  30.018  1.00  0.00     0.049 A 
ATOM     51  C   UNL A   1      40.803  30.311  34.324  1.00  0.00     0.074 A 
ATOM     52  C   UNL A   1      43.768  26.508  30.192  1.00  0.00     0.029 A 
ATOM     53  N   UNL A   1      42.316  27.864  31.194  1.00  0.00    -0.354 N 
ATOM     54  N   UNL A   1      41.348  29.552  33.405  1.00  0.00    -0.248 NA
ATOM     55  C   UNL A   1      41.527  30.313  35.603  1.00  0.00     0.031 C 
ATOM     56  C   UNL A   1      44.216  26.751  31.491  1.00  0.00     0.029 A 
ATOM     57  C   UNL A   1      43.328  27.619  32.107  1.00  0.00     0.049 A 
ATOM     58  H   UNL A   1      41.535  28.440  31.358  1.00  0.00     0.167 HD
ATOM     59  C   UNL A   1      42.493  29.016  33.980  1.00  0.00     0.074 A 
ATOM     60  C   UNL A   1      42.567  29.535  35.328  1.00  0.00     0.031 C 
ATOM     61  C   UNL A   1      43.401  28.172  33.434  1.00  0.00     0.037 A 
BRANCH  48  62
ATOM     62  C   UNL A   1      42.122  26.354  27.685  1.00  0.00     0.064 A 
ATOM     63  C   UNL A   1      41.600  25.060  27.528  1.00  0.00     0.173 A 
ATOM     64  C   UNL A   1      43.096  26.785  26.774  1.00  0.00     0.173 A 
ATOM     65  F   UNL A   1      40.670  24.597  28.376  1.00  0.00    -0.203 F 
ATOM     66  C   UNL A   1      42.058  24.222  26.514  1.00  0.00     0.198 A 
ATOM     67  C   UNL A   1      43.531  25.954  25.744  1.00  0.00     0.198 A 
ATOM     68  F   UNL A   1      43.619  28.016  26.876  1.00  0.00    -0.203 F 
ATOM     69  F   UNL A   1      41.577  22.975  26.410  1.00  0.00    -0.200 F 
ATOM     70  C   UNL A   1      43.021  24.670  25.623  1.00  0.00     0.200 A 
ATOM     71  F   UNL A   1      44.446  26.396  24.871  1.00  0.00    -0.200 F 
ATOM     72  F   UNL A   1      43.461  23.863  24.648  1.00  0.00    -0.200 F 
ENDBRANCH  48  62
BRANCH  49  73
ATOM     73  C   UNL A   1      39.091  31.955  35.401  1.00  0.00     0.064 A 
ATOM     74  C   UNL A   1      39.417  33.314  35.534  1.00  0.00     0.173 A 
ATOM     75  C   UNL A   1      38.324  31.368  36.415  1.00  0.00     0.173 A 
ATOM     76  F   UNL A   1      40.154  33.924  34.594  1.00  0.00    -0.203 F 
ATOM     77  C   UNL A   1      39.008  34.047  36.646  1.00  0.00     0.198 A 
ATOM     78  C   UNL A   1      37.890  32.110  37.512  1.00  0.00     0.198 A 
ATOM     79  F   UNL A   1      37.969  30.078  36.323  1.00  0.00    -0.203 F 
ATOM     80  F   UNL A   1      39.362  35.334  36.765  1.00  0.00    -0.200 F 
ATOM     81  C   UNL A   1      38.239  33.446  37.631  1.00  0.00     0.200 A 
ATOM     82  F   UNL A   1      37.126  31.532  38.449  1.00  0.00    -0.200 F 
ATOM     83  F   UNL A   1      37.833  34.156  38.692  1.00  0.00    -0.200 F 
ENDBRANCH  49  73
BRANCH  61  84
ATOM     84  C   UNL A   1      44.591  27.780  34.257  1.00  0.00     0.064 A 
ATOM     85  C   UNL A   1      45.789  28.504  34.148  1.00  0.00     0.173 A 
ATOM     86  C   UNL A   1      44.594  26.609  35.025  1.00  0.00     0.173 A 
ATOM     87  F   UNL A   1      45.836  29.626  33.413  1.00  0.00    -0.203 F 
ATOM     88  C   UNL A   1      46.957  28.047  34.747  1.00  0.00     0.198 A 
ATOM     89  C   UNL A   1      45.761  26.168  35.646  1.00  0.00     0.198 A 
ATOM     90  F   UNL A   1      43.470  25.890  35.166  1.00  0.00    -0.203 F 
ATOM     91  F   UNL A   1      48.103  28.722  34.580  1.00  0.00    -0.200 F 
ATOM     92  C   UNL A   1      46.943  26.878  35.492  1.00  0.00     0.200 A 
ATOM     93  F   UNL A   1      45.743  25.047  36.379  1.00  0.00    -0.200 F 
ATOM     94  F   UNL A   1      48.072  26.430  36.058  1.00  0.00    -0.200 F 
ENDBRANCH  61  84
ENDBRANCH  35  36
ENDBRANCH  27  30
ENDBRANCH  25  26
ENDBRANCH  24  25
ENDBRANCH   1  24
TORSDOF 13
ENDMDL
MODEL 2
REMARK VINA RESULT:     -13.0      2.519      3.845
REMARK SMILES COC(=O)c1ccc(Cl)c(-c2ccc(C(=O)NCCCNC(=O)c3ccc(-c4c5nc(c(-c6c(F)c(F)c(F)c(F)c6F)c6ccc([nH]6)c(-c6c(F)c(F)c(F)c(F)c6F)c6nc(c(-c7c(F)c(F)c(F)c(F)c7F)c7ccc4[nH]7)C=C6)C=C5)cc3)c(F)c2)c1
REMARK SMILES IDX 18 1 17 2 15 3 16 4 14 6 11 7 12 8 89 9 13 10 87 11 88 12
REMARK SMILES IDX 10 13 5 14 6 15 90 16 7 17 8 18 9 19 3 20 4 21 2 22 1 23
REMARK SMILES IDX 19 24 20 25 21 26 22 27 23 29 24 30 25 31 86 32 26 33 85 34
REMARK SMILES IDX 27 35 28 36 29 37 79 38 30 39 84 40 78 41 80 42 31 43 83 44
REMARK SMILES IDX 77 45 76 46 32 48 64 49 44 50 63 51 45 52 48 53 62 54 81 55
REMARK SMILES IDX 46 56 47 57 61 59 82 60 49 61 33 62 34 63 42 64 35 65 36 66
REMARK SMILES IDX 40 67 43 68 37 69 38 70 41 71 39 72 65 73 66 74 74 75 67 76
REMARK SMILES IDX 68 77 72 78 75 79 69 80 70 81 73 82 71 83 50 84 51 85 59 86
REMARK SMILES IDX 52 87 53 88 57 89 60 90 54 91 55 92 58 93 56 94
REMARK H PARENT 17 5 21 28 80 47 48 58
REMARK Flexibility Score: inf
ROOT
ATOM      1  C   UNL A   1      31.730  30.705  26.371  1.00  0.00     0.118 C 
ENDROOT
BRANCH   1   2
ATOM      2  N   UNL A   1      31.051  30.419  25.120  1.00  0.00    -0.352 N 
ATOM      3  C   UNL A   1      31.023  29.312  24.314  1.00  0.00     0.254 C 
ATOM      4  O   UNL A   1      30.319  29.382  23.305  1.00  0.00    -0.269 OA
ATOM      5  H   UNL A   1      30.503  31.165  24.787  1.00  0.00     0.163 HD
BRANCH   3   6
ATOM      6  C   UNL A   1      31.726  28.032  24.597  1.00  0.00     0.075 A 
ATOM      7  C   UNL A   1      32.865  25.465  25.044  1.00  0.00    -0.014 A 
ATOM      8  C   UNL A   1      31.495  25.601  24.800  1.00  0.00     0.010 A 
ATOM      9  C   UNL A   1      33.652  26.622  25.050  1.00  0.00     0.048 A 
ATOM     10  C   UNL A   1      30.934  26.868  24.582  1.00  0.00     0.017 A 
ATOM     11  C   UNL A   1      33.092  27.874  24.802  1.00  0.00     0.136 A 
ATOM     12  F   UNL A   1      33.956  28.888  24.723  1.00  0.00    -0.206 F 
BRANCH   7  13
ATOM     13  C   UNL A   1      33.503  24.162  25.263  1.00  0.00     0.001 A 
ATOM     14  C   UNL A   1      35.286  22.603  24.649  1.00  0.00     0.060 A 
ATOM     15  C   UNL A   1      34.685  21.603  25.419  1.00  0.00     0.017 A 
ATOM     16  C   UNL A   1      34.706  23.878  24.589  1.00  0.00     0.026 A 
ATOM     17  C   UNL A   1      33.508  21.878  26.118  1.00  0.00     0.022 A 
ATOM     18  C   UNL A   1      32.917  23.143  26.037  1.00  0.00     0.048 A 
ATOM     19  Cl  UNL A   1      31.423  23.380  26.878  1.00  0.00    -0.084 Cl
BRANCH  14  20
ATOM     20  C   UNL A   1      36.516  22.363  23.853  1.00  0.00     0.337 C 
ATOM     21  O   UNL A   1      36.709  22.840  22.753  1.00  0.00    -0.246 OA
BRANCH  20  22
ATOM     22  O   UNL A   1      37.316  21.482  24.505  1.00  0.00    -0.465 OA
ATOM     23  C   UNL A   1      38.151  22.083  25.496  1.00  0.00     0.282 C 
ENDBRANCH  20  22
ENDBRANCH  14  20
ENDBRANCH   7  13
ENDBRANCH   3   6
ENDBRANCH   1   2
BRANCH   1  24
ATOM     24  C   UNL A   1      31.493  32.153  26.801  1.00  0.00     0.042 C 
BRANCH  24  25
ATOM     25  C   UNL A   1      32.769  32.885  27.191  1.00  0.00     0.118 C 
BRANCH  25  26
ATOM     26  N   UNL A   1      32.502  34.246  27.636  1.00  0.00    -0.352 N 
ATOM     27  C   UNL A   1      33.031  34.931  28.702  1.00  0.00     0.251 C 
ATOM     28  H   UNL A   1      31.849  34.746  27.096  1.00  0.00     0.163 HD
ATOM     29  O   UNL A   1      32.528  35.991  29.061  1.00  0.00    -0.269 OA
BRANCH  27  30
ATOM     30  C   UNL A   1      34.202  34.391  29.422  1.00  0.00     0.039 A 
ATOM     31  C   UNL A   1      34.010  33.715  30.630  1.00  0.00     0.014 A 
ATOM     32  C   UNL A   1      35.493  34.574  28.916  1.00  0.00     0.014 A 
ATOM     33  C   UNL A   1      35.107  33.171  31.304  1.00  0.00     0.010 A 
ATOM     34  C   UNL A   1      36.573  33.971  29.548  1.00  0.00     0.010 A 
ATOM     35  C   UNL A   1      36.392  33.271  30.751  1.00  0.00    -0.014 A 
BRANCH  35  36
ATOM     36  C   UNL A   1      37.584  32.683  31.412  1.00  0.00     0.031 A 
ATOM     37  C   UNL A   1      38.284  31.521  30.765  1.00  0.00     0.074 A 
ATOM     38  C   UNL A   1      37.966  33.119  32.627  1.00  0.00     0.049 A 
ATOM     39  N   UNL A   1      39.205  30.731  31.255  1.00  0.00    -0.248 NA
ATOM     40  C   UNL A   1      37.870  31.181  29.393  1.00  0.00     0.031 C 
ATOM     41  C   UNL A   1      37.352  34.227  33.359  1.00  0.00     0.029 A 
ATOM     42  N   UNL A   1      38.946  32.663  33.475  1.00  0.00    -0.354 N 
ATOM     43  C   UNL A   1      39.454  29.789  30.267  1.00  0.00     0.074 A 
ATOM     44  C   UNL A   1      38.566  30.077  29.164  1.00  0.00     0.031 C 
ATOM     45  C   UNL A   1      37.970  34.368  34.543  1.00  0.00     0.029 A 
ATOM     46  C   UNL A   1      38.986  33.328  34.678  1.00  0.00     0.049 A 
ATOM     47  H   UNL A   1      39.561  31.929  33.244  1.00  0.00     0.167 HD
ATOM     48  C   UNL A   1      40.359  28.782  30.279  1.00  0.00     0.037 A 
ATOM     49  C   UNL A   1      39.739  33.105  35.774  1.00  0.00     0.037 A 
ATOM     50  C   UNL A   1      41.268  28.534  31.363  1.00  0.00     0.049 A 
ATOM     51  C   UNL A   1      40.727  31.970  35.766  1.00  0.00     0.074 A 
ATOM     52  C   UNL A   1      42.265  27.577  31.445  1.00  0.00     0.029 A 
ATOM     53  N   UNL A   1      41.298  29.251  32.549  1.00  0.00    -0.354 N 
ATOM     54  N   UNL A   1      40.982  31.106  34.814  1.00  0.00    -0.248 NA
ATOM     55  C   UNL A   1      41.531  31.772  36.981  1.00  0.00     0.031 C 
ATOM     56  C   UNL A   1      42.865  27.683  32.700  1.00  0.00     0.029 A 
ATOM     57  C   UNL A   1      42.284  28.744  33.378  1.00  0.00     0.049 A 
ATOM     58  H   UNL A   1      40.707  30.006  32.770  1.00  0.00     0.167 HD
ATOM     59  C   UNL A   1      41.994  30.288  35.298  1.00  0.00     0.074 A 
ATOM     60  C   UNL A   1      42.309  30.756  36.630  1.00  0.00     0.031 C 
ATOM     61  C   UNL A   1      42.606  29.245  34.688  1.00  0.00     0.037 A 
BRANCH  48  62
ATOM     62  C   UNL A   1      40.434  27.879  29.084  1.00  0.00     0.064 A 
ATOM     63  C   UNL A   1      41.214  28.236  27.973  1.00  0.00     0.173 A 
ATOM     64  C   UNL A   1      39.658  26.715  28.995  1.00  0.00     0.173 A 
ATOM     65  F   UNL A   1      41.970  29.344  28.004  1.00  0.00    -0.203 F 
ATOM     66  C   UNL A   1      41.195  27.471  26.809  1.00  0.00     0.198 A 
ATOM     67  C   UNL A   1      39.664  25.937  27.840  1.00  0.00     0.198 A 
ATOM     68  F   UNL A   1      38.902  26.325  30.033  1.00  0.00    -0.203 F 
ATOM     69  F   UNL A   1      41.915  27.855  25.746  1.00  0.00    -0.200 F 
ATOM     70  C   UNL A   1      40.422  26.323  26.744  1.00  0.00     0.200 A 
ATOM     71  F   UNL A   1      38.933  24.815  27.786  1.00  0.00    -0.200 F 
ATOM     72  F   UNL A   1      40.405  25.587  25.624  1.00  0.00    -0.200 F 
ENDBRANCH  48  62
BRANCH  49  73
ATOM     73  C   UNL A   1      39.591  33.987  36.962  1.00  0.00     0.064 A 
ATOM     74  C   UNL A   1      38.765  33.631  38.041  1.00  0.00     0.173 A 
ATOM     75  C   UNL A   1      40.259  35.216  37.032  1.00  0.00     0.173 A 
ATOM     76  F   UNL A   1      38.099  32.468  38.024  1.00  0.00    -0.203 F 
ATOM     77  C   UNL A   1      38.602  34.481  39.134  1.00  0.00     0.198 A 
ATOM     78  C   UNL A   1      40.117  36.052  38.139  1.00  0.00     0.198 A 
ATOM     79  F   UNL A   1      41.074  35.591  36.036  1.00  0.00    -0.203 F 
ATOM     80  F   UNL A   1      37.781  34.133  40.134  1.00  0.00    -0.200 F 
ATOM     81  C   UNL A   1      39.283  35.688  39.184  1.00  0.00     0.200 A 
ATOM     82  F   UNL A   1      40.797  37.205  38.195  1.00  0.00    -0.200 F 
ATOM     83  F   UNL A   1      39.138  36.498  40.242  1.00  0.00    -0.200 F 
ENDBRANCH  49  73
BRANCH  61  84
ATOM     84  C   UNL A   1      43.718  28.551  35.414  1.00  0.00     0.064 A 
ATOM     85  C   UNL A   1      45.053  28.898  35.149  1.00  0.00     0.173 A 
ATOM     86  C   UNL A   1      43.474  27.451  36.246  1.00  0.00     0.173 A 
ATOM     87  F   UNL A   1      45.335  29.937  34.348  1.00  0.00    -0.203 F 
ATOM     88  C   UNL A   1      46.102  28.141  35.658  1.00  0.00     0.198 A 
ATOM     89  C   UNL A   1      44.529  26.711  36.777  1.00  0.00     0.198 A 
ATOM     90  F   UNL A   1      42.215  27.089  36.536  1.00  0.00    -0.203 F 
ATOM     91  F   UNL A   1      47.367  28.453  35.343  1.00  0.00    -0.200 F 
ATOM     92  C   UNL A   1      45.840  27.047  36.469  1.00  0.00     0.200 A 
ATOM     93  F   UNL A   1      44.275  25.664  37.572  1.00  0.00    -0.200 F 
ATOM     94  F   UNL A   1      46.851  26.310  36.948  1.00  0.00    -0.200 F 
ENDBRANCH  61  84
ENDBRANCH  35  36
ENDBRANCH  27  30
ENDBRANCH  25  26
ENDBRANCH  24  25
ENDBRANCH   1  24
TORSDOF 13
ENDMDL
MODEL 3
REMARK VINA RESULT:     -12.9      5.070     10.548
REMARK SMILES COC(=O)c1ccc(Cl)c(-c2ccc(C(=O)NCCCNC(=O)c3ccc(-c4c5nc(c(-c6c(F)c(F)c(F)c(F)c6F)c6ccc([nH]6)c(-c6c(F)c(F)c(F)c(F)c6F)c6nc(c(-c7c(F)c(F)c(F)c(F)c7F)c7ccc4[nH]7)C=C6)C=C5)cc3)c(F)c2)c1
REMARK SMILES IDX 18 1 17 2 15 3 16 4 14 6 11 7 12 8 89 9 13 10 87 11 88 12
REMARK SMILES IDX 10 13 5 14 6 15 90 16 7 17 8 18 9 19 3 20 4 21 2 22 1 23
REMARK SMILES IDX 19 24 20 25 21 26 22 27 23 29 24 30 25 31 86 32 26 33 85 34
REMARK SMILES IDX 27 35 28 36 29 37 79 38 30 39 84 40 78 41 80 42 31 43 83 44
REMARK SMILES IDX 77 45 76 46 32 48 64 49 44 50 63 51 45 52 48 53 62 54 81 55
REMARK SMILES IDX 46 56 47 57 61 59 82 60 49 61 33 62 34 63 42 64 35 65 36 66
REMARK SMILES IDX 40 67 43 68 37 69 38 70 41 71 39 72 65 73 66 74 74 75 67 76
REMARK SMILES IDX 68 77 72 78 75 79 69 80 70 81 73 82 71 83 50 84 51 85 59 86
REMARK SMILES IDX 52 87 53 88 57 89 60 90 54 91 55 92 58 93 56 94
REMARK H PARENT 17 5 21 28 80 47 48 58
REMARK Flexibility Score: inf
ROOT
ATOM      1  C   UNL A   1      37.490  20.781  24.749  1.00  0.00     0.118 C 
ENDROOT
BRANCH   1   2
ATOM      2  N   UNL A   1      38.050  21.982  25.341  1.00  0.00    -0.352 N 
ATOM      3  C   UNL A   1      37.569  23.256  25.485  1.00  0.00     0.254 C 
ATOM      4  O   UNL A   1      38.301  24.060  26.064  1.00  0.00    -0.269 OA
ATOM      5  H   UNL A   1      38.953  21.855  25.714  1.00  0.00     0.163 HD
BRANCH   3   6
ATOM      6  C   UNL A   1      36.222  23.713  25.050  1.00  0.00     0.075 A 
ATOM      7  C   UNL A   1      33.644  24.738  24.424  1.00  0.00    -0.014 A 
ATOM      8  C   UNL A   1      34.184  24.906  25.703  1.00  0.00     0.010 A 
ATOM      9  C   UNL A   1      34.412  24.064  23.468  1.00  0.00     0.048 A 
ATOM     10  C   UNL A   1      35.454  24.398  26.011  1.00  0.00     0.017 A 
ATOM     11  C   UNL A   1      35.686  23.588  23.773  1.00  0.00     0.136 A 
ATOM     12  F   UNL A   1      36.367  23.062  22.753  1.00  0.00    -0.206 F 
BRANCH   7  13
ATOM     13  C   UNL A   1      32.327  25.262  24.046  1.00  0.00     0.001 A 
ATOM     14  C   UNL A   1      31.022  27.134  23.165  1.00  0.00     0.060 A 
ATOM     15  C   UNL A   1      29.836  26.473  23.500  1.00  0.00     0.017 A 
ATOM     16  C   UNL A   1      32.256  26.522  23.421  1.00  0.00     0.026 A 
ATOM     17  C   UNL A   1      29.889  25.210  24.093  1.00  0.00     0.022 A 
ATOM     18  C   UNL A   1      31.122  24.611  24.371  1.00  0.00     0.048 A 
ATOM     19  Cl  UNL A   1      31.100  23.076  25.169  1.00  0.00    -0.084 Cl
BRANCH  14  20
ATOM     20  C   UNL A   1      31.032  28.493  22.568  1.00  0.00     0.337 C 
ATOM     21  O   UNL A   1      31.970  29.260  22.658  1.00  0.00    -0.246 OA
BRANCH  20  22
ATOM     22  O   UNL A   1      29.827  28.753  22.001  1.00  0.00    -0.465 OA
ATOM     23  C   UNL A   1      29.519  30.144  21.910  1.00  0.00     0.282 C 
ENDBRANCH  20  22
ENDBRANCH  14  20
ENDBRANCH   7  13
ENDBRANCH   3   6
ENDBRANCH   1   2
BRANCH   1  24
ATOM     24  C   UNL A   1      38.394  19.575  25.001  1.00  0.00     0.042 C 
BRANCH  24  25
ATOM     25  C   UNL A   1      39.406  19.798  26.115  1.00  0.00     0.118 C 
BRANCH  25  26
ATOM     26  N   UNL A   1      40.509  18.850  26.049  1.00  0.00    -0.352 N 
ATOM     27  C   UNL A   1      41.861  19.087  26.036  1.00  0.00     0.251 C 
ATOM     28  H   UNL A   1      40.247  17.902  26.007  1.00  0.00     0.163 HD
ATOM     29  O   UNL A   1      42.641  18.184  25.752  1.00  0.00    -0.269 OA
BRANCH  27  30
ATOM     30  C   UNL A   1      42.379  20.433  26.358  1.00  0.00     0.039 A 
ATOM     31  C   UNL A   1      42.804  21.268  25.320  1.00  0.00     0.014 A 
ATOM     32  C   UNL A   1      42.470  20.860  27.686  1.00  0.00     0.014 A 
ATOM     33  C   UNL A   1      43.266  22.554  25.609  1.00  0.00     0.010 A 
ATOM     34  C   UNL A   1      42.859  22.164  27.965  1.00  0.00     0.010 A 
ATOM     35  C   UNL A   1      43.268  23.021  26.932  1.00  0.00    -0.014 A 
BRANCH  35  36
ATOM     36  C   UNL A   1      43.719  24.390  27.286  1.00  0.00     0.031 A 
ATOM     37  C   UNL A   1      42.710  25.392  27.775  1.00  0.00     0.074 A 
ATOM     38  C   UNL A   1      44.996  24.757  27.069  1.00  0.00     0.049 A 
ATOM     39  N   UNL A   1      42.839  26.682  27.946  1.00  0.00    -0.248 NA
ATOM     40  C   UNL A   1      41.365  24.877  28.086  1.00  0.00     0.031 C 
ATOM     41  C   UNL A   1      46.057  23.877  26.581  1.00  0.00     0.029 A 
ATOM     42  N   UNL A   1      45.611  25.978  27.205  1.00  0.00    -0.354 N 
ATOM     43  C   UNL A   1      41.591  27.133  28.350  1.00  0.00     0.074 A 
ATOM     44  C   UNL A   1      40.705  25.991  28.365  1.00  0.00     0.031 C 
ATOM     45  C   UNL A   1      47.193  24.583  26.461  1.00  0.00     0.029 A 
ATOM     46  C   UNL A   1      46.929  25.976  26.811  1.00  0.00     0.049 A 
ATOM     47  H   UNL A   1      45.153  26.778  27.550  1.00  0.00     0.167 HD
ATOM     48  C   UNL A   1      41.225  28.390  28.692  1.00  0.00     0.037 A 
ATOM     49  C   UNL A   1      47.813  26.989  26.718  1.00  0.00     0.037 A 
ATOM     50  C   UNL A   1      42.126  29.510  28.717  1.00  0.00     0.049 A 
ATOM     51  C   UNL A   1      47.377  28.380  27.091  1.00  0.00     0.074 A 
ATOM     52  C   UNL A   1      41.868  30.811  29.109  1.00  0.00     0.029 A 
ATOM     53  N   UNL A   1      43.460  29.458  28.342  1.00  0.00    -0.354 N 
ATOM     54  N   UNL A   1      46.204  28.792  27.507  1.00  0.00    -0.248 NA
ATOM     55  C   UNL A   1      48.379  29.450  26.980  1.00  0.00     0.031 C 
ATOM     56  C   UNL A   1      43.031  31.559  28.925  1.00  0.00     0.029 A 
ATOM     57  C   UNL A   1      44.032  30.711  28.475  1.00  0.00     0.049 A 
ATOM     58  H   UNL A   1      43.930  28.652  28.028  1.00  0.00     0.167 HD
ATOM     59  C   UNL A   1      46.336  30.154  27.740  1.00  0.00     0.074 A 
ATOM     60  C   UNL A   1      47.702  30.504  27.420  1.00  0.00     0.031 C 
ATOM     61  C   UNL A   1      45.404  31.032  28.183  1.00  0.00     0.037 A 
BRANCH  48  62
ATOM     62  C   UNL A   1      39.799  28.634  29.088  1.00  0.00     0.064 A 
ATOM     63  C   UNL A   1      38.881  29.141  28.155  1.00  0.00     0.173 A 
ATOM     64  C   UNL A   1      39.366  28.464  30.410  1.00  0.00     0.173 A 
ATOM     65  F   UNL A   1      39.247  29.328  26.877  1.00  0.00    -0.203 F 
ATOM     66  C   UNL A   1      37.589  29.489  28.538  1.00  0.00     0.198 A 
ATOM     67  C   UNL A   1      38.063  28.786  30.784  1.00  0.00     0.198 A 
ATOM     68  F   UNL A   1      40.202  27.974  31.338  1.00  0.00    -0.203 F 
ATOM     69  F   UNL A   1      36.743  30.012  27.640  1.00  0.00    -0.200 F 
ATOM     70  C   UNL A   1      37.181  29.311  29.851  1.00  0.00     0.200 A 
ATOM     71  F   UNL A   1      37.664  28.593  32.048  1.00  0.00    -0.200 F 
ATOM     72  F   UNL A   1      35.937  29.646  30.219  1.00  0.00    -0.200 F 
ENDBRANCH  48  62
BRANCH  49  73
ATOM     73  C   UNL A   1      49.202  26.716  26.261  1.00  0.00     0.064 A 
ATOM     74  C   UNL A   1      49.578  26.877  24.918  1.00  0.00     0.173 A 
ATOM     75  C   UNL A   1      50.179  26.267  27.160  1.00  0.00     0.173 A 
ATOM     76  F   UNL A   1      48.682  27.300  24.015  1.00  0.00    -0.203 F 
ATOM     77  C   UNL A   1      50.872  26.582  24.492  1.00  0.00     0.198 A 
ATOM     78  C   UNL A   1      51.480  26.000  26.738  1.00  0.00     0.198 A 
ATOM     79  F   UNL A   1      49.873  26.117  28.458  1.00  0.00    -0.203 F 
ATOM     80  F   UNL A   1      51.195  26.711  23.198  1.00  0.00    -0.200 F 
ATOM     81  C   UNL A   1      51.823  26.150  25.404  1.00  0.00     0.200 A 
ATOM     82  F   UNL A   1      52.402  25.607  27.627  1.00  0.00    -0.200 F 
ATOM     83  F   UNL A   1      53.071  25.881  24.997  1.00  0.00    -0.200 F 
ENDBRANCH  49  73
BRANCH  61  84
ATOM     84  C   UNL A   1      45.819  32.456  28.405  1.00  0.00     0.064 A 
ATOM     85  C   UNL A   1      46.243  32.873  29.677  1.00  0.00     0.173 A 
ATOM     86  C   UNL A   1      45.651  33.429  27.412  1.00  0.00     0.173 A 
ATOM     87  F   UNL A   1      46.407  31.977  30.662  1.00  0.00    -0.203 F 
ATOM     88  C   UNL A   1      46.444  34.220  29.956  1.00  0.00     0.198 A 
ATOM     89  C   UNL A   1      45.880  34.775  27.688  1.00  0.00     0.198 A 
ATOM     90  F   UNL A   1      45.258  33.076  26.179  1.00  0.00    -0.203 F 
ATOM     91  F   UNL A   1      46.790  34.602  31.194  1.00  0.00    -0.200 F 
ATOM     92  C   UNL A   1      46.260  35.170  28.964  1.00  0.00     0.200 A 
ATOM     93  F   UNL A   1      45.716  35.691  26.725  1.00  0.00    -0.200 F 
ATOM     94  F   UNL A   1      46.440  36.469  29.237  1.00  0.00    -0.200 F 
ENDBRANCH  61  84
ENDBRANCH  35  36
ENDBRANCH  27  30
ENDBRANCH  25  26
ENDBRANCH  24  25
ENDBRANCH   1  24
TORSDOF 13
ENDMDL
