MODEL 1
REMARK VINA RESULT:     -13.5      0.000      0.000
REMARK SMILES O=C(NCCCNC(=O)[C@H]1[NH2+]CC[C@H]1c1cccc(Oc2ccccc2)c1)c1ccc(-c2c3nc(c(-c4c(F)c(F)c(F)c(F)c4F)c4ccc([nH]4)c(-c4c(F)c(F)c(F)c(F)c4F)c4nc(c(-c5c(F)c(F)c(F)c(F)c5F)c5ccc2[nH]5)C=C4)C=C3)cc1
REMARK SMILES IDX 5 1 4 2 3 3 1 4 2 5 28 7 29 8 90 9 30 10 89 11 31 12 32 13
REMARK SMILES IDX 33 14 83 15 34 16 88 17 82 18 84 19 35 20 87 21 81 22 80 23
REMARK SMILES IDX 36 25 68 26 48 27 67 28 49 29 52 30 66 31 85 32 50 33 51 34
REMARK SMILES IDX 65 36 86 37 53 38 37 39 38 40 46 41 39 42 40 43 44 44 47 45
REMARK SMILES IDX 41 46 42 47 45 48 43 49 69 50 70 51 78 52 71 53 72 54 76 55
REMARK SMILES IDX 79 56 73 57 74 58 77 59 75 60 54 61 55 62 63 63 56 64 57 65
REMARK SMILES IDX 61 66 64 67 58 68 59 69 62 70 60 71 6 72 7 73 8 74 9 76
REMARK SMILES IDX 10 77 11 78 14 79 12 80 13 83 15 84 16 85 27 86 17 87 19 88
REMARK SMILES IDX 18 89 20 90 21 91 22 92 26 93 23 94 25 95 24 96
REMARK H PARENT 3 6 84 24 52 35 7 75 11 81 11 82
REMARK Flexibility Score: inf
ROOT
ATOM      1  C   UNL A   1      31.436  32.228  26.853  1.00  0.00     0.042 C 
ENDROOT
BRANCH   1   2
ATOM      2  C   UNL A   1      32.724  32.940  27.251  1.00  0.00     0.118 C 
BRANCH   2   3
ATOM      3  N   UNL A   1      32.492  34.302  27.719  1.00  0.00    -0.352 N 
ATOM      4  O   UNL A   1      32.589  36.061  29.124  1.00  0.00    -0.269 OA
ATOM      5  C   UNL A   1      33.051  34.978  28.772  1.00  0.00     0.251 C 
ATOM      6  H   UNL A   1      31.833  34.814  27.198  1.00  0.00     0.163 HD
BRANCH   5   7
ATOM      7  C   UNL A   1      34.211  34.409  29.488  1.00  0.00     0.039 A 
ATOM      8  C   UNL A   1      34.026  33.667  30.656  1.00  0.00     0.014 A 
ATOM      9  C   UNL A   1      35.493  34.575  28.957  1.00  0.00     0.014 A 
ATOM     10  C   UNL A   1      35.126  33.194  31.358  1.00  0.00     0.010 A 
ATOM     11  C   UNL A   1      36.593  34.020  29.615  1.00  0.00     0.010 A 
ATOM     12  C   UNL A   1      36.417  33.331  30.825  1.00  0.00    -0.014 A 
BRANCH  12  13
ATOM     13  C   UNL A   1      37.545  32.624  31.479  1.00  0.00     0.031 A 
ATOM     14  C   UNL A   1      38.235  31.469  30.817  1.00  0.00     0.074 A 
ATOM     15  C   UNL A   1      37.932  33.049  32.697  1.00  0.00     0.049 A 
ATOM     16  N   UNL A   1      39.223  30.737  31.269  1.00  0.00    -0.248 NA
ATOM     17  C   UNL A   1      37.761  31.076  29.482  1.00  0.00     0.031 C 
ATOM     18  C   UNL A   1      37.310  34.151  33.440  1.00  0.00     0.029 A 
ATOM     19  N   UNL A   1      38.932  32.617  33.529  1.00  0.00    -0.354 N 
ATOM     20  C   UNL A   1      39.475  29.788  30.288  1.00  0.00     0.074 A 
ATOM     21  C   UNL A   1      38.530  30.026  29.218  1.00  0.00     0.031 C 
ATOM     22  C   UNL A   1      37.957  34.324  34.600  1.00  0.00     0.029 A 
ATOM     23  C   UNL A   1      38.989  33.302  34.718  1.00  0.00     0.049 A 
ATOM     24  H   UNL A   1      39.550  31.886  33.297  1.00  0.00     0.167 HD
ATOM     25  C   UNL A   1      40.413  28.812  30.292  1.00  0.00     0.037 A 
ATOM     26  C   UNL A   1      39.759  33.106  35.804  1.00  0.00     0.037 A 
ATOM     27  C   UNL A   1      41.362  28.603  31.357  1.00  0.00     0.049 A 
ATOM     28  C   UNL A   1      40.764  31.990  35.782  1.00  0.00     0.074 A 
ATOM     29  C   UNL A   1      42.405  27.693  31.412  1.00  0.00     0.029 A 
ATOM     30  N   UNL A   1      41.373  29.298  32.557  1.00  0.00    -0.354 N 
ATOM     31  N   UNL A   1      41.045  31.150  34.816  1.00  0.00    -0.248 NA
ATOM     32  C   UNL A   1      41.552  31.787  37.004  1.00  0.00     0.031 C 
ATOM     33  C   UNL A   1      43.005  27.794  32.672  1.00  0.00     0.029 A 
ATOM     34  C   UNL A   1      42.373  28.804  33.379  1.00  0.00     0.049 A 
ATOM     35  H   UNL A   1      40.761  30.033  32.789  1.00  0.00     0.167 HD
ATOM     36  C   UNL A   1      42.046  30.327  35.309  1.00  0.00     0.074 A 
ATOM     37  C   UNL A   1      42.348  30.791  36.646  1.00  0.00     0.031 C 
ATOM     38  C   UNL A   1      42.653  29.274  34.711  1.00  0.00     0.037 A 
BRANCH  25  39
ATOM     39  C   UNL A   1      40.470  27.871  29.124  1.00  0.00     0.064 A 
ATOM     40  C   UNL A   1      39.672  26.720  29.061  1.00  0.00     0.173 A 
ATOM     41  C   UNL A   1      41.252  28.190  28.001  1.00  0.00     0.173 A 
ATOM     42  F   UNL A   1      38.911  26.368  30.108  1.00  0.00    -0.203 F 
ATOM     43  C   UNL A   1      39.655  25.922  27.918  1.00  0.00     0.198 A 
ATOM     44  C   UNL A   1      41.214  27.403  26.854  1.00  0.00     0.198 A 
ATOM     45  F   UNL A   1      42.028  29.285  28.007  1.00  0.00    -0.203 F 
ATOM     46  F   UNL A   1      38.897  24.818  27.886  1.00  0.00    -0.200 F 
ATOM     47  C   UNL A   1      40.417  26.270  26.812  1.00  0.00     0.200 A 
ATOM     48  F   UNL A   1      41.939  27.751  25.781  1.00  0.00    -0.200 F 
ATOM     49  F   UNL A   1      40.380  25.515  25.706  1.00  0.00    -0.200 F 
ENDBRANCH  25  39
BRANCH  26  50
ATOM     50  C   UNL A   1      39.573  33.948  37.013  1.00  0.00     0.064 A 
ATOM     51  C   UNL A   1      38.774  33.520  38.082  1.00  0.00     0.173 A 
ATOM     52  C   UNL A   1      40.175  35.212  37.116  1.00  0.00     0.173 A 
ATOM     53  F   UNL A   1      38.162  32.327  38.025  1.00  0.00    -0.203 F 
ATOM     54  C   UNL A   1      38.557  34.336  39.190  1.00  0.00     0.198 A 
ATOM     55  C   UNL A   1      39.988  36.011  38.241  1.00  0.00     0.198 A 
ATOM     56  F   UNL A   1      40.955  35.668  36.125  1.00  0.00    -0.203 F 
ATOM     57  F   UNL A   1      37.738  33.928  40.168  1.00  0.00    -0.200 F 
ATOM     58  C   UNL A   1      39.169  35.579  39.270  1.00  0.00     0.200 A 
ATOM     59  F   UNL A   1      40.598  37.202  38.321  1.00  0.00    -0.200 F 
ATOM     60  F   UNL A   1      38.959  36.363  40.336  1.00  0.00    -0.200 F 
ENDBRANCH  26  50
BRANCH  38  61
ATOM     61  C   UNL A   1      43.707  28.557  35.502  1.00  0.00     0.064 A 
ATOM     62  C   UNL A   1      43.382  27.486  36.348  1.00  0.00     0.173 A 
ATOM     63  C   UNL A   1      45.056  28.923  35.392  1.00  0.00     0.173 A 
ATOM     64  F   UNL A   1      42.102  27.113  36.504  1.00  0.00    -0.203 F 
ATOM     65  C   UNL A   1      44.368  26.824  37.074  1.00  0.00     0.198 A 
ATOM     66  C   UNL A   1      46.043  28.236  36.093  1.00  0.00     0.198 A 
ATOM     67  F   UNL A   1      45.420  29.938  34.593  1.00  0.00    -0.203 F 
ATOM     68  F   UNL A   1      44.028  25.837  37.915  1.00  0.00    -0.200 F 
ATOM     69  C   UNL A   1      45.698  27.194  36.939  1.00  0.00     0.200 A 
ATOM     70  F   UNL A   1      47.329  28.586  35.952  1.00  0.00    -0.200 F 
ATOM     71  F   UNL A   1      46.646  26.549  37.631  1.00  0.00    -0.200 F 
ENDBRANCH  38  61
ENDBRANCH  12  13
ENDBRANCH   5   7
ENDBRANCH   2   3
ENDBRANCH   1   2
BRANCH   1  72
ATOM     72  C   UNL A   1      31.665  30.937  26.084  1.00  0.00     0.118 C 
BRANCH  72  73
ATOM     73  N   UNL A   1      31.403  29.761  26.890  1.00  0.00    -0.351 N 
ATOM     74  C   UNL A   1      32.006  28.538  26.848  1.00  0.00     0.278 C 
ATOM     75  H   UNL A   1      30.689  29.858  27.562  1.00  0.00     0.163 HD
ATOM     76  O   UNL A   1      31.900  27.837  27.856  1.00  0.00    -0.268 OA
BRANCH  74  77
ATOM     77  C   UNL A   1      32.866  28.148  25.629  1.00  0.00     0.280 C 
ATOM     78  N   UNL A   1      33.501  26.832  25.910  1.00  0.00    -0.335 N 
ATOM     79  C   UNL A   1      32.215  28.012  24.236  1.00  0.00     0.093 C 
ATOM     80  C   UNL A   1      33.825  26.238  24.609  1.00  0.00     0.262 C 
ATOM     81  H   UNL A   1      32.853  26.231  26.421  1.00  0.00     0.346 HD
ATOM     82  H   UNL A   1      34.337  26.942  26.484  1.00  0.00     0.346 HD
ATOM     83  C   UNL A   1      33.284  27.168  23.533  1.00  0.00     0.076 C 
BRANCH  79  84
ATOM     84  C   UNL A   1      30.787  27.500  24.154  1.00  0.00    -0.034 A 
ATOM     85  C   UNL A   1      30.337  26.287  24.686  1.00  0.00     0.004 A 
ATOM     86  C   UNL A   1      29.855  28.294  23.458  1.00  0.00     0.051 A 
ATOM     87  C   UNL A   1      29.001  25.896  24.542  1.00  0.00     0.004 A 
ATOM     88  C   UNL A   1      28.510  27.931  23.338  1.00  0.00     0.127 A 
ATOM     89  C   UNL A   1      28.089  26.719  23.877  1.00  0.00     0.047 A 
BRANCH  88  90
ATOM     90  O   UNL A   1      27.533  28.692  22.724  1.00  0.00    -0.457 OA
BRANCH  90  91
ATOM     91  C   UNL A   1      27.812  30.015  22.473  1.00  0.00     0.127 A 
ATOM     92  C   UNL A   1      27.807  30.919  23.533  1.00  0.00     0.047 A 
ATOM     93  C   UNL A   1      28.059  30.454  21.170  1.00  0.00     0.047 A 
ATOM     94  C   UNL A   1      28.105  32.262  23.297  1.00  0.00     0.004 A 
ATOM     95  C   UNL A   1      28.380  31.790  20.939  1.00  0.00     0.004 A 
ATOM     96  C   UNL A   1      28.405  32.694  22.003  1.00  0.00     0.000 A 
ENDBRANCH  90  91
ENDBRANCH  88  90
ENDBRANCH  79  84
ENDBRANCH  74  77
ENDBRANCH  72  73
ENDBRANCH   1  72
TORSDOF 13
ENDMDL
MODEL 2
REMARK VINA RESULT:     -13.5      0.103      1.587
REMARK SMILES O=C(NCCCNC(=O)[C@H]1[NH2+]CC[C@H]1c1cccc(Oc2ccccc2)c1)c1ccc(-c2c3nc(c(-c4c(F)c(F)c(F)c(F)c4F)c4ccc([nH]4)c(-c4c(F)c(F)c(F)c(F)c4F)c4nc(c(-c5c(F)c(F)c(F)c(F)c5F)c5ccc2[nH]5)C=C4)C=C3)cc1
REMARK SMILES IDX 5 1 4 2 3 3 1 4 2 5 28 7 29 8 90 9 30 10 89 11 31 12 32 13
REMARK SMILES IDX 33 14 83 15 34 16 88 17 82 18 84 19 35 20 87 21 81 22 80 23
REMARK SMILES IDX 36 25 68 26 48 27 67 28 49 29 52 30 66 31 85 32 50 33 51 34
REMARK SMILES IDX 65 36 86 37 53 38 37 39 38 40 46 41 39 42 40 43 44 44 47 45
REMARK SMILES IDX 41 46 42 47 45 48 43 49 69 50 70 51 78 52 71 53 72 54 76 55
REMARK SMILES IDX 79 56 73 57 74 58 77 59 75 60 54 61 55 62 63 63 56 64 57 65
REMARK SMILES IDX 61 66 64 67 58 68 59 69 62 70 60 71 6 72 7 73 8 74 9 76
REMARK SMILES IDX 10 77 11 78 14 79 12 80 13 83 15 84 16 85 27 86 17 87 19 88
REMARK SMILES IDX 18 89 20 90 21 91 22 92 26 93 23 94 25 95 24 96
REMARK H PARENT 3 6 84 24 52 35 7 75 11 81 11 82
REMARK Flexibility Score: inf
ROOT
ATOM      1  C   UNL A   1      31.404  32.266  26.595  1.00  0.00     0.042 C 
ENDROOT
BRANCH   1   2
ATOM      2  C   UNL A   1      32.645  32.860  27.251  1.00  0.00     0.118 C 
BRANCH   2   3
ATOM      3  N   UNL A   1      32.460  34.250  27.650  1.00  0.00    -0.352 N 
ATOM      4  O   UNL A   1      32.631  36.076  28.959  1.00  0.00    -0.269 OA
ATOM      5  C   UNL A   1      33.057  34.963  28.657  1.00  0.00     0.251 C 
ATOM      6  H   UNL A   1      31.806  34.753  27.114  1.00  0.00     0.163 HD
BRANCH   5   7
ATOM      7  C   UNL A   1      34.212  34.399  29.384  1.00  0.00     0.039 A 
ATOM      8  C   UNL A   1      34.027  33.727  30.593  1.00  0.00     0.014 A 
ATOM      9  C   UNL A   1      35.488  34.498  28.823  1.00  0.00     0.014 A 
ATOM     10  C   UNL A   1      35.126  33.259  31.301  1.00  0.00     0.010 A 
ATOM     11  C   UNL A   1      36.584  33.946  29.491  1.00  0.00     0.010 A 
ATOM     12  C   UNL A   1      36.410  33.329  30.739  1.00  0.00    -0.014 A 
BRANCH  12  13
ATOM     13  C   UNL A   1      37.529  32.625  31.411  1.00  0.00     0.031 A 
ATOM     14  C   UNL A   1      38.220  31.458  30.770  1.00  0.00     0.074 A 
ATOM     15  C   UNL A   1      37.908  33.063  32.628  1.00  0.00     0.049 A 
ATOM     16  N   UNL A   1      39.200  30.727  31.239  1.00  0.00    -0.248 NA
ATOM     17  C   UNL A   1      37.755  31.051  29.435  1.00  0.00     0.031 C 
ATOM     18  C   UNL A   1      37.285  34.176  33.351  1.00  0.00     0.029 A 
ATOM     19  N   UNL A   1      38.899  32.636  33.473  1.00  0.00    -0.354 N 
ATOM     20  C   UNL A   1      39.456  29.765  30.271  1.00  0.00     0.074 A 
ATOM     21  C   UNL A   1      38.521  29.995  29.191  1.00  0.00     0.031 C 
ATOM     22  C   UNL A   1      37.923  34.360  34.515  1.00  0.00     0.029 A 
ATOM     23  C   UNL A   1      38.949  33.335  34.655  1.00  0.00     0.049 A 
ATOM     24  H   UNL A   1      39.515  31.899  33.255  1.00  0.00     0.167 HD
ATOM     25  C   UNL A   1      40.389  28.785  30.295  1.00  0.00     0.037 A 
ATOM     26  C   UNL A   1      39.709  33.148  35.749  1.00  0.00     0.037 A 
ATOM     27  C   UNL A   1      41.327  28.584  31.370  1.00  0.00     0.049 A 
ATOM     28  C   UNL A   1      40.708  32.027  35.749  1.00  0.00     0.074 A 
ATOM     29  C   UNL A   1      42.366  27.671  31.446  1.00  0.00     0.029 A 
ATOM     30  N   UNL A   1      41.332  29.294  32.562  1.00  0.00    -0.354 N 
ATOM     31  N   UNL A   1      40.994  31.175  34.796  1.00  0.00    -0.248 NA
ATOM     32  C   UNL A   1      41.485  31.836  36.980  1.00  0.00     0.031 C 
ATOM     33  C   UNL A   1      42.955  27.783  32.709  1.00  0.00     0.029 A 
ATOM     34  C   UNL A   1      42.323  28.805  33.399  1.00  0.00     0.049 A 
ATOM     35  H   UNL A   1      40.722  30.034  32.780  1.00  0.00     0.167 HD
ATOM     36  C   UNL A   1      41.986  30.353  35.307  1.00  0.00     0.074 A 
ATOM     37  C   UNL A   1      42.279  30.831  36.641  1.00  0.00     0.031 C 
ATOM     38  C   UNL A   1      42.593  29.290  34.727  1.00  0.00     0.037 A 
BRANCH  25  39
ATOM     39  C   UNL A   1      40.452  27.830  29.139  1.00  0.00     0.064 A 
ATOM     40  C   UNL A   1      39.664  26.671  29.093  1.00  0.00     0.173 A 
ATOM     41  C   UNL A   1      41.228  28.141  28.010  1.00  0.00     0.173 A 
ATOM     42  F   UNL A   1      38.909  26.325  30.146  1.00  0.00    -0.203 F 
ATOM     43  C   UNL A   1      39.651  25.858  27.960  1.00  0.00     0.198 A 
ATOM     44  C   UNL A   1      41.194  27.340  26.873  1.00  0.00     0.198 A 
ATOM     45  F   UNL A   1      41.993  29.243  28.000  1.00  0.00    -0.203 F 
ATOM     46  F   UNL A   1      38.903  24.747  27.944  1.00  0.00    -0.200 F 
ATOM     47  C   UNL A   1      40.407  26.199  26.848  1.00  0.00     0.200 A 
ATOM     48  F   UNL A   1      41.913  27.680  25.794  1.00  0.00    -0.200 F 
ATOM     49  F   UNL A   1      40.374  25.430  25.752  1.00  0.00    -0.200 F 
ENDBRANCH  25  39
BRANCH  26  50
ATOM     50  C   UNL A   1      39.516  34.006  36.947  1.00  0.00     0.064 A 
ATOM     51  C   UNL A   1      40.132  35.260  37.051  1.00  0.00     0.173 A 
ATOM     52  C   UNL A   1      38.726  33.577  38.025  1.00  0.00     0.173 A 
ATOM     53  F   UNL A   1      40.912  35.707  36.054  1.00  0.00    -0.203 F 
ATOM     54  C   UNL A   1      39.993  36.036  38.199  1.00  0.00     0.198 A 
ATOM     55  C   UNL A   1      38.557  34.371  39.156  1.00  0.00     0.198 A 
ATOM     56  F   UNL A   1      38.107  32.388  37.975  1.00  0.00    -0.203 F 
ATOM     57  F   UNL A   1      40.645  37.203  38.297  1.00  0.00    -0.200 F 
ATOM     58  C   UNL A   1      39.202  35.593  39.249  1.00  0.00     0.200 A 
ATOM     59  F   UNL A   1      37.775  33.946  40.159  1.00  0.00    -0.200 F 
ATOM     60  F   UNL A   1      39.071  36.341  40.352  1.00  0.00    -0.200 F 
ENDBRANCH  26  50
BRANCH  38  61
ATOM     61  C   UNL A   1      43.637  28.577  35.536  1.00  0.00     0.064 A 
ATOM     62  C   UNL A   1      44.996  28.912  35.430  1.00  0.00     0.173 A 
ATOM     63  C   UNL A   1      43.275  27.574  36.446  1.00  0.00     0.173 A 
ATOM     64  F   UNL A   1      45.394  29.851  34.558  1.00  0.00    -0.203 F 
ATOM     65  C   UNL A   1      45.956  28.249  36.189  1.00  0.00     0.198 A 
ATOM     66  C   UNL A   1      44.234  26.937  37.228  1.00  0.00     0.198 A 
ATOM     67  F   UNL A   1      41.989  27.220  36.587  1.00  0.00    -0.203 F 
ATOM     68  F   UNL A   1      47.253  28.549  36.034  1.00  0.00    -0.200 F 
ATOM     69  C   UNL A   1      45.573  27.269  37.093  1.00  0.00     0.200 A 
ATOM     70  F   UNL A   1      43.863  25.999  38.109  1.00  0.00    -0.200 F 
ATOM     71  F   UNL A   1      46.499  26.638  37.829  1.00  0.00    -0.200 F 
ENDBRANCH  38  61
ENDBRANCH  12  13
ENDBRANCH   5   7
ENDBRANCH   2   3
ENDBRANCH   1   2
BRANCH   1  72
ATOM     72  C   UNL A   1      31.656  30.936  25.902  1.00  0.00     0.118 C 
BRANCH  72  73
ATOM     73  N   UNL A   1      31.403  29.805  26.773  1.00  0.00    -0.351 N 
ATOM     74  C   UNL A   1      32.018  28.586  26.799  1.00  0.00     0.278 C 
ATOM     75  H   UNL A   1      30.688  29.933  27.438  1.00  0.00     0.163 HD
ATOM     76  O   UNL A   1      31.916  27.942  27.845  1.00  0.00    -0.268 OA
BRANCH  74  77
ATOM     77  C   UNL A   1      32.882  28.137  25.605  1.00  0.00     0.280 C 
ATOM     78  N   UNL A   1      33.497  26.826  25.944  1.00  0.00    -0.335 N 
ATOM     79  C   UNL A   1      32.241  27.953  24.213  1.00  0.00     0.093 C 
ATOM     80  C   UNL A   1      33.824  26.175  24.671  1.00  0.00     0.262 C 
ATOM     81  H   UNL A   1      32.838  26.254  26.472  1.00  0.00     0.346 HD
ATOM     82  H   UNL A   1      34.330  26.948  26.520  1.00  0.00     0.346 HD
ATOM     83  C   UNL A   1      33.304  27.068  23.553  1.00  0.00     0.076 C 
BRANCH  79  84
ATOM     84  C   UNL A   1      30.807  27.457  24.139  1.00  0.00    -0.034 A 
ATOM     85  C   UNL A   1      30.346  26.251  24.679  1.00  0.00     0.004 A 
ATOM     86  C   UNL A   1      29.881  28.258  23.443  1.00  0.00     0.051 A 
ATOM     87  C   UNL A   1      29.005  25.874  24.541  1.00  0.00     0.004 A 
ATOM     88  C   UNL A   1      28.531  27.909  23.330  1.00  0.00     0.127 A 
ATOM     89  C   UNL A   1      28.100  26.704  23.876  1.00  0.00     0.047 A 
BRANCH  88  90
ATOM     90  O   UNL A   1      27.561  28.678  22.716  1.00  0.00    -0.457 OA
BRANCH  90  91
ATOM     91  C   UNL A   1      27.849  29.999  22.468  1.00  0.00     0.127 A 
ATOM     92  C   UNL A   1      27.921  30.888  23.540  1.00  0.00     0.047 A 
ATOM     93  C   UNL A   1      28.028  30.453  21.159  1.00  0.00     0.047 A 
ATOM     94  C   UNL A   1      28.230  32.228  23.305  1.00  0.00     0.004 A 
ATOM     95  C   UNL A   1      28.360  31.787  20.929  1.00  0.00     0.004 A 
ATOM     96  C   UNL A   1      28.463  32.675  22.002  1.00  0.00     0.000 A 
ENDBRANCH  90  91
ENDBRANCH  88  90
ENDBRANCH  79  84
ENDBRANCH  74  77
ENDBRANCH  72  73
ENDBRANCH   1  72
TORSDOF 13
ENDMDL
MODEL 3
REMARK VINA RESULT:     -13.2      5.993     11.266
REMARK SMILES O=C(NCCCNC(=O)[C@H]1[NH2+]CC[C@H]1c1cccc(Oc2ccccc2)c1)c1ccc(-c2c3nc(c(-c4c(F)c(F)c(F)c(F)c4F)c4ccc([nH]4)c(-c4c(F)c(F)c(F)c(F)c4F)c4nc(c(-c5c(F)c(F)c(F)c(F)c5F)c5ccc2[nH]5)C=C4)C=C3)cc1
REMARK SMILES IDX 5 1 4 2 3 3 1 4 2 5 28 7 29 8 90 9 30 10 89 11 31 12 32 13
REMARK SMILES IDX 33 14 83 15 34 16 88 17 82 18 84 19 35 20 87 21 81 22 80 23
REMARK SMILES IDX 36 25 68 26 48 27 67 28 49 29 52 30 66 31 85 32 50 33 51 34
REMARK SMILES IDX 65 36 86 37 53 38 37 39 38 40 46 41 39 42 40 43 44 44 47 45
REMARK SMILES IDX 41 46 42 47 45 48 43 49 69 50 70 51 78 52 71 53 72 54 76 55
REMARK SMILES IDX 79 56 73 57 74 58 77 59 75 60 54 61 55 62 63 63 56 64 57 65
REMARK SMILES IDX 61 66 64 67 58 68 59 69 62 70 60 71 6 72 7 73 8 74 9 76
REMARK SMILES IDX 10 77 11 78 14 79 12 80 13 83 15 84 16 85 27 86 17 87 19 88
REMARK SMILES IDX 18 89 20 90 21 91 22 92 26 93 23 94 25 95 24 96
REMARK H PARENT 3 6 84 24 52 35 7 75 11 81 11 82
REMARK Flexibility Score: inf
ROOT
ATOM      1  C   UNL A   1      38.038  19.957  25.002  1.00  0.00     0.042 C 
ENDROOT
BRANCH   1   2
ATOM      2  C   UNL A   1      39.050  20.167  26.122  1.00  0.00     0.118 C 
BRANCH   2   3
ATOM      3  N   UNL A   1      40.144  19.203  26.082  1.00  0.00    -0.352 N 
ATOM      4  O   UNL A   1      42.266  18.475  25.870  1.00  0.00    -0.269 OA
ATOM      5  C   UNL A   1      41.499  19.407  26.103  1.00  0.00     0.251 C 
ATOM      6  H   UNL A   1      39.865  18.260  26.032  1.00  0.00     0.163 HD
BRANCH   5   7
ATOM      7  C   UNL A   1      42.044  20.746  26.403  1.00  0.00     0.039 A 
ATOM      8  C   UNL A   1      42.273  21.663  25.376  1.00  0.00     0.014 A 
ATOM      9  C   UNL A   1      42.279  21.107  27.733  1.00  0.00     0.014 A 
ATOM     10  C   UNL A   1      42.848  22.894  25.661  1.00  0.00     0.010 A 
ATOM     11  C   UNL A   1      42.771  22.380  28.029  1.00  0.00     0.010 A 
ATOM     12  C   UNL A   1      43.067  23.280  26.993  1.00  0.00    -0.014 A 
BRANCH  12  13
ATOM     13  C   UNL A   1      43.469  24.679  27.280  1.00  0.00     0.031 A 
ATOM     14  C   UNL A   1      42.483  25.691  27.781  1.00  0.00     0.074 A 
ATOM     15  C   UNL A   1      44.756  25.018  27.072  1.00  0.00     0.049 A 
ATOM     16  N   UNL A   1      42.678  26.956  28.059  1.00  0.00    -0.248 NA
ATOM     17  C   UNL A   1      41.100  25.237  27.995  1.00  0.00     0.031 C 
ATOM     18  C   UNL A   1      45.792  24.113  26.563  1.00  0.00     0.029 A 
ATOM     19  N   UNL A   1      45.419  26.203  27.257  1.00  0.00    -0.354 N 
ATOM     20  C   UNL A   1      41.445  27.453  28.460  1.00  0.00     0.074 A 
ATOM     21  C   UNL A   1      40.502  26.358  28.379  1.00  0.00     0.031 C 
ATOM     22  C   UNL A   1      46.960  24.766  26.503  1.00  0.00     0.029 A 
ATOM     23  C   UNL A   1      46.743  26.152  26.896  1.00  0.00     0.049 A 
ATOM     24  H   UNL A   1      44.988  27.013  27.615  1.00  0.00     0.167 HD
ATOM     25  C   UNL A   1      41.141  28.711  28.858  1.00  0.00     0.037 A 
ATOM     26  C   UNL A   1      47.674  27.122  26.846  1.00  0.00     0.037 A 
ATOM     27  C   UNL A   1      42.097  29.785  28.953  1.00  0.00     0.049 A 
ATOM     28  C   UNL A   1      47.287  28.513  27.262  1.00  0.00     0.074 A 
ATOM     29  C   UNL A   1      41.901  31.072  29.426  1.00  0.00     0.029 A 
ATOM     30  N   UNL A   1      43.423  29.704  28.554  1.00  0.00    -0.354 N 
ATOM     31  N   UNL A   1      46.138  28.950  27.715  1.00  0.00    -0.248 NA
ATOM     32  C   UNL A   1      48.324  29.547  27.152  1.00  0.00     0.031 C 
ATOM     33  C   UNL A   1      43.090  31.787  29.252  1.00  0.00     0.029 A 
ATOM     34  C   UNL A   1      44.043  30.932  28.724  1.00  0.00     0.049 A 
ATOM     35  H   UNL A   1      43.858  28.895  28.202  1.00  0.00     0.167 HD
ATOM     36  C   UNL A   1      46.314  30.305  27.950  1.00  0.00     0.074 A 
ATOM     37  C   UNL A   1      47.691  30.610  27.625  1.00  0.00     0.031 C 
ATOM     38  C   UNL A   1      45.413  31.218  28.386  1.00  0.00     0.037 A 
BRANCH  25  39
ATOM     39  C   UNL A   1      39.716  29.024  29.210  1.00  0.00     0.064 A 
ATOM     40  C   UNL A   1      38.787  29.434  28.243  1.00  0.00     0.173 A 
ATOM     41  C   UNL A   1      39.248  28.800  30.515  1.00  0.00     0.173 A 
ATOM     42  F   UNL A   1      39.183  29.668  26.983  1.00  0.00    -0.203 F 
ATOM     43  C   UNL A   1      37.443  29.608  28.569  1.00  0.00     0.198 A 
ATOM     44  C   UNL A   1      37.902  28.952  30.832  1.00  0.00     0.198 A 
ATOM     45  F   UNL A   1      40.095  28.399  31.476  1.00  0.00    -0.203 F 
ATOM     46  F   UNL A   1      36.576  30.016  27.633  1.00  0.00    -0.200 F 
ATOM     47  C   UNL A   1      37.000  29.357  29.859  1.00  0.00     0.200 A 
ATOM     48  F   UNL A   1      37.473  28.693  32.075  1.00  0.00    -0.200 F 
ATOM     49  F   UNL A   1      35.703  29.501  30.165  1.00  0.00    -0.200 F 
ENDBRANCH  25  39
BRANCH  26  50
ATOM     50  C   UNL A   1      49.037  26.823  26.338  1.00  0.00     0.064 A 
ATOM     51  C   UNL A   1      49.366  27.003  24.988  1.00  0.00     0.173 A 
ATOM     52  C   UNL A   1      50.037  26.330  27.192  1.00  0.00     0.173 A 
ATOM     53  F   UNL A   1      48.441  27.456  24.128  1.00  0.00    -0.203 F 
ATOM     54  C   UNL A   1      50.630  26.670  24.505  1.00  0.00     0.198 A 
ATOM     55  C   UNL A   1      51.311  26.032  26.716  1.00  0.00     0.198 A 
ATOM     56  F   UNL A   1      49.777  26.146  28.495  1.00  0.00    -0.203 F 
ATOM     57  F   UNL A   1      50.897  26.792  23.198  1.00  0.00    -0.200 F 
ATOM     58  C   UNL A   1      51.602  26.189  25.370  1.00  0.00     0.200 A 
ATOM     59  F   UNL A   1      52.252  25.588  27.560  1.00  0.00    -0.200 F 
ATOM     60  F   UNL A   1      52.816  25.868  24.904  1.00  0.00    -0.200 F 
ENDBRANCH  26  50
BRANCH  38  61
ATOM     61  C   UNL A   1      45.895  32.631  28.540  1.00  0.00     0.064 A 
ATOM     62  C   UNL A   1      45.765  33.562  27.499  1.00  0.00     0.173 A 
ATOM     63  C   UNL A   1      46.463  33.065  29.746  1.00  0.00     0.173 A 
ATOM     64  F   UNL A   1      45.247  33.189  26.319  1.00  0.00    -0.203 F 
ATOM     65  C   UNL A   1      46.210  34.872  27.653  1.00  0.00     0.198 A 
ATOM     66  C   UNL A   1      46.876  34.384  29.908  1.00  0.00     0.198 A 
ATOM     67  F   UNL A   1      46.606  32.214  30.773  1.00  0.00    -0.203 F 
ATOM     68  F   UNL A   1      46.123  35.731  26.628  1.00  0.00    -0.200 F 
ATOM     69  C   UNL A   1      46.756  35.284  28.859  1.00  0.00     0.200 A 
ATOM     70  F   UNL A   1      47.392  34.785  31.077  1.00  0.00    -0.200 F 
ATOM     71  F   UNL A   1      47.176  36.548  29.009  1.00  0.00    -0.200 F 
ENDBRANCH  38  61
ENDBRANCH  12  13
ENDBRANCH   5   7
ENDBRANCH   2   3
ENDBRANCH   1   2
BRANCH   1  72
ATOM     72  C   UNL A   1      37.282  21.218  24.617  1.00  0.00     0.118 C 
BRANCH  72  73
ATOM     73  N   UNL A   1      36.383  21.662  25.664  1.00  0.00    -0.351 N 
ATOM     74  C   UNL A   1      35.118  21.236  25.949  1.00  0.00     0.278 C 
ATOM     75  H   UNL A   1      36.733  22.371  26.251  1.00  0.00     0.163 HD
ATOM     76  O   UNL A   1      34.704  21.464  27.087  1.00  0.00    -0.268 OA
BRANCH  74  77
ATOM     77  C   UNL A   1      34.335  20.410  24.909  1.00  0.00     0.280 C 
ATOM     78  N   UNL A   1      33.667  19.285  25.617  1.00  0.00    -0.335 N 
ATOM     79  C   UNL A   1      33.237  21.081  24.057  1.00  0.00     0.093 C 
ATOM     80  C   UNL A   1      32.535  18.876  24.779  1.00  0.00     0.262 C 
ATOM     81  H   UNL A   1      33.335  19.593  26.532  1.00  0.00     0.346 HD
ATOM     82  H   UNL A   1      34.312  18.510  25.769  1.00  0.00     0.346 HD
ATOM     83  C   UNL A   1      32.466  19.837  23.601  1.00  0.00     0.076 C 
BRANCH  79  84
ATOM     84  C   UNL A   1      32.415  22.194  24.686  1.00  0.00    -0.034 A 
ATOM     85  C   UNL A   1      31.521  22.028  25.750  1.00  0.00     0.004 A 
ATOM     86  C   UNL A   1      32.538  23.481  24.130  1.00  0.00     0.051 A 
ATOM     87  C   UNL A   1      30.795  23.116  26.247  1.00  0.00     0.004 A 
ATOM     88  C   UNL A   1      31.845  24.583  24.641  1.00  0.00     0.127 A 
ATOM     89  C   UNL A   1      30.963  24.391  25.700  1.00  0.00     0.047 A 
BRANCH  88  90
ATOM     90  O   UNL A   1      31.968  25.882  24.184  1.00  0.00    -0.457 OA
BRANCH  90  91
ATOM     91  C   UNL A   1      32.335  26.850  25.088  1.00  0.00     0.127 A 
ATOM     92  C   UNL A   1      33.634  26.842  25.595  1.00  0.00     0.047 A 
ATOM     93  C   UNL A   1      31.412  27.803  25.522  1.00  0.00     0.047 A 
ATOM     94  C   UNL A   1      34.027  27.828  26.500  1.00  0.00     0.004 A 
ATOM     95  C   UNL A   1      31.814  28.802  26.408  1.00  0.00     0.004 A 
ATOM     96  C   UNL A   1      33.121  28.816  26.896  1.00  0.00     0.000 A 
ENDBRANCH  90  91
ENDBRANCH  88  90
ENDBRANCH  79  84
ENDBRANCH  74  77
ENDBRANCH  72  73
ENDBRANCH   1  72
TORSDOF 13
ENDMDL
