MODEL 1
REMARK VINA RESULT:     -12.7      0.000      0.000
REMARK SMILES O=C(CN1C(=O)/C(=C\c2cccs2)SC1=S)Nc1ccccc1C(=O)NCCCNC(=O)c1ccc(-c2c3nc(c(-c4c(F)c(F)c(F)c(F)c4F)c4ccc([nH]4)c(-c4c(F)c(F)c(F)c(F)c4F)c4nc(c(-c5c(F)c(F)c(F)c(F)c5F)c5ccc2[nH]5)C=C4)C=C3)cc1
REMARK SMILES IDX 27 1 26 2 24 3 25 4 23 6 18 7 19 8 20 9 22 10 21 11 17 12
REMARK SMILES IDX 1 13 2 14 3 16 4 17 5 18 15 19 6 20 7 21 14 22 16 23 8 24
REMARK SMILES IDX 9 25 10 26 13 27 11 28 12 29 28 30 29 31 30 32 31 33 32 35
REMARK SMILES IDX 33 36 34 37 95 38 35 39 94 40 36 41 37 42 38 43 88 44 39 45
REMARK SMILES IDX 93 46 87 47 89 48 40 49 92 50 86 51 85 52 41 54 73 55 53 56
REMARK SMILES IDX 72 57 54 58 57 59 71 60 90 61 55 62 56 63 70 65 91 66 58 67
REMARK SMILES IDX 42 68 43 69 51 70 44 71 45 72 49 73 52 74 46 75 47 76 50 77
REMARK SMILES IDX 48 78 74 79 75 80 83 81 76 82 77 83 81 84 84 85 78 86 79 87
REMARK SMILES IDX 82 88 80 89 59 90 60 91 68 92 61 93 62 94 66 95 69 96 63 97
REMARK SMILES IDX 64 98 67 99 65 100
REMARK H PARENT 26 5 17 15 30 34 89 53 57 64
REMARK Flexibility Score: inf
ROOT
ATOM      1  C   UNL A   1      40.758  19.982  26.800  1.00  0.00     0.118 C 
ENDROOT
BRANCH   1   2
ATOM      2  N   UNL A   1      39.649  19.594  25.972  1.00  0.00    -0.352 N 
ATOM      3  C   UNL A   1      38.688  20.417  25.418  1.00  0.00     0.253 C 
ATOM      4  O   UNL A   1      37.899  19.922  24.612  1.00  0.00    -0.269 OA
ATOM      5  H   UNL A   1      39.564  18.633  25.776  1.00  0.00     0.163 HD
BRANCH   3   6
ATOM      6  C   UNL A   1      38.444  21.799  25.930  1.00  0.00     0.063 A 
ATOM      7  C   UNL A   1      37.389  22.678  25.628  1.00  0.00     0.054 A 
ATOM      8  C   UNL A   1      37.537  24.038  25.979  1.00  0.00     0.027 A 
ATOM      9  C   UNL A   1      38.640  24.508  26.693  1.00  0.00     0.002 A 
ATOM     10  C   UNL A   1      39.541  22.286  26.683  1.00  0.00     0.016 A 
ATOM     11  C   UNL A   1      39.636  23.623  27.069  1.00  0.00     0.001 A 
BRANCH   7  12
ATOM     12  N   UNL A   1      36.179  22.411  24.943  1.00  0.00    -0.324 N 
ATOM     13  O   UNL A   1      36.642  22.956  22.754  1.00  0.00    -0.273 OA
ATOM     14  C   UNL A   1      35.838  22.629  23.623  1.00  0.00     0.244 C 
ATOM     15  H   UNL A   1      35.469  22.008  25.494  1.00  0.00     0.170 HD
BRANCH  14  16
ATOM     16  C   UNL A   1      34.296  22.671  23.353  1.00  0.00     0.227 C 
BRANCH  16  17
ATOM     17  N   UNL A   1      33.351  23.041  24.413  1.00  0.00    -0.283 N 
ATOM     18  C   UNL A   1      32.771  24.286  24.411  1.00  0.00     0.266 C 
ATOM     19  C   UNL A   1      32.678  22.119  25.198  1.00  0.00     0.148 C 
ATOM     20  O   UNL A   1      32.844  25.094  23.490  1.00  0.00    -0.268 OA
ATOM     21  C   UNL A   1      31.934  24.480  25.614  1.00  0.00     0.081 C 
ATOM     22  S   UNL A   1      31.479  22.938  26.211  1.00  0.00    -0.054 SA
ATOM     23  S   UNL A   1      32.831  20.461  25.227  1.00  0.00    -0.052 S 
ATOM     24  C   UNL A   1      31.697  25.640  26.242  1.00  0.00     0.040 C 
BRANCH  24  25
ATOM     25  C   UNL A   1      32.374  26.832  25.862  1.00  0.00     0.028 A 
ATOM     26  C   UNL A   1      33.662  27.257  26.127  1.00  0.00     0.020 A 
ATOM     27  S   UNL A   1      31.509  28.022  24.967  1.00  0.00    -0.144 S 
ATOM     28  C   UNL A   1      33.911  28.582  25.663  1.00  0.00     0.012 A 
ATOM     29  C   UNL A   1      32.813  29.121  25.031  1.00  0.00     0.065 A 
ENDBRANCH  24  25
ENDBRANCH  16  17
ENDBRANCH  14  16
ENDBRANCH   7  12
ENDBRANCH   3   6
ENDBRANCH   1   2
BRANCH   1  30
ATOM     30  C   UNL A   1      42.100  20.161  26.132  1.00  0.00     0.042 C 
BRANCH  30  31
ATOM     31  C   UNL A   1      43.051  18.974  26.248  1.00  0.00     0.118 C 
BRANCH  31  32
ATOM     32  N   UNL A   1      43.807  18.645  25.040  1.00  0.00    -0.352 N 
ATOM     33  C   UNL A   1      44.666  19.367  24.240  1.00  0.00     0.251 C 
ATOM     34  H   UNL A   1      43.676  17.717  24.739  1.00  0.00     0.163 HD
ATOM     35  O   UNL A   1      45.153  18.827  23.255  1.00  0.00    -0.269 OA
BRANCH  33  36
ATOM     36  C   UNL A   1      44.964  20.795  24.506  1.00  0.00     0.039 A 
ATOM     37  C   UNL A   1      44.551  21.768  23.587  1.00  0.00     0.014 A 
ATOM     38  C   UNL A   1      45.653  21.188  25.648  1.00  0.00     0.014 A 
ATOM     39  C   UNL A   1      44.722  23.128  23.878  1.00  0.00     0.010 A 
ATOM     40  C   UNL A   1      45.702  22.530  26.000  1.00  0.00     0.010 A 
ATOM     41  C   UNL A   1      45.246  23.519  25.118  1.00  0.00    -0.014 A 
BRANCH  41  42
ATOM     42  C   UNL A   1      45.383  24.943  25.527  1.00  0.00     0.031 A 
ATOM     43  C   UNL A   1      46.735  25.604  25.456  1.00  0.00     0.074 A 
ATOM     44  C   UNL A   1      44.344  25.593  26.089  1.00  0.00     0.049 A 
ATOM     45  N   UNL A   1      47.135  26.741  25.966  1.00  0.00    -0.248 NA
ATOM     46  C   UNL A   1      47.797  24.851  24.767  1.00  0.00     0.031 C 
ATOM     47  C   UNL A   1      42.999  25.046  26.275  1.00  0.00     0.029 A 
ATOM     48  N   UNL A   1      44.268  26.850  26.636  1.00  0.00    -0.354 N 
ATOM     49  C   UNL A   1      48.499  26.808  25.709  1.00  0.00     0.074 A 
ATOM     50  C   UNL A   1      48.868  25.576  25.051  1.00  0.00     0.031 C 
ATOM     51  C   UNL A   1      42.229  25.966  26.879  1.00  0.00     0.029 A 
ATOM     52  C   UNL A   1      43.035  27.149  27.162  1.00  0.00     0.049 A 
ATOM     53  H   UNL A   1      45.026  27.478  26.649  1.00  0.00     0.167 HD
ATOM     54  C   UNL A   1      49.363  27.818  25.974  1.00  0.00     0.037 A 
ATOM     55  C   UNL A   1      42.609  28.249  27.812  1.00  0.00     0.037 A 
ATOM     56  C   UNL A   1      48.974  29.070  26.562  1.00  0.00     0.049 A 
ATOM     57  C   UNL A   1      43.569  29.385  28.037  1.00  0.00     0.074 A 
ATOM     58  C   UNL A   1      49.744  30.198  26.784  1.00  0.00     0.029 A 
ATOM     59  N   UNL A   1      47.694  29.365  27.011  1.00  0.00    -0.354 N 
ATOM     60  N   UNL A   1      44.843  29.464  27.735  1.00  0.00    -0.248 NA
ATOM     61  C   UNL A   1      43.031  30.587  28.689  1.00  0.00     0.031 C 
ATOM     62  C   UNL A   1      48.939  31.163  27.399  1.00  0.00     0.029 A 
ATOM     63  C   UNL A   1      47.657  30.653  27.520  1.00  0.00     0.049 A 
ATOM     64  H   UNL A   1      46.927  28.750  26.974  1.00  0.00     0.167 HD
ATOM     65  C   UNL A   1      45.253  30.728  28.136  1.00  0.00     0.074 A 
ATOM     66  C   UNL A   1      44.088  31.389  28.688  1.00  0.00     0.031 C 
ATOM     67  C   UNL A   1      46.483  31.292  28.059  1.00  0.00     0.037 A 
BRANCH  54  68
ATOM     68  C   UNL A   1      50.807  27.608  25.618  1.00  0.00     0.064 A 
ATOM     69  C   UNL A   1      51.286  27.821  24.316  1.00  0.00     0.173 A 
ATOM     70  C   UNL A   1      51.727  27.198  26.593  1.00  0.00     0.173 A 
ATOM     71  F   UNL A   1      50.445  28.202  23.341  1.00  0.00    -0.203 F 
ATOM     72  C   UNL A   1      52.620  27.590  23.994  1.00  0.00     0.198 A 
ATOM     73  C   UNL A   1      53.069  27.001  26.276  1.00  0.00     0.198 A 
ATOM     74  F   UNL A   1      51.327  26.985  27.856  1.00  0.00    -0.203 F 
ATOM     75  F   UNL A   1      53.038  27.737  22.729  1.00  0.00    -0.200 F 
ATOM     76  C   UNL A   1      53.513  27.187  24.976  1.00  0.00     0.200 A 
ATOM     77  F   UNL A   1      53.933  26.624  27.229  1.00  0.00    -0.200 F 
ATOM     78  F   UNL A   1      54.797  26.966  24.666  1.00  0.00    -0.200 F 
ENDBRANCH  54  68
BRANCH  55  79
ATOM     79  C   UNL A   1      41.196  28.342  28.267  1.00  0.00     0.064 A 
ATOM     80  C   UNL A   1      40.824  27.899  29.545  1.00  0.00     0.173 A 
ATOM     81  C   UNL A   1      40.194  28.878  27.446  1.00  0.00     0.173 A 
ATOM     82  F   UNL A   1      41.743  27.361  30.359  1.00  0.00    -0.203 F 
ATOM     83  C   UNL A   1      39.501  27.971  29.976  1.00  0.00     0.198 A 
ATOM     84  C   UNL A   1      38.875  28.975  27.889  1.00  0.00     0.198 A 
ATOM     85  F   UNL A   1      40.497  29.323  26.218  1.00  0.00    -0.203 F 
ATOM     86  F   UNL A   1      39.167  27.503  31.186  1.00  0.00    -0.200 F 
ATOM     87  C   UNL A   1      38.529  28.515  29.151  1.00  0.00     0.200 A 
ATOM     88  F   UNL A   1      37.942  29.515  27.094  1.00  0.00    -0.200 F 
ATOM     89  F   UNL A   1      37.258  28.592  29.569  1.00  0.00    -0.200 F 
ENDBRANCH  55  79
BRANCH  67  90
ATOM     90  C   UNL A   1      46.625  32.700  28.556  1.00  0.00     0.064 A 
ATOM     91  C   UNL A   1      46.991  32.978  29.880  1.00  0.00     0.173 A 
ATOM     92  C   UNL A   1      46.432  33.782  27.684  1.00  0.00     0.173 A 
ATOM     93  F   UNL A   1      47.171  31.978  30.755  1.00  0.00    -0.203 F 
ATOM     94  C   UNL A   1      47.133  34.291  30.321  1.00  0.00     0.198 A 
ATOM     95  C   UNL A   1      46.605  35.092  28.120  1.00  0.00     0.198 A 
ATOM     96  F   UNL A   1      46.088  33.567  26.405  1.00  0.00    -0.203 F 
ATOM     97  F   UNL A   1      47.438  34.536  31.603  1.00  0.00    -0.200 F 
ATOM     98  C   UNL A   1      46.947  35.346  29.440  1.00  0.00     0.200 A 
ATOM     99  F   UNL A   1      46.437  36.110  27.264  1.00  0.00    -0.200 F 
ATOM    100  F   UNL A   1      47.092  36.609  29.864  1.00  0.00    -0.200 F 
ENDBRANCH  67  90
ENDBRANCH  41  42
ENDBRANCH  33  36
ENDBRANCH  31  32
ENDBRANCH  30  31
ENDBRANCH   1  30
TORSDOF 14
ENDMDL
MODEL 2
REMARK VINA RESULT:     -12.6      2.078      7.882
REMARK SMILES O=C(CN1C(=O)/C(=C\c2cccs2)SC1=S)Nc1ccccc1C(=O)NCCCNC(=O)c1ccc(-c2c3nc(c(-c4c(F)c(F)c(F)c(F)c4F)c4ccc([nH]4)c(-c4c(F)c(F)c(F)c(F)c4F)c4nc(c(-c5c(F)c(F)c(F)c(F)c5F)c5ccc2[nH]5)C=C4)C=C3)cc1
REMARK SMILES IDX 27 1 26 2 24 3 25 4 23 6 18 7 19 8 20 9 22 10 21 11 17 12
REMARK SMILES IDX 1 13 2 14 3 16 4 17 5 18 15 19 6 20 7 21 14 22 16 23 8 24
REMARK SMILES IDX 9 25 10 26 13 27 11 28 12 29 28 30 29 31 30 32 31 33 32 35
REMARK SMILES IDX 33 36 34 37 95 38 35 39 94 40 36 41 37 42 38 43 88 44 39 45
REMARK SMILES IDX 93 46 87 47 89 48 40 49 92 50 86 51 85 52 41 54 73 55 53 56
REMARK SMILES IDX 72 57 54 58 57 59 71 60 90 61 55 62 56 63 70 65 91 66 58 67
REMARK SMILES IDX 42 68 43 69 51 70 44 71 45 72 49 73 52 74 46 75 47 76 50 77
REMARK SMILES IDX 48 78 74 79 75 80 83 81 76 82 77 83 81 84 84 85 78 86 79 87
REMARK SMILES IDX 82 88 80 89 59 90 60 91 68 92 61 93 62 94 66 95 69 96 63 97
REMARK SMILES IDX 64 98 67 99 65 100
REMARK H PARENT 26 5 17 15 30 34 89 53 57 64
REMARK Flexibility Score: inf
ROOT
ATOM      1  C   UNL A   1      36.880  21.176  24.737  1.00  0.00     0.118 C 
ENDROOT
BRANCH   1   2
ATOM      2  N   UNL A   1      35.942  21.511  25.774  1.00  0.00    -0.352 N 
ATOM      3  C   UNL A   1      34.622  21.117  25.869  1.00  0.00     0.253 C 
ATOM      4  O   UNL A   1      34.015  21.381  26.908  1.00  0.00    -0.269 OA
ATOM      5  H   UNL A   1      36.279  22.087  26.499  1.00  0.00     0.163 HD
BRANCH   3   6
ATOM      6  C   UNL A   1      33.867  20.598  24.690  1.00  0.00     0.063 A 
ATOM      7  C   UNL A   1      33.055  21.302  23.783  1.00  0.00     0.054 A 
ATOM      8  C   UNL A   1      32.194  20.556  22.946  1.00  0.00     0.027 A 
ATOM      9  C   UNL A   1      32.198  19.161  22.926  1.00  0.00     0.002 A 
ATOM     10  C   UNL A   1      33.882  19.182  24.634  1.00  0.00     0.016 A 
ATOM     11  C   UNL A   1      33.065  18.470  23.756  1.00  0.00     0.001 A 
BRANCH   7  12
ATOM     12  N   UNL A   1      32.916  22.700  23.615  1.00  0.00    -0.324 N 
ATOM     13  O   UNL A   1      31.070  23.237  24.881  1.00  0.00    -0.273 OA
ATOM     14  C   UNL A   1      31.935  23.558  24.071  1.00  0.00     0.244 C 
ATOM     15  H   UNL A   1      33.631  23.129  23.090  1.00  0.00     0.170 HD
BRANCH  14  16
ATOM     16  C   UNL A   1      31.849  24.914  23.293  1.00  0.00     0.227 C 
BRANCH  16  17
ATOM     17  N   UNL A   1      31.944  26.199  23.996  1.00  0.00    -0.283 N 
ATOM     18  C   UNL A   1      30.875  27.061  23.996  1.00  0.00     0.266 C 
ATOM     19  C   UNL A   1      32.865  26.459  24.997  1.00  0.00     0.148 C 
ATOM     20  O   UNL A   1      29.751  26.788  23.586  1.00  0.00    -0.268 OA
ATOM     21  C   UNL A   1      31.220  28.328  24.676  1.00  0.00     0.081 C 
ATOM     22  S   UNL A   1      32.531  28.030  25.741  1.00  0.00    -0.054 SA
ATOM     23  S   UNL A   1      34.101  25.493  25.558  1.00  0.00    -0.052 S 
ATOM     24  C   UNL A   1      30.721  29.541  24.403  1.00  0.00     0.040 C 
BRANCH  24  25
ATOM     25  C   UNL A   1      29.866  29.748  23.286  1.00  0.00     0.028 A 
ATOM     26  C   UNL A   1      30.157  29.856  21.939  1.00  0.00     0.020 A 
ATOM     27  S   UNL A   1      28.180  29.963  23.565  1.00  0.00    -0.144 S 
ATOM     28  C   UNL A   1      29.015  30.187  21.153  1.00  0.00     0.012 A 
ATOM     29  C   UNL A   1      27.876  30.296  21.919  1.00  0.00     0.065 A 
ENDBRANCH  24  25
ENDBRANCH  16  17
ENDBRANCH  14  16
ENDBRANCH   7  12
ENDBRANCH   3   6
ENDBRANCH   1   2
BRANCH   1  30
ATOM     30  C   UNL A   1      37.804  20.008  24.981  1.00  0.00     0.042 C 
BRANCH  30  31
ATOM     31  C   UNL A   1      39.038  20.316  25.823  1.00  0.00     0.118 C 
BRANCH  31  32
ATOM     32  N   UNL A   1      40.080  19.290  25.825  1.00  0.00    -0.352 N 
ATOM     33  C   UNL A   1      41.435  19.322  26.079  1.00  0.00     0.251 C 
ATOM     34  H   UNL A   1      39.745  18.393  25.599  1.00  0.00     0.163 HD
ATOM     35  O   UNL A   1      42.080  18.287  25.985  1.00  0.00    -0.269 OA
BRANCH  33  36
ATOM     36  C   UNL A   1      42.136  20.587  26.402  1.00  0.00     0.039 A 
ATOM     37  C   UNL A   1      42.600  21.402  25.360  1.00  0.00     0.014 A 
ATOM     38  C   UNL A   1      42.351  20.980  27.718  1.00  0.00     0.014 A 
ATOM     39  C   UNL A   1      43.162  22.654  25.645  1.00  0.00     0.010 A 
ATOM     40  C   UNL A   1      42.780  22.270  27.996  1.00  0.00     0.010 A 
ATOM     41  C   UNL A   1      43.200  23.123  26.965  1.00  0.00    -0.014 A 
BRANCH  41  42
ATOM     42  C   UNL A   1      43.708  24.472  27.333  1.00  0.00     0.031 A 
ATOM     43  C   UNL A   1      42.750  25.494  27.888  1.00  0.00     0.074 A 
ATOM     44  C   UNL A   1      44.976  24.825  27.041  1.00  0.00     0.049 A 
ATOM     45  N   UNL A   1      42.912  26.781  28.060  1.00  0.00    -0.248 NA
ATOM     46  C   UNL A   1      41.406  25.008  28.241  1.00  0.00     0.031 C 
ATOM     47  C   UNL A   1      45.986  23.951  26.444  1.00  0.00     0.029 A 
ATOM     48  N   UNL A   1      45.621  26.029  27.182  1.00  0.00    -0.354 N 
ATOM     49  C   UNL A   1      41.679  27.261  28.484  1.00  0.00     0.074 A 
ATOM     50  C   UNL A   1      40.766  26.140  28.488  1.00  0.00     0.031 C 
ATOM     51  C   UNL A   1      47.127  24.641  26.282  1.00  0.00     0.029 A 
ATOM     52  C   UNL A   1      46.917  26.017  26.724  1.00  0.00     0.049 A 
ATOM     53  H   UNL A   1      45.197  26.825  27.574  1.00  0.00     0.167 HD
ATOM     54  C   UNL A   1      41.343  28.518  28.862  1.00  0.00     0.037 A 
ATOM     55  C   UNL A   1      47.826  27.008  26.654  1.00  0.00     0.037 A 
ATOM     56  C   UNL A   1      42.275  29.611  28.926  1.00  0.00     0.049 A 
ATOM     57  C   UNL A   1      47.450  28.382  27.141  1.00  0.00     0.074 A 
ATOM     58  C   UNL A   1      42.067  30.899  29.388  1.00  0.00     0.029 A 
ATOM     59  N   UNL A   1      43.601  29.538  28.526  1.00  0.00    -0.354 N 
ATOM     60  N   UNL A   1      46.298  28.811  27.598  1.00  0.00    -0.248 NA
ATOM     61  C   UNL A   1      48.502  29.407  27.107  1.00  0.00     0.031 C 
ATOM     62  C   UNL A   1      43.259  31.615  29.236  1.00  0.00     0.029 A 
ATOM     63  C   UNL A   1      44.221  30.761  28.720  1.00  0.00     0.049 A 
ATOM     64  H   UNL A   1      44.037  28.736  28.159  1.00  0.00     0.167 HD
ATOM     65  C   UNL A   1      46.492  30.145  27.928  1.00  0.00     0.074 A 
ATOM     66  C   UNL A   1      47.877  30.450  27.635  1.00  0.00     0.031 C 
ATOM     67  C   UNL A   1      45.603  31.040  28.426  1.00  0.00     0.037 A 
BRANCH  54  68
ATOM     68  C   UNL A   1      39.912  28.769  29.244  1.00  0.00     0.064 A 
ATOM     69  C   UNL A   1      39.449  28.562  30.554  1.00  0.00     0.173 A 
ATOM     70  C   UNL A   1      38.993  29.233  28.293  1.00  0.00     0.173 A 
ATOM     71  F   UNL A   1      40.284  28.107  31.500  1.00  0.00    -0.203 F 
ATOM     72  C   UNL A   1      38.112  28.767  30.884  1.00  0.00     0.198 A 
ATOM     73  C   UNL A   1      37.663  29.471  28.634  1.00  0.00     0.198 A 
ATOM     74  F   UNL A   1      39.381  29.455  27.027  1.00  0.00    -0.203 F 
ATOM     75  F   UNL A   1      37.681  28.499  32.124  1.00  0.00    -0.200 F 
ATOM     76  C   UNL A   1      37.222  29.228  29.926  1.00  0.00     0.200 A 
ATOM     77  F   UNL A   1      36.807  29.929  27.711  1.00  0.00    -0.200 F 
ATOM     78  F   UNL A   1      35.936  29.427  30.244  1.00  0.00    -0.200 F 
ENDBRANCH  54  68
BRANCH  55  79
ATOM     79  C   UNL A   1      49.190  26.729  26.133  1.00  0.00     0.064 A 
ATOM     80  C   UNL A   1      50.172  26.167  26.962  1.00  0.00     0.173 A 
ATOM     81  C   UNL A   1      49.540  27.008  24.805  1.00  0.00     0.173 A 
ATOM     82  F   UNL A   1      49.891  25.900  28.245  1.00  0.00    -0.203 F 
ATOM     83  C   UNL A   1      51.457  25.912  26.486  1.00  0.00     0.198 A 
ATOM     84  C   UNL A   1      50.818  26.728  24.323  1.00  0.00     0.198 A 
ATOM     85  F   UNL A   1      48.637  27.539  23.968  1.00  0.00    -0.203 F 
ATOM     86  F   UNL A   1      52.387  25.413  27.312  1.00  0.00    -0.200 F 
ATOM     87  C   UNL A   1      51.778  26.186  25.166  1.00  0.00     0.200 A 
ATOM     88  F   UNL A   1      51.119  26.980  23.042  1.00  0.00    -0.200 F 
ATOM     89  F   UNL A   1      53.011  25.934  24.707  1.00  0.00    -0.200 F 
ENDBRANCH  55  79
BRANCH  67  90
ATOM     90  C   UNL A   1      46.110  32.423  28.712  1.00  0.00     0.064 A 
ATOM     91  C   UNL A   1      46.042  33.443  27.752  1.00  0.00     0.173 A 
ATOM     92  C   UNL A   1      46.631  32.740  29.975  1.00  0.00     0.173 A 
ATOM     93  F   UNL A   1      45.566  33.184  26.525  1.00  0.00    -0.203 F 
ATOM     94  C   UNL A   1      46.502  34.725  28.038  1.00  0.00     0.198 A 
ATOM     95  C   UNL A   1      47.062  34.030  30.267  1.00  0.00     0.198 A 
ATOM     96  F   UNL A   1      46.710  31.801  30.929  1.00  0.00    -0.203 F 
ATOM     97  F   UNL A   1      46.471  35.673  27.091  1.00  0.00    -0.200 F 
ATOM     98  C   UNL A   1      47.005  35.020  29.297  1.00  0.00     0.200 A 
ATOM     99  F   UNL A   1      47.535  34.316  31.488  1.00  0.00    -0.200 F 
ATOM    100  F   UNL A   1      47.440  36.256  29.573  1.00  0.00    -0.200 F 
ENDBRANCH  67  90
ENDBRANCH  41  42
ENDBRANCH  33  36
ENDBRANCH  31  32
ENDBRANCH  30  31
ENDBRANCH   1  30
TORSDOF 14
ENDMDL
MODEL 3
REMARK VINA RESULT:     -12.6      2.014      7.668
REMARK SMILES O=C(CN1C(=O)/C(=C\c2cccs2)SC1=S)Nc1ccccc1C(=O)NCCCNC(=O)c1ccc(-c2c3nc(c(-c4c(F)c(F)c(F)c(F)c4F)c4ccc([nH]4)c(-c4c(F)c(F)c(F)c(F)c4F)c4nc(c(-c5c(F)c(F)c(F)c(F)c5F)c5ccc2[nH]5)C=C4)C=C3)cc1
REMARK SMILES IDX 27 1 26 2 24 3 25 4 23 6 18 7 19 8 20 9 22 10 21 11 17 12
REMARK SMILES IDX 1 13 2 14 3 16 4 17 5 18 15 19 6 20 7 21 14 22 16 23 8 24
REMARK SMILES IDX 9 25 10 26 13 27 11 28 12 29 28 30 29 31 30 32 31 33 32 35
REMARK SMILES IDX 33 36 34 37 95 38 35 39 94 40 36 41 37 42 38 43 88 44 39 45
REMARK SMILES IDX 93 46 87 47 89 48 40 49 92 50 86 51 85 52 41 54 73 55 53 56
REMARK SMILES IDX 72 57 54 58 57 59 71 60 90 61 55 62 56 63 70 65 91 66 58 67
REMARK SMILES IDX 42 68 43 69 51 70 44 71 45 72 49 73 52 74 46 75 47 76 50 77
REMARK SMILES IDX 48 78 74 79 75 80 83 81 76 82 77 83 81 84 84 85 78 86 79 87
REMARK SMILES IDX 82 88 80 89 59 90 60 91 68 92 61 93 62 94 66 95 69 96 63 97
REMARK SMILES IDX 64 98 67 99 65 100
REMARK H PARENT 26 5 17 15 30 34 89 53 57 64
REMARK Flexibility Score: inf
ROOT
ATOM      1  C   UNL A   1      36.648  21.132  24.623  1.00  0.00     0.118 C 
ENDROOT
BRANCH   1   2
ATOM      2  N   UNL A   1      35.606  21.476  25.551  1.00  0.00    -0.352 N 
ATOM      3  C   UNL A   1      34.357  20.898  25.662  1.00  0.00     0.253 C 
ATOM      4  O   UNL A   1      33.652  21.227  26.617  1.00  0.00    -0.269 OA
ATOM      5  H   UNL A   1      35.805  22.208  26.180  1.00  0.00     0.163 HD
BRANCH   3   6
ATOM      6  C   UNL A   1      33.766  20.082  24.560  1.00  0.00     0.063 A 
ATOM      7  C   UNL A   1      32.801  20.453  23.607  1.00  0.00     0.054 A 
ATOM      8  C   UNL A   1      32.165  19.428  22.871  1.00  0.00     0.027 A 
ATOM      9  C   UNL A   1      32.533  18.087  22.992  1.00  0.00     0.002 A 
ATOM     10  C   UNL A   1      34.149  18.721  24.646  1.00  0.00     0.016 A 
ATOM     11  C   UNL A   1      33.547  17.734  23.865  1.00  0.00     0.001 A 
BRANCH   7  12
ATOM     12  N   UNL A   1      32.303  21.743  23.303  1.00  0.00    -0.324 N 
ATOM     13  O   UNL A   1      34.195  23.009  22.960  1.00  0.00    -0.273 OA
ATOM     14  C   UNL A   1      32.977  22.929  23.089  1.00  0.00     0.244 C 
ATOM     15  H   UNL A   1      31.322  21.805  23.234  1.00  0.00     0.170 HD
BRANCH  14  16
ATOM     16  C   UNL A   1      32.097  24.212  23.266  1.00  0.00     0.227 C 
BRANCH  16  17
ATOM     17  N   UNL A   1      32.618  25.541  22.923  1.00  0.00    -0.283 N 
ATOM     18  C   UNL A   1      33.284  26.282  23.868  1.00  0.00     0.266 C 
ATOM     19  C   UNL A   1      32.852  25.961  21.624  1.00  0.00     0.148 C 
ATOM     20  O   UNL A   1      33.641  25.865  24.965  1.00  0.00    -0.268 OA
ATOM     21  C   UNL A   1      33.633  27.618  23.340  1.00  0.00     0.081 C 
ATOM     22  S   UNL A   1      33.672  27.530  21.627  1.00  0.00    -0.054 SA
ATOM     23  S   UNL A   1      32.527  25.170  20.195  1.00  0.00    -0.052 S 
ATOM     24  C   UNL A   1      33.742  28.751  24.046  1.00  0.00     0.040 C 
BRANCH  24  25
ATOM     25  C   UNL A   1      33.383  28.796  25.421  1.00  0.00     0.028 A 
ATOM     26  C   UNL A   1      34.167  28.733  26.558  1.00  0.00     0.020 A 
ATOM     27  S   UNL A   1      31.714  28.892  25.836  1.00  0.00    -0.144 S 
ATOM     28  C   UNL A   1      33.397  28.688  27.757  1.00  0.00     0.012 A 
ATOM     29  C   UNL A   1      32.045  28.746  27.503  1.00  0.00     0.065 A 
ENDBRANCH  24  25
ENDBRANCH  16  17
ENDBRANCH  14  16
ENDBRANCH   7  12
ENDBRANCH   3   6
ENDBRANCH   1   2
BRANCH   1  30
ATOM     30  C   UNL A   1      37.566  19.992  24.994  1.00  0.00     0.042 C 
BRANCH  30  31
ATOM     31  C   UNL A   1      38.877  20.400  25.659  1.00  0.00     0.118 C 
BRANCH  31  32
ATOM     32  N   UNL A   1      39.886  19.348  25.773  1.00  0.00    -0.352 N 
ATOM     33  C   UNL A   1      41.225  19.358  26.102  1.00  0.00     0.251 C 
ATOM     34  H   UNL A   1      39.538  18.449  25.576  1.00  0.00     0.163 HD
ATOM     35  O   UNL A   1      41.844  18.303  26.098  1.00  0.00    -0.269 OA
BRANCH  33  36
ATOM     36  C   UNL A   1      41.945  20.620  26.398  1.00  0.00     0.039 A 
ATOM     37  C   UNL A   1      42.377  21.431  25.340  1.00  0.00     0.014 A 
ATOM     38  C   UNL A   1      42.207  21.013  27.705  1.00  0.00     0.014 A 
ATOM     39  C   UNL A   1      42.955  22.680  25.603  1.00  0.00     0.010 A 
ATOM     40  C   UNL A   1      42.653  22.302  27.966  1.00  0.00     0.010 A 
ATOM     41  C   UNL A   1      43.042  23.150  26.920  1.00  0.00    -0.014 A 
BRANCH  41  42
ATOM     42  C   UNL A   1      43.570  24.497  27.267  1.00  0.00     0.031 A 
ATOM     43  C   UNL A   1      42.626  25.544  27.801  1.00  0.00     0.074 A 
ATOM     44  C   UNL A   1      44.844  24.825  26.977  1.00  0.00     0.049 A 
ATOM     45  N   UNL A   1      42.808  26.831  27.952  1.00  0.00    -0.248 NA
ATOM     46  C   UNL A   1      41.272  25.085  28.155  1.00  0.00     0.031 C 
ATOM     47  C   UNL A   1      45.843  23.924  26.399  1.00  0.00     0.029 A 
ATOM     48  N   UNL A   1      45.508  26.020  27.100  1.00  0.00    -0.354 N 
ATOM     49  C   UNL A   1      41.580  27.337  28.361  1.00  0.00     0.074 A 
ATOM     50  C   UNL A   1      40.649  26.232  28.379  1.00  0.00     0.031 C 
ATOM     51  C   UNL A   1      46.996  24.594  26.232  1.00  0.00     0.029 A 
ATOM     52  C   UNL A   1      46.806  25.980  26.649  1.00  0.00     0.049 A 
ATOM     53  H   UNL A   1      45.095  26.830  27.477  1.00  0.00     0.167 HD
ATOM     54  C   UNL A   1      41.263  28.606  28.716  1.00  0.00     0.037 A 
ATOM     55  C   UNL A   1      47.731  26.955  26.568  1.00  0.00     0.037 A 
ATOM     56  C   UNL A   1      42.211  29.685  28.767  1.00  0.00     0.049 A 
ATOM     57  C   UNL A   1      47.375  28.342  27.029  1.00  0.00     0.074 A 
ATOM     58  C   UNL A   1      42.022  30.983  29.206  1.00  0.00     0.029 A 
ATOM     59  N   UNL A   1      43.539  29.584  28.375  1.00  0.00    -0.354 N 
ATOM     60  N   UNL A   1      46.228  28.798  27.473  1.00  0.00    -0.248 NA
ATOM     61  C   UNL A   1      48.444  29.350  26.984  1.00  0.00     0.031 C 
ATOM     62  C   UNL A   1      43.226  31.677  29.048  1.00  0.00     0.029 A 
ATOM     63  C   UNL A   1      44.177  30.800  28.551  1.00  0.00     0.049 A 
ATOM     64  H   UNL A   1      43.964  28.768  28.024  1.00  0.00     0.167 HD
ATOM     65  C   UNL A   1      46.442  30.134  27.782  1.00  0.00     0.074 A 
ATOM     66  C   UNL A   1      47.833  30.412  27.491  1.00  0.00     0.031 C 
ATOM     67  C   UNL A   1      45.565  31.052  28.260  1.00  0.00     0.037 A 
BRANCH  54  68
ATOM     68  C   UNL A   1      39.834  28.886  29.087  1.00  0.00     0.064 A 
ATOM     69  C   UNL A   1      38.903  29.355  28.146  1.00  0.00     0.173 A 
ATOM     70  C   UNL A   1      39.385  28.672  30.398  1.00  0.00     0.173 A 
ATOM     71  F   UNL A   1      39.283  29.589  26.880  1.00  0.00    -0.203 F 
ATOM     72  C   UNL A   1      37.592  29.641  28.514  1.00  0.00     0.198 A 
ATOM     73  C   UNL A   1      38.063  28.925  30.755  1.00  0.00     0.198 A 
ATOM     74  F   UNL A   1      40.229  28.218  31.337  1.00  0.00    -0.203 F 
ATOM     75  F   UNL A   1      36.741  30.151  27.613  1.00  0.00    -0.200 F 
ATOM     76  C   UNL A   1      37.170  29.420  29.816  1.00  0.00     0.200 A 
ATOM     77  F   UNL A   1      37.654  28.699  32.011  1.00  0.00    -0.200 F 
ATOM     78  F   UNL A   1      35.907  29.694  30.169  1.00  0.00    -0.200 F 
ENDBRANCH  54  68
BRANCH  55  79
ATOM     79  C   UNL A   1      49.093  26.646  26.059  1.00  0.00     0.064 A 
ATOM     80  C   UNL A   1      50.046  26.037  26.888  1.00  0.00     0.173 A 
ATOM     81  C   UNL A   1      49.469  26.940  24.741  1.00  0.00     0.173 A 
ATOM     82  F   UNL A   1      49.740  25.753  28.162  1.00  0.00    -0.203 F 
ATOM     83  C   UNL A   1      51.329  25.753  26.424  1.00  0.00     0.198 A 
ATOM     84  C   UNL A   1      50.744  26.632  24.269  1.00  0.00     0.198 A 
ATOM     85  F   UNL A   1      48.593  27.516  23.904  1.00  0.00    -0.203 F 
ATOM     86  F   UNL A   1      52.233  25.209  27.251  1.00  0.00    -0.200 F 
ATOM     87  C   UNL A   1      51.676  26.044  25.113  1.00  0.00     0.200 A 
ATOM     88  F   UNL A   1      51.070  26.900  22.998  1.00  0.00    -0.200 F 
ATOM     89  F   UNL A   1      52.907  25.764  24.666  1.00  0.00    -0.200 F 
ENDBRANCH  55  79
BRANCH  67  90
ATOM     90  C   UNL A   1      46.093  32.431  28.525  1.00  0.00     0.064 A 
ATOM     91  C   UNL A   1      46.657  32.776  29.761  1.00  0.00     0.173 A 
ATOM     92  C   UNL A   1      46.071  33.405  27.516  1.00  0.00     0.173 A 
ATOM     93  F   UNL A   1      46.688  31.882  30.761  1.00  0.00    -0.203 F 
ATOM     94  C   UNL A   1      47.157  34.055  29.986  1.00  0.00     0.198 A 
ATOM     95  C   UNL A   1      46.598  34.674  27.734  1.00  0.00     0.198 A 
ATOM     96  F   UNL A   1      45.547  33.121  26.314  1.00  0.00    -0.203 F 
ATOM     97  F   UNL A   1      47.650  34.378  31.190  1.00  0.00    -0.200 F 
ATOM     98  C   UNL A   1      47.134  35.000  28.971  1.00  0.00     0.200 A 
ATOM     99  F   UNL A   1      46.586  35.582  26.748  1.00  0.00    -0.200 F 
ATOM    100  F   UNL A   1      47.622  36.229  29.187  1.00  0.00    -0.200 F 
ENDBRANCH  67  90
ENDBRANCH  41  42
ENDBRANCH  33  36
ENDBRANCH  31  32
ENDBRANCH  30  31
ENDBRANCH   1  30
TORSDOF 14
ENDMDL
