MODEL 1
REMARK VINA RESULT:     -13.3      0.000      0.000
REMARK SMILES Cc1ccc([C@@H](C(=O)N(CC(=O)NCCCNC(=O)c2ccc(-c3c4nc(c(-c5c(F)c(F)c(F)c(F)c5F)c5ccc([nH]5)c(-c5c(F)c(F)c(F)c(F)c5F)c5nc(c(-c6c(F)c(F)c(F)c(F)c6F)c6ccc3[nH]6)C=C5)C=C4)cc2)C2CC[NH+](C)CC2)[NH+](C)C)cc1
REMARK SMILES IDX 14 1 13 2 11 3 12 4 10 6 9 7 7 8 8 9 6 10 5 11 1 12 2 13
REMARK SMILES IDX 3 14 94 15 4 16 93 17 90 18 91 19 92 20 83 22 84 23 89 24
REMARK SMILES IDX 85 25 88 26 86 27 87 28 15 30 16 31 17 32 18 33 19 35 20 36
REMARK SMILES IDX 21 37 82 38 22 39 81 40 23 41 24 42 25 43 75 44 26 45 80 46
REMARK SMILES IDX 74 47 76 48 27 49 79 50 73 51 72 52 28 54 60 55 40 56 59 57
REMARK SMILES IDX 41 58 44 59 58 60 77 61 42 62 43 63 57 65 78 66 45 67 29 68
REMARK SMILES IDX 30 69 38 70 31 71 32 72 36 73 39 74 33 75 34 76 37 77 35 78
REMARK SMILES IDX 61 79 62 80 70 81 63 82 64 83 68 84 71 85 65 86 66 87 69 88
REMARK SMILES IDX 67 89 46 90 47 91 55 92 48 93 49 94 53 95 56 96 50 97 51 98
REMARK SMILES IDX 54 99 52 100
REMARK H PARENT 13 5 90 21 86 29 17 34 76 53 44 64
REMARK Flexibility Score: inf
ROOT
ATOM      1  C   UNL A   1      36.272  21.310  25.283  1.00  0.00     0.117 C 
ENDROOT
BRANCH   1   2
ATOM      2  N   UNL A   1      35.545  21.918  24.180  1.00  0.00    -0.354 N 
ATOM      3  C   UNL A   1      35.075  23.203  24.103  1.00  0.00     0.239 C 
ATOM      4  O   UNL A   1      35.018  23.725  22.985  1.00  0.00    -0.273 OA
ATOM      5  H   UNL A   1      35.371  21.341  23.401  1.00  0.00     0.163 HD
BRANCH   3   6
ATOM      6  C   UNL A   1      34.696  24.018  25.357  1.00  0.00     0.219 C 
BRANCH   6   7
ATOM      7  N   UNL A   1      33.367  24.633  25.375  1.00  0.00    -0.324 N 
BRANCH   7   8
ATOM      8  C   UNL A   1      33.101  25.908  24.820  1.00  0.00     0.286 C 
ATOM      9  O   UNL A   1      33.821  26.278  23.879  1.00  0.00    -0.267 OA
BRANCH   8  10
ATOM     10  C   UNL A   1      31.988  26.901  25.425  1.00  0.00     0.305 C 
BRANCH  10  11
ATOM     11  C   UNL A   1      30.908  27.453  24.464  1.00  0.00     0.019 A 
ATOM     12  C   UNL A   1      27.662  29.529  22.465  1.00  0.00     0.044 C 
ATOM     13  C   UNL A   1      28.826  28.759  23.017  1.00  0.00    -0.051 A 
ATOM     14  C   UNL A   1      28.663  27.448  23.470  1.00  0.00     0.004 A 
ATOM     15  C   UNL A   1      30.069  29.372  23.185  1.00  0.00     0.004 A 
ATOM     16  C   UNL A   1      29.695  26.805  24.178  1.00  0.00     0.011 A 
ATOM     17  C   UNL A   1      31.105  28.711  23.857  1.00  0.00     0.011 A 
ENDBRANCH  10  11
BRANCH  10  18
ATOM     18  N   UNL A   1      32.583  27.979  26.290  1.00  0.00    -0.326 N 
ATOM     19  C   UNL A   1      31.899  28.079  27.581  1.00  0.00     0.333 C 
ATOM     20  C   UNL A   1      34.032  27.908  26.500  1.00  0.00     0.333 C 
ATOM     21  H   UNL A   1      32.430  28.827  25.743  1.00  0.00     0.348 HD
ENDBRANCH  10  18
ENDBRANCH   8  10
ENDBRANCH   7   8
BRANCH   7  22
ATOM     22  C   UNL A   1      32.268  23.976  26.185  1.00  0.00     0.097 C 
ATOM     23  C   UNL A   1      32.631  22.936  27.270  1.00  0.00     0.086 C 
ATOM     24  C   UNL A   1      31.208  23.299  25.301  1.00  0.00     0.086 C 
ATOM     25  C   UNL A   1      33.069  21.579  26.715  1.00  0.00     0.264 C 
ATOM     26  C   UNL A   1      31.751  22.015  24.691  1.00  0.00     0.264 C 
ATOM     27  N   UNL A   1      32.140  21.040  25.714  1.00  0.00    -0.337 N 
ATOM     28  C   UNL A   1      32.726  19.860  25.072  1.00  0.00     0.332 C 
ATOM     29  H   UNL A   1      31.291  20.789  26.220  1.00  0.00     0.347 HD
ENDBRANCH   7  22
ENDBRANCH   6   7
ENDBRANCH   3   6
ENDBRANCH   1   2
BRANCH   1  30
ATOM     30  C   UNL A   1      37.765  21.636  25.364  1.00  0.00     0.042 C 
BRANCH  30  31
ATOM     31  C   UNL A   1      38.258  22.927  26.003  1.00  0.00     0.118 C 
BRANCH  31  32
ATOM     32  N   UNL A   1      39.478  22.755  26.798  1.00  0.00    -0.352 N 
ATOM     33  C   UNL A   1      40.441  23.635  27.252  1.00  0.00     0.251 C 
ATOM     34  H   UNL A   1      39.644  21.821  27.063  1.00  0.00     0.163 HD
ATOM     35  O   UNL A   1      41.509  23.208  27.658  1.00  0.00    -0.269 OA
BRANCH  33  36
ATOM     36  C   UNL A   1      40.168  25.086  27.287  1.00  0.00     0.039 A 
ATOM     37  C   UNL A   1      40.541  25.967  26.261  1.00  0.00     0.014 A 
ATOM     38  C   UNL A   1      39.631  25.605  28.447  1.00  0.00     0.014 A 
ATOM     39  C   UNL A   1      40.460  27.344  26.502  1.00  0.00     0.010 A 
ATOM     40  C   UNL A   1      39.176  26.875  28.512  1.00  0.00     0.010 A 
ATOM     41  C   UNL A   1      39.823  27.763  27.670  1.00  0.00    -0.014 A 
BRANCH  41  42
ATOM     42  C   UNL A   1      40.059  28.989  28.411  1.00  0.00     0.031 A 
ATOM     43  C   UNL A   1      38.982  29.950  28.616  1.00  0.00     0.074 A 
ATOM     44  C   UNL A   1      41.074  28.882  29.311  1.00  0.00     0.049 A 
ATOM     45  N   UNL A   1      39.175  31.136  29.068  1.00  0.00    -0.248 NA
ATOM     46  C   UNL A   1      37.582  29.623  28.374  1.00  0.00     0.031 C 
ATOM     47  C   UNL A   1      41.261  29.554  30.592  1.00  0.00     0.029 A 
ATOM     48  N   UNL A   1      42.198  28.045  29.214  1.00  0.00    -0.354 N 
ATOM     49  C   UNL A   1      37.950  31.609  29.467  1.00  0.00     0.074 A 
ATOM     50  C   UNL A   1      36.980  30.680  28.927  1.00  0.00     0.031 C 
ATOM     51  C   UNL A   1      42.534  29.369  30.993  1.00  0.00     0.029 A 
ATOM     52  C   UNL A   1      43.232  28.703  29.903  1.00  0.00     0.049 A 
ATOM     53  H   UNL A   1      42.252  27.174  28.757  1.00  0.00     0.167 HD
ATOM     54  C   UNL A   1      37.896  32.636  30.360  1.00  0.00     0.037 A 
ATOM     55  C   UNL A   1      44.257  29.231  29.169  1.00  0.00     0.037 A 
ATOM     56  C   UNL A   1      39.237  32.989  30.831  1.00  0.00     0.049 A 
ATOM     57  C   UNL A   1      44.275  30.743  29.228  1.00  0.00     0.074 A 
ATOM     58  C   UNL A   1      39.932  32.668  31.987  1.00  0.00     0.029 A 
ATOM     59  N   UNL A   1      40.191  33.440  29.921  1.00  0.00    -0.354 N 
ATOM     60  N   UNL A   1      43.250  31.470  29.573  1.00  0.00    -0.248 NA
ATOM     61  C   UNL A   1      45.439  31.546  28.880  1.00  0.00     0.031 C 
ATOM     62  C   UNL A   1      41.314  32.881  31.749  1.00  0.00     0.029 A 
ATOM     63  C   UNL A   1      41.464  33.350  30.455  1.00  0.00     0.049 A 
ATOM     64  H   UNL A   1      39.987  33.777  29.019  1.00  0.00     0.167 HD
ATOM     65  C   UNL A   1      43.565  32.796  29.463  1.00  0.00     0.074 A 
ATOM     66  C   UNL A   1      44.958  32.790  29.053  1.00  0.00     0.031 C 
ATOM     67  C   UNL A   1      42.634  33.772  29.689  1.00  0.00     0.037 A 
BRANCH  54  68
ATOM     68  C   UNL A   1      36.610  33.078  31.010  1.00  0.00     0.064 A 
ATOM     69  C   UNL A   1      35.655  33.846  30.315  1.00  0.00     0.173 A 
ATOM     70  C   UNL A   1      36.272  32.770  32.343  1.00  0.00     0.173 A 
ATOM     71  F   UNL A   1      35.802  34.140  29.017  1.00  0.00    -0.203 F 
ATOM     72  C   UNL A   1      34.508  34.350  30.933  1.00  0.00     0.198 A 
ATOM     73  C   UNL A   1      35.155  33.319  32.977  1.00  0.00     0.198 A 
ATOM     74  F   UNL A   1      37.002  31.901  33.057  1.00  0.00    -0.203 F 
ATOM     75  F   UNL A   1      33.635  35.076  30.220  1.00  0.00    -0.200 F 
ATOM     76  C   UNL A   1      34.275  34.115  32.273  1.00  0.00     0.200 A 
ATOM     77  F   UNL A   1      34.939  33.072  34.277  1.00  0.00    -0.200 F 
ATOM     78  F   UNL A   1      33.197  34.636  32.874  1.00  0.00    -0.200 F 
ENDBRANCH  54  68
BRANCH  55  79
ATOM     79  C   UNL A   1      44.526  28.419  27.934  1.00  0.00     0.064 A 
ATOM     80  C   UNL A   1      45.114  27.143  28.092  1.00  0.00     0.173 A 
ATOM     81  C   UNL A   1      43.841  28.662  26.735  1.00  0.00     0.173 A 
ATOM     82  F   UNL A   1      45.770  26.842  29.225  1.00  0.00    -0.203 F 
ATOM     83  C   UNL A   1      44.903  26.125  27.163  1.00  0.00     0.198 A 
ATOM     84  C   UNL A   1      43.658  27.645  25.794  1.00  0.00     0.198 A 
ATOM     85  F   UNL A   1      43.253  29.847  26.517  1.00  0.00    -0.203 F 
ATOM     86  F   UNL A   1      45.343  24.886  27.418  1.00  0.00    -0.200 F 
ATOM     87  C   UNL A   1      44.158  26.371  26.024  1.00  0.00     0.200 A 
ATOM     88  F   UNL A   1      42.914  27.872  24.701  1.00  0.00    -0.200 F 
ATOM     89  F   UNL A   1      43.885  25.375  25.170  1.00  0.00    -0.200 F 
ENDBRANCH  55  79
BRANCH  67  90
ATOM     90  C   UNL A   1      42.753  35.226  29.288  1.00  0.00     0.064 A 
ATOM     91  C   UNL A   1      42.076  35.804  28.202  1.00  0.00     0.173 A 
ATOM     92  C   UNL A   1      43.461  36.141  30.109  1.00  0.00     0.173 A 
ATOM     93  F   UNL A   1      41.261  35.088  27.418  1.00  0.00    -0.203 F 
ATOM     94  C   UNL A   1      42.159  37.170  27.916  1.00  0.00     0.198 A 
ATOM     95  C   UNL A   1      43.475  37.513  29.869  1.00  0.00     0.198 A 
ATOM     96  F   UNL A   1      44.139  35.739  31.195  1.00  0.00    -0.203 F 
ATOM     97  F   UNL A   1      41.540  37.657  26.832  1.00  0.00    -0.200 F 
ATOM     98  C   UNL A   1      42.842  38.025  28.758  1.00  0.00     0.200 A 
ATOM     99  F   UNL A   1      44.088  38.332  30.733  1.00  0.00    -0.200 F 
ATOM    100  F   UNL A   1      42.872  39.341  28.511  1.00  0.00    -0.200 F 
ENDBRANCH  67  90
ENDBRANCH  41  42
ENDBRANCH  33  36
ENDBRANCH  31  32
ENDBRANCH  30  31
ENDBRANCH   1  30
TORSDOF 16
ENDMDL
MODEL 2
REMARK VINA RESULT:     -13.3      3.501      9.980
REMARK SMILES Cc1ccc([C@@H](C(=O)N(CC(=O)NCCCNC(=O)c2ccc(-c3c4nc(c(-c5c(F)c(F)c(F)c(F)c5F)c5ccc([nH]5)c(-c5c(F)c(F)c(F)c(F)c5F)c5nc(c(-c6c(F)c(F)c(F)c(F)c6F)c6ccc3[nH]6)C=C5)C=C4)cc2)C2CC[NH+](C)CC2)[NH+](C)C)cc1
REMARK SMILES IDX 14 1 13 2 11 3 12 4 10 6 9 7 7 8 8 9 6 10 5 11 1 12 2 13
REMARK SMILES IDX 3 14 94 15 4 16 93 17 90 18 91 19 92 20 83 22 84 23 89 24
REMARK SMILES IDX 85 25 88 26 86 27 87 28 15 30 16 31 17 32 18 33 19 35 20 36
REMARK SMILES IDX 21 37 82 38 22 39 81 40 23 41 24 42 25 43 75 44 26 45 80 46
REMARK SMILES IDX 74 47 76 48 27 49 79 50 73 51 72 52 28 54 60 55 40 56 59 57
REMARK SMILES IDX 41 58 44 59 58 60 77 61 42 62 43 63 57 65 78 66 45 67 29 68
REMARK SMILES IDX 30 69 38 70 31 71 32 72 36 73 39 74 33 75 34 76 37 77 35 78
REMARK SMILES IDX 61 79 62 80 70 81 63 82 64 83 68 84 71 85 65 86 66 87 69 88
REMARK SMILES IDX 67 89 46 90 47 91 55 92 48 93 49 94 53 95 56 96 50 97 51 98
REMARK SMILES IDX 54 99 52 100
REMARK H PARENT 13 5 90 21 86 29 17 34 76 53 44 64
REMARK Flexibility Score: inf
ROOT
ATOM      1  C   UNL A   1      32.285  29.839  25.747  1.00  0.00     0.117 C 
ENDROOT
BRANCH   1   2
ATOM      2  N   UNL A   1      31.532  28.625  26.022  1.00  0.00    -0.354 N 
ATOM      3  C   UNL A   1      32.008  27.340  26.047  1.00  0.00     0.239 C 
ATOM      4  O   UNL A   1      31.460  26.542  26.814  1.00  0.00    -0.273 OA
ATOM      5  H   UNL A   1      30.573  28.740  26.211  1.00  0.00     0.163 HD
BRANCH   3   6
ATOM      6  C   UNL A   1      33.231  26.898  25.216  1.00  0.00     0.219 C 
BRANCH   6   7
ATOM      7  N   UNL A   1      33.009  25.861  24.205  1.00  0.00    -0.324 N 
BRANCH   7   8
ATOM      8  C   UNL A   1      32.923  24.484  24.521  1.00  0.00     0.286 C 
ATOM      9  O   UNL A   1      32.161  23.791  23.829  1.00  0.00    -0.267 OA
BRANCH   8  10
ATOM     10  C   UNL A   1      33.686  23.834  25.781  1.00  0.00     0.305 C 
BRANCH  10  11
ATOM     11  C   UNL A   1      35.132  23.327  25.570  1.00  0.00     0.019 A 
ATOM     12  C   UNL A   1      39.048  21.461  25.751  1.00  0.00     0.044 C 
ATOM     13  C   UNL A   1      37.726  22.142  25.542  1.00  0.00    -0.051 A 
ATOM     14  C   UNL A   1      37.566  23.496  25.848  1.00  0.00     0.004 A 
ATOM     15  C   UNL A   1      36.607  21.413  25.139  1.00  0.00     0.004 A 
ATOM     16  C   UNL A   1      36.285  24.078  25.855  1.00  0.00     0.011 A 
ATOM     17  C   UNL A   1      35.340  22.010  25.110  1.00  0.00     0.011 A 
ENDBRANCH  10  11
BRANCH  10  18
ATOM     18  N   UNL A   1      32.836  22.837  26.521  1.00  0.00    -0.326 N 
ATOM     19  C   UNL A   1      33.386  22.530  27.843  1.00  0.00     0.333 C 
ATOM     20  C   UNL A   1      31.413  23.167  26.640  1.00  0.00     0.333 C 
ATOM     21  H   UNL A   1      32.873  22.011  25.922  1.00  0.00     0.348 HD
ENDBRANCH  10  18
ENDBRANCH   8  10
ENDBRANCH   7   8
BRANCH   7  22
ATOM     22  C   UNL A   1      33.064  26.245  22.740  1.00  0.00     0.097 C 
ATOM     23  C   UNL A   1      33.552  27.654  22.333  1.00  0.00     0.086 C 
ATOM     24  C   UNL A   1      31.715  26.052  22.029  1.00  0.00     0.086 C 
ATOM     25  C   UNL A   1      32.545  28.771  22.614  1.00  0.00     0.264 C 
ATOM     26  C   UNL A   1      30.726  27.132  22.442  1.00  0.00     0.264 C 
ATOM     27  N   UNL A   1      31.202  28.476  22.101  1.00  0.00    -0.337 N 
ATOM     28  C   UNL A   1      30.247  29.475  22.591  1.00  0.00     0.332 C 
ATOM     29  H   UNL A   1      31.270  28.514  21.084  1.00  0.00     0.347 HD
ENDBRANCH   7  22
ENDBRANCH   6   7
ENDBRANCH   3   6
ENDBRANCH   1   2
BRANCH   1  30
ATOM     30  C   UNL A   1      33.020  30.458  26.938  1.00  0.00     0.042 C 
BRANCH  30  31
ATOM     31  C   UNL A   1      34.425  30.009  27.320  1.00  0.00     0.118 C 
BRANCH  31  32
ATOM     32  N   UNL A   1      35.324  31.122  27.638  1.00  0.00    -0.352 N 
ATOM     33  C   UNL A   1      36.499  31.209  28.361  1.00  0.00     0.251 C 
ATOM     34  H   UNL A   1      35.031  31.984  27.261  1.00  0.00     0.163 HD
ATOM     35  O   UNL A   1      36.912  32.300  28.717  1.00  0.00    -0.269 OA
BRANCH  33  36
ATOM     36  C   UNL A   1      37.279  29.992  28.665  1.00  0.00     0.039 A 
ATOM     37  C   UNL A   1      37.127  29.253  29.847  1.00  0.00     0.014 A 
ATOM     38  C   UNL A   1      38.290  29.649  27.791  1.00  0.00     0.014 A 
ATOM     39  C   UNL A   1      38.078  28.271  30.148  1.00  0.00     0.010 A 
ATOM     40  C   UNL A   1      38.931  28.463  27.879  1.00  0.00     0.010 A 
ATOM     41  C   UNL A   1      39.007  27.942  29.160  1.00  0.00    -0.014 A 
BRANCH  41  42
ATOM     42  C   UNL A   1      40.348  27.419  29.350  1.00  0.00     0.031 A 
ATOM     43  C   UNL A   1      40.735  26.143  28.761  1.00  0.00     0.074 A 
ATOM     44  C   UNL A   1      41.274  28.391  29.572  1.00  0.00     0.049 A 
ATOM     45  N   UNL A   1      41.821  25.529  29.066  1.00  0.00    -0.248 NA
ATOM     46  C   UNL A   1      39.944  25.482  27.730  1.00  0.00     0.031 C 
ATOM     47  C   UNL A   1      42.692  28.425  29.229  1.00  0.00     0.029 A 
ATOM     48  N   UNL A   1      41.054  29.639  30.179  1.00  0.00    -0.354 N 
ATOM     49  C   UNL A   1      42.030  24.590  28.088  1.00  0.00     0.074 A 
ATOM     50  C   UNL A   1      40.794  24.528  27.337  1.00  0.00     0.031 C 
ATOM     51  C   UNL A   1      43.270  29.442  29.897  1.00  0.00     0.029 A 
ATOM     52  C   UNL A   1      42.267  29.986  30.799  1.00  0.00     0.049 A 
ATOM     53  H   UNL A   1      40.221  30.164  30.171  1.00  0.00     0.167 HD
ATOM     54  C   UNL A   1      43.285  24.093  27.905  1.00  0.00     0.037 A 
ATOM     55  C   UNL A   1      42.319  29.957  32.165  1.00  0.00     0.037 A 
ATOM     56  C   UNL A   1      44.247  24.775  28.773  1.00  0.00     0.049 A 
ATOM     57  C   UNL A   1      43.240  28.870  32.673  1.00  0.00     0.074 A 
ATOM     58  C   UNL A   1      45.149  25.801  28.536  1.00  0.00     0.029 A 
ATOM     59  N   UNL A   1      44.101  24.703  30.156  1.00  0.00    -0.354 N 
ATOM     60  N   UNL A   1      43.616  27.844  31.963  1.00  0.00    -0.248 NA
ATOM     61  C   UNL A   1      43.787  28.846  34.023  1.00  0.00     0.031 C 
ATOM     62  C   UNL A   1      45.504  26.378  29.783  1.00  0.00     0.029 A 
ATOM     63  C   UNL A   1      44.836  25.694  30.783  1.00  0.00     0.049 A 
ATOM     64  H   UNL A   1      43.548  24.038  30.625  1.00  0.00     0.167 HD
ATOM     65  C   UNL A   1      44.391  27.013  32.724  1.00  0.00     0.074 A 
ATOM     66  C   UNL A   1      44.492  27.701  33.998  1.00  0.00     0.031 C 
ATOM     67  C   UNL A   1      44.846  25.818  32.238  1.00  0.00     0.037 A 
BRANCH  54  68
ATOM     68  C   UNL A   1      43.649  23.224  26.729  1.00  0.00     0.064 A 
ATOM     69  C   UNL A   1      43.244  21.877  26.651  1.00  0.00     0.173 A 
ATOM     70  C   UNL A   1      44.417  23.681  25.640  1.00  0.00     0.173 A 
ATOM     71  F   UNL A   1      42.438  21.332  27.570  1.00  0.00    -0.203 F 
ATOM     72  C   UNL A   1      43.660  21.031  25.620  1.00  0.00     0.198 A 
ATOM     73  C   UNL A   1      44.879  22.822  24.638  1.00  0.00     0.198 A 
ATOM     74  F   UNL A   1      44.714  24.981  25.501  1.00  0.00    -0.203 F 
ATOM     75  F   UNL A   1      43.242  19.757  25.598  1.00  0.00    -0.200 F 
ATOM     76  C   UNL A   1      44.505  21.494  24.632  1.00  0.00     0.200 A 
ATOM     77  F   UNL A   1      45.691  23.292  23.681  1.00  0.00    -0.200 F 
ATOM     78  F   UNL A   1      44.937  20.670  23.668  1.00  0.00    -0.200 F 
ENDBRANCH  54  68
BRANCH  55  79
ATOM     79  C   UNL A   1      40.992  30.310  32.775  1.00  0.00     0.064 A 
ATOM     80  C   UNL A   1      40.540  31.644  32.659  1.00  0.00     0.173 A 
ATOM     81  C   UNL A   1      40.026  29.329  33.043  1.00  0.00     0.173 A 
ATOM     82  F   UNL A   1      41.413  32.627  32.386  1.00  0.00    -0.203 F 
ATOM     83  C   UNL A   1      39.180  31.954  32.666  1.00  0.00     0.198 A 
ATOM     84  C   UNL A   1      38.667  29.652  33.077  1.00  0.00     0.198 A 
ATOM     85  F   UNL A   1      40.380  28.042  33.161  1.00  0.00    -0.203 F 
ATOM     86  F   UNL A   1      38.778  33.203  32.397  1.00  0.00    -0.200 F 
ATOM     87  C   UNL A   1      38.244  30.955  32.855  1.00  0.00     0.200 A 
ATOM     88  F   UNL A   1      37.754  28.681  33.235  1.00  0.00    -0.200 F 
ATOM     89  F   UNL A   1      36.935  31.235  32.782  1.00  0.00    -0.200 F 
ENDBRANCH  55  79
BRANCH  67  90
ATOM     90  C   UNL A   1      45.414  24.681  33.060  1.00  0.00     0.064 A 
ATOM     91  C   UNL A   1      46.699  24.681  33.626  1.00  0.00     0.173 A 
ATOM     92  C   UNL A   1      44.592  23.588  33.435  1.00  0.00     0.173 A 
ATOM     93  F   UNL A   1      47.539  25.711  33.470  1.00  0.00    -0.203 F 
ATOM     94  C   UNL A   1      47.151  23.639  34.442  1.00  0.00     0.198 A 
ATOM     95  C   UNL A   1      45.018  22.593  34.313  1.00  0.00     0.198 A 
ATOM     96  F   UNL A   1      43.333  23.463  32.989  1.00  0.00    -0.203 F 
ATOM     97  F   UNL A   1      48.407  23.663  34.907  1.00  0.00    -0.200 F 
ATOM     98  C   UNL A   1      46.306  22.607  34.798  1.00  0.00     0.200 A 
ATOM     99  F   UNL A   1      44.162  21.637  34.698  1.00  0.00    -0.200 F 
ATOM    100  F   UNL A   1      46.726  21.640  35.624  1.00  0.00    -0.200 F 
ENDBRANCH  67  90
ENDBRANCH  41  42
ENDBRANCH  33  36
ENDBRANCH  31  32
ENDBRANCH  30  31
ENDBRANCH   1  30
TORSDOF 16
ENDMDL
MODEL 3
REMARK VINA RESULT:     -13.2      3.184      9.446
REMARK SMILES Cc1ccc([C@@H](C(=O)N(CC(=O)NCCCNC(=O)c2ccc(-c3c4nc(c(-c5c(F)c(F)c(F)c(F)c5F)c5ccc([nH]5)c(-c5c(F)c(F)c(F)c(F)c5F)c5nc(c(-c6c(F)c(F)c(F)c(F)c6F)c6ccc3[nH]6)C=C5)C=C4)cc2)C2CC[NH+](C)CC2)[NH+](C)C)cc1
REMARK SMILES IDX 14 1 13 2 11 3 12 4 10 6 9 7 7 8 8 9 6 10 5 11 1 12 2 13
REMARK SMILES IDX 3 14 94 15 4 16 93 17 90 18 91 19 92 20 83 22 84 23 89 24
REMARK SMILES IDX 85 25 88 26 86 27 87 28 15 30 16 31 17 32 18 33 19 35 20 36
REMARK SMILES IDX 21 37 82 38 22 39 81 40 23 41 24 42 25 43 75 44 26 45 80 46
REMARK SMILES IDX 74 47 76 48 27 49 79 50 73 51 72 52 28 54 60 55 40 56 59 57
REMARK SMILES IDX 41 58 44 59 58 60 77 61 42 62 43 63 57 65 78 66 45 67 29 68
REMARK SMILES IDX 30 69 38 70 31 71 32 72 36 73 39 74 33 75 34 76 37 77 35 78
REMARK SMILES IDX 61 79 62 80 70 81 63 82 64 83 68 84 71 85 65 86 66 87 69 88
REMARK SMILES IDX 67 89 46 90 47 91 55 92 48 93 49 94 53 95 56 96 50 97 51 98
REMARK SMILES IDX 54 99 52 100
REMARK H PARENT 13 5 90 21 86 29 17 34 76 53 44 64
REMARK Flexibility Score: inf
ROOT
ATOM      1  C   UNL A   1      32.066  28.446  27.816  1.00  0.00     0.117 C 
ENDROOT
BRANCH   1   2
ATOM      2  N   UNL A   1      31.247  27.527  27.041  1.00  0.00    -0.354 N 
ATOM      3  C   UNL A   1      31.623  26.317  26.519  1.00  0.00     0.239 C 
ATOM      4  O   UNL A   1      30.756  25.443  26.417  1.00  0.00    -0.273 OA
ATOM      5  H   UNL A   1      30.318  27.806  26.874  1.00  0.00     0.163 HD
BRANCH   3   6
ATOM      6  C   UNL A   1      33.085  26.004  26.135  1.00  0.00     0.219 C 
BRANCH   6   7
ATOM      7  N   UNL A   1      33.300  24.965  25.127  1.00  0.00    -0.324 N 
BRANCH   7   8
ATOM      8  C   UNL A   1      33.556  23.612  25.458  1.00  0.00     0.286 C 
ATOM      9  O   UNL A   1      33.183  23.222  26.576  1.00  0.00    -0.267 OA
BRANCH   8  10
ATOM     10  C   UNL A   1      34.384  22.626  24.492  1.00  0.00     0.305 C 
BRANCH  10  11
ATOM     11  C   UNL A   1      33.925  21.151  24.396  1.00  0.00     0.019 A 
ATOM     12  C   UNL A   1      33.272  16.956  23.489  1.00  0.00     0.044 C 
ATOM     13  C   UNL A   1      33.413  18.385  23.929  1.00  0.00    -0.051 A 
ATOM     14  C   UNL A   1      32.517  19.359  23.484  1.00  0.00     0.004 A 
ATOM     15  C   UNL A   1      34.501  18.785  24.706  1.00  0.00     0.004 A 
ATOM     16  C   UNL A   1      32.770  20.722  23.721  1.00  0.00     0.011 A 
ATOM     17  C   UNL A   1      34.725  20.142  24.972  1.00  0.00     0.011 A 
ENDBRANCH  10  11
BRANCH  10  18
ATOM     18  N   UNL A   1      35.872  22.747  24.678  1.00  0.00    -0.326 N 
ATOM     19  C   UNL A   1      36.564  22.952  23.404  1.00  0.00     0.333 C 
ATOM     20  C   UNL A   1      36.319  23.747  25.651  1.00  0.00     0.333 C 
ATOM     21  H   UNL A   1      36.130  21.845  25.079  1.00  0.00     0.348 HD
ENDBRANCH  10  18
ENDBRANCH   8  10
ENDBRANCH   7   8
BRANCH   7  22
ATOM     22  C   UNL A   1      33.447  25.373  23.676  1.00  0.00     0.097 C 
ATOM     23  C   UNL A   1      33.586  26.869  23.309  1.00  0.00     0.086 C 
ATOM     24  C   UNL A   1      32.311  24.834  22.792  1.00  0.00     0.086 C 
ATOM     25  C   UNL A   1      32.285  27.665  23.427  1.00  0.00     0.264 C 
ATOM     26  C   UNL A   1      31.019  25.597  23.045  1.00  0.00     0.264 C 
ATOM     27  N   UNL A   1      31.155  27.026  22.744  1.00  0.00    -0.337 N 
ATOM     28  C   UNL A   1      29.908  27.720  23.080  1.00  0.00     0.332 C 
ATOM     29  H   UNL A   1      31.348  27.098  21.745  1.00  0.00     0.347 HD
ENDBRANCH   7  22
ENDBRANCH   6   7
ENDBRANCH   3   6
ENDBRANCH   1   2
BRANCH   1  30
ATOM     30  C   UNL A   1      32.392  29.784  27.147  1.00  0.00     0.042 C 
BRANCH  30  31
ATOM     31  C   UNL A   1      33.786  30.078  26.608  1.00  0.00     0.118 C 
BRANCH  31  32
ATOM     32  N   UNL A   1      34.390  31.283  27.186  1.00  0.00    -0.352 N 
ATOM     33  C   UNL A   1      35.359  31.482  28.151  1.00  0.00     0.251 C 
ATOM     34  H   UNL A   1      34.032  32.120  26.810  1.00  0.00     0.163 HD
ATOM     35  O   UNL A   1      35.491  32.584  28.657  1.00  0.00    -0.269 OA
BRANCH  33  36
ATOM     36  C   UNL A   1      36.263  30.381  28.538  1.00  0.00     0.039 A 
ATOM     37  C   UNL A   1      36.274  29.805  29.817  1.00  0.00     0.014 A 
ATOM     38  C   UNL A   1      37.224  29.995  27.627  1.00  0.00     0.014 A 
ATOM     39  C   UNL A   1      37.328  28.948  30.154  1.00  0.00     0.010 A 
ATOM     40  C   UNL A   1      37.970  28.884  27.811  1.00  0.00     0.010 A 
ATOM     41  C   UNL A   1      38.196  28.554  29.136  1.00  0.00    -0.014 A 
BRANCH  41  42
ATOM     42  C   UNL A   1      39.589  28.163  29.267  1.00  0.00     0.031 A 
ATOM     43  C   UNL A   1      40.022  26.827  28.877  1.00  0.00     0.074 A 
ATOM     44  C   UNL A   1      40.447  29.216  29.206  1.00  0.00     0.049 A 
ATOM     45  N   UNL A   1      41.180  26.351  29.166  1.00  0.00    -0.248 NA
ATOM     46  C   UNL A   1      39.192  25.935  28.076  1.00  0.00     0.031 C 
ATOM     47  C   UNL A   1      41.817  29.277  28.709  1.00  0.00     0.029 A 
ATOM     48  N   UNL A   1      40.184  30.539  29.600  1.00  0.00    -0.354 N 
ATOM     49  C   UNL A   1      41.371  25.262  28.354  1.00  0.00     0.074 A 
ATOM     50  C   UNL A   1      40.077  24.981  27.768  1.00  0.00     0.031 C 
ATOM     51  C   UNL A   1      42.371  30.436  29.114  1.00  0.00     0.029 A 
ATOM     52  C   UNL A   1      41.417  31.074  30.010  1.00  0.00     0.049 A 
ATOM     53  H   UNL A   1      39.313  30.999  29.591  1.00  0.00     0.167 HD
ATOM     54  C   UNL A   1      42.639  24.821  28.126  1.00  0.00     0.037 A 
ATOM     55  C   UNL A   1      41.604  31.305  31.344  1.00  0.00     0.037 A 
ATOM     56  C   UNL A   1      43.621  25.714  28.745  1.00  0.00     0.049 A 
ATOM     57  C   UNL A   1      42.658  30.394  31.934  1.00  0.00     0.074 A 
ATOM     58  C   UNL A   1      44.406  26.733  28.229  1.00  0.00     0.029 A 
ATOM     59  N   UNL A   1      43.616  25.893  30.126  1.00  0.00    -0.354 N 
ATOM     60  N   UNL A   1      43.048  29.279  31.383  1.00  0.00    -0.248 NA
ATOM     61  C   UNL A   1      43.334  30.658  33.197  1.00  0.00     0.031 C 
ATOM     62  C   UNL A   1      44.831  27.555  29.304  1.00  0.00     0.029 A 
ATOM     63  C   UNL A   1      44.323  27.030  30.480  1.00  0.00     0.049 A 
ATOM     64  H   UNL A   1      43.169  25.293  30.765  1.00  0.00     0.167 HD
ATOM     65  C   UNL A   1      43.960  28.657  32.190  1.00  0.00     0.074 A 
ATOM     66  C   UNL A   1      44.126  29.577  33.300  1.00  0.00     0.031 C 
ATOM     67  C   UNL A   1      44.465  27.424  31.878  1.00  0.00     0.037 A 
BRANCH  54  68
ATOM     68  C   UNL A   1      42.959  23.772  27.092  1.00  0.00     0.064 A 
ATOM     69  C   UNL A   1      42.661  22.411  27.301  1.00  0.00     0.173 A 
ATOM     70  C   UNL A   1      43.578  24.065  25.860  1.00  0.00     0.173 A 
ATOM     71  F   UNL A   1      41.994  21.998  28.386  1.00  0.00    -0.203 F 
ATOM     72  C   UNL A   1      43.043  21.415  26.399  1.00  0.00     0.198 A 
ATOM     73  C   UNL A   1      44.010  23.066  24.984  1.00  0.00     0.198 A 
ATOM     74  F   UNL A   1      43.752  25.333  25.459  1.00  0.00    -0.203 F 
ATOM     75  F   UNL A   1      42.732  20.136  26.652  1.00  0.00    -0.200 F 
ATOM     76  C   UNL A   1      43.748  21.739  25.257  1.00  0.00     0.200 A 
ATOM     77  F   UNL A   1      44.685  23.399  23.875  1.00  0.00    -0.200 F 
ATOM     78  F   UNL A   1      44.152  20.778  24.415  1.00  0.00    -0.200 F 
ENDBRANCH  54  68
BRANCH  55  79
ATOM     79  C   UNL A   1      40.319  31.680  32.025  1.00  0.00     0.064 A 
ATOM     80  C   UNL A   1      39.659  30.693  32.793  1.00  0.00     0.173 A 
ATOM     81  C   UNL A   1      39.996  33.018  32.293  1.00  0.00     0.173 A 
ATOM     82  F   UNL A   1      39.937  29.393  32.596  1.00  0.00    -0.203 F 
ATOM     83  C   UNL A   1      38.835  31.035  33.864  1.00  0.00     0.198 A 
ATOM     84  C   UNL A   1      39.146  33.353  33.351  1.00  0.00     0.198 A 
ATOM     85  F   UNL A   1      40.585  34.008  31.609  1.00  0.00    -0.203 F 
ATOM     86  F   UNL A   1      38.351  30.079  34.667  1.00  0.00    -0.200 F 
ATOM     87  C   UNL A   1      38.595  32.365  34.155  1.00  0.00     0.200 A 
ATOM     88  F   UNL A   1      38.930  34.642  33.651  1.00  0.00    -0.200 F 
ATOM     89  F   UNL A   1      37.869  32.699  35.231  1.00  0.00    -0.200 F 
ENDBRANCH  55  79
BRANCH  67  90
ATOM     90  C   UNL A   1      45.203  26.500  32.822  1.00  0.00     0.064 A 
ATOM     91  C   UNL A   1      44.585  25.744  33.831  1.00  0.00     0.173 A 
ATOM     92  C   UNL A   1      46.582  26.231  32.628  1.00  0.00     0.173 A 
ATOM     93  F   UNL A   1      43.265  25.792  34.041  1.00  0.00    -0.203 F 
ATOM     94  C   UNL A   1      45.301  24.846  34.629  1.00  0.00     0.198 A 
ATOM     95  C   UNL A   1      47.274  25.276  33.370  1.00  0.00     0.198 A 
ATOM     96  F   UNL A   1      47.302  26.861  31.687  1.00  0.00    -0.203 F 
ATOM     97  F   UNL A   1      44.672  24.194  35.616  1.00  0.00    -0.200 F 
ATOM     98  C   UNL A   1      46.638  24.600  34.387  1.00  0.00     0.200 A 
ATOM     99  F   UNL A   1      48.553  25.005  33.076  1.00  0.00    -0.200 F 
ATOM    100  F   UNL A   1      47.305  23.698  35.118  1.00  0.00    -0.200 F 
ENDBRANCH  67  90
ENDBRANCH  41  42
ENDBRANCH  33  36
ENDBRANCH  31  32
ENDBRANCH  30  31
ENDBRANCH   1  30
TORSDOF 16
ENDMDL
