MODEL 1
REMARK VINA RESULT:     -12.5      0.000      0.000
REMARK SMILES O=C(NCCCNC(=O)c1ccccc1-n1ccnn1)c1ccc(-c2c3nc(c(-c4c(F)c(F)c(F)c(F)c4F)c4ccc([nH]4)c(-c4c(F)c(F)c(F)c(F)c4F)c4nc(c(-c5c(F)c(F)c(F)c(F)c5F)c5ccc2[nH]5)C=C4)C=C3)cc1
REMARK SMILES IDX 4 1 3 2 1 3 2 4 21 6 22 7 83 8 23 9 82 10 24 11 25 12 26 13
REMARK SMILES IDX 76 14 27 15 81 16 75 17 77 18 28 19 80 20 74 21 73 22 29 24
REMARK SMILES IDX 61 25 41 26 60 27 42 28 45 29 59 30 78 31 43 32 44 33 58 35
REMARK SMILES IDX 79 36 46 37 30 38 31 39 39 40 32 41 33 42 37 43 40 44 34 45
REMARK SMILES IDX 35 46 38 47 36 48 62 49 63 50 71 51 64 52 65 53 69 54 72 55
REMARK SMILES IDX 66 56 67 57 70 58 68 59 47 60 48 61 56 62 49 63 50 64 54 65
REMARK SMILES IDX 57 66 51 67 52 68 55 69 53 70 5 71 6 72 7 73 8 74 9 76 10 77
REMARK SMILES IDX 11 78 15 79 12 80 14 81 13 82 16 83 17 84 20 85 18 86 19 87
REMARK H PARENT 3 5 77 23 45 34 7 75
REMARK Flexibility Score: inf
ROOT
ATOM      1  C   UNL A   1      37.329  21.762  25.511  1.00  0.00     0.118 C 
ENDROOT
BRANCH   1   2
ATOM      2  N   UNL A   1      38.675  21.237  25.640  1.00  0.00    -0.352 N 
ATOM      3  O   UNL A   1      40.678  20.735  26.423  1.00  0.00    -0.269 OA
ATOM      4  C   UNL A   1      39.788  21.589  26.354  1.00  0.00     0.251 C 
ATOM      5  H   UNL A   1      38.823  20.439  25.081  1.00  0.00     0.163 HD
BRANCH   4   6
ATOM      6  C   UNL A   1      40.030  22.918  26.977  1.00  0.00     0.039 A 
ATOM      7  C   UNL A   1      39.296  24.075  26.723  1.00  0.00     0.014 A 
ATOM      8  C   UNL A   1      41.135  23.008  27.846  1.00  0.00     0.014 A 
ATOM      9  C   UNL A   1      39.711  25.304  27.226  1.00  0.00     0.010 A 
ATOM     10  C   UNL A   1      41.538  24.228  28.380  1.00  0.00     0.010 A 
ATOM     11  C   UNL A   1      40.844  25.386  28.037  1.00  0.00    -0.014 A 
BRANCH  11  12
ATOM     12  C   UNL A   1      41.182  26.688  28.611  1.00  0.00     0.031 A 
ATOM     13  C   UNL A   1      42.406  27.339  28.057  1.00  0.00     0.074 A 
ATOM     14  C   UNL A   1      40.383  27.362  29.461  1.00  0.00     0.049 A 
ATOM     15  N   UNL A   1      43.434  27.806  28.693  1.00  0.00    -0.248 NA
ATOM     16  C   UNL A   1      42.512  27.444  26.594  1.00  0.00     0.031 C 
ATOM     17  C   UNL A   1      39.018  27.017  29.859  1.00  0.00     0.029 A 
ATOM     18  N   UNL A   1      40.589  28.574  30.058  1.00  0.00    -0.354 N 
ATOM     19  C   UNL A   1      44.245  28.405  27.730  1.00  0.00     0.074 A 
ATOM     20  C   UNL A   1      43.687  28.054  26.451  1.00  0.00     0.031 C 
ATOM     21  C   UNL A   1      38.445  28.091  30.446  1.00  0.00     0.029 A 
ATOM     22  C   UNL A   1      39.435  29.149  30.568  1.00  0.00     0.049 A 
ATOM     23  H   UNL A   1      41.475  29.000  30.121  1.00  0.00     0.167 HD
ATOM     24  C   UNL A   1      45.195  29.322  28.063  1.00  0.00     0.037 A 
ATOM     25  C   UNL A   1      39.277  30.428  30.988  1.00  0.00     0.037 A 
ATOM     26  C   UNL A   1      45.592  29.198  29.441  1.00  0.00     0.049 A 
ATOM     27  C   UNL A   1      40.615  30.997  31.264  1.00  0.00     0.074 A 
ATOM     28  C   UNL A   1      46.143  28.200  30.221  1.00  0.00     0.029 A 
ATOM     29  N   UNL A   1      45.186  30.165  30.324  1.00  0.00    -0.354 N 
ATOM     30  N   UNL A   1      41.372  30.660  32.269  1.00  0.00    -0.248 NA
ATOM     31  C   UNL A   1      41.281  31.743  30.206  1.00  0.00     0.031 C 
ATOM     32  C   UNL A   1      45.613  28.408  31.529  1.00  0.00     0.029 A 
ATOM     33  C   UNL A   1      44.787  29.530  31.468  1.00  0.00     0.049 A 
ATOM     34  H   UNL A   1      45.182  31.137  30.165  1.00  0.00     0.167 HD
ATOM     35  C   UNL A   1      42.664  30.765  31.784  1.00  0.00     0.074 A 
ATOM     36  C   UNL A   1      42.552  31.565  30.572  1.00  0.00     0.031 C 
ATOM     37  C   UNL A   1      43.655  29.952  32.252  1.00  0.00     0.037 A 
BRANCH  24  38
ATOM     38  C   UNL A   1      45.483  30.576  27.258  1.00  0.00     0.064 A 
ATOM     39  C   UNL A   1      46.826  30.908  26.974  1.00  0.00     0.173 A 
ATOM     40  C   UNL A   1      44.552  31.619  27.068  1.00  0.00     0.173 A 
ATOM     41  F   UNL A   1      47.800  29.994  27.106  1.00  0.00    -0.203 F 
ATOM     42  C   UNL A   1      47.216  32.213  26.663  1.00  0.00     0.198 A 
ATOM     43  C   UNL A   1      44.940  32.909  26.703  1.00  0.00     0.198 A 
ATOM     44  F   UNL A   1      43.248  31.474  27.329  1.00  0.00    -0.203 F 
ATOM     45  F   UNL A   1      48.519  32.510  26.564  1.00  0.00    -0.200 F 
ATOM     46  C   UNL A   1      46.275  33.217  26.545  1.00  0.00     0.200 A 
ATOM     47  F   UNL A   1      44.012  33.869  26.596  1.00  0.00    -0.200 F 
ATOM     48  F   UNL A   1      46.651  34.483  26.332  1.00  0.00    -0.200 F 
ENDBRANCH  24  38
BRANCH  25  49
ATOM     49  C   UNL A   1      38.060  31.272  30.938  1.00  0.00     0.064 A 
ATOM     50  C   UNL A   1      37.498  31.665  29.713  1.00  0.00     0.173 A 
ATOM     51  C   UNL A   1      37.275  31.497  32.087  1.00  0.00     0.173 A 
ATOM     52  F   UNL A   1      38.155  31.442  28.565  1.00  0.00    -0.203 F 
ATOM     53  C   UNL A   1      36.221  32.231  29.640  1.00  0.00     0.198 A 
ATOM     54  C   UNL A   1      36.008  32.075  32.014  1.00  0.00     0.198 A 
ATOM     55  F   UNL A   1      37.679  31.071  33.292  1.00  0.00    -0.203 F 
ATOM     56  F   UNL A   1      35.692  32.533  28.445  1.00  0.00    -0.200 F 
ATOM     57  C   UNL A   1      35.475  32.429  30.790  1.00  0.00     0.200 A 
ATOM     58  F   UNL A   1      35.283  32.228  33.131  1.00  0.00    -0.200 F 
ATOM     59  F   UNL A   1      34.230  32.920  30.715  1.00  0.00    -0.200 F 
ENDBRANCH  25  49
BRANCH  37  60
ATOM     60  C   UNL A   1      43.414  29.231  33.544  1.00  0.00     0.064 A 
ATOM     61  C   UNL A   1      43.742  29.754  34.806  1.00  0.00     0.173 A 
ATOM     62  C   UNL A   1      42.717  28.017  33.504  1.00  0.00     0.173 A 
ATOM     63  F   UNL A   1      44.311  30.961  34.928  1.00  0.00    -0.203 F 
ATOM     64  C   UNL A   1      43.435  29.056  35.972  1.00  0.00     0.198 A 
ATOM     65  C   UNL A   1      42.377  27.343  34.672  1.00  0.00     0.198 A 
ATOM     66  F   UNL A   1      42.328  27.502  32.326  1.00  0.00    -0.203 F 
ATOM     67  F   UNL A   1      43.775  29.563  37.167  1.00  0.00    -0.200 F 
ATOM     68  C   UNL A   1      42.747  27.855  35.904  1.00  0.00     0.200 A 
ATOM     69  F   UNL A   1      41.667  26.208  34.603  1.00  0.00    -0.200 F 
ATOM     70  F   UNL A   1      42.419  27.204  37.028  1.00  0.00    -0.200 F 
ENDBRANCH  37  60
ENDBRANCH  11  12
ENDBRANCH   4   6
ENDBRANCH   1   2
BRANCH   1  71
ATOM     71  C   UNL A   1      36.854  22.088  24.092  1.00  0.00     0.042 C 
BRANCH  71  72
ATOM     72  C   UNL A   1      36.185  23.443  23.903  1.00  0.00     0.118 C 
BRANCH  72  73
ATOM     73  N   UNL A   1      35.216  23.773  24.931  1.00  0.00    -0.352 N 
ATOM     74  C   UNL A   1      33.976  23.237  25.188  1.00  0.00     0.253 C 
ATOM     75  H   UNL A   1      35.490  24.496  25.541  1.00  0.00     0.163 HD
ATOM     76  O   UNL A   1      33.334  23.630  26.150  1.00  0.00    -0.269 OA
BRANCH  74  77
ATOM     77  C   UNL A   1      33.378  22.220  24.290  1.00  0.00     0.065 A 
ATOM     78  C   UNL A   1      33.478  20.896  24.752  1.00  0.00     0.016 A 
ATOM     79  C   UNL A   1      32.706  22.482  23.086  1.00  0.00     0.079 A 
ATOM     80  C   UNL A   1      32.874  19.849  24.054  1.00  0.00     0.001 A 
ATOM     81  C   UNL A   1      32.054  21.427  22.419  1.00  0.00     0.029 A 
ATOM     82  C   UNL A   1      32.150  20.117  22.898  1.00  0.00     0.002 A 
BRANCH  79  83
ATOM     83  N   UNL A   1      32.664  23.765  22.490  1.00  0.00    -0.220 N 
ATOM     84  C   UNL A   1      31.829  24.829  22.740  1.00  0.00     0.137 A 
ATOM     85  N   UNL A   1      33.527  24.101  21.498  1.00  0.00    -0.062 NA
ATOM     86  C   UNL A   1      32.144  25.754  21.776  1.00  0.00     0.157 A 
ATOM     87  N   UNL A   1      33.175  25.288  21.020  1.00  0.00    -0.139 NA
ENDBRANCH  79  83
ENDBRANCH  74  77
ENDBRANCH  72  73
ENDBRANCH  71  72
ENDBRANCH   1  71
TORSDOF 11
ENDMDL
MODEL 2
REMARK VINA RESULT:     -12.4      3.976      8.684
REMARK SMILES O=C(NCCCNC(=O)c1ccccc1-n1ccnn1)c1ccc(-c2c3nc(c(-c4c(F)c(F)c(F)c(F)c4F)c4ccc([nH]4)c(-c4c(F)c(F)c(F)c(F)c4F)c4nc(c(-c5c(F)c(F)c(F)c(F)c5F)c5ccc2[nH]5)C=C4)C=C3)cc1
REMARK SMILES IDX 4 1 3 2 1 3 2 4 21 6 22 7 83 8 23 9 82 10 24 11 25 12 26 13
REMARK SMILES IDX 76 14 27 15 81 16 75 17 77 18 28 19 80 20 74 21 73 22 29 24
REMARK SMILES IDX 61 25 41 26 60 27 42 28 45 29 59 30 78 31 43 32 44 33 58 35
REMARK SMILES IDX 79 36 46 37 30 38 31 39 39 40 32 41 33 42 37 43 40 44 34 45
REMARK SMILES IDX 35 46 38 47 36 48 62 49 63 50 71 51 64 52 65 53 69 54 72 55
REMARK SMILES IDX 66 56 67 57 70 58 68 59 47 60 48 61 56 62 49 63 50 64 54 65
REMARK SMILES IDX 57 66 51 67 52 68 55 69 53 70 5 71 6 72 7 73 8 74 9 76 10 77
REMARK SMILES IDX 11 78 15 79 12 80 14 81 13 82 16 83 17 84 20 85 18 86 19 87
REMARK H PARENT 3 5 77 23 45 34 7 75
REMARK Flexibility Score: inf
ROOT
ATOM      1  C   UNL A   1      33.799  30.555  27.097  1.00  0.00     0.118 C 
ENDROOT
BRANCH   1   2
ATOM      2  N   UNL A   1      33.952  31.288  28.340  1.00  0.00    -0.352 N 
ATOM      3  O   UNL A   1      34.791  32.494  29.988  1.00  0.00    -0.269 OA
ATOM      4  C   UNL A   1      35.006  31.613  29.150  1.00  0.00     0.251 C 
ATOM      5  H   UNL A   1      33.095  31.633  28.681  1.00  0.00     0.163 HD
BRANCH   4   6
ATOM      6  C   UNL A   1      36.337  30.949  29.143  1.00  0.00     0.039 A 
ATOM      7  C   UNL A   1      36.553  29.573  29.098  1.00  0.00     0.014 A 
ATOM      8  C   UNL A   1      37.458  31.796  29.253  1.00  0.00     0.014 A 
ATOM      9  C   UNL A   1      37.831  29.049  29.270  1.00  0.00     0.010 A 
ATOM     10  C   UNL A   1      38.743  31.280  29.392  1.00  0.00     0.010 A 
ATOM     11  C   UNL A   1      38.924  29.900  29.439  1.00  0.00    -0.014 A 
BRANCH  11  12
ATOM     12  C   UNL A   1      40.254  29.298  29.525  1.00  0.00     0.031 A 
ATOM     13  C   UNL A   1      40.799  29.130  30.904  1.00  0.00     0.074 A 
ATOM     14  C   UNL A   1      40.905  28.767  28.471  1.00  0.00     0.049 A 
ATOM     15  N   UNL A   1      41.939  29.523  31.378  1.00  0.00    -0.248 NA
ATOM     16  C   UNL A   1      39.935  28.472  31.896  1.00  0.00     0.031 C 
ATOM     17  C   UNL A   1      40.388  28.565  27.117  1.00  0.00     0.029 A 
ATOM     18  N   UNL A   1      42.140  28.183  28.427  1.00  0.00    -0.354 N 
ATOM     19  C   UNL A   1      42.007  29.027  32.680  1.00  0.00     0.074 A 
ATOM     20  C   UNL A   1      40.707  28.489  32.981  1.00  0.00     0.031 C 
ATOM     21  C   UNL A   1      41.206  27.719  26.454  1.00  0.00     0.029 A 
ATOM     22  C   UNL A   1      42.355  27.416  27.292  1.00  0.00     0.049 A 
ATOM     23  H   UNL A   1      42.814  28.295  29.136  1.00  0.00     0.167 HD
ATOM     24  C   UNL A   1      43.193  28.906  33.339  1.00  0.00     0.037 A 
ATOM     25  C   UNL A   1      43.362  26.534  27.082  1.00  0.00     0.037 A 
ATOM     26  C   UNL A   1      44.197  29.777  32.789  1.00  0.00     0.049 A 
ATOM     27  C   UNL A   1      44.456  26.839  28.032  1.00  0.00     0.074 A 
ATOM     28  C   UNL A   1      44.326  31.141  32.608  1.00  0.00     0.029 A 
ATOM     29  N   UNL A   1      45.215  29.218  32.060  1.00  0.00    -0.354 N 
ATOM     30  N   UNL A   1      45.230  27.884  27.963  1.00  0.00    -0.248 NA
ATOM     31  C   UNL A   1      44.491  26.120  29.298  1.00  0.00     0.031 C 
ATOM     32  C   UNL A   1      45.104  31.292  31.422  1.00  0.00     0.029 A 
ATOM     33  C   UNL A   1      45.416  30.012  30.965  1.00  0.00     0.049 A 
ATOM     34  H   UNL A   1      45.711  28.397  32.283  1.00  0.00     0.167 HD
ATOM     35  C   UNL A   1      45.509  28.200  29.281  1.00  0.00     0.074 A 
ATOM     36  C   UNL A   1      45.154  27.009  30.041  1.00  0.00     0.031 C 
ATOM     37  C   UNL A   1      45.729  29.492  29.658  1.00  0.00     0.037 A 
BRANCH  24  38
ATOM     38  C   UNL A   1      43.555  27.727  34.223  1.00  0.00     0.064 A 
ATOM     39  C   UNL A   1      43.607  26.438  33.648  1.00  0.00     0.173 A 
ATOM     40  C   UNL A   1      43.507  27.755  35.633  1.00  0.00     0.173 A 
ATOM     41  F   UNL A   1      43.668  26.283  32.316  1.00  0.00    -0.203 F 
ATOM     42  C   UNL A   1      43.476  25.278  34.417  1.00  0.00     0.198 A 
ATOM     43  C   UNL A   1      43.433  26.593  36.401  1.00  0.00     0.198 A 
ATOM     44  F   UNL A   1      43.418  28.897  36.325  1.00  0.00    -0.203 F 
ATOM     45  F   UNL A   1      43.366  24.088  33.811  1.00  0.00    -0.200 F 
ATOM     46  C   UNL A   1      43.371  25.357  35.792  1.00  0.00     0.200 A 
ATOM     47  F   UNL A   1      43.329  26.691  37.734  1.00  0.00    -0.200 F 
ATOM     48  F   UNL A   1      43.161  24.257  36.525  1.00  0.00    -0.200 F 
ENDBRANCH  24  38
BRANCH  25  49
ATOM     49  C   UNL A   1      43.346  25.291  26.276  1.00  0.00     0.064 A 
ATOM     50  C   UNL A   1      44.317  25.052  25.289  1.00  0.00     0.173 A 
ATOM     51  C   UNL A   1      42.534  24.195  26.631  1.00  0.00     0.173 A 
ATOM     52  F   UNL A   1      45.166  26.025  24.927  1.00  0.00    -0.203 F 
ATOM     53  C   UNL A   1      44.477  23.790  24.708  1.00  0.00     0.198 A 
ATOM     54  C   UNL A   1      42.684  22.941  26.039  1.00  0.00     0.198 A 
ATOM     55  F   UNL A   1      41.643  24.293  27.628  1.00  0.00    -0.203 F 
ATOM     56  F   UNL A   1      45.458  23.585  23.817  1.00  0.00    -0.200 F 
ATOM     57  C   UNL A   1      43.665  22.735  25.088  1.00  0.00     0.200 A 
ATOM     58  F   UNL A   1      41.915  21.920  26.443  1.00  0.00    -0.200 F 
ATOM     59  F   UNL A   1      43.854  21.513  24.571  1.00  0.00    -0.200 F 
ENDBRANCH  25  49
BRANCH  37  60
ATOM     60  C   UNL A   1      46.040  30.490  28.585  1.00  0.00     0.064 A 
ATOM     61  C   UNL A   1      45.065  31.131  27.803  1.00  0.00     0.173 A 
ATOM     62  C   UNL A   1      47.372  30.896  28.426  1.00  0.00     0.173 A 
ATOM     63  F   UNL A   1      43.762  30.874  27.976  1.00  0.00    -0.203 F 
ATOM     64  C   UNL A   1      45.420  32.095  26.862  1.00  0.00     0.198 A 
ATOM     65  C   UNL A   1      47.718  31.888  27.514  1.00  0.00     0.198 A 
ATOM     66  F   UNL A   1      48.336  30.358  29.190  1.00  0.00    -0.203 F 
ATOM     67  F   UNL A   1      44.476  32.681  26.112  1.00  0.00    -0.200 F 
ATOM     68  C   UNL A   1      46.745  32.477  26.723  1.00  0.00     0.200 A 
ATOM     69  F   UNL A   1      48.993  32.290  27.419  1.00  0.00    -0.200 F 
ATOM     70  F   UNL A   1      47.082  33.431  25.845  1.00  0.00    -0.200 F 
ENDBRANCH  37  60
ENDBRANCH  11  12
ENDBRANCH   4   6
ENDBRANCH   1   2
BRANCH   1  71
ATOM     71  C   UNL A   1      32.551  29.676  26.970  1.00  0.00     0.042 C 
BRANCH  71  72
ATOM     72  C   UNL A   1      31.649  29.960  25.777  1.00  0.00     0.118 C 
BRANCH  72  73
ATOM     73  N   UNL A   1      32.281  29.734  24.490  1.00  0.00    -0.352 N 
ATOM     74  C   UNL A   1      31.851  29.005  23.406  1.00  0.00     0.253 C 
ATOM     75  H   UNL A   1      33.155  30.172  24.376  1.00  0.00     0.163 HD
ATOM     76  O   UNL A   1      32.522  28.987  22.385  1.00  0.00    -0.269 OA
BRANCH  74  77
ATOM     77  C   UNL A   1      30.609  28.197  23.466  1.00  0.00     0.065 A 
ATOM     78  C   UNL A   1      30.793  26.866  23.879  1.00  0.00     0.016 A 
ATOM     79  C   UNL A   1      29.314  28.663  23.196  1.00  0.00     0.079 A 
ATOM     80  C   UNL A   1      29.699  26.021  24.070  1.00  0.00     0.001 A 
ATOM     81  C   UNL A   1      28.214  27.821  23.445  1.00  0.00     0.029 A 
ATOM     82  C   UNL A   1      28.410  26.504  23.870  1.00  0.00     0.002 A 
BRANCH  79  83
ATOM     83  N   UNL A   1      29.053  29.948  22.662  1.00  0.00    -0.220 N 
ATOM     84  C   UNL A   1      28.794  31.137  23.304  1.00  0.00     0.137 A 
ATOM     85  N   UNL A   1      29.014  30.150  21.320  1.00  0.00    -0.062 NA
ATOM     86  C   UNL A   1      28.475  32.014  22.298  1.00  0.00     0.157 A 
ATOM     87  N   UNL A   1      28.604  31.392  21.095  1.00  0.00    -0.139 NA
ENDBRANCH  79  83
ENDBRANCH  74  77
ENDBRANCH  72  73
ENDBRANCH  71  72
ENDBRANCH   1  71
TORSDOF 11
ENDMDL
MODEL 3
REMARK VINA RESULT:     -12.4      1.225      2.280
REMARK SMILES O=C(NCCCNC(=O)c1ccccc1-n1ccnn1)c1ccc(-c2c3nc(c(-c4c(F)c(F)c(F)c(F)c4F)c4ccc([nH]4)c(-c4c(F)c(F)c(F)c(F)c4F)c4nc(c(-c5c(F)c(F)c(F)c(F)c5F)c5ccc2[nH]5)C=C4)C=C3)cc1
REMARK SMILES IDX 4 1 3 2 1 3 2 4 21 6 22 7 83 8 23 9 82 10 24 11 25 12 26 13
REMARK SMILES IDX 76 14 27 15 81 16 75 17 77 18 28 19 80 20 74 21 73 22 29 24
REMARK SMILES IDX 61 25 41 26 60 27 42 28 45 29 59 30 78 31 43 32 44 33 58 35
REMARK SMILES IDX 79 36 46 37 30 38 31 39 39 40 32 41 33 42 37 43 40 44 34 45
REMARK SMILES IDX 35 46 38 47 36 48 62 49 63 50 71 51 64 52 65 53 69 54 72 55
REMARK SMILES IDX 66 56 67 57 70 58 68 59 47 60 48 61 56 62 49 63 50 64 54 65
REMARK SMILES IDX 57 66 51 67 52 68 55 69 53 70 5 71 6 72 7 73 8 74 9 76 10 77
REMARK SMILES IDX 11 78 15 79 12 80 14 81 13 82 16 83 17 84 20 85 18 86 19 87
REMARK H PARENT 3 5 77 23 45 34 7 75
REMARK Flexibility Score: inf
ROOT
ATOM      1  C   UNL A   1      36.757  22.024  25.639  1.00  0.00     0.118 C 
ENDROOT
BRANCH   1   2
ATOM      2  N   UNL A   1      38.108  21.499  25.591  1.00  0.00    -0.352 N 
ATOM      3  O   UNL A   1      40.185  20.967  26.121  1.00  0.00    -0.269 OA
ATOM      4  C   UNL A   1      39.295  21.819  26.195  1.00  0.00     0.251 C 
ATOM      5  H   UNL A   1      38.192  20.732  24.981  1.00  0.00     0.163 HD
BRANCH   4   6
ATOM      6  C   UNL A   1      39.606  23.116  26.854  1.00  0.00     0.039 A 
ATOM      7  C   UNL A   1      38.903  24.305  26.670  1.00  0.00     0.014 A 
ATOM      8  C   UNL A   1      40.747  23.138  27.680  1.00  0.00     0.014 A 
ATOM      9  C   UNL A   1      39.379  25.501  27.199  1.00  0.00     0.010 A 
ATOM     10  C   UNL A   1      41.212  24.325  28.240  1.00  0.00     0.010 A 
ATOM     11  C   UNL A   1      40.545  25.517  27.966  1.00  0.00    -0.014 A 
BRANCH  11  12
ATOM     12  C   UNL A   1      40.950  26.785  28.570  1.00  0.00     0.031 A 
ATOM     13  C   UNL A   1      42.195  27.395  28.019  1.00  0.00     0.074 A 
ATOM     14  C   UNL A   1      40.193  27.471  29.449  1.00  0.00     0.049 A 
ATOM     15  N   UNL A   1      43.251  27.796  28.654  1.00  0.00    -0.248 NA
ATOM     16  C   UNL A   1      42.289  27.535  26.558  1.00  0.00     0.031 C 
ATOM     17  C   UNL A   1      38.818  27.177  29.856  1.00  0.00     0.029 A 
ATOM     18  N   UNL A   1      40.462  28.654  30.077  1.00  0.00    -0.354 N 
ATOM     19  C   UNL A   1      44.078  28.384  27.697  1.00  0.00     0.074 A 
ATOM     20  C   UNL A   1      43.489  28.095  26.416  1.00  0.00     0.031 C 
ATOM     21  C   UNL A   1      38.303  28.259  30.479  1.00  0.00     0.029 A 
ATOM     22  C   UNL A   1      39.341  29.267  30.617  1.00  0.00     0.049 A 
ATOM     23  H   UNL A   1      41.367  29.037  30.139  1.00  0.00     0.167 HD
ATOM     24  C   UNL A   1      45.073  29.246  28.042  1.00  0.00     0.037 A 
ATOM     25  C   UNL A   1      39.247  30.540  31.075  1.00  0.00     0.037 A 
ATOM     26  C   UNL A   1      45.480  29.066  29.410  1.00  0.00     0.049 A 
ATOM     27  C   UNL A   1      40.614  31.039  31.349  1.00  0.00     0.074 A 
ATOM     28  C   UNL A   1      45.994  28.022  30.156  1.00  0.00     0.029 A 
ATOM     29  N   UNL A   1      45.130  30.025  30.325  1.00  0.00    -0.354 N 
ATOM     30  N   UNL A   1      41.367  30.639  32.334  1.00  0.00    -0.248 NA
ATOM     31  C   UNL A   1      41.301  31.783  30.302  1.00  0.00     0.031 C 
ATOM     32  C   UNL A   1      45.490  28.217  31.475  1.00  0.00     0.029 A 
ATOM     33  C   UNL A   1      44.716  29.377  31.456  1.00  0.00     0.049 A 
ATOM     34  H   UNL A   1      45.169  31.000  30.194  1.00  0.00     0.167 HD
ATOM     35  C   UNL A   1      42.656  30.699  31.834  1.00  0.00     0.074 A 
ATOM     36  C   UNL A   1      42.566  31.537  30.647  1.00  0.00     0.031 C 
ATOM     37  C   UNL A   1      43.614  29.828  32.267  1.00  0.00     0.037 A 
BRANCH  24  38
ATOM     38  C   UNL A   1      45.409  30.508  27.268  1.00  0.00     0.064 A 
ATOM     39  C   UNL A   1      46.763  30.790  26.983  1.00  0.00     0.173 A 
ATOM     40  C   UNL A   1      44.522  31.594  27.112  1.00  0.00     0.173 A 
ATOM     41  F   UNL A   1      47.699  29.834  27.085  1.00  0.00    -0.203 F 
ATOM     42  C   UNL A   1      47.206  32.086  26.704  1.00  0.00     0.198 A 
ATOM     43  C   UNL A   1      44.962  32.875  26.778  1.00  0.00     0.198 A 
ATOM     44  F   UNL A   1      43.214  31.497  27.378  1.00  0.00    -0.203 F 
ATOM     45  F   UNL A   1      48.520  32.331  26.604  1.00  0.00    -0.200 F 
ATOM     46  C   UNL A   1      46.308  33.131  26.619  1.00  0.00     0.200 A 
ATOM     47  F   UNL A   1      44.074  33.877  26.703  1.00  0.00    -0.200 F 
ATOM     48  F   UNL A   1      46.736  34.386  26.436  1.00  0.00    -0.200 F 
ENDBRANCH  24  38
BRANCH  25  49
ATOM     49  C   UNL A   1      38.071  31.439  31.064  1.00  0.00     0.064 A 
ATOM     50  C   UNL A   1      37.553  31.945  29.861  1.00  0.00     0.173 A 
ATOM     51  C   UNL A   1      37.272  31.617  32.212  1.00  0.00     0.173 A 
ATOM     52  F   UNL A   1      38.224  31.776  28.712  1.00  0.00    -0.203 F 
ATOM     53  C   UNL A   1      36.304  32.572  29.806  1.00  0.00     0.198 A 
ATOM     54  C   UNL A   1      36.033  32.256  32.158  1.00  0.00     0.198 A 
ATOM     55  F   UNL A   1      37.631  31.088  33.390  1.00  0.00    -0.203 F 
ATOM     56  F   UNL A   1      35.815  32.983  28.627  1.00  0.00    -0.200 F 
ATOM     57  C   UNL A   1      35.543  32.721  30.953  1.00  0.00     0.200 A 
ATOM     58  F   UNL A   1      35.292  32.361  33.270  1.00  0.00    -0.200 F 
ATOM     59  F   UNL A   1      34.323  33.272  30.892  1.00  0.00    -0.200 F 
ENDBRANCH  25  49
BRANCH  37  60
ATOM     60  C   UNL A   1      43.356  29.084  33.542  1.00  0.00     0.064 A 
ATOM     61  C   UNL A   1      42.560  27.929  33.628  1.00  0.00     0.173 A 
ATOM     62  C   UNL A   1      44.039  29.491  34.695  1.00  0.00     0.173 A 
ATOM     63  F   UNL A   1      41.964  27.418  32.542  1.00  0.00    -0.203 F 
ATOM     64  C   UNL A   1      42.411  27.250  34.835  1.00  0.00     0.198 A 
ATOM     65  C   UNL A   1      43.919  28.786  35.889  1.00  0.00     0.198 A 
ATOM     66  F   UNL A   1      44.859  30.553  34.653  1.00  0.00    -0.203 F 
ATOM     67  F   UNL A   1      41.630  26.161  34.900  1.00  0.00    -0.200 F 
ATOM     68  C   UNL A   1      43.095  27.675  35.962  1.00  0.00     0.200 A 
ATOM     69  F   UNL A   1      44.623  29.172  36.963  1.00  0.00    -0.200 F 
ATOM     70  F   UNL A   1      42.982  26.999  37.113  1.00  0.00    -0.200 F 
ENDBRANCH  37  60
ENDBRANCH  11  12
ENDBRANCH   4   6
ENDBRANCH   1   2
BRANCH   1  71
ATOM     71  C   UNL A   1      36.310  22.875  24.447  1.00  0.00     0.042 C 
BRANCH  71  72
ATOM     72  C   UNL A   1      35.487  24.113  24.777  1.00  0.00     0.118 C 
BRANCH  72  73
ATOM     73  N   UNL A   1      34.075  23.846  24.983  1.00  0.00    -0.352 N 
ATOM     74  C   UNL A   1      33.010  24.712  25.064  1.00  0.00     0.253 C 
ATOM     75  H   UNL A   1      33.843  22.894  25.082  1.00  0.00     0.163 HD
ATOM     76  O   UNL A   1      31.878  24.270  25.190  1.00  0.00    -0.269 OA
BRANCH  74  77
ATOM     77  C   UNL A   1      33.212  26.181  25.046  1.00  0.00     0.065 A 
ATOM     78  C   UNL A   1      33.446  26.758  26.307  1.00  0.00     0.016 A 
ATOM     79  C   UNL A   1      33.230  26.993  23.902  1.00  0.00     0.079 A 
ATOM     80  C   UNL A   1      33.745  28.115  26.426  1.00  0.00     0.001 A 
ATOM     81  C   UNL A   1      33.587  28.349  24.027  1.00  0.00     0.029 A 
ATOM     82  C   UNL A   1      33.832  28.906  25.286  1.00  0.00     0.002 A 
BRANCH  79  83
ATOM     83  N   UNL A   1      32.886  26.518  22.614  1.00  0.00    -0.220 N 
ATOM     84  C   UNL A   1      31.676  26.535  21.960  1.00  0.00     0.137 A 
ATOM     85  N   UNL A   1      33.811  25.922  21.821  1.00  0.00    -0.062 NA
ATOM     86  C   UNL A   1      31.891  25.816  20.811  1.00  0.00     0.157 A 
ATOM     87  N   UNL A   1      33.197  25.440  20.749  1.00  0.00    -0.139 NA
ENDBRANCH  79  83
ENDBRANCH  74  77
ENDBRANCH  72  73
ENDBRANCH  71  72
ENDBRANCH   1  71
TORSDOF 11
ENDMDL
