MODEL 1
REMARK VINA RESULT:     -12.9      0.000      0.000
REMARK SMILES Cc1cc(=O)n2nc(C[N@@H+](C)CC(=O)NCCCNC(=O)c3ccc(-c4c5nc(c(-c6c(F)c(F)c(F)c(F)c6F)c6ccc([nH]6)c(-c6c(F)c(F)c(F)c(F)c6F)c6nc(c(-c7c(F)c(F)c(F)c(F)c7F)c7ccc4[nH]7)C=C6)C=C5)cc3)sc2n1
REMARK SMILES IDX 16 1 15 2 13 3 14 4 12 6 10 7 11 8 9 10 8 11 1 12 2 13 3 14
REMARK SMILES IDX 87 15 4 16 86 17 5 18 6 19 85 20 7 21 17 22 18 23 19 24
REMARK SMILES IDX 20 25 21 27 22 28 23 29 84 30 24 31 83 32 25 33 26 34 27 35
REMARK SMILES IDX 77 36 28 37 82 38 76 39 78 40 29 41 81 42 75 43 74 44 30 46
REMARK SMILES IDX 62 47 42 48 61 49 43 50 46 51 60 52 79 53 44 54 45 55 59 57
REMARK SMILES IDX 80 58 47 59 31 60 32 61 40 62 33 63 34 64 38 65 41 66 35 67
REMARK SMILES IDX 36 68 39 69 37 70 63 71 64 72 72 73 65 74 66 75 70 76 73 77
REMARK SMILES IDX 67 78 68 79 71 80 69 81 48 82 49 83 57 84 50 85 51 86 55 87
REMARK SMILES IDX 58 88 52 89 53 90 56 91 54 92
REMARK H PARENT 15 5 10 9 19 26 78 45 46 56
REMARK Flexibility Score: inf
ROOT
ATOM      1  C   UNL A   1      37.012  22.511  25.304  1.00  0.00     0.118 C 
ENDROOT
BRANCH   1   2
ATOM      2  N   UNL A   1      36.026  22.282  26.345  1.00  0.00    -0.351 N 
ATOM      3  C   UNL A   1      34.950  21.448  26.358  1.00  0.00     0.275 C 
ATOM      4  O   UNL A   1      34.226  21.471  27.357  1.00  0.00    -0.269 OA
ATOM      5  H   UNL A   1      36.155  22.811  27.166  1.00  0.00     0.163 HD
BRANCH   3   6
ATOM      6  C   UNL A   1      34.656  20.514  25.185  1.00  0.00     0.363 C 
BRANCH   6   7
ATOM      7  N   UNL A   1      33.254  20.097  25.046  1.00  0.00    -0.324 N 
ATOM      8  C   UNL A   1      32.935  18.716  25.327  1.00  0.00     0.333 C 
ATOM      9  H   UNL A   1      32.867  20.581  25.856  1.00  0.00     0.348 HD
BRANCH   7  10
ATOM     10  C   UNL A   1      32.523  20.652  23.901  1.00  0.00     0.333 C 
BRANCH  10  11
ATOM     11  C   UNL A   1      32.130  22.072  24.206  1.00  0.00     0.172 A 
ATOM     12  C   UNL A   1      30.618  27.848  24.264  1.00  0.00     0.067 C 
ATOM     13  C   UNL A   1      30.829  26.412  24.649  1.00  0.00     0.046 A 
ATOM     14  C   UNL A   1      30.301  25.913  25.778  1.00  0.00     0.097 A 
ATOM     15  N   UNL A   1      31.569  25.676  23.755  1.00  0.00    -0.224 NA
ATOM     16  C   UNL A   1      30.511  24.485  26.116  1.00  0.00     0.275 A 
ATOM     17  C   UNL A   1      31.715  24.430  24.050  1.00  0.00     0.215 A 
ATOM     18  O   UNL A   1      30.062  24.041  27.168  1.00  0.00    -0.267 OA
ATOM     19  N   UNL A   1      31.222  23.796  25.158  1.00  0.00    -0.167 N 
ATOM     20  S   UNL A   1      32.590  23.318  23.060  1.00  0.00    -0.073 S 
ATOM     21  N   UNL A   1      31.458  22.443  25.251  1.00  0.00    -0.150 NA
ENDBRANCH  10  11
ENDBRANCH   7  10
ENDBRANCH   6   7
ENDBRANCH   3   6
ENDBRANCH   1   2
BRANCH   1  22
ATOM     22  C   UNL A   1      38.265  21.656  25.501  1.00  0.00     0.042 C 
BRANCH  22  23
ATOM     23  C   UNL A   1      39.253  22.267  26.464  1.00  0.00     0.118 C 
BRANCH  23  24
ATOM     24  N   UNL A   1      40.654  22.051  26.117  1.00  0.00    -0.352 N 
ATOM     25  C   UNL A   1      41.664  22.999  26.138  1.00  0.00     0.251 C 
ATOM     26  H   UNL A   1      40.908  21.141  25.840  1.00  0.00     0.163 HD
ATOM     27  O   UNL A   1      42.720  22.822  25.535  1.00  0.00    -0.269 OA
BRANCH  25  28
ATOM     28  C   UNL A   1      41.435  24.238  26.904  1.00  0.00     0.039 A 
ATOM     29  C   UNL A   1      41.986  24.457  28.167  1.00  0.00     0.014 A 
ATOM     30  C   UNL A   1      40.692  25.233  26.277  1.00  0.00     0.014 A 
ATOM     31  C   UNL A   1      41.816  25.710  28.752  1.00  0.00     0.010 A 
ATOM     32  C   UNL A   1      40.772  26.519  26.719  1.00  0.00     0.010 A 
ATOM     33  C   UNL A   1      41.215  26.740  28.008  1.00  0.00    -0.014 A 
BRANCH  33  34
ATOM     34  C   UNL A   1      41.072  28.093  28.523  1.00  0.00     0.031 A 
ATOM     35  C   UNL A   1      42.117  29.027  28.048  1.00  0.00     0.074 A 
ATOM     36  C   UNL A   1      39.990  28.503  29.223  1.00  0.00     0.049 A 
ATOM     37  N   UNL A   1      43.089  29.518  28.739  1.00  0.00    -0.248 NA
ATOM     38  C   UNL A   1      42.198  29.317  26.608  1.00  0.00     0.031 C 
ATOM     39  C   UNL A   1      38.739  27.784  29.512  1.00  0.00     0.029 A 
ATOM     40  N   UNL A   1      39.756  29.720  29.785  1.00  0.00    -0.354 N 
ATOM     41  C   UNL A   1      43.791  30.348  27.874  1.00  0.00     0.074 A 
ATOM     42  C   UNL A   1      43.319  30.040  26.549  1.00  0.00     0.031 C 
ATOM     43  C   UNL A   1      37.813  28.643  29.994  1.00  0.00     0.029 A 
ATOM     44  C   UNL A   1      38.452  29.922  30.226  1.00  0.00     0.049 A 
ATOM     45  H   UNL A   1      40.458  30.405  29.873  1.00  0.00     0.167 HD
ATOM     46  C   UNL A   1      44.515  31.391  28.361  1.00  0.00     0.037 A 
ATOM     47  C   UNL A   1      37.947  31.069  30.746  1.00  0.00     0.037 A 
ATOM     48  C   UNL A   1      44.743  31.241  29.778  1.00  0.00     0.049 A 
ATOM     49  C   UNL A   1      39.106  31.864  31.222  1.00  0.00     0.074 A 
ATOM     50  C   UNL A   1      45.398  30.312  30.564  1.00  0.00     0.029 A 
ATOM     51  N   UNL A   1      43.907  31.923  30.628  1.00  0.00    -0.354 N 
ATOM     52  N   UNL A   1      39.866  31.508  32.220  1.00  0.00    -0.248 NA
ATOM     53  C   UNL A   1      39.696  32.808  30.288  1.00  0.00     0.031 C 
ATOM     54  C   UNL A   1      44.581  30.166  31.725  1.00  0.00     0.029 A 
ATOM     55  C   UNL A   1      43.517  31.064  31.623  1.00  0.00     0.049 A 
ATOM     56  H   UNL A   1      43.636  32.865  30.539  1.00  0.00     0.167 HD
ATOM     57  C   UNL A   1      41.152  31.827  31.813  1.00  0.00     0.074 A 
ATOM     58  C   UNL A   1      40.977  32.699  30.652  1.00  0.00     0.031 C 
ATOM     59  C   UNL A   1      42.227  31.124  32.273  1.00  0.00     0.037 A 
BRANCH  46  60
ATOM     60  C   UNL A   1      44.674  32.717  27.658  1.00  0.00     0.064 A 
ATOM     61  C   UNL A   1      45.848  32.961  26.918  1.00  0.00     0.173 A 
ATOM     62  C   UNL A   1      43.877  33.852  27.921  1.00  0.00     0.173 A 
ATOM     63  F   UNL A   1      46.694  31.961  26.630  1.00  0.00    -0.203 F 
ATOM     64  C   UNL A   1      46.227  34.251  26.536  1.00  0.00     0.198 A 
ATOM     65  C   UNL A   1      44.230  35.129  27.492  1.00  0.00     0.198 A 
ATOM     66  F   UNL A   1      42.788  33.798  28.696  1.00  0.00    -0.203 F 
ATOM     67  F   UNL A   1      47.413  34.448  25.945  1.00  0.00    -0.200 F 
ATOM     68  C   UNL A   1      45.420  35.335  26.828  1.00  0.00     0.200 A 
ATOM     69  F   UNL A   1      43.444  36.169  27.806  1.00  0.00    -0.200 F 
ATOM     70  F   UNL A   1      45.808  36.578  26.517  1.00  0.00    -0.200 F 
ENDBRANCH  46  60
BRANCH  47  71
ATOM     71  C   UNL A   1      36.614  31.686  30.533  1.00  0.00     0.064 A 
ATOM     72  C   UNL A   1      35.809  32.039  31.630  1.00  0.00     0.173 A 
ATOM     73  C   UNL A   1      36.253  32.239  29.289  1.00  0.00     0.173 A 
ATOM     74  F   UNL A   1      36.103  31.584  32.856  1.00  0.00    -0.203 F 
ATOM     75  C   UNL A   1      34.744  32.938  31.502  1.00  0.00     0.198 A 
ATOM     76  C   UNL A   1      35.186  33.133  29.163  1.00  0.00     0.198 A 
ATOM     77  F   UNL A   1      36.991  32.008  28.195  1.00  0.00    -0.203 F 
ATOM     78  F   UNL A   1      34.053  33.314  32.588  1.00  0.00    -0.200 F 
ATOM     79  C   UNL A   1      34.445  33.498  30.272  1.00  0.00     0.200 A 
ATOM     80  F   UNL A   1      34.930  33.698  27.975  1.00  0.00    -0.200 F 
ATOM     81  F   UNL A   1      33.479  34.421  30.165  1.00  0.00    -0.200 F 
ENDBRANCH  47  71
BRANCH  59  82
ATOM     82  C   UNL A   1      42.000  30.177  33.425  1.00  0.00     0.064 A 
ATOM     83  C   UNL A   1      41.665  28.818  33.281  1.00  0.00     0.173 A 
ATOM     84  C   UNL A   1      42.269  30.635  34.720  1.00  0.00     0.173 A 
ATOM     85  F   UNL A   1      41.477  28.277  32.073  1.00  0.00    -0.203 F 
ATOM     86  C   UNL A   1      41.572  27.972  34.386  1.00  0.00     0.198 A 
ATOM     87  C   UNL A   1      42.212  29.781  35.818  1.00  0.00     0.198 A 
ATOM     88  F   UNL A   1      42.641  31.911  34.915  1.00  0.00    -0.203 F 
ATOM     89  F   UNL A   1      41.244  26.681  34.222  1.00  0.00    -0.200 F 
ATOM     90  C   UNL A   1      41.855  28.453  35.653  1.00  0.00     0.200 A 
ATOM     91  F   UNL A   1      42.532  30.241  37.035  1.00  0.00    -0.200 F 
ATOM     92  F   UNL A   1      41.811  27.631  36.712  1.00  0.00    -0.200 F 
ENDBRANCH  59  82
ENDBRANCH  33  34
ENDBRANCH  25  28
ENDBRANCH  23  24
ENDBRANCH  22  23
ENDBRANCH   1  22
TORSDOF 13
ENDMDL
MODEL 2
REMARK VINA RESULT:     -12.7      3.341      8.935
REMARK SMILES Cc1cc(=O)n2nc(C[N@@H+](C)CC(=O)NCCCNC(=O)c3ccc(-c4c5nc(c(-c6c(F)c(F)c(F)c(F)c6F)c6ccc([nH]6)c(-c6c(F)c(F)c(F)c(F)c6F)c6nc(c(-c7c(F)c(F)c(F)c(F)c7F)c7ccc4[nH]7)C=C6)C=C5)cc3)sc2n1
REMARK SMILES IDX 16 1 15 2 13 3 14 4 12 6 10 7 11 8 9 10 8 11 1 12 2 13 3 14
REMARK SMILES IDX 87 15 4 16 86 17 5 18 6 19 85 20 7 21 17 22 18 23 19 24
REMARK SMILES IDX 20 25 21 27 22 28 23 29 84 30 24 31 83 32 25 33 26 34 27 35
REMARK SMILES IDX 77 36 28 37 82 38 76 39 78 40 29 41 81 42 75 43 74 44 30 46
REMARK SMILES IDX 62 47 42 48 61 49 43 50 46 51 60 52 79 53 44 54 45 55 59 57
REMARK SMILES IDX 80 58 47 59 31 60 32 61 40 62 33 63 34 64 38 65 41 66 35 67
REMARK SMILES IDX 36 68 39 69 37 70 63 71 64 72 72 73 65 74 66 75 70 76 73 77
REMARK SMILES IDX 67 78 68 79 71 80 69 81 48 82 49 83 57 84 50 85 51 86 55 87
REMARK SMILES IDX 58 88 52 89 53 90 56 91 54 92
REMARK H PARENT 15 5 10 9 19 26 78 45 46 56
REMARK Flexibility Score: inf
ROOT
ATOM      1  C   UNL A   1      34.293  30.063  27.263  1.00  0.00     0.118 C 
ENDROOT
BRANCH   1   2
ATOM      2  N   UNL A   1      33.342  29.071  27.733  1.00  0.00    -0.351 N 
ATOM      3  C   UNL A   1      32.154  28.678  27.194  1.00  0.00     0.275 C 
ATOM      4  O   UNL A   1      31.499  27.839  27.817  1.00  0.00    -0.269 OA
ATOM      5  H   UNL A   1      33.595  28.613  28.567  1.00  0.00     0.163 HD
BRANCH   3   6
ATOM      6  C   UNL A   1      31.660  29.247  25.865  1.00  0.00     0.363 C 
BRANCH   6   7
ATOM      7  N   UNL A   1      31.876  28.388  24.692  1.00  0.00    -0.324 N 
ATOM      8  C   UNL A   1      32.763  28.875  23.661  1.00  0.00     0.333 C 
ATOM      9  H   UNL A   1      32.434  27.658  25.134  1.00  0.00     0.348 HD
BRANCH   7  10
ATOM     10  C   UNL A   1      30.695  27.688  24.175  1.00  0.00     0.333 C 
BRANCH  10  11
ATOM     11  C   UNL A   1      30.909  26.203  24.293  1.00  0.00     0.172 A 
ATOM     12  C   UNL A   1      32.517  20.466  23.897  1.00  0.00     0.067 C 
ATOM     13  C   UNL A   1      31.968  21.776  24.384  1.00  0.00     0.046 A 
ATOM     14  C   UNL A   1      31.544  21.922  25.649  1.00  0.00     0.097 A 
ATOM     15  N   UNL A   1      31.962  22.784  23.450  1.00  0.00    -0.224 NA
ATOM     16  C   UNL A   1      31.028  23.236  26.102  1.00  0.00     0.275 A 
ATOM     17  C   UNL A   1      31.539  23.927  23.870  1.00  0.00     0.215 A 
ATOM     18  O   UNL A   1      30.603  23.356  27.248  1.00  0.00    -0.267 OA
ATOM     19  N   UNL A   1      31.091  24.212  25.132  1.00  0.00    -0.167 N 
ATOM     20  S   UNL A   1      31.463  25.335  22.873  1.00  0.00    -0.073 S 
ATOM     21  N   UNL A   1      30.728  25.516  25.378  1.00  0.00    -0.150 NA
ENDBRANCH  10  11
ENDBRANCH   7  10
ENDBRANCH   6   7
ENDBRANCH   3   6
ENDBRANCH   1   2
BRANCH   1  22
ATOM     22  C   UNL A   1      33.841  31.489  27.581  1.00  0.00     0.042 C 
BRANCH  22  23
ATOM     23  C   UNL A   1      34.944  32.345  28.155  1.00  0.00     0.118 C 
BRANCH  23  24
ATOM     24  N   UNL A   1      34.763  32.710  29.557  1.00  0.00    -0.352 N 
ATOM     25  C   UNL A   1      35.455  32.189  30.638  1.00  0.00     0.251 C 
ATOM     26  H   UNL A   1      34.084  33.395  29.754  1.00  0.00     0.163 HD
ATOM     27  O   UNL A   1      35.029  32.308  31.785  1.00  0.00    -0.269 OA
BRANCH  25  28
ATOM     28  C   UNL A   1      36.720  31.481  30.376  1.00  0.00     0.039 A 
ATOM     29  C   UNL A   1      37.955  32.129  30.336  1.00  0.00     0.014 A 
ATOM     30  C   UNL A   1      36.646  30.098  30.238  1.00  0.00     0.014 A 
ATOM     31  C   UNL A   1      39.104  31.352  30.209  1.00  0.00     0.010 A 
ATOM     32  C   UNL A   1      37.766  29.339  30.399  1.00  0.00     0.010 A 
ATOM     33  C   UNL A   1      38.995  29.951  30.254  1.00  0.00    -0.014 A 
BRANCH  33  34
ATOM     34  C   UNL A   1      40.156  29.077  30.204  1.00  0.00     0.031 A 
ATOM     35  C   UNL A   1      40.772  28.825  31.526  1.00  0.00     0.074 A 
ATOM     36  C   UNL A   1      40.531  28.414  29.086  1.00  0.00     0.049 A 
ATOM     37  N   UNL A   1      41.897  29.286  31.957  1.00  0.00    -0.248 NA
ATOM     38  C   UNL A   1      39.979  28.126  32.548  1.00  0.00     0.031 C 
ATOM     39  C   UNL A   1      39.851  28.322  27.785  1.00  0.00     0.029 A 
ATOM     40  N   UNL A   1      41.608  27.604  28.903  1.00  0.00    -0.354 N 
ATOM     41  C   UNL A   1      42.057  28.766  33.235  1.00  0.00     0.074 A 
ATOM     42  C   UNL A   1      40.778  28.225  33.614  1.00  0.00     0.031 C 
ATOM     43  C   UNL A   1      40.409  27.342  27.039  1.00  0.00     0.029 A 
ATOM     44  C   UNL A   1      41.594  26.867  27.722  1.00  0.00     0.049 A 
ATOM     45  H   UNL A   1      42.342  27.543  29.557  1.00  0.00     0.167 HD
ATOM     46  C   UNL A   1      43.302  28.606  33.760  1.00  0.00     0.037 A 
ATOM     47  C   UNL A   1      42.505  25.936  27.344  1.00  0.00     0.037 A 
ATOM     48  C   UNL A   1      44.274  29.375  33.019  1.00  0.00     0.049 A 
ATOM     49  C   UNL A   1      43.736  26.204  28.129  1.00  0.00     0.074 A 
ATOM     50  C   UNL A   1      44.462  30.720  32.766  1.00  0.00     0.029 A 
ATOM     51  N   UNL A   1      45.009  28.712  32.065  1.00  0.00    -0.354 N 
ATOM     52  N   UNL A   1      44.468  27.272  27.983  1.00  0.00    -0.248 NA
ATOM     53  C   UNL A   1      43.881  25.511  29.398  1.00  0.00     0.031 C 
ATOM     54  C   UNL A   1      44.899  30.786  31.409  1.00  0.00     0.029 A 
ATOM     55  C   UNL A   1      45.027  29.481  30.931  1.00  0.00     0.049 A 
ATOM     56  H   UNL A   1      45.446  27.838  32.178  1.00  0.00     0.167 HD
ATOM     57  C   UNL A   1      44.827  27.631  29.273  1.00  0.00     0.074 A 
ATOM     58  C   UNL A   1      44.506  26.465  30.094  1.00  0.00     0.031 C 
ATOM     59  C   UNL A   1      45.075  28.934  29.593  1.00  0.00     0.037 A 
BRANCH  46  60
ATOM     60  C   UNL A   1      43.701  27.474  34.673  1.00  0.00     0.064 A 
ATOM     61  C   UNL A   1      43.614  26.150  34.199  1.00  0.00     0.173 A 
ATOM     62  C   UNL A   1      43.877  27.607  36.068  1.00  0.00     0.173 A 
ATOM     63  F   UNL A   1      43.423  25.903  32.894  1.00  0.00    -0.203 F 
ATOM     64  C   UNL A   1      43.627  25.052  35.063  1.00  0.00     0.198 A 
ATOM     65  C   UNL A   1      43.944  26.509  36.921  1.00  0.00     0.198 A 
ATOM     66  F   UNL A   1      43.876  28.797  36.679  1.00  0.00    -0.203 F 
ATOM     67  F   UNL A   1      43.413  23.821  34.579  1.00  0.00    -0.200 F 
ATOM     68  C   UNL A   1      43.788  25.233  36.425  1.00  0.00     0.200 A 
ATOM     69  F   UNL A   1      44.078  26.708  38.241  1.00  0.00    -0.200 F 
ATOM     70  F   UNL A   1      43.741  24.189  37.262  1.00  0.00    -0.200 F 
ENDBRANCH  46  60
BRANCH  47  71
ATOM     71  C   UNL A   1      42.287  24.638  26.657  1.00  0.00     0.064 A 
ATOM     72  C   UNL A   1      43.052  24.291  25.530  1.00  0.00     0.173 A 
ATOM     73  C   UNL A   1      41.577  23.592  27.276  1.00  0.00     0.173 A 
ATOM     74  F   UNL A   1      43.785  25.221  24.901  1.00  0.00    -0.203 F 
ATOM     75  C   UNL A   1      43.149  22.968  25.084  1.00  0.00     0.198 A 
ATOM     76  C   UNL A   1      41.672  22.271  26.827  1.00  0.00     0.198 A 
ATOM     77  F   UNL A   1      40.865  23.809  28.391  1.00  0.00    -0.203 F 
ATOM     78  F   UNL A   1      43.956  22.667  24.057  1.00  0.00    -0.200 F 
ATOM     79  C   UNL A   1      42.473  21.957  25.745  1.00  0.00     0.200 A 
ATOM     80  F   UNL A   1      41.044  21.295  27.497  1.00  0.00    -0.200 F 
ATOM     81  F   UNL A   1      42.631  20.680  25.370  1.00  0.00    -0.200 F 
ENDBRANCH  47  71
BRANCH  59  82
ATOM     82  C   UNL A   1      45.204  29.919  28.459  1.00  0.00     0.064 A 
ATOM     83  C   UNL A   1      44.133  30.658  27.923  1.00  0.00     0.173 A 
ATOM     84  C   UNL A   1      46.488  30.226  27.992  1.00  0.00     0.173 A 
ATOM     85  F   UNL A   1      42.884  30.491  28.373  1.00  0.00    -0.203 F 
ATOM     86  C   UNL A   1      44.338  31.631  26.944  1.00  0.00     0.198 A 
ATOM     87  C   UNL A   1      46.696  31.223  27.042  1.00  0.00     0.198 A 
ATOM     88  F   UNL A   1      47.555  29.589  28.500  1.00  0.00    -0.203 F 
ATOM     89  F   UNL A   1      43.298  32.316  26.445  1.00  0.00    -0.200 F 
ATOM     90  C   UNL A   1      45.622  31.918  26.512  1.00  0.00     0.200 A 
ATOM     91  F   UNL A   1      47.943  31.527  26.661  1.00  0.00    -0.200 F 
ATOM     92  F   UNL A   1      45.827  32.884  25.604  1.00  0.00    -0.200 F 
ENDBRANCH  59  82
ENDBRANCH  33  34
ENDBRANCH  25  28
ENDBRANCH  23  24
ENDBRANCH  22  23
ENDBRANCH   1  22
TORSDOF 13
ENDMDL
MODEL 3
REMARK VINA RESULT:     -12.5      4.314      7.111
REMARK SMILES Cc1cc(=O)n2nc(C[N@@H+](C)CC(=O)NCCCNC(=O)c3ccc(-c4c5nc(c(-c6c(F)c(F)c(F)c(F)c6F)c6ccc([nH]6)c(-c6c(F)c(F)c(F)c(F)c6F)c6nc(c(-c7c(F)c(F)c(F)c(F)c7F)c7ccc4[nH]7)C=C6)C=C5)cc3)sc2n1
REMARK SMILES IDX 16 1 15 2 13 3 14 4 12 6 10 7 11 8 9 10 8 11 1 12 2 13 3 14
REMARK SMILES IDX 87 15 4 16 86 17 5 18 6 19 85 20 7 21 17 22 18 23 19 24
REMARK SMILES IDX 20 25 21 27 22 28 23 29 84 30 24 31 83 32 25 33 26 34 27 35
REMARK SMILES IDX 77 36 28 37 82 38 76 39 78 40 29 41 81 42 75 43 74 44 30 46
REMARK SMILES IDX 62 47 42 48 61 49 43 50 46 51 60 52 79 53 44 54 45 55 59 57
REMARK SMILES IDX 80 58 47 59 31 60 32 61 40 62 33 63 34 64 38 65 41 66 35 67
REMARK SMILES IDX 36 68 39 69 37 70 63 71 64 72 72 73 65 74 66 75 70 76 73 77
REMARK SMILES IDX 67 78 68 79 71 80 69 81 48 82 49 83 57 84 50 85 51 86 55 87
REMARK SMILES IDX 58 88 52 89 53 90 56 91 54 92
REMARK H PARENT 15 5 10 9 19 26 78 45 46 56
REMARK Flexibility Score: inf
ROOT
ATOM      1  C   UNL A   1      44.792  24.693  25.070  1.00  0.00     0.118 C 
ENDROOT
BRANCH   1   2
ATOM      2  N   UNL A   1      44.822  26.144  25.007  1.00  0.00    -0.351 N 
ATOM      3  C   UNL A   1      45.882  26.990  24.881  1.00  0.00     0.275 C 
ATOM      4  O   UNL A   1      45.647  28.201  24.901  1.00  0.00    -0.269 OA
ATOM      5  H   UNL A   1      43.942  26.582  25.064  1.00  0.00     0.163 HD
BRANCH   3   6
ATOM      6  C   UNL A   1      47.305  26.458  24.713  1.00  0.00     0.363 C 
BRANCH   6   7
ATOM      7  N   UNL A   1      48.222  26.747  25.825  1.00  0.00    -0.324 N 
ATOM      8  C   UNL A   1      49.274  27.708  25.592  1.00  0.00     0.333 C 
ATOM      9  H   UNL A   1      47.580  27.265  26.425  1.00  0.00     0.348 HD
BRANCH   7  10
ATOM     10  C   UNL A   1      48.638  25.598  26.637  1.00  0.00     0.333 C 
BRANCH  10  11
ATOM     11  C   UNL A   1      47.722  25.472  27.823  1.00  0.00     0.172 A 
ATOM     12  C   UNL A   1      44.270  26.114  32.653  1.00  0.00     0.067 C 
ATOM     13  C   UNL A   1      44.910  25.586  31.402  1.00  0.00     0.046 A 
ATOM     14  C   UNL A   1      44.413  24.510  30.771  1.00  0.00     0.097 A 
ATOM     15  N   UNL A   1      46.001  26.296  30.965  1.00  0.00    -0.224 NA
ATOM     16  C   UNL A   1      45.056  24.028  29.526  1.00  0.00     0.275 A 
ATOM     17  C   UNL A   1      46.529  25.882  29.865  1.00  0.00     0.215 A 
ATOM     18  O   UNL A   1      44.625  23.020  28.973  1.00  0.00    -0.267 OA
ATOM     19  N   UNL A   1      46.115  24.810  29.121  1.00  0.00    -0.167 N 
ATOM     20  S   UNL A   1      47.895  26.636  29.125  1.00  0.00    -0.073 S 
ATOM     21  N   UNL A   1      46.797  24.572  27.949  1.00  0.00    -0.150 NA
ENDBRANCH  10  11
ENDBRANCH   7  10
ENDBRANCH   6   7
ENDBRANCH   3   6
ENDBRANCH   1   2
BRANCH   1  22
ATOM     22  C   UNL A   1      43.380  24.138  24.882  1.00  0.00     0.042 C 
BRANCH  22  23
ATOM     23  C   UNL A   1      43.042  23.036  25.857  1.00  0.00     0.118 C 
BRANCH  23  24
ATOM     24  N   UNL A   1      41.704  22.474  25.699  1.00  0.00    -0.352 N 
ATOM     25  C   UNL A   1      40.580  22.805  26.438  1.00  0.00     0.251 C 
ATOM     26  H   UNL A   1      41.589  21.793  24.998  1.00  0.00     0.163 HD
ATOM     27  O   UNL A   1      39.594  22.072  26.462  1.00  0.00    -0.269 OA
BRANCH  25  28
ATOM     28  C   UNL A   1      40.599  24.065  27.202  1.00  0.00     0.039 A 
ATOM     29  C   UNL A   1      41.538  24.331  28.199  1.00  0.00     0.014 A 
ATOM     30  C   UNL A   1      39.668  25.033  26.835  1.00  0.00     0.014 A 
ATOM     31  C   UNL A   1      41.550  25.600  28.772  1.00  0.00     0.010 A 
ATOM     32  C   UNL A   1      39.867  26.333  27.189  1.00  0.00     0.010 A 
ATOM     33  C   UNL A   1      40.713  26.600  28.246  1.00  0.00    -0.014 A 
BRANCH  33  34
ATOM     34  C   UNL A   1      40.725  27.967  28.743  1.00  0.00     0.031 A 
ATOM     35  C   UNL A   1      41.824  28.792  28.194  1.00  0.00     0.074 A 
ATOM     36  C   UNL A   1      39.727  28.486  29.494  1.00  0.00     0.049 A 
ATOM     37  N   UNL A   1      42.875  29.200  28.821  1.00  0.00    -0.248 NA
ATOM     38  C   UNL A   1      41.850  29.054  26.746  1.00  0.00     0.031 C 
ATOM     39  C   UNL A   1      38.434  27.892  29.865  1.00  0.00     0.029 A 
ATOM     40  N   UNL A   1      39.640  29.727  30.044  1.00  0.00    -0.354 N 
ATOM     41  C   UNL A   1      43.600  29.949  27.902  1.00  0.00     0.074 A 
ATOM     42  C   UNL A   1      43.027  29.669  26.611  1.00  0.00     0.031 C 
ATOM     43  C   UNL A   1      37.620  28.840  30.381  1.00  0.00     0.029 A 
ATOM     44  C   UNL A   1      38.386  30.056  30.552  1.00  0.00     0.049 A 
ATOM     45  H   UNL A   1      40.405  30.345  30.080  1.00  0.00     0.167 HD
ATOM     46  C   UNL A   1      44.444  30.927  28.328  1.00  0.00     0.037 A 
ATOM     47  C   UNL A   1      38.021  31.252  31.078  1.00  0.00     0.037 A 
ATOM     48  C   UNL A   1      44.738  30.776  29.734  1.00  0.00     0.049 A 
ATOM     49  C   UNL A   1      39.273  31.942  31.474  1.00  0.00     0.074 A 
ATOM     50  C   UNL A   1      45.347  29.801  30.500  1.00  0.00     0.029 A 
ATOM     51  N   UNL A   1      44.017  31.544  30.616  1.00  0.00    -0.354 N 
ATOM     52  N   UNL A   1      40.052  31.531  32.435  1.00  0.00    -0.248 NA
ATOM     53  C   UNL A   1      39.893  32.814  30.491  1.00  0.00     0.031 C 
ATOM     54  C   UNL A   1      44.587  29.748  31.707  1.00  0.00     0.029 A 
ATOM     55  C   UNL A   1      43.606  30.739  31.646  1.00  0.00     0.049 A 
ATOM     56  H   UNL A   1      43.830  32.506  30.524  1.00  0.00     0.167 HD
ATOM     57  C   UNL A   1      41.337  31.723  31.951  1.00  0.00     0.074 A 
ATOM     58  C   UNL A   1      41.177  32.591  30.785  1.00  0.00     0.031 C 
ATOM     59  C   UNL A   1      42.367  30.929  32.365  1.00  0.00     0.037 A 
BRANCH  46  60
ATOM     60  C   UNL A   1      44.685  32.222  27.593  1.00  0.00     0.064 A 
ATOM     61  C   UNL A   1      45.875  32.376  26.854  1.00  0.00     0.173 A 
ATOM     62  C   UNL A   1      43.956  33.409  27.821  1.00  0.00     0.173 A 
ATOM     63  F   UNL A   1      46.661  31.320  26.597  1.00  0.00    -0.203 F 
ATOM     64  C   UNL A   1      46.332  33.631  26.441  1.00  0.00     0.198 A 
ATOM     65  C   UNL A   1      44.387  34.651  27.362  1.00  0.00     0.198 A 
ATOM     66  F   UNL A   1      42.862  33.440  28.591  1.00  0.00    -0.203 F 
ATOM     67  F   UNL A   1      47.531  33.742  25.853  1.00  0.00    -0.200 F 
ATOM     68  C   UNL A   1      45.589  34.768  26.700  1.00  0.00     0.200 A 
ATOM     69  F   UNL A   1      43.662  35.744  27.644  1.00  0.00    -0.200 F 
ATOM     70  F   UNL A   1      46.052  35.978  26.360  1.00  0.00    -0.200 F 
ENDBRANCH  46  60
BRANCH  47  71
ATOM     71  C   UNL A   1      36.740  31.989  30.927  1.00  0.00     0.064 A 
ATOM     72  C   UNL A   1      35.909  32.209  32.039  1.00  0.00     0.173 A 
ATOM     73  C   UNL A   1      36.472  32.766  29.783  1.00  0.00     0.173 A 
ATOM     74  F   UNL A   1      36.117  31.535  33.180  1.00  0.00    -0.203 F 
ATOM     75  C   UNL A   1      34.910  33.189  32.029  1.00  0.00     0.198 A 
ATOM     76  C   UNL A   1      35.471  33.741  29.774  1.00  0.00     0.198 A 
ATOM     77  F   UNL A   1      37.244  32.671  28.692  1.00  0.00    -0.203 F 
ATOM     78  F   UNL A   1      34.195  33.425  33.139  1.00  0.00    -0.200 F 
ATOM     79  C   UNL A   1      34.704  33.966  30.903  1.00  0.00     0.200 A 
ATOM     80  F   UNL A   1      35.306  34.513  28.691  1.00  0.00    -0.200 F 
ATOM     81  F   UNL A   1      33.804  34.959  30.920  1.00  0.00    -0.200 F 
ENDBRANCH  47  71
BRANCH  59  82
ATOM     82  C   UNL A   1      42.118  30.024  33.545  1.00  0.00     0.064 A 
ATOM     83  C   UNL A   1      41.687  28.688  33.445  1.00  0.00     0.173 A 
ATOM     84  C   UNL A   1      42.465  30.489  34.819  1.00  0.00     0.173 A 
ATOM     85  F   UNL A   1      41.419  28.136  32.256  1.00  0.00    -0.203 F 
ATOM     86  C   UNL A   1      41.579  27.873  34.572  1.00  0.00     0.198 A 
ATOM     87  C   UNL A   1      42.391  29.663  35.939  1.00  0.00     0.198 A 
ATOM     88  F   UNL A   1      42.929  31.740  34.973  1.00  0.00    -0.203 F 
ATOM     89  F   UNL A   1      41.158  26.604  34.449  1.00  0.00    -0.200 F 
ATOM     90  C   UNL A   1      41.940  28.360  35.817  1.00  0.00     0.200 A 
ATOM     91  F   UNL A   1      42.785  30.125  37.133  1.00  0.00    -0.200 F 
ATOM     92  F   UNL A   1      41.879  27.564  36.894  1.00  0.00    -0.200 F 
ENDBRANCH  59  82
ENDBRANCH  33  34
ENDBRANCH  25  28
ENDBRANCH  23  24
ENDBRANCH  22  23
ENDBRANCH   1  22
TORSDOF 13
ENDMDL
