MODEL 1
REMARK VINA RESULT:     -12.0      0.000      0.000
REMARK SMILES CO[C@@]1(C(=O)NCCCNC(=O)c2ccc(-c3c4nc(c(-c5c(F)c(F)c(F)c(F)c5F)c5ccc([nH]5)c(-c5c(F)c(F)c(F)c(F)c5F)c5nc(c(-c6c(F)c(F)c(F)c(F)c6F)c6ccc3[nH]6)C=C5)C=C4)cc2)CC(c2ccccc2)=CC=C1C
REMARK SMILES IDX 8 1 7 2 6 3 4 4 5 5 3 7 76 8 86 9 77 10 85 11 87 12 84 13
REMARK SMILES IDX 2 14 1 15 78 16 79 17 83 18 80 19 82 20 81 21 9 22 10 23
REMARK SMILES IDX 11 24 12 26 13 27 14 28 75 29 15 30 74 31 16 32 17 33 18 34
REMARK SMILES IDX 68 35 19 36 73 37 67 38 69 39 20 40 72 41 66 42 65 43 21 45
REMARK SMILES IDX 53 46 33 47 52 48 34 49 37 50 51 51 70 52 35 53 36 54 50 56
REMARK SMILES IDX 71 57 38 58 22 59 23 60 31 61 24 62 25 63 29 64 32 65 26 66
REMARK SMILES IDX 27 67 30 68 28 69 54 70 55 71 63 72 56 73 57 74 61 75 64 76
REMARK SMILES IDX 58 77 59 78 62 79 60 80 39 81 40 82 48 83 41 84 42 85 46 86
REMARK SMILES IDX 49 87 43 88 44 89 47 90 45 91
REMARK H PARENT 6 6 10 25 69 44 37 55
REMARK Flexibility Score: inf
ROOT
ATOM      1  C   UNL A   1      33.783  27.827  25.647  1.00  0.00     0.042 C 
ENDROOT
BRANCH   1   2
ATOM      2  C   UNL A   1      33.345  26.407  25.275  1.00  0.00     0.117 C 
BRANCH   2   3
ATOM      3  N   UNL A   1      32.392  25.856  26.224  1.00  0.00    -0.353 N 
ATOM      4  C   UNL A   1      31.897  24.588  26.375  1.00  0.00     0.256 C 
ATOM      5  O   UNL A   1      31.033  24.458  27.249  1.00  0.00    -0.271 OA
ATOM      6  H   UNL A   1      32.041  26.510  26.871  1.00  0.00     0.163 HD
BRANCH   4   7
ATOM      7  C   UNL A   1      32.405  23.384  25.474  1.00  0.00     0.171 C 
ATOM      8  C   UNL A   1      33.919  23.198  25.858  1.00  0.00     0.086 C 
ATOM      9  C   UNL A   1      32.227  23.693  23.971  1.00  0.00    -0.032 C 
ATOM     10  C   UNL A   1      34.919  23.043  24.739  1.00  0.00    -0.037 C 
ATOM     11  C   UNL A   1      33.245  23.619  23.092  1.00  0.00     0.003 C 
ATOM     12  C   UNL A   1      30.886  24.133  23.443  1.00  0.00     0.043 C 
ATOM     13  C   UNL A   1      34.580  23.233  23.458  1.00  0.00     0.004 C 
BRANCH   7  14
ATOM     14  O   UNL A   1      31.786  22.119  25.784  1.00  0.00    -0.364 OA
ATOM     15  C   UNL A   1      32.153  21.001  24.993  1.00  0.00     0.197 C 
ENDBRANCH   7  14
BRANCH  10  16
ATOM     16  C   UNL A   1      36.304  22.728  25.125  1.00  0.00    -0.022 A 
ATOM     17  C   UNL A   1      37.103  23.703  25.736  1.00  0.00     0.008 A 
ATOM     18  C   UNL A   1      36.824  21.439  24.944  1.00  0.00     0.008 A 
ATOM     19  C   UNL A   1      38.394  23.393  26.169  1.00  0.00     0.001 A 
ATOM     20  C   UNL A   1      38.117  21.130  25.374  1.00  0.00     0.001 A 
ATOM     21  C   UNL A   1      38.899  22.107  25.989  1.00  0.00     0.000 A 
ENDBRANCH  10  16
ENDBRANCH   4   7
ENDBRANCH   2   3
ENDBRANCH   1   2
BRANCH   1  22
ATOM     22  C   UNL A   1      33.638  28.179  27.128  1.00  0.00     0.118 C 
BRANCH  22  23
ATOM     23  N   UNL A   1      33.560  29.611  27.363  1.00  0.00    -0.352 N 
ATOM     24  C   UNL A   1      34.464  30.471  27.938  1.00  0.00     0.251 C 
ATOM     25  H   UNL A   1      32.724  30.035  27.062  1.00  0.00     0.163 HD
ATOM     26  O   UNL A   1      34.125  31.628  28.172  1.00  0.00    -0.269 OA
BRANCH  24  27
ATOM     27  C   UNL A   1      35.831  30.027  28.298  1.00  0.00     0.039 A 
ATOM     28  C   UNL A   1      36.834  30.114  27.325  1.00  0.00     0.014 A 
ATOM     29  C   UNL A   1      36.125  29.473  29.547  1.00  0.00     0.014 A 
ATOM     30  C   UNL A   1      38.136  29.703  27.621  1.00  0.00     0.010 A 
ATOM     31  C   UNL A   1      37.438  29.114  29.860  1.00  0.00     0.010 A 
ATOM     32  C   UNL A   1      38.457  29.227  28.901  1.00  0.00    -0.014 A 
BRANCH  32  33
ATOM     33  C   UNL A   1      39.853  28.856  29.253  1.00  0.00     0.031 A 
ATOM     34  C   UNL A   1      40.715  29.794  30.051  1.00  0.00     0.074 A 
ATOM     35  C   UNL A   1      40.364  27.695  28.801  1.00  0.00     0.049 A 
ATOM     36  N   UNL A   1      41.974  29.672  30.394  1.00  0.00    -0.248 NA
ATOM     37  C   UNL A   1      40.086  31.041  30.508  1.00  0.00     0.031 C 
ATOM     38  C   UNL A   1      39.645  26.716  27.988  1.00  0.00     0.029 A 
ATOM     39  N   UNL A   1      41.615  27.148  28.953  1.00  0.00    -0.354 N 
ATOM     40  C   UNL A   1      42.291  30.832  31.089  1.00  0.00     0.074 A 
ATOM     41  C   UNL A   1      41.105  31.661  31.086  1.00  0.00     0.031 C 
ATOM     42  C   UNL A   1      40.459  25.681  27.724  1.00  0.00     0.029 A 
ATOM     43  C   UNL A   1      41.767  25.939  28.318  1.00  0.00     0.049 A 
ATOM     44  H   UNL A   1      42.334  27.582  29.467  1.00  0.00     0.167 HD
ATOM     45  C   UNL A   1      43.459  31.165  31.690  1.00  0.00     0.037 A 
ATOM     46  C   UNL A   1      42.841  25.135  28.218  1.00  0.00     0.037 A 
ATOM     47  C   UNL A   1      44.631  30.329  31.714  1.00  0.00     0.049 A 
ATOM     48  C   UNL A   1      44.128  25.531  28.889  1.00  0.00     0.074 A 
ATOM     49  C   UNL A   1      45.840  30.554  32.350  1.00  0.00     0.029 A 
ATOM     50  N   UNL A   1      44.742  29.105  31.071  1.00  0.00    -0.354 N 
ATOM     51  N   UNL A   1      44.396  26.602  29.594  1.00  0.00    -0.248 NA
ATOM     52  C   UNL A   1      45.259  24.602  28.752  1.00  0.00     0.031 C 
ATOM     53  C   UNL A   1      46.696  29.487  32.057  1.00  0.00     0.029 A 
ATOM     54  C   UNL A   1      46.006  28.575  31.276  1.00  0.00     0.049 A 
ATOM     55  H   UNL A   1      44.029  28.677  30.544  1.00  0.00     0.167 HD
ATOM     56  C   UNL A   1      45.715  26.466  30.006  1.00  0.00     0.074 A 
ATOM     57  C   UNL A   1      46.189  25.202  29.481  1.00  0.00     0.031 C 
ATOM     58  C   UNL A   1      46.465  27.314  30.753  1.00  0.00     0.037 A 
BRANCH  45  59
ATOM     59  C   UNL A   1      43.529  32.500  32.372  1.00  0.00     0.064 A 
ATOM     60  C   UNL A   1      43.945  33.654  31.689  1.00  0.00     0.173 A 
ATOM     61  C   UNL A   1      43.143  32.636  33.714  1.00  0.00     0.173 A 
ATOM     62  F   UNL A   1      44.334  33.576  30.408  1.00  0.00    -0.203 F 
ATOM     63  C   UNL A   1      44.000  34.887  32.333  1.00  0.00     0.198 A 
ATOM     64  C   UNL A   1      43.172  33.875  34.347  1.00  0.00     0.198 A 
ATOM     65  F   UNL A   1      42.730  31.565  34.410  1.00  0.00    -0.203 F 
ATOM     66  F   UNL A   1      44.445  35.966  31.675  1.00  0.00    -0.200 F 
ATOM     67  C   UNL A   1      43.607  34.999  33.659  1.00  0.00     0.200 A 
ATOM     68  F   UNL A   1      42.780  33.984  35.624  1.00  0.00    -0.200 F 
ATOM     69  F   UNL A   1      43.656  36.187  34.276  1.00  0.00    -0.200 F 
ENDBRANCH  45  59
BRANCH  46  70
ATOM     70  C   UNL A   1      42.736  23.857  27.470  1.00  0.00     0.064 A 
ATOM     71  C   UNL A   1      43.107  23.783  26.121  1.00  0.00     0.173 A 
ATOM     72  C   UNL A   1      42.273  22.686  28.087  1.00  0.00     0.173 A 
ATOM     73  F   UNL A   1      43.535  24.883  25.484  1.00  0.00    -0.203 F 
ATOM     74  C   UNL A   1      43.005  22.589  25.411  1.00  0.00     0.198 A 
ATOM     75  C   UNL A   1      42.196  21.485  27.382  1.00  0.00     0.198 A 
ATOM     76  F   UNL A   1      41.909  22.704  29.377  1.00  0.00    -0.203 F 
ATOM     77  F   UNL A   1      43.332  22.555  24.112  1.00  0.00    -0.200 F 
ATOM     78  C   UNL A   1      42.557  21.440  26.044  1.00  0.00     0.200 A 
ATOM     79  F   UNL A   1      41.773  20.374  28.001  1.00  0.00    -0.200 F 
ATOM     80  F   UNL A   1      42.466  20.290  25.363  1.00  0.00    -0.200 F 
ENDBRANCH  46  70
BRANCH  58  81
ATOM     81  C   UNL A   1      47.868  26.889  31.073  1.00  0.00     0.064 A 
ATOM     82  C   UNL A   1      48.151  26.045  32.156  1.00  0.00     0.173 A 
ATOM     83  C   UNL A   1      48.936  27.302  30.264  1.00  0.00     0.173 A 
ATOM     84  F   UNL A   1      47.165  25.637  32.969  1.00  0.00    -0.203 F 
ATOM     85  C   UNL A   1      49.457  25.649  32.432  1.00  0.00     0.198 A 
ATOM     86  C   UNL A   1      50.238  26.883  30.526  1.00  0.00     0.198 A 
ATOM     87  F   UNL A   1      48.716  28.107  29.213  1.00  0.00    -0.203 F 
ATOM     88  F   UNL A   1      49.711  24.878  33.497  1.00  0.00    -0.200 F 
ATOM     89  C   UNL A   1      50.498  26.062  31.613  1.00  0.00     0.200 A 
ATOM     90  F   UNL A   1      51.240  27.275  29.727  1.00  0.00    -0.200 F 
ATOM     91  F   UNL A   1      51.753  25.674  31.875  1.00  0.00    -0.200 F 
ENDBRANCH  58  81
ENDBRANCH  32  33
ENDBRANCH  24  27
ENDBRANCH  22  23
ENDBRANCH   1  22
TORSDOF 12
ENDMDL
MODEL 2
REMARK VINA RESULT:     -11.9      0.375      1.654
REMARK SMILES CO[C@@]1(C(=O)NCCCNC(=O)c2ccc(-c3c4nc(c(-c5c(F)c(F)c(F)c(F)c5F)c5ccc([nH]5)c(-c5c(F)c(F)c(F)c(F)c5F)c5nc(c(-c6c(F)c(F)c(F)c(F)c6F)c6ccc3[nH]6)C=C5)C=C4)cc2)CC(c2ccccc2)=CC=C1C
REMARK SMILES IDX 8 1 7 2 6 3 4 4 5 5 3 7 76 8 86 9 77 10 85 11 87 12 84 13
REMARK SMILES IDX 2 14 1 15 78 16 79 17 83 18 80 19 82 20 81 21 9 22 10 23
REMARK SMILES IDX 11 24 12 26 13 27 14 28 75 29 15 30 74 31 16 32 17 33 18 34
REMARK SMILES IDX 68 35 19 36 73 37 67 38 69 39 20 40 72 41 66 42 65 43 21 45
REMARK SMILES IDX 53 46 33 47 52 48 34 49 37 50 51 51 70 52 35 53 36 54 50 56
REMARK SMILES IDX 71 57 38 58 22 59 23 60 31 61 24 62 25 63 29 64 32 65 26 66
REMARK SMILES IDX 27 67 30 68 28 69 54 70 55 71 63 72 56 73 57 74 61 75 64 76
REMARK SMILES IDX 58 77 59 78 62 79 60 80 39 81 40 82 48 83 41 84 42 85 46 86
REMARK SMILES IDX 49 87 43 88 44 89 47 90 45 91
REMARK H PARENT 6 6 10 25 69 44 37 55
REMARK Flexibility Score: inf
ROOT
ATOM      1  C   UNL A   1      32.658  27.615  26.499  1.00  0.00     0.042 C 
ENDROOT
BRANCH   1   2
ATOM      2  C   UNL A   1      32.850  26.136  26.151  1.00  0.00     0.117 C 
BRANCH   2   3
ATOM      3  N   UNL A   1      31.874  25.283  26.808  1.00  0.00    -0.353 N 
ATOM      4  C   UNL A   1      31.455  24.008  26.531  1.00  0.00     0.256 C 
ATOM      5  O   UNL A   1      30.544  23.583  27.250  1.00  0.00    -0.271 OA
ATOM      6  H   UNL A   1      31.436  25.694  27.589  1.00  0.00     0.163 HD
BRANCH   4   7
ATOM      7  C   UNL A   1      32.102  23.157  25.358  1.00  0.00     0.171 C 
ATOM      8  C   UNL A   1      33.610  22.977  25.768  1.00  0.00     0.086 C 
ATOM      9  C   UNL A   1      31.958  23.874  23.998  1.00  0.00    -0.032 C 
ATOM     10  C   UNL A   1      34.663  23.226  24.718  1.00  0.00    -0.037 C 
ATOM     11  C   UNL A   1      33.013  24.132  23.202  1.00  0.00     0.003 C 
ATOM     12  C   UNL A   1      30.605  24.350  23.534  1.00  0.00     0.043 C 
ATOM     13  C   UNL A   1      34.361  23.753  23.526  1.00  0.00     0.004 C 
BRANCH   7  14
ATOM     14  O   UNL A   1      31.584  21.815  25.255  1.00  0.00    -0.364 OA
ATOM     15  C   UNL A   1      32.523  20.753  25.225  1.00  0.00     0.197 C 
ENDBRANCH   7  14
BRANCH  10  16
ATOM     16  C   UNL A   1      36.055  22.914  25.085  1.00  0.00    -0.022 A 
ATOM     17  C   UNL A   1      36.818  23.843  25.802  1.00  0.00     0.008 A 
ATOM     18  C   UNL A   1      36.614  21.666  24.780  1.00  0.00     0.008 A 
ATOM     19  C   UNL A   1      38.115  23.529  26.215  1.00  0.00     0.001 A 
ATOM     20  C   UNL A   1      37.912  21.352  25.191  1.00  0.00     0.001 A 
ATOM     21  C   UNL A   1      38.660  22.283  25.911  1.00  0.00     0.000 A 
ENDBRANCH  10  16
ENDBRANCH   4   7
ENDBRANCH   2   3
ENDBRANCH   1   2
BRANCH   1  22
ATOM     22  C   UNL A   1      33.932  28.460  26.446  1.00  0.00     0.118 C 
BRANCH  22  23
ATOM     23  N   UNL A   1      33.742  29.801  26.973  1.00  0.00    -0.352 N 
ATOM     24  C   UNL A   1      34.533  30.551  27.809  1.00  0.00     0.251 C 
ATOM     25  H   UNL A   1      32.913  30.246  26.684  1.00  0.00     0.163 HD
ATOM     26  O   UNL A   1      34.102  31.613  28.249  1.00  0.00    -0.269 OA
BRANCH  24  27
ATOM     27  C   UNL A   1      35.886  30.096  28.207  1.00  0.00     0.039 A 
ATOM     28  C   UNL A   1      36.921  30.197  27.270  1.00  0.00     0.014 A 
ATOM     29  C   UNL A   1      36.137  29.519  29.454  1.00  0.00     0.014 A 
ATOM     30  C   UNL A   1      38.212  29.776  27.600  1.00  0.00     0.010 A 
ATOM     31  C   UNL A   1      37.438  29.150  29.804  1.00  0.00     0.010 A 
ATOM     32  C   UNL A   1      38.488  29.276  28.882  1.00  0.00    -0.014 A 
BRANCH  32  33
ATOM     33  C   UNL A   1      39.871  28.895  29.273  1.00  0.00     0.031 A 
ATOM     34  C   UNL A   1      40.707  29.812  30.121  1.00  0.00     0.074 A 
ATOM     35  C   UNL A   1      40.395  27.743  28.814  1.00  0.00     0.049 A 
ATOM     36  N   UNL A   1      41.953  29.680  30.504  1.00  0.00    -0.248 NA
ATOM     37  C   UNL A   1      40.065  31.051  30.582  1.00  0.00     0.031 C 
ATOM     38  C   UNL A   1      39.702  26.782  27.955  1.00  0.00     0.029 A 
ATOM     39  N   UNL A   1      41.639  27.189  28.996  1.00  0.00    -0.354 N 
ATOM     40  C   UNL A   1      42.248  30.823  31.234  1.00  0.00     0.074 A 
ATOM     41  C   UNL A   1      41.065  31.656  31.208  1.00  0.00     0.031 C 
ATOM     42  C   UNL A   1      40.523  25.752  27.696  1.00  0.00     0.029 A 
ATOM     43  C   UNL A   1      41.810  25.994  28.341  1.00  0.00     0.049 A 
ATOM     44  H   UNL A   1      42.341  27.609  29.543  1.00  0.00     0.167 HD
ATOM     45  C   UNL A   1      43.396  31.141  31.881  1.00  0.00     0.037 A 
ATOM     46  C   UNL A   1      42.886  25.189  28.260  1.00  0.00     0.037 A 
ATOM     47  C   UNL A   1      44.565  30.302  31.927  1.00  0.00     0.049 A 
ATOM     48  C   UNL A   1      44.150  25.567  28.982  1.00  0.00     0.074 A 
ATOM     49  C   UNL A   1      45.752  30.510  32.609  1.00  0.00     0.029 A 
ATOM     50  N   UNL A   1      44.695  29.092  31.261  1.00  0.00    -0.354 N 
ATOM     51  N   UNL A   1      44.396  26.622  29.720  1.00  0.00    -0.248 NA
ATOM     52  C   UNL A   1      45.283  24.639  28.863  1.00  0.00     0.031 C 
ATOM     53  C   UNL A   1      46.615  29.447  32.322  1.00  0.00     0.029 A 
ATOM     54  C   UNL A   1      45.951  28.554  31.498  1.00  0.00     0.049 A 
ATOM     55  H   UNL A   1      44.000  28.676  30.702  1.00  0.00     0.167 HD
ATOM     56  C   UNL A   1      45.700  26.474  30.173  1.00  0.00     0.074 A 
ATOM     57  C   UNL A   1      46.189  25.221  29.637  1.00  0.00     0.031 C 
ATOM     58  C   UNL A   1      46.425  27.303  30.963  1.00  0.00     0.037 A 
BRANCH  45  59
ATOM     59  C   UNL A   1      43.445  32.461  32.594  1.00  0.00     0.064 A 
ATOM     60  C   UNL A   1      43.802  33.643  31.928  1.00  0.00     0.173 A 
ATOM     61  C   UNL A   1      43.097  32.551  33.950  1.00  0.00     0.173 A 
ATOM     62  F   UNL A   1      44.152  33.610  30.634  1.00  0.00    -0.203 F 
ATOM     63  C   UNL A   1      43.838  34.861  32.601  1.00  0.00     0.198 A 
ATOM     64  C   UNL A   1      43.106  33.775  34.613  1.00  0.00     0.198 A 
ATOM     65  F   UNL A   1      42.741  31.451  34.631  1.00  0.00    -0.203 F 
ATOM     66  F   UNL A   1      44.227  35.970  31.957  1.00  0.00    -0.200 F 
ATOM     67  C   UNL A   1      43.484  34.928  33.941  1.00  0.00     0.200 A 
ATOM     68  F   UNL A   1      42.752  33.840  35.904  1.00  0.00    -0.200 F 
ATOM     69  F   UNL A   1      43.514  36.102  34.586  1.00  0.00    -0.200 F 
ENDBRANCH  45  59
BRANCH  46  70
ATOM     70  C   UNL A   1      42.804  23.928  27.481  1.00  0.00     0.064 A 
ATOM     71  C   UNL A   1      42.371  22.739  28.084  1.00  0.00     0.173 A 
ATOM     72  C   UNL A   1      43.147  23.885  26.122  1.00  0.00     0.173 A 
ATOM     73  F   UNL A   1      42.054  22.728  29.388  1.00  0.00    -0.203 F 
ATOM     74  C   UNL A   1      42.297  21.552  27.362  1.00  0.00     0.198 A 
ATOM     75  C   UNL A   1      43.049  22.701  25.393  1.00  0.00     0.198 A 
ATOM     76  F   UNL A   1      43.565  24.996  25.499  1.00  0.00    -0.203 F 
ATOM     77  F   UNL A   1      41.914  20.421  27.972  1.00  0.00    -0.200 F 
ATOM     78  C   UNL A   1      42.629  21.535  26.015  1.00  0.00     0.200 A 
ATOM     79  F   UNL A   1      43.359  22.691  24.090  1.00  0.00    -0.200 F 
ATOM     80  F   UNL A   1      42.551  20.393  25.319  1.00  0.00    -0.200 F 
ENDBRANCH  46  70
BRANCH  58  81
ATOM     81  C   UNL A   1      47.815  26.868  31.322  1.00  0.00     0.064 A 
ATOM     82  C   UNL A   1      48.932  27.299  30.591  1.00  0.00     0.173 A 
ATOM     83  C   UNL A   1      48.035  26.041  32.433  1.00  0.00     0.173 A 
ATOM     84  F   UNL A   1      48.771  28.077  29.510  1.00  0.00    -0.203 F 
ATOM     85  C   UNL A   1      50.217  26.897  30.946  1.00  0.00     0.198 A 
ATOM     86  C   UNL A   1      49.324  25.663  32.801  1.00  0.00     0.198 A 
ATOM     87  F   UNL A   1      47.000  25.606  33.167  1.00  0.00    -0.203 F 
ATOM     88  F   UNL A   1      51.266  27.285  30.208  1.00  0.00    -0.200 F 
ATOM     89  C   UNL A   1      50.413  26.086  32.054  1.00  0.00     0.200 A 
ATOM     90  F   UNL A   1      49.511  24.888  33.878  1.00  0.00    -0.200 F 
ATOM     91  F   UNL A   1      51.650  25.707  32.398  1.00  0.00    -0.200 F 
ENDBRANCH  58  81
ENDBRANCH  32  33
ENDBRANCH  24  27
ENDBRANCH  22  23
ENDBRANCH   1  22
TORSDOF 12
ENDMDL
MODEL 3
REMARK VINA RESULT:     -11.9      2.742      7.794
REMARK SMILES CO[C@@]1(C(=O)NCCCNC(=O)c2ccc(-c3c4nc(c(-c5c(F)c(F)c(F)c(F)c5F)c5ccc([nH]5)c(-c5c(F)c(F)c(F)c(F)c5F)c5nc(c(-c6c(F)c(F)c(F)c(F)c6F)c6ccc3[nH]6)C=C5)C=C4)cc2)CC(c2ccccc2)=CC=C1C
REMARK SMILES IDX 8 1 7 2 6 3 4 4 5 5 3 7 76 8 86 9 77 10 85 11 87 12 84 13
REMARK SMILES IDX 2 14 1 15 78 16 79 17 83 18 80 19 82 20 81 21 9 22 10 23
REMARK SMILES IDX 11 24 12 26 13 27 14 28 75 29 15 30 74 31 16 32 17 33 18 34
REMARK SMILES IDX 68 35 19 36 73 37 67 38 69 39 20 40 72 41 66 42 65 43 21 45
REMARK SMILES IDX 53 46 33 47 52 48 34 49 37 50 51 51 70 52 35 53 36 54 50 56
REMARK SMILES IDX 71 57 38 58 22 59 23 60 31 61 24 62 25 63 29 64 32 65 26 66
REMARK SMILES IDX 27 67 30 68 28 69 54 70 55 71 63 72 56 73 57 74 61 75 64 76
REMARK SMILES IDX 58 77 59 78 62 79 60 80 39 81 40 82 48 83 41 84 42 85 46 86
REMARK SMILES IDX 49 87 43 88 44 89 47 90 45 91
REMARK H PARENT 6 6 10 25 69 44 37 55
REMARK Flexibility Score: inf
ROOT
ATOM      1  C   UNL A   1      32.026  27.784  25.950  1.00  0.00     0.042 C 
ENDROOT
BRANCH   1   2
ATOM      2  C   UNL A   1      32.686  26.433  26.242  1.00  0.00     0.117 C 
BRANCH   2   3
ATOM      3  N   UNL A   1      31.764  25.487  26.847  1.00  0.00    -0.353 N 
ATOM      4  C   UNL A   1      31.404  24.216  26.484  1.00  0.00     0.256 C 
ATOM      5  O   UNL A   1      30.527  23.695  27.182  1.00  0.00    -0.271 OA
ATOM      6  H   UNL A   1      31.319  25.819  27.661  1.00  0.00     0.163 HD
BRANCH   4   7
ATOM      7  C   UNL A   1      32.074  23.484  25.245  1.00  0.00     0.171 C 
ATOM      8  C   UNL A   1      33.562  23.222  25.681  1.00  0.00     0.086 C 
ATOM      9  C   UNL A   1      31.993  24.351  23.970  1.00  0.00    -0.032 C 
ATOM     10  C   UNL A   1      34.657  23.560  24.701  1.00  0.00    -0.037 C 
ATOM     11  C   UNL A   1      33.081  24.670  23.242  1.00  0.00     0.003 C 
ATOM     12  C   UNL A   1      30.668  24.910  23.518  1.00  0.00     0.043 C 
ATOM     13  C   UNL A   1      34.408  24.224  23.566  1.00  0.00     0.004 C 
BRANCH   7  14
ATOM     14  O   UNL A   1      31.532  22.176  24.975  1.00  0.00    -0.364 OA
ATOM     15  C   UNL A   1      32.326  21.055  25.325  1.00  0.00     0.197 C 
ENDBRANCH   7  14
BRANCH  10  16
ATOM     16  C   UNL A   1      36.028  23.174  25.075  1.00  0.00    -0.022 A 
ATOM     17  C   UNL A   1      36.831  24.056  25.810  1.00  0.00     0.008 A 
ATOM     18  C   UNL A   1      36.527  21.904  24.759  1.00  0.00     0.008 A 
ATOM     19  C   UNL A   1      38.106  23.672  26.230  1.00  0.00     0.001 A 
ATOM     20  C   UNL A   1      37.804  21.521  25.177  1.00  0.00     0.001 A 
ATOM     21  C   UNL A   1      38.591  22.404  25.915  1.00  0.00     0.000 A 
ENDBRANCH  10  16
ENDBRANCH   4   7
ENDBRANCH   2   3
ENDBRANCH   1   2
BRANCH   1  22
ATOM     22  C   UNL A   1      32.981  28.879  25.473  1.00  0.00     0.118 C 
BRANCH  22  23
ATOM     23  N   UNL A   1      32.567  30.210  25.885  1.00  0.00    -0.352 N 
ATOM     24  C   UNL A   1      33.080  31.045  26.847  1.00  0.00     0.251 C 
ATOM     25  H   UNL A   1      31.793  30.572  25.396  1.00  0.00     0.163 HD
ATOM     26  O   UNL A   1      32.474  32.075  27.131  1.00  0.00    -0.269 OA
BRANCH  24  27
ATOM     27  C   UNL A   1      34.337  30.721  27.561  1.00  0.00     0.039 A 
ATOM     28  C   UNL A   1      35.284  31.738  27.731  1.00  0.00     0.014 A 
ATOM     29  C   UNL A   1      34.623  29.428  28.008  1.00  0.00     0.014 A 
ATOM     30  C   UNL A   1      36.484  31.476  28.396  1.00  0.00     0.010 A 
ATOM     31  C   UNL A   1      35.798  29.180  28.721  1.00  0.00     0.010 A 
ATOM     32  C   UNL A   1      36.740  30.201  28.923  1.00  0.00    -0.014 A 
BRANCH  32  33
ATOM     33  C   UNL A   1      37.979  29.926  29.697  1.00  0.00     0.031 A 
ATOM     34  C   UNL A   1      39.028  28.995  29.157  1.00  0.00     0.074 A 
ATOM     35  C   UNL A   1      38.132  30.473  30.918  1.00  0.00     0.049 A 
ATOM     36  N   UNL A   1      40.138  28.583  29.718  1.00  0.00    -0.248 NA
ATOM     37  C   UNL A   1      38.788  28.438  27.818  1.00  0.00     0.031 C 
ATOM     38  C   UNL A   1      37.173  31.363  31.571  1.00  0.00     0.029 A 
ATOM     39  N   UNL A   1      39.148  30.349  31.834  1.00  0.00    -0.354 N 
ATOM     40  C   UNL A   1      40.718  27.706  28.810  1.00  0.00     0.074 A 
ATOM     41  C   UNL A   1      39.820  27.616  27.679  1.00  0.00     0.031 C 
ATOM     42  C   UNL A   1      37.652  31.718  32.774  1.00  0.00     0.029 A 
ATOM     43  C   UNL A   1      38.933  31.053  32.993  1.00  0.00     0.049 A 
ATOM     44  H   UNL A   1      39.954  29.806  31.674  1.00  0.00     0.167 HD
ATOM     45  C   UNL A   1      41.901  27.051  28.905  1.00  0.00     0.037 A 
ATOM     46  C   UNL A   1      39.678  31.145  34.110  1.00  0.00     0.037 A 
ATOM     47  C   UNL A   1      42.806  27.160  30.019  1.00  0.00     0.049 A 
ATOM     48  C   UNL A   1      40.983  30.403  34.193  1.00  0.00     0.074 A 
ATOM     49  C   UNL A   1      44.055  26.584  30.177  1.00  0.00     0.029 A 
ATOM     50  N   UNL A   1      42.558  27.894  31.170  1.00  0.00    -0.354 N 
ATOM     51  N   UNL A   1      41.550  29.626  33.303  1.00  0.00    -0.248 NA
ATOM     52  C   UNL A   1      41.754  30.556  35.435  1.00  0.00     0.031 C 
ATOM     53  C   UNL A   1      44.544  26.935  31.440  1.00  0.00     0.029 A 
ATOM     54  C   UNL A   1      43.621  27.767  32.051  1.00  0.00     0.049 A 
ATOM     55  H   UNL A   1      41.747  28.426  31.337  1.00  0.00     0.167 HD
ATOM     56  C   UNL A   1      42.752  29.217  33.863  1.00  0.00     0.074 A 
ATOM     57  C   UNL A   1      42.839  29.843  35.167  1.00  0.00     0.031 C 
ATOM     58  C   UNL A   1      43.699  28.398  33.343  1.00  0.00     0.037 A 
BRANCH  45  59
ATOM     59  C   UNL A   1      42.285  26.150  27.767  1.00  0.00     0.064 A 
ATOM     60  C   UNL A   1      43.122  26.592  26.731  1.00  0.00     0.173 A 
ATOM     61  C   UNL A   1      41.841  24.820  27.731  1.00  0.00     0.173 A 
ATOM     62  F   UNL A   1      43.567  27.857  26.715  1.00  0.00    -0.203 F 
ATOM     63  C   UNL A   1      43.475  25.743  25.685  1.00  0.00     0.198 A 
ATOM     64  C   UNL A   1      42.219  23.966  26.698  1.00  0.00     0.198 A 
ATOM     65  F   UNL A   1      41.045  24.346  28.701  1.00  0.00    -0.203 F 
ATOM     66  F   UNL A   1      44.238  26.200  24.682  1.00  0.00    -0.200 F 
ATOM     67  C   UNL A   1      43.029  24.429  25.672  1.00  0.00     0.200 A 
ATOM     68  F   UNL A   1      41.797  22.694  26.694  1.00  0.00    -0.200 F 
ATOM     69  F   UNL A   1      43.374  23.613  24.667  1.00  0.00    -0.200 F 
ENDBRANCH  45  59
BRANCH  46  70
ATOM     70  C   UNL A   1      39.215  31.996  35.235  1.00  0.00     0.064 A 
ATOM     71  C   UNL A   1      38.461  31.451  36.284  1.00  0.00     0.173 A 
ATOM     72  C   UNL A   1      39.521  33.363  35.291  1.00  0.00     0.173 A 
ATOM     73  F   UNL A   1      38.126  30.152  36.262  1.00  0.00    -0.203 F 
ATOM     74  C   UNL A   1      38.019  32.244  37.339  1.00  0.00     0.198 A 
ATOM     75  C   UNL A   1      39.099  34.151  36.361  1.00  0.00     0.198 A 
ATOM     76  F   UNL A   1      40.242  33.931  34.313  1.00  0.00    -0.203 F 
ATOM     77  F   UNL A   1      37.269  31.706  38.311  1.00  0.00    -0.200 F 
ATOM     78  C   UNL A   1      38.344  33.591  37.381  1.00  0.00     0.200 A 
ATOM     79  F   UNL A   1      39.426  35.450  36.403  1.00  0.00    -0.200 F 
ATOM     80  F   UNL A   1      37.924  34.353  38.400  1.00  0.00    -0.200 F 
ENDBRANCH  46  70
BRANCH  58  81
ATOM     81  C   UNL A   1      44.926  28.153  34.171  1.00  0.00     0.064 A 
ATOM     82  C   UNL A   1      46.055  28.978  34.073  1.00  0.00     0.173 A 
ATOM     83  C   UNL A   1      44.957  27.103  35.100  1.00  0.00     0.173 A 
ATOM     84  F   UNL A   1      46.080  29.985  33.187  1.00  0.00    -0.203 F 
ATOM     85  C   UNL A   1      47.181  28.746  34.860  1.00  0.00     0.198 A 
ATOM     86  C   UNL A   1      46.074  26.889  35.904  1.00  0.00     0.198 A 
ATOM     87  F   UNL A   1      43.899  26.288  35.235  1.00  0.00    -0.203 F 
ATOM     88  F   UNL A   1      48.265  29.520  34.719  1.00  0.00    -0.200 F 
ATOM     89  C   UNL A   1      47.187  27.707  35.779  1.00  0.00     0.200 A 
ATOM     90  F   UNL A   1      46.073  25.892  36.798  1.00  0.00    -0.200 F 
ATOM     91  F   UNL A   1      48.268  27.489  36.538  1.00  0.00    -0.200 F 
ENDBRANCH  58  81
ENDBRANCH  32  33
ENDBRANCH  24  27
ENDBRANCH  22  23
ENDBRANCH   1  22
TORSDOF 12
ENDMDL
