MODEL 1
REMARK VINA RESULT:     -12.7      0.000      0.000
REMARK SMILES [NH3+]C1CC[NH+](CC(=O)Nc2cc(Cl)ccc2C(=O)NCCCNC(=O)c2ccc(-c3c4nc(c(-c5c(F)c(F)c(F)c(F)c5F)c5ccc([nH]5)c(-c5c(F)c(F)c(F)c(F)c5F)c5nc(c(-c6c(F)c(F)c(F)c(F)c6F)c6ccc3[nH]6)C=C5)C=C4)cc2)CC1
REMARK SMILES IDX 20 1 19 2 17 3 18 4 16 6 10 7 11 8 12 9 15 10 13 11 14 12
REMARK SMILES IDX 9 13 7 14 8 15 6 17 5 18 2 19 3 20 90 21 4 22 89 23 1 25
REMARK SMILES IDX 21 29 22 30 23 31 24 32 25 34 26 35 27 36 88 37 28 38 87 39
REMARK SMILES IDX 29 40 30 41 31 42 81 43 32 44 86 45 80 46 82 47 33 48 85 49
REMARK SMILES IDX 79 50 78 51 34 53 66 54 46 55 65 56 47 57 50 58 64 59 83 60
REMARK SMILES IDX 48 61 49 62 63 64 84 65 51 66 35 67 36 68 44 69 37 70 38 71
REMARK SMILES IDX 42 72 45 73 39 74 40 75 43 76 41 77 67 78 68 79 76 80 69 81
REMARK SMILES IDX 70 82 74 83 77 84 71 85 72 86 75 87 73 88 52 89 53 90 61 91
REMARK SMILES IDX 54 92 55 93 59 94 62 95 56 96 57 97 60 98 58 99
REMARK H PARENT 19 5 9 16 5 24 1 26 1 27 1 28 23 33 82 52 50 63
REMARK Flexibility Score: inf
ROOT
ATOM      1  C   UNL A   1      32.159  27.676  27.149  1.00  0.00     0.118 C 
ENDROOT
BRANCH   1   2
ATOM      2  N   UNL A   1      31.087  26.710  26.985  1.00  0.00    -0.352 N 
ATOM      3  C   UNL A   1      30.582  25.844  26.062  1.00  0.00     0.253 C 
ATOM      4  O   UNL A   1      29.612  25.206  26.500  1.00  0.00    -0.269 OA
ATOM      5  H   UNL A   1      30.549  26.668  27.808  1.00  0.00     0.163 HD
BRANCH   3   6
ATOM      6  C   UNL A   1      31.015  25.535  24.651  1.00  0.00     0.063 A 
ATOM      7  C   UNL A   1      31.552  24.352  24.073  1.00  0.00     0.055 A 
ATOM      8  C   UNL A   1      32.061  24.424  22.769  1.00  0.00     0.047 A 
ATOM      9  C   UNL A   1      31.964  25.582  21.993  1.00  0.00     0.043 A 
ATOM     10  C   UNL A   1      30.949  26.701  23.835  1.00  0.00     0.017 A 
ATOM     11  Cl  UNL A   1      32.529  25.578  20.368  1.00  0.00    -0.084 Cl
ATOM     12  C   UNL A   1      31.399  26.725  22.518  1.00  0.00     0.021 A 
BRANCH   7  13
ATOM     13  N   UNL A   1      31.511  23.133  24.769  1.00  0.00    -0.320 N 
ATOM     14  C   UNL A   1      32.198  21.956  24.845  1.00  0.00     0.279 C 
ATOM     15  O   UNL A   1      31.573  21.023  25.375  1.00  0.00    -0.268 OA
ATOM     16  H   UNL A   1      30.750  23.124  25.394  1.00  0.00     0.170 HD
BRANCH  14  17
ATOM     17  C   UNL A   1      33.638  21.723  24.415  1.00  0.00     0.363 C 
BRANCH  17  18
ATOM     18  N   UNL A   1      34.672  21.742  25.464  1.00  0.00    -0.327 N 
ATOM     19  C   UNL A   1      37.028  23.550  25.278  1.00  0.00     0.192 C 
ATOM     20  C   UNL A   1      37.023  22.176  24.593  1.00  0.00     0.126 C 
ATOM     21  C   UNL A   1      35.610  24.033  25.582  1.00  0.00     0.126 C 
ATOM     22  C   UNL A   1      35.986  21.183  25.135  1.00  0.00     0.268 C 
ATOM     23  C   UNL A   1      34.783  22.949  26.263  1.00  0.00     0.268 C 
ATOM     24  H   UNL A   1      34.241  21.051  26.077  1.00  0.00     0.348 HD
BRANCH  19  25
ATOM     25  N   UNL A   1      37.837  23.544  26.501  1.00  0.00    -0.355 N 
ATOM     26  H   UNL A   1      38.683  24.094  26.352  1.00  0.00     0.344 HD
ATOM     27  H   UNL A   1      38.092  22.585  26.735  1.00  0.00     0.344 HD
ATOM     28  H   UNL A   1      37.299  23.949  27.268  1.00  0.00     0.344 HD
ENDBRANCH  19  25
ENDBRANCH  17  18
ENDBRANCH  14  17
ENDBRANCH   7  13
ENDBRANCH   3   6
ENDBRANCH   1   2
BRANCH   1  29
ATOM     29  C   UNL A   1      31.659  29.074  26.767  1.00  0.00     0.042 C 
BRANCH  29  30
ATOM     30  C   UNL A   1      32.723  29.926  26.090  1.00  0.00     0.118 C 
BRANCH  30  31
ATOM     31  N   UNL A   1      32.589  31.336  26.444  1.00  0.00    -0.352 N 
ATOM     32  C   UNL A   1      33.302  32.127  27.311  1.00  0.00     0.251 C 
ATOM     33  H   UNL A   1      31.857  31.801  25.980  1.00  0.00     0.163 HD
ATOM     34  O   UNL A   1      32.858  33.223  27.626  1.00  0.00    -0.269 OA
BRANCH  32  35
ATOM     35  C   UNL A   1      34.588  31.664  27.876  1.00  0.00     0.039 A 
ATOM     36  C   UNL A   1      35.641  32.575  28.001  1.00  0.00     0.014 A 
ATOM     37  C   UNL A   1      34.766  30.338  28.270  1.00  0.00     0.014 A 
ATOM     38  C   UNL A   1      36.834  32.178  28.606  1.00  0.00     0.010 A 
ATOM     39  C   UNL A   1      35.904  29.976  28.978  1.00  0.00     0.010 A 
ATOM     40  C   UNL A   1      36.950  30.892  29.157  1.00  0.00    -0.014 A 
BRANCH  40  41
ATOM     41  C   UNL A   1      38.140  30.479  29.943  1.00  0.00     0.031 A 
ATOM     42  C   UNL A   1      39.108  29.480  29.374  1.00  0.00     0.074 A 
ATOM     43  C   UNL A   1      38.284  30.923  31.207  1.00  0.00     0.049 A 
ATOM     44  N   UNL A   1      40.120  28.885  29.951  1.00  0.00    -0.248 NA
ATOM     45  C   UNL A   1      38.886  29.064  27.979  1.00  0.00     0.031 C 
ATOM     46  C   UNL A   1      37.380  31.852  31.888  1.00  0.00     0.029 A 
ATOM     47  N   UNL A   1      39.236  30.637  32.154  1.00  0.00    -0.354 N 
ATOM     48  C   UNL A   1      40.635  28.012  29.002  1.00  0.00     0.074 A 
ATOM     49  C   UNL A   1      39.791  28.108  27.833  1.00  0.00     0.031 C 
ATOM     50  C   UNL A   1      37.833  32.079  33.129  1.00  0.00     0.029 A 
ATOM     51  C   UNL A   1      39.025  31.271  33.355  1.00  0.00     0.049 A 
ATOM     52  H   UNL A   1      39.998  30.035  31.988  1.00  0.00     0.167 HD
ATOM     53  C   UNL A   1      41.733  27.223  29.090  1.00  0.00     0.037 A 
ATOM     54  C   UNL A   1      39.704  31.190  34.514  1.00  0.00     0.037 A 
ATOM     55  C   UNL A   1      42.585  27.160  30.248  1.00  0.00     0.049 A 
ATOM     56  C   UNL A   1      40.903  30.285  34.595  1.00  0.00     0.074 A 
ATOM     57  C   UNL A   1      43.765  26.457  30.411  1.00  0.00     0.029 A 
ATOM     58  N   UNL A   1      42.343  27.821  31.443  1.00  0.00    -0.354 N 
ATOM     59  N   UNL A   1      41.430  29.527  33.665  1.00  0.00    -0.248 NA
ATOM     60  C   UNL A   1      41.598  30.221  35.887  1.00  0.00     0.031 C 
ATOM     61  C   UNL A   1      44.205  26.646  31.725  1.00  0.00     0.029 A 
ATOM     62  C   UNL A   1      43.329  27.510  32.363  1.00  0.00     0.049 A 
ATOM     63  H   UNL A   1      41.582  28.424  31.611  1.00  0.00     0.167 HD
ATOM     64  C   UNL A   1      42.524  28.907  34.251  1.00  0.00     0.074 A 
ATOM     65  C   UNL A   1      42.601  29.398  35.611  1.00  0.00     0.031 C 
ATOM     66  C   UNL A   1      43.384  28.006  33.715  1.00  0.00     0.037 A 
BRANCH  53  67
ATOM     67  C   UNL A   1      42.074  26.368  27.903  1.00  0.00     0.064 A 
ATOM     68  C   UNL A   1      43.067  26.743  26.985  1.00  0.00     0.173 A 
ATOM     69  C   UNL A   1      41.425  25.140  27.700  1.00  0.00     0.173 A 
ATOM     70  F   UNL A   1      43.710  27.912  27.125  1.00  0.00    -0.203 F 
ATOM     71  C   UNL A   1      43.373  25.939  25.890  1.00  0.00     0.198 A 
ATOM     72  C   UNL A   1      41.758  24.322  26.624  1.00  0.00     0.198 A 
ATOM     73  F   UNL A   1      40.472  24.730  28.550  1.00  0.00    -0.203 F 
ATOM     74  F   UNL A   1      44.285  26.345  24.996  1.00  0.00    -0.200 F 
ATOM     75  C   UNL A   1      42.725  24.726  25.715  1.00  0.00     0.200 A 
ATOM     76  F   UNL A   1      41.141  23.143  26.464  1.00  0.00    -0.200 F 
ATOM     77  F   UNL A   1      43.027  23.948  24.666  1.00  0.00    -0.200 F 
ENDBRANCH  53  67
BRANCH  54  78
ATOM     78  C   UNL A   1      39.266  31.989  35.690  1.00  0.00     0.064 A 
ATOM     79  C   UNL A   1      39.764  33.282  35.904  1.00  0.00     0.173 A 
ATOM     80  C   UNL A   1      38.343  31.484  36.618  1.00  0.00     0.173 A 
ATOM     81  F   UNL A   1      40.665  33.801  35.056  1.00  0.00    -0.203 F 
ATOM     82  C   UNL A   1      39.370  34.031  37.011  1.00  0.00     0.198 A 
ATOM     83  C   UNL A   1      37.926  32.247  37.707  1.00  0.00     0.198 A 
ATOM     84  F   UNL A   1      37.832  30.255  36.457  1.00  0.00    -0.203 F 
ATOM     85  F   UNL A   1      39.898  35.245  37.216  1.00  0.00    -0.200 F 
ATOM     86  C   UNL A   1      38.447  33.516  37.907  1.00  0.00     0.200 A 
ATOM     87  F   UNL A   1      37.022  31.751  38.562  1.00  0.00    -0.200 F 
ATOM     88  F   UNL A   1      38.065  34.239  38.969  1.00  0.00    -0.200 F 
ENDBRANCH  54  78
BRANCH  66  89
ATOM     89  C   UNL A   1      44.485  27.496  34.598  1.00  0.00     0.064 A 
ATOM     90  C   UNL A   1      44.338  26.314  35.339  1.00  0.00     0.173 A 
ATOM     91  C   UNL A   1      45.717  28.163  34.659  1.00  0.00     0.173 A 
ATOM     92  F   UNL A   1      43.172  25.650  35.326  1.00  0.00    -0.203 F 
ATOM     93  C   UNL A   1      45.381  25.827  36.121  1.00  0.00     0.198 A 
ATOM     94  C   UNL A   1      46.769  27.656  35.417  1.00  0.00     0.198 A 
ATOM     95  F   UNL A   1      45.910  29.295  33.965  1.00  0.00    -0.203 F 
ATOM     96  F   UNL A   1      45.206  24.718  36.853  1.00  0.00    -0.200 F 
ATOM     97  C   UNL A   1      46.598  26.491  36.151  1.00  0.00     0.200 A 
ATOM     98  F   UNL A   1      47.949  28.290  35.433  1.00  0.00    -0.200 F 
ATOM     99  F   UNL A   1      47.606  26.012  36.893  1.00  0.00    -0.200 F 
ENDBRANCH  66  89
ENDBRANCH  40  41
ENDBRANCH  32  35
ENDBRANCH  30  31
ENDBRANCH  29  30
ENDBRANCH   1  29
TORSDOF 14
ENDMDL
MODEL 2
REMARK VINA RESULT:     -12.7      1.870      3.067
REMARK SMILES [NH3+]C1CC[NH+](CC(=O)Nc2cc(Cl)ccc2C(=O)NCCCNC(=O)c2ccc(-c3c4nc(c(-c5c(F)c(F)c(F)c(F)c5F)c5ccc([nH]5)c(-c5c(F)c(F)c(F)c(F)c5F)c5nc(c(-c6c(F)c(F)c(F)c(F)c6F)c6ccc3[nH]6)C=C5)C=C4)cc2)CC1
REMARK SMILES IDX 20 1 19 2 17 3 18 4 16 6 10 7 11 8 12 9 15 10 13 11 14 12
REMARK SMILES IDX 9 13 7 14 8 15 6 17 5 18 2 19 3 20 90 21 4 22 89 23 1 25
REMARK SMILES IDX 21 29 22 30 23 31 24 32 25 34 26 35 27 36 88 37 28 38 87 39
REMARK SMILES IDX 29 40 30 41 31 42 81 43 32 44 86 45 80 46 82 47 33 48 85 49
REMARK SMILES IDX 79 50 78 51 34 53 66 54 46 55 65 56 47 57 50 58 64 59 83 60
REMARK SMILES IDX 48 61 49 62 63 64 84 65 51 66 35 67 36 68 44 69 37 70 38 71
REMARK SMILES IDX 42 72 45 73 39 74 40 75 43 76 41 77 67 78 68 79 76 80 69 81
REMARK SMILES IDX 70 82 74 83 77 84 71 85 72 86 75 87 73 88 52 89 53 90 61 91
REMARK SMILES IDX 54 92 55 93 59 94 62 95 56 96 57 97 60 98 58 99
REMARK H PARENT 19 5 9 16 5 24 1 26 1 27 1 28 23 33 82 52 50 63
REMARK Flexibility Score: inf
ROOT
ATOM      1  C   UNL A   1      31.672  30.775  25.933  1.00  0.00     0.118 C 
ENDROOT
BRANCH   1   2
ATOM      2  N   UNL A   1      31.583  29.532  26.678  1.00  0.00    -0.352 N 
ATOM      3  C   UNL A   1      31.541  28.185  26.477  1.00  0.00     0.253 C 
ATOM      4  O   UNL A   1      31.494  27.554  27.544  1.00  0.00    -0.269 OA
ATOM      5  H   UNL A   1      31.537  29.725  27.642  1.00  0.00     0.163 HD
BRANCH   3   6
ATOM      6  C   UNL A   1      31.563  27.370  25.208  1.00  0.00     0.063 A 
ATOM      7  C   UNL A   1      31.329  25.986  24.979  1.00  0.00     0.055 A 
ATOM      8  C   UNL A   1      31.626  25.465  23.712  1.00  0.00     0.047 A 
ATOM      9  C   UNL A   1      32.042  26.274  22.652  1.00  0.00     0.043 A 
ATOM     10  C   UNL A   1      32.004  28.159  24.108  1.00  0.00     0.017 A 
ATOM     11  Cl  UNL A   1      32.306  25.586  21.098  1.00  0.00    -0.084 Cl
ATOM     12  C   UNL A   1      32.226  27.628  22.840  1.00  0.00     0.021 A 
BRANCH   7  13
ATOM     13  N   UNL A   1      30.753  25.183  25.977  1.00  0.00    -0.320 N 
ATOM     14  C   UNL A   1      31.031  24.053  26.691  1.00  0.00     0.279 C 
ATOM     15  O   UNL A   1      30.047  23.526  27.233  1.00  0.00    -0.268 OA
ATOM     16  H   UNL A   1      29.877  25.546  26.242  1.00  0.00     0.170 HD
BRANCH  14  17
ATOM     17  C   UNL A   1      32.409  23.451  26.925  1.00  0.00     0.363 C 
BRANCH  17  18
ATOM     18  N   UNL A   1      32.567  22.006  26.691  1.00  0.00    -0.327 N 
ATOM     19  C   UNL A   1      34.739  20.950  24.954  1.00  0.00     0.192 C 
ATOM     20  C   UNL A   1      33.402  21.420  24.361  1.00  0.00     0.126 C 
ATOM     21  C   UNL A   1      34.975  21.538  26.345  1.00  0.00     0.126 C 
ATOM     22  C   UNL A   1      32.239  21.492  25.359  1.00  0.00     0.268 C 
ATOM     23  C   UNL A   1      33.752  21.371  27.239  1.00  0.00     0.268 C 
ATOM     24  H   UNL A   1      31.797  21.698  27.286  1.00  0.00     0.348 HD
BRANCH  19  25
ATOM     25  N   UNL A   1      34.831  19.487  24.997  1.00  0.00    -0.355 N 
ATOM     26  H   UNL A   1      33.979  19.105  25.407  1.00  0.00     0.344 HD
ATOM     27  H   UNL A   1      35.634  19.214  25.564  1.00  0.00     0.344 HD
ATOM     28  H   UNL A   1      34.945  19.125  24.050  1.00  0.00     0.344 HD
ENDBRANCH  19  25
ENDBRANCH  17  18
ENDBRANCH  14  17
ENDBRANCH   7  13
ENDBRANCH   3   6
ENDBRANCH   1   2
BRANCH   1  29
ATOM     29  C   UNL A   1      31.431  31.961  26.873  1.00  0.00     0.042 C 
BRANCH  29  30
ATOM     30  C   UNL A   1      32.712  32.677  27.278  1.00  0.00     0.118 C 
BRANCH  30  31
ATOM     31  N   UNL A   1      32.464  34.074  27.617  1.00  0.00    -0.352 N 
ATOM     32  C   UNL A   1      32.990  34.879  28.599  1.00  0.00     0.251 C 
ATOM     33  H   UNL A   1      31.802  34.519  27.041  1.00  0.00     0.163 HD
ATOM     34  O   UNL A   1      32.456  35.952  28.845  1.00  0.00    -0.269 OA
BRANCH  32  35
ATOM     35  C   UNL A   1      34.180  34.455  29.368  1.00  0.00     0.039 A 
ATOM     36  C   UNL A   1      34.005  33.916  30.646  1.00  0.00     0.014 A 
ATOM     37  C   UNL A   1      35.464  34.599  28.844  1.00  0.00     0.014 A 
ATOM     38  C   UNL A   1      35.108  33.436  31.354  1.00  0.00     0.010 A 
ATOM     39  C   UNL A   1      36.543  34.014  29.494  1.00  0.00     0.010 A 
ATOM     40  C   UNL A   1      36.378  33.424  30.755  1.00  0.00    -0.014 A 
BRANCH  40  41
ATOM     41  C   UNL A   1      37.547  32.784  31.408  1.00  0.00     0.031 A 
ATOM     42  C   UNL A   1      38.225  31.612  30.755  1.00  0.00     0.074 A 
ATOM     43  C   UNL A   1      37.925  33.192  32.634  1.00  0.00     0.049 A 
ATOM     44  N   UNL A   1      39.161  30.828  31.226  1.00  0.00    -0.248 NA
ATOM     45  C   UNL A   1      37.760  31.246  29.407  1.00  0.00     0.031 C 
ATOM     46  C   UNL A   1      37.310  34.284  33.392  1.00  0.00     0.029 A 
ATOM     47  N   UNL A   1      38.908  32.724  33.472  1.00  0.00    -0.354 N 
ATOM     48  C   UNL A   1      39.377  29.869  30.247  1.00  0.00     0.074 A 
ATOM     49  C   UNL A   1      38.435  30.129  29.181  1.00  0.00     0.031 C 
ATOM     50  C   UNL A   1      37.943  34.419  34.566  1.00  0.00     0.029 A 
ATOM     51  C   UNL A   1      38.970  33.389  34.672  1.00  0.00     0.049 A 
ATOM     52  H   UNL A   1      39.511  31.983  33.234  1.00  0.00     0.167 HD
ATOM     53  C   UNL A   1      40.299  28.877  30.226  1.00  0.00     0.037 A 
ATOM     54  C   UNL A   1      39.753  33.177  35.747  1.00  0.00     0.037 A 
ATOM     55  C   UNL A   1      41.254  28.647  31.278  1.00  0.00     0.049 A 
ATOM     56  C   UNL A   1      40.751  32.052  35.711  1.00  0.00     0.074 A 
ATOM     57  C   UNL A   1      42.283  27.724  31.321  1.00  0.00     0.029 A 
ATOM     58  N   UNL A   1      41.290  29.346  32.476  1.00  0.00    -0.354 N 
ATOM     59  N   UNL A   1      41.003  31.202  34.745  1.00  0.00    -0.248 NA
ATOM     60  C   UNL A   1      41.568  31.853  36.915  1.00  0.00     0.031 C 
ATOM     61  C   UNL A   1      42.905  27.824  32.569  1.00  0.00     0.029 A 
ATOM     62  C   UNL A   1      42.299  28.846  33.283  1.00  0.00     0.049 A 
ATOM     63  H   UNL A   1      40.689  30.088  32.716  1.00  0.00     0.167 HD
ATOM     64  C   UNL A   1      42.015  30.379  35.216  1.00  0.00     0.074 A 
ATOM     65  C   UNL A   1      42.348  30.846  36.545  1.00  0.00     0.031 C 
ATOM     66  C   UNL A   1      42.610  29.324  34.607  1.00  0.00     0.037 A 
BRANCH  53  67
ATOM     67  C   UNL A   1      40.322  27.970  29.030  1.00  0.00     0.064 A 
ATOM     68  C   UNL A   1      41.076  28.275  27.886  1.00  0.00     0.173 A 
ATOM     69  C   UNL A   1      39.608  26.761  29.039  1.00  0.00     0.173 A 
ATOM     70  F   UNL A   1      41.767  29.423  27.818  1.00  0.00    -0.203 F 
ATOM     71  C   UNL A   1      41.088  27.422  26.785  1.00  0.00     0.198 A 
ATOM     72  C   UNL A   1      39.650  25.894  27.951  1.00  0.00     0.198 A 
ATOM     73  F   UNL A   1      38.876  26.416  30.109  1.00  0.00    -0.203 F 
ATOM     74  F   UNL A   1      41.770  27.762  25.683  1.00  0.00    -0.200 F 
ATOM     75  C   UNL A   1      40.382  26.229  26.821  1.00  0.00     0.200 A 
ATOM     76  F   UNL A   1      38.980  24.734  27.993  1.00  0.00    -0.200 F 
ATOM     77  F   UNL A   1      40.402  25.404  25.764  1.00  0.00    -0.200 F 
ENDBRANCH  53  67
BRANCH  54  78
ATOM     78  C   UNL A   1      39.624  34.050  36.945  1.00  0.00     0.064 A 
ATOM     79  C   UNL A   1      38.845  33.654  38.041  1.00  0.00     0.173 A 
ATOM     80  C   UNL A   1      40.277  35.289  37.024  1.00  0.00     0.173 A 
ATOM     81  F   UNL A   1      38.185  32.486  38.005  1.00  0.00    -0.203 F 
ATOM     82  C   UNL A   1      38.707  34.472  39.160  1.00  0.00     0.198 A 
ATOM     83  C   UNL A   1      40.163  36.093  38.157  1.00  0.00     0.198 A 
ATOM     84  F   UNL A   1      41.038  35.714  36.005  1.00  0.00    -0.203 F 
ATOM     85  F   UNL A   1      37.917  34.089  40.173  1.00  0.00    -0.200 F 
ATOM     86  C   UNL A   1      39.371  35.687  39.220  1.00  0.00     0.200 A 
ATOM     87  F   UNL A   1      40.820  37.259  38.217  1.00  0.00    -0.200 F 
ATOM     88  F   UNL A   1      39.242  36.472  40.299  1.00  0.00    -0.200 F 
ENDBRANCH  54  78
BRANCH  66  89
ATOM     89  C   UNL A   1      43.686  28.606  35.369  1.00  0.00     0.064 A 
ATOM     90  C   UNL A   1      45.035  28.968  35.245  1.00  0.00     0.173 A 
ATOM     91  C   UNL A   1      43.358  27.587  36.276  1.00  0.00     0.173 A 
ATOM     92  F   UNL A   1      45.399  29.925  34.377  1.00  0.00    -0.203 F 
ATOM     93  C   UNL A   1      46.019  28.324  35.988  1.00  0.00     0.198 A 
ATOM     94  C   UNL A   1      44.342  26.967  37.042  1.00  0.00     0.198 A 
ATOM     95  F   UNL A   1      42.081  27.207  36.436  1.00  0.00    -0.203 F 
ATOM     96  F   UNL A   1      47.307  28.658  35.823  1.00  0.00    -0.200 F 
ATOM     97  C   UNL A   1      45.671  27.333  36.893  1.00  0.00     0.200 A 
ATOM     98  F   UNL A   1      44.002  26.021  37.927  1.00  0.00    -0.200 F 
ATOM     99  F   UNL A   1      46.619  26.725  37.619  1.00  0.00    -0.200 F 
ENDBRANCH  66  89
ENDBRANCH  40  41
ENDBRANCH  32  35
ENDBRANCH  30  31
ENDBRANCH  29  30
ENDBRANCH   1  29
TORSDOF 14
ENDMDL
MODEL 3
REMARK VINA RESULT:     -12.6      1.419      2.616
REMARK SMILES [NH3+]C1CC[NH+](CC(=O)Nc2cc(Cl)ccc2C(=O)NCCCNC(=O)c2ccc(-c3c4nc(c(-c5c(F)c(F)c(F)c(F)c5F)c5ccc([nH]5)c(-c5c(F)c(F)c(F)c(F)c5F)c5nc(c(-c6c(F)c(F)c(F)c(F)c6F)c6ccc3[nH]6)C=C5)C=C4)cc2)CC1
REMARK SMILES IDX 20 1 19 2 17 3 18 4 16 6 10 7 11 8 12 9 15 10 13 11 14 12
REMARK SMILES IDX 9 13 7 14 8 15 6 17 5 18 2 19 3 20 90 21 4 22 89 23 1 25
REMARK SMILES IDX 21 29 22 30 23 31 24 32 25 34 26 35 27 36 88 37 28 38 87 39
REMARK SMILES IDX 29 40 30 41 31 42 81 43 32 44 86 45 80 46 82 47 33 48 85 49
REMARK SMILES IDX 79 50 78 51 34 53 66 54 46 55 65 56 47 57 50 58 64 59 83 60
REMARK SMILES IDX 48 61 49 62 63 64 84 65 51 66 35 67 36 68 44 69 37 70 38 71
REMARK SMILES IDX 42 72 45 73 39 74 40 75 43 76 41 77 67 78 68 79 76 80 69 81
REMARK SMILES IDX 70 82 74 83 77 84 71 85 72 86 75 87 73 88 52 89 53 90 61 91
REMARK SMILES IDX 54 92 55 93 59 94 62 95 56 96 57 97 60 98 58 99
REMARK H PARENT 19 5 9 16 5 24 1 26 1 27 1 28 23 33 82 52 50 63
REMARK Flexibility Score: inf
ROOT
ATOM      1  C   UNL A   1      31.284  29.334  24.122  1.00  0.00     0.118 C 
ENDROOT
BRANCH   1   2
ATOM      2  N   UNL A   1      31.195  28.379  23.033  1.00  0.00    -0.352 N 
ATOM      3  C   UNL A   1      31.069  27.039  22.815  1.00  0.00     0.253 C 
ATOM      4  O   UNL A   1      31.008  26.765  21.607  1.00  0.00    -0.269 OA
ATOM      5  H   UNL A   1      31.242  28.852  22.171  1.00  0.00     0.163 HD
BRANCH   3   6
ATOM      6  C   UNL A   1      30.974  25.882  23.778  1.00  0.00     0.063 A 
ATOM      7  C   UNL A   1      31.260  24.499  23.611  1.00  0.00     0.055 A 
ATOM      8  C   UNL A   1      30.876  23.616  24.630  1.00  0.00     0.047 A 
ATOM      9  C   UNL A   1      30.321  24.061  25.833  1.00  0.00     0.043 A 
ATOM     10  C   UNL A   1      30.391  26.295  25.010  1.00  0.00     0.017 A 
ATOM     11  Cl  UNL A   1      29.953  22.934  27.079  1.00  0.00    -0.084 Cl
ATOM     12  C   UNL A   1      30.083  25.405  26.034  1.00  0.00     0.021 A 
BRANCH   7  13
ATOM     13  N   UNL A   1      31.968  24.044  22.487  1.00  0.00    -0.320 N 
ATOM     14  C   UNL A   1      33.190  23.527  22.167  1.00  0.00     0.279 C 
ATOM     15  O   UNL A   1      33.482  23.593  20.962  1.00  0.00    -0.268 OA
ATOM     16  H   UNL A   1      31.410  24.124  21.679  1.00  0.00     0.170 HD
BRANCH  14  17
ATOM     17  C   UNL A   1      34.154  22.838  23.119  1.00  0.00     0.363 C 
BRANCH  17  18
ATOM     18  N   UNL A   1      35.354  23.587  23.531  1.00  0.00    -0.327 N 
ATOM     19  C   UNL A   1      37.171  22.552  25.647  1.00  0.00     0.192 C 
ATOM     20  C   UNL A   1      35.916  23.363  26.002  1.00  0.00     0.126 C 
ATOM     21  C   UNL A   1      37.078  21.956  24.243  1.00  0.00     0.126 C 
ATOM     22  C   UNL A   1      35.345  24.210  24.857  1.00  0.00     0.268 C 
ATOM     23  C   UNL A   1      36.643  22.998  23.219  1.00  0.00     0.268 C 
ATOM     24  H   UNL A   1      35.246  24.363  22.879  1.00  0.00     0.348 HD
BRANCH  19  25
ATOM     25  N   UNL A   1      38.392  23.354  25.780  1.00  0.00    -0.355 N 
ATOM     26  H   UNL A   1      38.718  23.633  24.854  1.00  0.00     0.344 HD
ATOM     27  H   UNL A   1      39.114  22.800  26.241  1.00  0.00     0.344 HD
ATOM     28  H   UNL A   1      38.195  24.186  26.336  1.00  0.00     0.344 HD
ENDBRANCH  19  25
ENDBRANCH  17  18
ENDBRANCH  14  17
ENDBRANCH   7  13
ENDBRANCH   3   6
ENDBRANCH   1   2
BRANCH   1  29
ATOM     29  C   UNL A   1      32.671  29.253  24.770  1.00  0.00     0.042 C 
BRANCH  29  30
ATOM     30  C   UNL A   1      32.657  29.568  26.259  1.00  0.00     0.118 C 
BRANCH  30  31
ATOM     31  N   UNL A   1      32.522  31.000  26.506  1.00  0.00    -0.352 N 
ATOM     32  C   UNL A   1      33.256  31.862  27.284  1.00  0.00     0.251 C 
ATOM     33  H   UNL A   1      31.771  31.423  26.030  1.00  0.00     0.163 HD
ATOM     34  O   UNL A   1      32.813  32.977  27.526  1.00  0.00    -0.269 OA
BRANCH  32  35
ATOM     35  C   UNL A   1      34.563  31.452  27.841  1.00  0.00     0.039 A 
ATOM     36  C   UNL A   1      35.580  32.404  27.954  1.00  0.00     0.014 A 
ATOM     37  C   UNL A   1      34.796  30.136  28.239  1.00  0.00     0.014 A 
ATOM     38  C   UNL A   1      36.793  32.057  28.552  1.00  0.00     0.010 A 
ATOM     39  C   UNL A   1      35.953  29.822  28.940  1.00  0.00     0.010 A 
ATOM     40  C   UNL A   1      36.964  30.779  29.107  1.00  0.00    -0.014 A 
BRANCH  40  41
ATOM     41  C   UNL A   1      38.175  30.417  29.885  1.00  0.00     0.031 A 
ATOM     42  C   UNL A   1      39.170  29.444  29.319  1.00  0.00     0.074 A 
ATOM     43  C   UNL A   1      38.317  30.883  31.141  1.00  0.00     0.049 A 
ATOM     44  N   UNL A   1      40.208  28.891  29.893  1.00  0.00    -0.248 NA
ATOM     45  C   UNL A   1      38.948  29.002  27.932  1.00  0.00     0.031 C 
ATOM     46  C   UNL A   1      37.389  31.790  31.820  1.00  0.00     0.029 A 
ATOM     47  N   UNL A   1      39.288  30.642  32.082  1.00  0.00    -0.354 N 
ATOM     48  C   UNL A   1      40.742  28.023  28.950  1.00  0.00     0.074 A 
ATOM     49  C   UNL A   1      39.883  28.075  27.789  1.00  0.00     0.031 C 
ATOM     50  C   UNL A   1      37.847  32.049  33.053  1.00  0.00     0.029 A 
ATOM     51  C   UNL A   1      39.068  31.284  33.276  1.00  0.00     0.049 A 
ATOM     52  H   UNL A   1      40.068  30.064  31.916  1.00  0.00     0.167 HD
ATOM     53  C   UNL A   1      41.866  27.273  29.037  1.00  0.00     0.037 A 
ATOM     54  C   UNL A   1      39.761  31.242  34.430  1.00  0.00     0.037 A 
ATOM     55  C   UNL A   1      42.732  27.253  30.186  1.00  0.00     0.049 A 
ATOM     56  C   UNL A   1      40.991  30.380  34.509  1.00  0.00     0.074 A 
ATOM     57  C   UNL A   1      43.937  26.593  30.346  1.00  0.00     0.029 A 
ATOM     58  N   UNL A   1      42.480  27.923  31.375  1.00  0.00    -0.354 N 
ATOM     59  N   UNL A   1      41.533  29.626  33.584  1.00  0.00    -0.248 NA
ATOM     60  C   UNL A   1      41.701  30.356  35.795  1.00  0.00     0.031 C 
ATOM     61  C   UNL A   1      44.384  26.814  31.652  1.00  0.00     0.029 A 
ATOM     62  C   UNL A   1      43.486  27.657  32.288  1.00  0.00     0.049 A 
ATOM     63  H   UNL A   1      41.701  28.501  31.543  1.00  0.00     0.167 HD
ATOM     64  C   UNL A   1      42.653  29.052  34.166  1.00  0.00     0.074 A 
ATOM     65  C   UNL A   1      42.728  29.563  35.519  1.00  0.00     0.031 C 
ATOM     66  C   UNL A   1      43.538  28.173  33.633  1.00  0.00     0.037 A 
BRANCH  53  67
ATOM     67  C   UNL A   1      42.224  26.414  27.858  1.00  0.00     0.064 A 
ATOM     68  C   UNL A   1      41.675  25.134  27.683  1.00  0.00     0.173 A 
ATOM     69  C   UNL A   1      43.101  26.890  26.870  1.00  0.00     0.173 A 
ATOM     70  F   UNL A   1      40.841  24.625  28.602  1.00  0.00    -0.203 F 
ATOM     71  C   UNL A   1      42.016  24.350  26.583  1.00  0.00     0.198 A 
ATOM     72  C   UNL A   1      43.413  26.118  25.754  1.00  0.00     0.198 A 
ATOM     73  F   UNL A   1      43.651  28.108  26.984  1.00  0.00    -0.203 F 
ATOM     74  F   UNL A   1      41.522  23.110  26.468  1.00  0.00    -0.200 F 
ATOM     75  C   UNL A   1      42.877  24.846  25.616  1.00  0.00     0.200 A 
ATOM     76  F   UNL A   1      44.234  26.603  24.813  1.00  0.00    -0.200 F 
ATOM     77  F   UNL A   1      43.198  24.094  24.553  1.00  0.00    -0.200 F 
ENDBRANCH  53  67
BRANCH  54  78
ATOM     78  C   UNL A   1      39.309  32.042  35.599  1.00  0.00     0.064 A 
ATOM     79  C   UNL A   1      38.437  31.493  36.550  1.00  0.00     0.173 A 
ATOM     80  C   UNL A   1      39.737  33.364  35.795  1.00  0.00     0.173 A 
ATOM     81  F   UNL A   1      37.983  30.240  36.397  1.00  0.00    -0.203 F 
ATOM     82  C   UNL A   1      37.997  32.241  37.640  1.00  0.00     0.198 A 
ATOM     83  C   UNL A   1      39.320  34.100  36.902  1.00  0.00     0.198 A 
ATOM     84  F   UNL A   1      40.574  33.935  34.918  1.00  0.00    -0.203 F 
ATOM     85  F   UNL A   1      37.127  31.706  38.508  1.00  0.00    -0.200 F 
ATOM     86  C   UNL A   1      38.444  33.540  37.819  1.00  0.00     0.200 A 
ATOM     87  F   UNL A   1      39.768  35.350  37.079  1.00  0.00    -0.200 F 
ATOM     88  F   UNL A   1      38.024  34.258  38.870  1.00  0.00    -0.200 F 
ENDBRANCH  54  78
BRANCH  66  89
ATOM     89  C   UNL A   1      44.664  27.712  34.511  1.00  0.00     0.064 A 
ATOM     90  C   UNL A   1      45.862  28.435  34.602  1.00  0.00     0.173 A 
ATOM     91  C   UNL A   1      44.522  26.570  35.313  1.00  0.00     0.173 A 
ATOM     92  F   UNL A   1      46.052  29.524  33.842  1.00  0.00    -0.203 F 
ATOM     93  C   UNL A   1      46.884  28.022  35.452  1.00  0.00     0.198 A 
ATOM     94  C   UNL A   1      45.532  26.178  36.186  1.00  0.00     0.198 A 
ATOM     95  F   UNL A   1      43.392  25.847  35.268  1.00  0.00    -0.203 F 
ATOM     96  F   UNL A   1      48.036  28.704  35.492  1.00  0.00    -0.200 F 
ATOM     97  C   UNL A   1      46.714  26.900  36.251  1.00  0.00     0.200 A 
ATOM     98  F   UNL A   1      45.361  25.104  36.969  1.00  0.00    -0.200 F 
ATOM     99  F   UNL A   1      47.693  26.513  37.079  1.00  0.00    -0.200 F 
ENDBRANCH  66  89
ENDBRANCH  40  41
ENDBRANCH  32  35
ENDBRANCH  30  31
ENDBRANCH  29  30
ENDBRANCH   1  29
TORSDOF 14
ENDMDL
