MODEL 1
REMARK VINA RESULT:     -12.7      0.000      0.000
REMARK SMILES CC(C)(C)OC(=O)N1CCN(c2ccc([N+](=O)[O-])c(Br)c2)C[C@H]1C(=O)NCCCNC(=O)c1ccc(-c2c3nc(c(-c4c(F)c(F)c(F)c(F)c4F)c4ccc([nH]4)c(-c4c(F)c(F)c(F)c(F)c4F)c4nc(c(-c5c(F)c(F)c(F)c(F)c5F)c5ccc2[nH]5)C=C4)C=C3)cc1
REMARK SMILES IDX 27 1 26 2 24 3 25 4 23 6 8 7 9 8 10 9 22 10 11 11 6 12 7 13
REMARK SMILES IDX 5 14 2 15 1 16 3 17 4 18 12 19 13 20 21 21 14 22 19 23 15 24
REMARK SMILES IDX 20 25 16 26 17 27 18 28 28 29 29 30 30 31 31 32 32 34 33 35
REMARK SMILES IDX 34 36 95 37 35 38 94 39 36 40 37 41 38 42 88 43 39 44 93 45
REMARK SMILES IDX 87 46 89 47 40 48 92 49 86 50 85 51 41 53 73 54 53 55 72 56
REMARK SMILES IDX 54 57 57 58 71 59 90 60 55 61 56 62 70 64 91 65 58 66 42 67
REMARK SMILES IDX 43 68 51 69 44 70 45 71 49 72 52 73 46 74 47 75 50 76 48 77
REMARK SMILES IDX 74 78 75 79 83 80 76 81 77 82 81 83 84 84 78 85 79 86 82 87
REMARK SMILES IDX 80 88 59 89 60 90 68 91 61 92 62 93 66 94 69 95 63 96 64 97
REMARK SMILES IDX 67 98 65 99
REMARK H PARENT 26 5 30 33 89 52 57 63
REMARK Flexibility Score: inf
ROOT
ATOM      1  C   UNL A   1      31.395  30.298  26.213  1.00  0.00     0.117 C 
ENDROOT
BRANCH   1   2
ATOM      2  N   UNL A   1      32.609  29.902  25.520  1.00  0.00    -0.354 N 
ATOM      3  C   UNL A   1      32.887  28.856  24.695  1.00  0.00     0.244 C 
ATOM      4  O   UNL A   1      34.017  28.839  24.195  1.00  0.00    -0.273 OA
ATOM      5  H   UNL A   1      33.374  30.502  25.676  1.00  0.00     0.163 HD
BRANCH   3   6
ATOM      6  C   UNL A   1      31.828  27.841  24.236  1.00  0.00     0.197 C 
ATOM      7  N   UNL A   1      31.178  28.053  22.923  1.00  0.00    -0.293 N 
ATOM      8  C   UNL A   1      30.464  26.891  22.395  1.00  0.00     0.145 C 
ATOM      9  C   UNL A   1      31.292  25.612  22.403  1.00  0.00     0.138 C 
ATOM     10  C   UNL A   1      32.490  26.436  24.420  1.00  0.00     0.152 C 
ATOM     11  N   UNL A   1      31.746  25.336  23.769  1.00  0.00    -0.367 N 
BRANCH   7  12
ATOM     12  C   UNL A   1      30.511  29.255  22.682  1.00  0.00     0.411 C 
ATOM     13  O   UNL A   1      30.921  30.085  21.874  1.00  0.00    -0.224 OA
BRANCH  12  14
ATOM     14  O   UNL A   1      29.456  29.456  23.509  1.00  0.00    -0.444 OA
BRANCH  14  15
ATOM     15  C   UNL A   1      28.181  29.888  22.946  1.00  0.00     0.106 C 
ATOM     16  C   UNL A   1      27.189  28.750  23.224  1.00  0.00     0.056 C 
ATOM     17  C   UNL A   1      28.305  30.062  21.432  1.00  0.00     0.056 C 
ATOM     18  C   UNL A   1      27.622  31.148  23.632  1.00  0.00     0.056 C 
ENDBRANCH  14  15
ENDBRANCH  12  14
ENDBRANCH   7  12
BRANCH  11  19
ATOM     19  C   UNL A   1      32.072  24.033  24.129  1.00  0.00     0.038 A 
ATOM     20  C   UNL A   1      31.917  22.992  23.208  1.00  0.00     0.033 A 
ATOM     21  C   UNL A   1      32.601  23.704  25.386  1.00  0.00     0.048 A 
ATOM     22  C   UNL A   1      32.288  21.680  23.520  1.00  0.00     0.089 A 
ATOM     23  C   UNL A   1      32.983  22.391  25.727  1.00  0.00     0.097 A 
ATOM     24  C   UNL A   1      32.826  21.372  24.782  1.00  0.00     0.283 A 
ATOM     25  Br  UNL A   1      33.727  22.202  27.468  1.00  0.00    -0.043 Br
BRANCH  24  26
ATOM     26  N   UNL A   1      33.209  19.975  25.021  1.00  0.00     0.063 N 
ATOM     27  O   UNL A   1      32.306  19.192  25.354  1.00  0.00    -0.258 OA
ATOM     28  O   UNL A   1      34.397  19.650  24.922  1.00  0.00    -0.258 OA
ENDBRANCH  24  26
ENDBRANCH  11  19
ENDBRANCH   3   6
ENDBRANCH   1   2
BRANCH   1  29
ATOM     29  C   UNL A   1      31.318  31.799  26.481  1.00  0.00     0.042 C 
BRANCH  29  30
ATOM     30  C   UNL A   1      32.634  32.437  26.929  1.00  0.00     0.118 C 
BRANCH  30  31
ATOM     31  N   UNL A   1      32.484  33.751  27.520  1.00  0.00    -0.352 N 
ATOM     32  C   UNL A   1      33.239  34.384  28.480  1.00  0.00     0.251 C 
ATOM     33  H   UNL A   1      31.722  34.274  27.180  1.00  0.00     0.163 HD
ATOM     34  O   UNL A   1      32.867  35.477  28.901  1.00  0.00    -0.269 OA
BRANCH  32  35
ATOM     35  C   UNL A   1      34.468  33.770  29.055  1.00  0.00     0.039 A 
ATOM     36  C   UNL A   1      34.304  32.705  29.948  1.00  0.00     0.014 A 
ATOM     37  C   UNL A   1      35.756  34.249  28.801  1.00  0.00     0.014 A 
ATOM     38  C   UNL A   1      35.417  32.098  30.540  1.00  0.00     0.010 A 
ATOM     39  C   UNL A   1      36.874  33.590  29.330  1.00  0.00     0.010 A 
ATOM     40  C   UNL A   1      36.719  32.515  30.219  1.00  0.00    -0.014 A 
BRANCH  40  41
ATOM     41  C   UNL A   1      37.900  31.848  30.836  1.00  0.00     0.031 A 
ATOM     42  C   UNL A   1      38.326  32.176  32.244  1.00  0.00     0.074 A 
ATOM     43  C   UNL A   1      38.603  30.935  30.135  1.00  0.00     0.049 A 
ATOM     44  N   UNL A   1      39.312  31.677  32.950  1.00  0.00    -0.248 NA
ATOM     45  C   UNL A   1      37.556  33.213  32.946  1.00  0.00     0.031 C 
ATOM     46  C   UNL A   1      38.333  30.543  28.751  1.00  0.00     0.029 A 
ATOM     47  N   UNL A   1      39.686  30.167  30.491  1.00  0.00    -0.354 N 
ATOM     48  C   UNL A   1      39.283  32.341  34.170  1.00  0.00     0.074 A 
ATOM     49  C   UNL A   1      38.216  33.316  34.091  1.00  0.00     0.031 C 
ATOM     50  C   UNL A   1      39.202  29.586  28.387  1.00  0.00     0.029 A 
ATOM     51  C   UNL A   1      40.112  29.317  29.499  1.00  0.00     0.049 A 
ATOM     52  H   UNL A   1      40.115  30.220  31.376  1.00  0.00     0.167 HD
ATOM     53  C   UNL A   1      40.054  32.143  35.265  1.00  0.00     0.037 A 
ATOM     54  C   UNL A   1      41.119  28.422  29.482  1.00  0.00     0.037 A 
ATOM     55  C   UNL A   1      41.096  31.155  35.369  1.00  0.00     0.049 A 
ATOM     56  C   UNL A   1      41.967  28.227  30.710  1.00  0.00     0.074 A 
ATOM     57  C   UNL A   1      41.882  30.842  36.465  1.00  0.00     0.029 A 
ATOM     58  N   UNL A   1      41.500  30.321  34.338  1.00  0.00    -0.354 N 
ATOM     59  N   UNL A   1      41.878  28.813  31.879  1.00  0.00    -0.248 NA
ATOM     60  C   UNL A   1      43.052  27.239  30.617  1.00  0.00     0.031 C 
ATOM     61  C   UNL A   1      42.791  29.848  36.086  1.00  0.00     0.029 A 
ATOM     62  C   UNL A   1      42.540  29.510  34.766  1.00  0.00     0.049 A 
ATOM     63  H   UNL A   1      41.106  30.305  33.436  1.00  0.00     0.167 HD
ATOM     64  C   UNL A   1      42.874  28.248  32.665  1.00  0.00     0.074 A 
ATOM     65  C   UNL A   1      43.548  27.262  31.846  1.00  0.00     0.031 C 
ATOM     66  C   UNL A   1      43.200  28.525  33.951  1.00  0.00     0.037 A 
BRANCH  53  67
ATOM     67  C   UNL A   1      39.795  33.010  36.464  1.00  0.00     0.064 A 
ATOM     68  C   UNL A   1      38.839  32.660  37.429  1.00  0.00     0.173 A 
ATOM     69  C   UNL A   1      40.551  34.172  36.679  1.00  0.00     0.173 A 
ATOM     70  F   UNL A   1      38.085  31.563  37.264  1.00  0.00    -0.203 F 
ATOM     71  C   UNL A   1      38.633  33.455  38.553  1.00  0.00     0.198 A 
ATOM     72  C   UNL A   1      40.361  34.949  37.819  1.00  0.00     0.198 A 
ATOM     73  F   UNL A   1      41.485  34.545  35.791  1.00  0.00    -0.203 F 
ATOM     74  F   UNL A   1      37.687  33.122  39.441  1.00  0.00    -0.200 F 
ATOM     75  C   UNL A   1      39.399  34.594  38.751  1.00  0.00     0.200 A 
ATOM     76  F   UNL A   1      41.112  36.042  38.015  1.00  0.00    -0.200 F 
ATOM     77  F   UNL A   1      39.207  35.351  39.840  1.00  0.00    -0.200 F 
ENDBRANCH  53  67
BRANCH  54  78
ATOM     78  C   UNL A   1      41.373  27.617  28.260  1.00  0.00     0.064 A 
ATOM     79  C   UNL A   1      40.729  26.387  28.061  1.00  0.00     0.173 A 
ATOM     80  C   UNL A   1      42.276  28.048  27.278  1.00  0.00     0.173 A 
ATOM     81  F   UNL A   1      39.876  25.921  28.984  1.00  0.00    -0.203 F 
ATOM     82  C   UNL A   1      40.992  25.611  26.934  1.00  0.00     0.198 A 
ATOM     83  C   UNL A   1      42.518  27.284  26.138  1.00  0.00     0.198 A 
ATOM     84  F   UNL A   1      42.917  29.217  27.423  1.00  0.00    -0.203 F 
ATOM     85  F   UNL A   1      40.397  24.420  26.789  1.00  0.00    -0.200 F 
ATOM     86  C   UNL A   1      41.883  26.063  25.971  1.00  0.00     0.200 A 
ATOM     87  F   UNL A   1      43.370  27.729  25.205  1.00  0.00    -0.200 F 
ATOM     88  F   UNL A   1      42.134  25.318  24.886  1.00  0.00    -0.200 F 
ENDBRANCH  54  78
BRANCH  66  89
ATOM     89  C   UNL A   1      44.317  27.734  34.568  1.00  0.00     0.064 A 
ATOM     90  C   UNL A   1      45.637  28.205  34.571  1.00  0.00     0.173 A 
ATOM     91  C   UNL A   1      44.054  26.508  35.201  1.00  0.00     0.173 A 
ATOM     92  F   UNL A   1      45.942  29.363  33.966  1.00  0.00    -0.203 F 
ATOM     93  C   UNL A   1      46.658  27.470  35.167  1.00  0.00     0.198 A 
ATOM     94  C   UNL A   1      45.073  25.788  35.818  1.00  0.00     0.198 A 
ATOM     95  F   UNL A   1      42.807  26.016  35.231  1.00  0.00    -0.203 F 
ATOM     96  F   UNL A   1      47.920  27.920  35.122  1.00  0.00    -0.200 F 
ATOM     97  C   UNL A   1      46.375  26.266  35.797  1.00  0.00     0.200 A 
ATOM     98  F   UNL A   1      44.796  24.632  36.436  1.00  0.00    -0.200 F 
ATOM     99  F   UNL A   1      47.359  25.563  36.374  1.00  0.00    -0.200 F 
ENDBRANCH  66  89
ENDBRANCH  40  41
ENDBRANCH  32  35
ENDBRANCH  30  31
ENDBRANCH  29  30
ENDBRANCH   1  29
TORSDOF 15
ENDMDL
MODEL 2
REMARK VINA RESULT:     -12.4      4.748     10.819
REMARK SMILES CC(C)(C)OC(=O)N1CCN(c2ccc([N+](=O)[O-])c(Br)c2)C[C@H]1C(=O)NCCCNC(=O)c1ccc(-c2c3nc(c(-c4c(F)c(F)c(F)c(F)c4F)c4ccc([nH]4)c(-c4c(F)c(F)c(F)c(F)c4F)c4nc(c(-c5c(F)c(F)c(F)c(F)c5F)c5ccc2[nH]5)C=C4)C=C3)cc1
REMARK SMILES IDX 27 1 26 2 24 3 25 4 23 6 8 7 9 8 10 9 22 10 11 11 6 12 7 13
REMARK SMILES IDX 5 14 2 15 1 16 3 17 4 18 12 19 13 20 21 21 14 22 19 23 15 24
REMARK SMILES IDX 20 25 16 26 17 27 18 28 28 29 29 30 30 31 31 32 32 34 33 35
REMARK SMILES IDX 34 36 95 37 35 38 94 39 36 40 37 41 38 42 88 43 39 44 93 45
REMARK SMILES IDX 87 46 89 47 40 48 92 49 86 50 85 51 41 53 73 54 53 55 72 56
REMARK SMILES IDX 54 57 57 58 71 59 90 60 55 61 56 62 70 64 91 65 58 66 42 67
REMARK SMILES IDX 43 68 51 69 44 70 45 71 49 72 52 73 46 74 47 75 50 76 48 77
REMARK SMILES IDX 74 78 75 79 83 80 76 81 77 82 81 83 84 84 78 85 79 86 82 87
REMARK SMILES IDX 80 88 59 89 60 90 68 91 61 92 62 93 66 94 69 95 63 96 64 97
REMARK SMILES IDX 67 98 65 99
REMARK H PARENT 26 5 30 33 89 52 57 63
REMARK Flexibility Score: inf
ROOT
ATOM      1  C   UNL A   1      36.871  21.095  24.610  1.00  0.00     0.117 C 
ENDROOT
BRANCH   1   2
ATOM      2  N   UNL A   1      36.378  21.759  25.805  1.00  0.00    -0.354 N 
ATOM      3  C   UNL A   1      35.176  22.321  26.104  1.00  0.00     0.244 C 
ATOM      4  O   UNL A   1      35.042  22.746  27.257  1.00  0.00    -0.273 OA
ATOM      5  H   UNL A   1      37.037  21.811  26.536  1.00  0.00     0.163 HD
BRANCH   3   6
ATOM      6  C   UNL A   1      33.967  22.279  25.156  1.00  0.00     0.197 C 
ATOM      7  N   UNL A   1      32.911  21.274  25.412  1.00  0.00    -0.293 N 
ATOM      8  C   UNL A   1      31.649  21.516  24.712  1.00  0.00     0.145 C 
ATOM      9  C   UNL A   1      31.118  22.933  24.886  1.00  0.00     0.138 C 
ATOM     10  C   UNL A   1      33.458  23.755  25.063  1.00  0.00     0.152 C 
ATOM     11  N   UNL A   1      32.130  23.890  24.428  1.00  0.00    -0.367 N 
BRANCH   7  12
ATOM     12  C   UNL A   1      33.256  19.923  25.456  1.00  0.00     0.411 C 
ATOM     13  O   UNL A   1      33.337  19.298  26.511  1.00  0.00    -0.224 OA
BRANCH  12  14
ATOM     14  O   UNL A   1      33.608  19.420  24.247  1.00  0.00    -0.444 OA
BRANCH  14  15
ATOM     15  C   UNL A   1      33.118  18.104  23.852  1.00  0.00     0.106 C 
ATOM     16  C   UNL A   1      34.361  17.215  23.714  1.00  0.00     0.056 C 
ATOM     17  C   UNL A   1      32.427  18.184  22.491  1.00  0.00     0.056 C 
ATOM     18  C   UNL A   1      32.220  17.456  24.923  1.00  0.00     0.056 C 
ENDBRANCH  14  15
ENDBRANCH  12  14
ENDBRANCH   7  12
BRANCH  11  19
ATOM     19  C   UNL A   1      31.733  25.159  24.021  1.00  0.00     0.038 A 
ATOM     20  C   UNL A   1      30.376  25.498  24.007  1.00  0.00     0.033 A 
ATOM     21  C   UNL A   1      32.647  26.158  23.653  1.00  0.00     0.048 A 
ATOM     22  C   UNL A   1      29.949  26.783  23.657  1.00  0.00     0.089 A 
ATOM     23  C   UNL A   1      32.244  27.459  23.296  1.00  0.00     0.097 A 
ATOM     24  C   UNL A   1      30.882  27.773  23.301  1.00  0.00     0.283 A 
ATOM     25  Br  UNL A   1      33.669  28.654  22.891  1.00  0.00    -0.043 Br
BRANCH  24  26
ATOM     26  N   UNL A   1      30.351  29.101  22.968  1.00  0.00     0.063 N 
ATOM     27  O   UNL A   1      30.171  29.351  21.766  1.00  0.00    -0.258 OA
ATOM     28  O   UNL A   1      30.147  29.913  23.876  1.00  0.00    -0.258 OA
ENDBRANCH  24  26
ENDBRANCH  11  19
ENDBRANCH   3   6
ENDBRANCH   1   2
BRANCH   1  29
ATOM     29  C   UNL A   1      37.756  19.888  24.915  1.00  0.00     0.042 C 
BRANCH  29  30
ATOM     30  C   UNL A   1      38.790  20.115  26.017  1.00  0.00     0.118 C 
BRANCH  30  31
ATOM     31  N   UNL A   1      39.972  19.285  25.900  1.00  0.00    -0.352 N 
ATOM     32  C   UNL A   1      41.299  19.602  26.076  1.00  0.00     0.251 C 
ATOM     33  H   UNL A   1      39.798  18.347  25.658  1.00  0.00     0.163 HD
ATOM     34  O   UNL A   1      42.149  18.748  25.832  1.00  0.00    -0.269 OA
BRANCH  32  35
ATOM     35  C   UNL A   1      41.742  20.955  26.511  1.00  0.00     0.039 A 
ATOM     36  C   UNL A   1      41.800  21.962  25.540  1.00  0.00     0.014 A 
ATOM     37  C   UNL A   1      42.163  21.244  27.812  1.00  0.00     0.014 A 
ATOM     38  C   UNL A   1      42.228  23.250  25.880  1.00  0.00     0.010 A 
ATOM     39  C   UNL A   1      42.514  22.553  28.169  1.00  0.00     0.010 A 
ATOM     40  C   UNL A   1      42.565  23.570  27.204  1.00  0.00    -0.014 A 
BRANCH  40  41
ATOM     41  C   UNL A   1      42.998  24.951  27.561  1.00  0.00     0.031 A 
ATOM     42  C   UNL A   1      44.407  25.414  27.293  1.00  0.00     0.074 A 
ATOM     43  C   UNL A   1      42.124  25.807  28.130  1.00  0.00     0.049 A 
ATOM     44  N   UNL A   1      44.951  26.586  27.515  1.00  0.00    -0.248 NA
ATOM     45  C   UNL A   1      45.332  24.427  26.717  1.00  0.00     0.031 C 
ATOM     46  C   UNL A   1      40.740  25.489  28.483  1.00  0.00     0.029 A 
ATOM     47  N   UNL A   1      42.269  27.121  28.507  1.00  0.00    -0.354 N 
ATOM     48  C   UNL A   1      46.276  26.475  27.113  1.00  0.00     0.074 A 
ATOM     49  C   UNL A   1      46.470  25.107  26.682  1.00  0.00     0.031 C 
ATOM     50  C   UNL A   1      40.154  26.584  28.993  1.00  0.00     0.029 A 
ATOM     51  C   UNL A   1      41.126  27.674  29.034  1.00  0.00     0.049 A 
ATOM     52  H   UNL A   1      43.112  27.619  28.408  1.00  0.00     0.167 HD
ATOM     53  C   UNL A   1      47.239  27.427  27.080  1.00  0.00     0.037 A 
ATOM     54  C   UNL A   1      40.885  28.916  29.496  1.00  0.00     0.037 A 
ATOM     55  C   UNL A   1      47.051  28.799  27.474  1.00  0.00     0.049 A 
ATOM     56  C   UNL A   1      41.974  29.954  29.455  1.00  0.00     0.074 A 
ATOM     57  C   UNL A   1      47.954  29.846  27.410  1.00  0.00     0.029 A 
ATOM     58  N   UNL A   1      45.880  29.316  28.007  1.00  0.00    -0.354 N 
ATOM     59  N   UNL A   1      43.200  29.851  29.004  1.00  0.00    -0.248 NA
ATOM     60  C   UNL A   1      41.641  31.286  29.983  1.00  0.00     0.031 C 
ATOM     61  C   UNL A   1      47.346  30.987  27.943  1.00  0.00     0.029 A 
ATOM     62  C   UNL A   1      46.047  30.661  28.299  1.00  0.00     0.049 A 
ATOM     63  H   UNL A   1      45.053  28.804  28.156  1.00  0.00     0.167 HD
ATOM     64  C   UNL A   1      43.774  31.104  29.169  1.00  0.00     0.074 A 
ATOM     65  C   UNL A   1      42.760  31.958  29.748  1.00  0.00     0.031 C 
ATOM     66  C   UNL A   1      45.032  31.508  28.867  1.00  0.00     0.037 A 
BRANCH  53  67
ATOM     67  C   UNL A   1      48.598  27.026  26.584  1.00  0.00     0.064 A 
ATOM     68  C   UNL A   1      49.558  26.474  27.445  1.00  0.00     0.173 A 
ATOM     69  C   UNL A   1      48.924  27.141  25.225  1.00  0.00     0.173 A 
ATOM     70  F   UNL A   1      49.298  26.351  28.756  1.00  0.00    -0.203 F 
ATOM     71  C   UNL A   1      50.803  26.074  26.967  1.00  0.00     0.198 A 
ATOM     72  C   UNL A   1      50.160  26.714  24.745  1.00  0.00     0.198 A 
ATOM     73  F   UNL A   1      48.037  27.654  24.358  1.00  0.00    -0.203 F 
ATOM     74  F   UNL A   1      51.718  25.586  27.815  1.00  0.00    -0.200 F 
ATOM     75  C   UNL A   1      51.099  26.188  25.617  1.00  0.00     0.200 A 
ATOM     76  F   UNL A   1      50.439  26.812  23.438  1.00  0.00    -0.200 F 
ATOM     77  F   UNL A   1      52.294  25.791  25.157  1.00  0.00    -0.200 F 
ENDBRANCH  53  67
BRANCH  54  78
ATOM     78  C   UNL A   1      39.539  29.262  30.022  1.00  0.00     0.064 A 
ATOM     79  C   UNL A   1      38.563  29.825  29.188  1.00  0.00     0.173 A 
ATOM     80  C   UNL A   1      39.208  29.055  31.369  1.00  0.00     0.173 A 
ATOM     81  F   UNL A   1      38.841  30.066  27.899  1.00  0.00    -0.203 F 
ATOM     82  C   UNL A   1      37.312  30.185  29.686  1.00  0.00     0.198 A 
ATOM     83  C   UNL A   1      37.948  29.389  31.859  1.00  0.00     0.198 A 
ATOM     84  F   UNL A   1      40.108  28.518  32.205  1.00  0.00    -0.203 F 
ATOM     85  F   UNL A   1      36.413  30.763  28.879  1.00  0.00    -0.200 F 
ATOM     86  C   UNL A   1      37.004  29.962  31.020  1.00  0.00     0.200 A 
ATOM     87  F   UNL A   1      37.650  29.162  33.145  1.00  0.00    -0.200 F 
ATOM     88  F   UNL A   1      35.801  30.306  31.498  1.00  0.00    -0.200 F 
ENDBRANCH  54  78
BRANCH  66  89
ATOM     89  C   UNL A   1      45.379  32.945  29.128  1.00  0.00     0.064 A 
ATOM     90  C   UNL A   1      45.127  33.946  28.180  1.00  0.00     0.173 A 
ATOM     91  C   UNL A   1      45.930  33.330  30.361  1.00  0.00     0.173 A 
ATOM     92  F   UNL A   1      44.615  33.627  26.982  1.00  0.00    -0.203 F 
ATOM     93  C   UNL A   1      45.433  35.278  28.446  1.00  0.00     0.198 A 
ATOM     94  C   UNL A   1      46.211  34.666  30.633  1.00  0.00     0.198 A 
ATOM     95  F   UNL A   1      46.185  32.413  31.304  1.00  0.00    -0.203 F 
ATOM     96  F   UNL A   1      45.223  36.213  27.509  1.00  0.00    -0.200 F 
ATOM     97  C   UNL A   1      45.968  35.639  29.674  1.00  0.00     0.200 A 
ATOM     98  F   UNL A   1      46.717  35.014  31.825  1.00  0.00    -0.200 F 
ATOM     99  F   UNL A   1      46.257  36.922  29.930  1.00  0.00    -0.200 F 
ENDBRANCH  66  89
ENDBRANCH  40  41
ENDBRANCH  32  35
ENDBRANCH  30  31
ENDBRANCH  29  30
ENDBRANCH   1  29
TORSDOF 15
ENDMDL
MODEL 3
REMARK VINA RESULT:     -12.0      1.088      2.022
REMARK SMILES CC(C)(C)OC(=O)N1CCN(c2ccc([N+](=O)[O-])c(Br)c2)C[C@H]1C(=O)NCCCNC(=O)c1ccc(-c2c3nc(c(-c4c(F)c(F)c(F)c(F)c4F)c4ccc([nH]4)c(-c4c(F)c(F)c(F)c(F)c4F)c4nc(c(-c5c(F)c(F)c(F)c(F)c5F)c5ccc2[nH]5)C=C4)C=C3)cc1
REMARK SMILES IDX 27 1 26 2 24 3 25 4 23 6 8 7 9 8 10 9 22 10 11 11 6 12 7 13
REMARK SMILES IDX 5 14 2 15 1 16 3 17 4 18 12 19 13 20 21 21 14 22 19 23 15 24
REMARK SMILES IDX 20 25 16 26 17 27 18 28 28 29 29 30 30 31 31 32 32 34 33 35
REMARK SMILES IDX 34 36 95 37 35 38 94 39 36 40 37 41 38 42 88 43 39 44 93 45
REMARK SMILES IDX 87 46 89 47 40 48 92 49 86 50 85 51 41 53 73 54 53 55 72 56
REMARK SMILES IDX 54 57 57 58 71 59 90 60 55 61 56 62 70 64 91 65 58 66 42 67
REMARK SMILES IDX 43 68 51 69 44 70 45 71 49 72 52 73 46 74 47 75 50 76 48 77
REMARK SMILES IDX 74 78 75 79 83 80 76 81 77 82 81 83 84 84 78 85 79 86 82 87
REMARK SMILES IDX 80 88 59 89 60 90 68 91 61 92 62 93 66 94 69 95 63 96 64 97
REMARK SMILES IDX 67 98 65 99
REMARK H PARENT 26 5 30 33 89 52 57 63
REMARK Flexibility Score: inf
ROOT
ATOM      1  C   UNL A   1      31.762  29.998  26.144  1.00  0.00     0.117 C 
ENDROOT
BRANCH   1   2
ATOM      2  N   UNL A   1      32.254  29.884  24.782  1.00  0.00    -0.354 N 
ATOM      3  C   UNL A   1      32.318  28.832  23.922  1.00  0.00     0.244 C 
ATOM      4  O   UNL A   1      32.729  29.080  22.782  1.00  0.00    -0.273 OA
ATOM      5  H   UNL A   1      32.606  30.726  24.411  1.00  0.00     0.163 HD
BRANCH   3   6
ATOM      6  C   UNL A   1      31.744  27.443  24.246  1.00  0.00     0.197 C 
ATOM      7  N   UNL A   1      30.530  27.001  23.524  1.00  0.00    -0.293 N 
ATOM      8  C   UNL A   1      30.251  25.567  23.610  1.00  0.00     0.145 C 
ATOM      9  C   UNL A   1      31.450  24.692  23.264  1.00  0.00     0.138 C 
ATOM     10  C   UNL A   1      32.957  26.460  24.151  1.00  0.00     0.152 C 
ATOM     11  N   UNL A   1      32.570  25.033  24.147  1.00  0.00    -0.367 N 
BRANCH   7  12
ATOM     12  C   UNL A   1      29.377  27.782  23.594  1.00  0.00     0.411 C 
ATOM     13  O   UNL A   1      28.258  27.330  23.359  1.00  0.00    -0.224 OA
BRANCH  12  14
ATOM     14  O   UNL A   1      29.633  29.095  23.819  1.00  0.00    -0.444 OA
BRANCH  14  15
ATOM     15  C   UNL A   1      28.968  30.102  22.999  1.00  0.00     0.106 C 
ATOM     16  C   UNL A   1      27.491  29.691  22.941  1.00  0.00     0.056 C 
ATOM     17  C   UNL A   1      29.532  30.081  21.578  1.00  0.00     0.056 C 
ATOM     18  C   UNL A   1      29.018  31.508  23.624  1.00  0.00     0.056 C 
ENDBRANCH  14  15
ENDBRANCH  12  14
ENDBRANCH   7  12
BRANCH  11  19
ATOM     19  C   UNL A   1      33.566  24.091  24.378  1.00  0.00     0.038 A 
ATOM     20  C   UNL A   1      34.885  24.503  24.594  1.00  0.00     0.033 A 
ATOM     21  C   UNL A   1      33.305  22.713  24.447  1.00  0.00     0.048 A 
ATOM     22  C   UNL A   1      35.899  23.584  24.885  1.00  0.00     0.089 A 
ATOM     23  C   UNL A   1      34.308  21.767  24.738  1.00  0.00     0.097 A 
ATOM     24  C   UNL A   1      35.615  22.209  24.960  1.00  0.00     0.283 A 
ATOM     25  Br  UNL A   1      33.701  19.966  24.834  1.00  0.00    -0.043 Br
BRANCH  24  26
ATOM     26  N   UNL A   1      36.732  21.315  25.290  1.00  0.00     0.063 N 
ATOM     27  O   UNL A   1      37.759  21.840  25.747  1.00  0.00    -0.258 OA
ATOM     28  O   UNL A   1      36.620  20.105  25.068  1.00  0.00    -0.258 OA
ENDBRANCH  24  26
ENDBRANCH  11  19
ENDBRANCH   3   6
ENDBRANCH   1   2
BRANCH   1  29
ATOM     29  C   UNL A   1      31.438  31.434  26.548  1.00  0.00     0.042 C 
BRANCH  29  30
ATOM     30  C   UNL A   1      32.649  32.363  26.633  1.00  0.00     0.118 C 
BRANCH  30  31
ATOM     31  N   UNL A   1      32.385  33.621  27.302  1.00  0.00    -0.352 N 
ATOM     32  C   UNL A   1      33.058  34.237  28.331  1.00  0.00     0.251 C 
ATOM     33  H   UNL A   1      31.601  34.113  26.967  1.00  0.00     0.163 HD
ATOM     34  O   UNL A   1      32.595  35.270  28.808  1.00  0.00    -0.269 OA
BRANCH  32  35
ATOM     35  C   UNL A   1      34.306  33.671  28.914  1.00  0.00     0.039 A 
ATOM     36  C   UNL A   1      34.182  32.567  29.766  1.00  0.00     0.014 A 
ATOM     37  C   UNL A   1      35.571  34.228  28.708  1.00  0.00     0.014 A 
ATOM     38  C   UNL A   1      35.314  32.002  30.363  1.00  0.00     0.010 A 
ATOM     39  C   UNL A   1      36.712  33.613  29.241  1.00  0.00     0.010 A 
ATOM     40  C   UNL A   1      36.597  32.500  30.088  1.00  0.00    -0.014 A 
BRANCH  40  41
ATOM     41  C   UNL A   1      37.799  31.876  30.710  1.00  0.00     0.031 A 
ATOM     42  C   UNL A   1      38.239  32.262  32.099  1.00  0.00     0.074 A 
ATOM     43  C   UNL A   1      38.509  30.952  30.031  1.00  0.00     0.049 A 
ATOM     44  N   UNL A   1      39.245  31.806  32.807  1.00  0.00    -0.248 NA
ATOM     45  C   UNL A   1      37.461  33.310  32.776  1.00  0.00     0.031 C 
ATOM     46  C   UNL A   1      38.226  30.506  28.666  1.00  0.00     0.029 A 
ATOM     47  N   UNL A   1      39.611  30.217  30.398  1.00  0.00    -0.354 N 
ATOM     48  C   UNL A   1      39.222  32.513  34.003  1.00  0.00     0.074 A 
ATOM     49  C   UNL A   1      38.136  33.465  33.906  1.00  0.00     0.031 C 
ATOM     50  C   UNL A   1      39.107  29.553  28.323  1.00  0.00     0.029 A 
ATOM     51  C   UNL A   1      40.038  29.341  29.429  1.00  0.00     0.049 A 
ATOM     52  H   UNL A   1      40.052  30.309  31.273  1.00  0.00     0.167 HD
ATOM     53  C   UNL A   1      40.013  32.368  35.093  1.00  0.00     0.037 A 
ATOM     54  C   UNL A   1      41.061  28.464  29.429  1.00  0.00     0.037 A 
ATOM     55  C   UNL A   1      41.074  31.403  35.215  1.00  0.00     0.049 A 
ATOM     56  C   UNL A   1      41.931  28.328  30.649  1.00  0.00     0.074 A 
ATOM     57  C   UNL A   1      41.882  31.144  36.309  1.00  0.00     0.029 A 
ATOM     58  N   UNL A   1      41.478  30.540  34.208  1.00  0.00    -0.354 N 
ATOM     59  N   UNL A   1      41.849  28.953  31.798  1.00  0.00    -0.248 NA
ATOM     60  C   UNL A   1      43.033  27.357  30.574  1.00  0.00     0.031 C 
ATOM     61  C   UNL A   1      42.803  30.153  35.952  1.00  0.00     0.029 A 
ATOM     62  C   UNL A   1      42.540  29.764  34.649  1.00  0.00     0.049 A 
ATOM     63  H   UNL A   1      41.072  30.485  33.314  1.00  0.00     0.167 HD
ATOM     64  C   UNL A   1      42.866  28.434  32.588  1.00  0.00     0.074 A 
ATOM     65  C   UNL A   1      43.546  27.433  31.794  1.00  0.00     0.031 C 
ATOM     66  C   UNL A   1      43.206  28.763  33.858  1.00  0.00     0.037 A 
BRANCH  53  67
ATOM     67  C   UNL A   1      39.756  33.271  36.264  1.00  0.00     0.064 A 
ATOM     68  C   UNL A   1      40.454  34.477  36.427  1.00  0.00     0.173 A 
ATOM     69  C   UNL A   1      38.761  32.956  37.202  1.00  0.00     0.173 A 
ATOM     70  F   UNL A   1      41.420  34.819  35.561  1.00  0.00    -0.203 F 
ATOM     71  C   UNL A   1      40.182  35.322  37.499  1.00  0.00     0.198 A 
ATOM     72  C   UNL A   1      38.474  33.818  38.258  1.00  0.00     0.198 A 
ATOM     73  F   UNL A   1      38.059  31.819  37.087  1.00  0.00    -0.203 F 
ATOM     74  F   UNL A   1      40.889  36.450  37.656  1.00  0.00    -0.200 F 
ATOM     75  C   UNL A   1      39.188  34.996  38.409  1.00  0.00     0.200 A 
ATOM     76  F   UNL A   1      37.503  33.507  39.129  1.00  0.00    -0.200 F 
ATOM     77  F   UNL A   1      38.920  35.817  39.434  1.00  0.00    -0.200 F 
ENDBRANCH  53  67
BRANCH  54  78
ATOM     78  C   UNL A   1      41.312  27.620  28.231  1.00  0.00     0.064 A 
ATOM     79  C   UNL A   1      42.187  28.044  27.222  1.00  0.00     0.173 A 
ATOM     80  C   UNL A   1      40.669  26.385  28.063  1.00  0.00     0.173 A 
ATOM     81  F   UNL A   1      42.806  29.230  27.326  1.00  0.00    -0.203 F 
ATOM     82  C   UNL A   1      42.397  27.274  26.080  1.00  0.00     0.198 A 
ATOM     83  C   UNL A   1      40.901  25.602  26.934  1.00  0.00     0.198 A 
ATOM     84  F   UNL A   1      39.824  25.936  29.001  1.00  0.00    -0.203 F 
ATOM     85  F   UNL A   1      43.204  27.723  25.110  1.00  0.00    -0.200 F 
ATOM     86  C   UNL A   1      41.757  26.051  25.940  1.00  0.00     0.200 A 
ATOM     87  F   UNL A   1      40.290  24.417  26.807  1.00  0.00    -0.200 F 
ATOM     88  F   UNL A   1      41.960  25.309  24.843  1.00  0.00    -0.200 F 
ENDBRANCH  54  78
BRANCH  66  89
ATOM     89  C   UNL A   1      44.346  28.014  34.485  1.00  0.00     0.064 A 
ATOM     90  C   UNL A   1      45.660  28.502  34.438  1.00  0.00     0.173 A 
ATOM     91  C   UNL A   1      44.114  26.816  35.179  1.00  0.00     0.173 A 
ATOM     92  F   UNL A   1      45.936  29.634  33.775  1.00  0.00    -0.203 F 
ATOM     93  C   UNL A   1      46.703  27.807  35.044  1.00  0.00     0.198 A 
ATOM     94  C   UNL A   1      45.155  26.137  35.805  1.00  0.00     0.198 A 
ATOM     95  F   UNL A   1      42.874  26.310  35.259  1.00  0.00    -0.203 F 
ATOM     96  F   UNL A   1      47.957  28.270  34.950  1.00  0.00    -0.200 F 
ATOM     97  C   UNL A   1      46.450  26.630  35.733  1.00  0.00     0.200 A 
ATOM     98  F   UNL A   1      44.907  25.007  36.481  1.00  0.00    -0.200 F 
ATOM     99  F   UNL A   1      47.455  25.966  36.320  1.00  0.00    -0.200 F 
ENDBRANCH  66  89
ENDBRANCH  40  41
ENDBRANCH  32  35
ENDBRANCH  30  31
ENDBRANCH  29  30
ENDBRANCH   1  29
TORSDOF 15
ENDMDL
