MODEL 1
REMARK VINA RESULT:     -13.8      0.000      0.000
REMARK SMILES COc1ccc(Cl)cc1Nc1ncnc2sc(C(=O)NCCCNC(=O)c3ccc(-c4c5nc(c(-c6c(F)c(F)c(F)c(F)c6F)c6ccc([nH]6)c(-c6c(F)c(F)c(F)c(F)c6F)c6nc(c(-c7c(F)c(F)c(F)c(F)c7F)c7ccc4[nH]7)C=C6)C=C5)cc3)c(C)c12
REMARK SMILES IDX 21 1 20 2 18 3 19 4 17 6 11 7 12 8 92 9 13 10 15 11 90 12
REMARK SMILES IDX 14 13 16 14 91 15 10 16 9 18 3 19 4 20 5 21 8 22 6 23 7 24
REMARK SMILES IDX 2 25 1 26 22 27 23 28 24 29 25 30 26 32 27 33 28 34 89 35
REMARK SMILES IDX 29 36 88 37 30 38 31 39 32 40 82 41 33 42 87 43 81 44 83 45
REMARK SMILES IDX 34 46 86 47 80 48 79 49 35 51 67 52 47 53 66 54 48 55 51 56
REMARK SMILES IDX 65 57 84 58 49 59 50 60 64 62 85 63 52 64 36 65 37 66 45 67
REMARK SMILES IDX 38 68 39 69 43 70 46 71 40 72 41 73 44 74 42 75 68 76 69 77
REMARK SMILES IDX 77 78 70 79 71 80 75 81 78 82 72 83 73 84 76 85 74 86 53 87
REMARK SMILES IDX 54 88 62 89 55 90 56 91 60 92 63 93 57 94 58 95 61 96 59 97
REMARK H PARENT 20 5 10 17 24 31 83 50 51 61
REMARK Flexibility Score: inf
ROOT
ATOM      1  C   UNL A   1      36.926  22.016  25.562  1.00  0.00     0.118 C 
ENDROOT
BRANCH   1   2
ATOM      2  N   UNL A   1      36.651  22.443  24.196  1.00  0.00    -0.351 N 
ATOM      3  C   UNL A   1      35.513  22.906  23.568  1.00  0.00     0.261 C 
ATOM      4  O   UNL A   1      35.689  23.237  22.392  1.00  0.00    -0.268 OA
ATOM      5  H   UNL A   1      37.434  22.391  23.602  1.00  0.00     0.163 HD
BRANCH   3   6
ATOM      6  C   UNL A   1      34.217  23.041  24.239  1.00  0.00     0.098 A 
ATOM      7  C   UNL A   1      31.590  24.593  26.428  1.00  0.00     0.142 A 
ATOM      8  N   UNL A   1      30.567  23.939  27.034  1.00  0.00    -0.219 NA
ATOM      9  C   UNL A   1      32.428  23.869  25.553  1.00  0.00     0.058 A 
ATOM     10  C   UNL A   1      30.348  22.652  26.750  1.00  0.00     0.225 A 
ATOM     11  C   UNL A   1      32.066  22.552  25.352  1.00  0.00     0.129 A 
ATOM     12  C   UNL A   1      33.676  24.180  24.853  1.00  0.00    -0.014 A 
ATOM     13  N   UNL A   1      31.037  21.893  25.904  1.00  0.00    -0.225 NA
ATOM     14  S   UNL A   1      33.072  21.771  24.258  1.00  0.00    -0.110 S 
ATOM     15  C   UNL A   1      34.310  25.541  24.899  1.00  0.00     0.047 C 
BRANCH   7  16
ATOM     16  N   UNL A   1      31.813  25.930  26.744  1.00  0.00    -0.337 N 
ATOM     17  H   UNL A   1      32.199  26.099  27.634  1.00  0.00     0.168 HD
BRANCH  16  18
ATOM     18  C   UNL A   1      31.561  27.070  25.961  1.00  0.00     0.084 A 
ATOM     19  C   UNL A   1      32.145  28.301  26.318  1.00  0.00     0.142 A 
ATOM     20  C   UNL A   1      31.915  29.443  25.544  1.00  0.00     0.050 A 
ATOM     21  C   UNL A   1      31.067  29.377  24.437  1.00  0.00     0.024 A 
ATOM     22  C   UNL A   1      30.720  27.023  24.840  1.00  0.00     0.050 A 
ATOM     23  C   UNL A   1      30.467  28.170  24.096  1.00  0.00     0.043 A 
ATOM     24  Cl  UNL A   1      29.400  28.090  22.748  1.00  0.00    -0.084 Cl
BRANCH  19  25
ATOM     25  O   UNL A   1      32.973  28.294  27.416  1.00  0.00    -0.495 OA
ATOM     26  C   UNL A   1      34.281  28.799  27.160  1.00  0.00     0.278 C 
ENDBRANCH  19  25
ENDBRANCH  16  18
ENDBRANCH   7  16
ENDBRANCH   3   6
ENDBRANCH   1   2
BRANCH   1  27
ATOM     27  C   UNL A   1      38.325  21.398  25.709  1.00  0.00     0.042 C 
BRANCH  27  28
ATOM     28  C   UNL A   1      39.248  22.284  26.519  1.00  0.00     0.118 C 
BRANCH  28  29
ATOM     29  N   UNL A   1      40.659  22.123  26.148  1.00  0.00    -0.352 N 
ATOM     30  C   UNL A   1      41.660  23.082  26.136  1.00  0.00     0.251 C 
ATOM     31  H   UNL A   1      40.929  21.217  25.874  1.00  0.00     0.163 HD
ATOM     32  O   UNL A   1      42.695  22.917  25.519  1.00  0.00    -0.269 OA
BRANCH  30  33
ATOM     33  C   UNL A   1      41.432  24.315  26.908  1.00  0.00     0.039 A 
ATOM     34  C   UNL A   1      41.987  24.524  28.171  1.00  0.00     0.014 A 
ATOM     35  C   UNL A   1      40.689  25.307  26.281  1.00  0.00     0.014 A 
ATOM     36  C   UNL A   1      41.833  25.777  28.757  1.00  0.00     0.010 A 
ATOM     37  C   UNL A   1      40.780  26.590  26.724  1.00  0.00     0.010 A 
ATOM     38  C   UNL A   1      41.238  26.809  28.010  1.00  0.00    -0.014 A 
BRANCH  38  39
ATOM     39  C   UNL A   1      41.108  28.161  28.516  1.00  0.00     0.031 A 
ATOM     40  C   UNL A   1      42.147  29.099  28.033  1.00  0.00     0.074 A 
ATOM     41  C   UNL A   1      40.031  28.574  29.220  1.00  0.00     0.049 A 
ATOM     42  N   UNL A   1      43.110  29.605  28.724  1.00  0.00    -0.248 NA
ATOM     43  C   UNL A   1      42.217  29.394  26.595  1.00  0.00     0.031 C 
ATOM     44  C   UNL A   1      38.784  27.862  29.533  1.00  0.00     0.029 A 
ATOM     45  N   UNL A   1      39.812  29.797  29.766  1.00  0.00    -0.354 N 
ATOM     46  C   UNL A   1      43.813  30.432  27.858  1.00  0.00     0.074 A 
ATOM     47  C   UNL A   1      43.326  30.136  26.534  1.00  0.00     0.031 C 
ATOM     48  C   UNL A   1      37.869  28.730  30.023  1.00  0.00     0.029 A 
ATOM     49  C   UNL A   1      38.520  30.008  30.233  1.00  0.00     0.049 A 
ATOM     50  H   UNL A   1      40.515  30.484  29.828  1.00  0.00     0.167 HD
ATOM     51  C   UNL A   1      44.580  31.446  28.343  1.00  0.00     0.037 A 
ATOM     52  C   UNL A   1      38.038  31.160  30.760  1.00  0.00     0.037 A 
ATOM     53  C   UNL A   1      44.834  31.273  29.753  1.00  0.00     0.049 A 
ATOM     54  C   UNL A   1      39.213  31.943  31.222  1.00  0.00     0.074 A 
ATOM     55  C   UNL A   1      45.475  30.305  30.505  1.00  0.00     0.029 A 
ATOM     56  N   UNL A   1      44.034  31.954  30.640  1.00  0.00    -0.354 N 
ATOM     57  N   UNL A   1      39.974  31.576  32.215  1.00  0.00    -0.248 NA
ATOM     58  C   UNL A   1      39.821  32.860  30.271  1.00  0.00     0.031 C 
ATOM     59  C   UNL A   1      44.660  30.137  31.666  1.00  0.00     0.029 A 
ATOM     60  C   UNL A   1      43.618  31.060  31.596  1.00  0.00     0.049 A 
ATOM     61  H   UNL A   1      43.802  32.910  30.597  1.00  0.00     0.167 HD
ATOM     62  C   UNL A   1      41.265  31.853  31.790  1.00  0.00     0.074 A 
ATOM     63  C   UNL A   1      41.103  32.710  30.616  1.00  0.00     0.031 C 
ATOM     64  C   UNL A   1      42.329  31.128  32.248  1.00  0.00     0.037 A 
BRANCH  51  65
ATOM     65  C   UNL A   1      44.806  32.757  27.636  1.00  0.00     0.064 A 
ATOM     66  C   UNL A   1      45.998  32.951  26.911  1.00  0.00     0.173 A 
ATOM     67  C   UNL A   1      44.041  33.920  27.872  1.00  0.00     0.173 A 
ATOM     68  F   UNL A   1      46.813  31.919  26.646  1.00  0.00    -0.203 F 
ATOM     69  C   UNL A   1      46.424  34.223  26.517  1.00  0.00     0.198 A 
ATOM     70  C   UNL A   1      44.443  35.179  27.432  1.00  0.00     0.198 A 
ATOM     71  F   UNL A   1      42.941  33.908  28.633  1.00  0.00    -0.203 F 
ATOM     72  F   UNL A   1      47.622  34.373  25.937  1.00  0.00    -0.200 F 
ATOM     73  C   UNL A   1      45.648  35.336  26.781  1.00  0.00     0.200 A 
ATOM     74  F   UNL A   1      43.686  36.248  27.718  1.00  0.00    -0.200 F 
ATOM     75  F   UNL A   1      46.081  36.561  26.458  1.00  0.00    -0.200 F 
ENDBRANCH  51  65
BRANCH  52  76
ATOM     76  C   UNL A   1      36.702  31.774  30.577  1.00  0.00     0.064 A 
ATOM     77  C   UNL A   1      35.856  31.990  31.676  1.00  0.00     0.173 A 
ATOM     78  C   UNL A   1      36.369  32.446  29.385  1.00  0.00     0.173 A 
ATOM     79  F   UNL A   1      36.124  31.416  32.857  1.00  0.00    -0.203 F 
ATOM     80  C   UNL A   1      34.767  32.867  31.602  1.00  0.00     0.198 A 
ATOM     81  C   UNL A   1      35.281  33.319  29.312  1.00  0.00     0.198 A 
ATOM     82  F   UNL A   1      37.152  32.350  28.301  1.00  0.00    -0.203 F 
ATOM     83  F   UNL A   1      34.026  33.106  32.693  1.00  0.00    -0.200 F 
ATOM     84  C   UNL A   1      34.492  33.543  30.425  1.00  0.00     0.200 A 
ATOM     85  F   UNL A   1      35.047  33.997  28.180  1.00  0.00    -0.200 F 
ATOM     86  F   UNL A   1      33.497  34.440  30.376  1.00  0.00    -0.200 F 
ENDBRANCH  52  76
BRANCH  64  87
ATOM     87  C   UNL A   1      42.078  30.175  33.390  1.00  0.00     0.064 A 
ATOM     88  C   UNL A   1      41.715  28.824  33.231  1.00  0.00     0.173 A 
ATOM     89  C   UNL A   1      42.322  30.616  34.696  1.00  0.00     0.173 A 
ATOM     90  F   UNL A   1      41.562  28.289  32.016  1.00  0.00    -0.203 F 
ATOM     91  C   UNL A   1      41.550  27.978  34.328  1.00  0.00     0.198 A 
ATOM     92  C   UNL A   1      42.192  29.760  35.788  1.00  0.00     0.198 A 
ATOM     93  F   UNL A   1      42.727  31.877  34.913  1.00  0.00    -0.203 F 
ATOM     94  F   UNL A   1      41.183  26.700  34.143  1.00  0.00    -0.200 F 
ATOM     95  C   UNL A   1      41.793  28.446  35.605  1.00  0.00     0.200 A 
ATOM     96  F   UNL A   1      42.477  30.206  37.019  1.00  0.00    -0.200 F 
ATOM     97  F   UNL A   1      41.666  27.628  36.660  1.00  0.00    -0.200 F 
ENDBRANCH  64  87
ENDBRANCH  38  39
ENDBRANCH  30  33
ENDBRANCH  28  29
ENDBRANCH  27  28
ENDBRANCH   1  27
TORSDOF 13
ENDMDL
MODEL 2
REMARK VINA RESULT:     -13.7      1.456      1.876
REMARK SMILES COc1ccc(Cl)cc1Nc1ncnc2sc(C(=O)NCCCNC(=O)c3ccc(-c4c5nc(c(-c6c(F)c(F)c(F)c(F)c6F)c6ccc([nH]6)c(-c6c(F)c(F)c(F)c(F)c6F)c6nc(c(-c7c(F)c(F)c(F)c(F)c7F)c7ccc4[nH]7)C=C6)C=C5)cc3)c(C)c12
REMARK SMILES IDX 21 1 20 2 18 3 19 4 17 6 11 7 12 8 92 9 13 10 15 11 90 12
REMARK SMILES IDX 14 13 16 14 91 15 10 16 9 18 3 19 4 20 5 21 8 22 6 23 7 24
REMARK SMILES IDX 2 25 1 26 22 27 23 28 24 29 25 30 26 32 27 33 28 34 89 35
REMARK SMILES IDX 29 36 88 37 30 38 31 39 32 40 82 41 33 42 87 43 81 44 83 45
REMARK SMILES IDX 34 46 86 47 80 48 79 49 35 51 67 52 47 53 66 54 48 55 51 56
REMARK SMILES IDX 65 57 84 58 49 59 50 60 64 62 85 63 52 64 36 65 37 66 45 67
REMARK SMILES IDX 38 68 39 69 43 70 46 71 40 72 41 73 44 74 42 75 68 76 69 77
REMARK SMILES IDX 77 78 70 79 71 80 75 81 78 82 72 83 73 84 76 85 74 86 53 87
REMARK SMILES IDX 54 88 62 89 55 90 56 91 60 92 63 93 57 94 58 95 61 96 59 97
REMARK H PARENT 20 5 10 17 24 31 83 50 51 61
REMARK Flexibility Score: inf
ROOT
ATOM      1  C   UNL A   1      37.345  22.517  25.747  1.00  0.00     0.118 C 
ENDROOT
BRANCH   1   2
ATOM      2  N   UNL A   1      36.157  21.715  26.009  1.00  0.00    -0.351 N 
ATOM      3  C   UNL A   1      34.847  21.811  25.587  1.00  0.00     0.261 C 
ATOM      4  O   UNL A   1      34.125  20.889  25.977  1.00  0.00    -0.268 OA
ATOM      5  H   UNL A   1      36.322  20.951  26.607  1.00  0.00     0.163 HD
BRANCH   3   6
ATOM      6  C   UNL A   1      34.354  22.883  24.716  1.00  0.00     0.098 A 
ATOM      7  C   UNL A   1      32.314  25.870  23.707  1.00  0.00     0.142 A 
ATOM      8  N   UNL A   1      31.990  26.224  22.438  1.00  0.00    -0.219 NA
ATOM      9  C   UNL A   1      33.179  24.771  23.901  1.00  0.00     0.058 A 
ATOM     10  C   UNL A   1      32.535  25.564  21.411  1.00  0.00     0.225 A 
ATOM     11  C   UNL A   1      33.668  24.201  22.742  1.00  0.00     0.129 A 
ATOM     12  C   UNL A   1      33.625  24.024  25.078  1.00  0.00    -0.014 A 
ATOM     13  N   UNL A   1      33.399  24.557  21.478  1.00  0.00    -0.225 NA
ATOM     14  S   UNL A   1      34.733  22.939  23.050  1.00  0.00    -0.110 S 
ATOM     15  C   UNL A   1      33.240  24.417  26.476  1.00  0.00     0.047 C 
BRANCH   7  16
ATOM     16  N   UNL A   1      31.729  26.557  24.766  1.00  0.00    -0.337 N 
ATOM     17  H   UNL A   1      30.949  26.121  25.179  1.00  0.00     0.168 HD
BRANCH  16  18
ATOM     18  C   UNL A   1      32.105  27.792  25.324  1.00  0.00     0.084 A 
ATOM     19  C   UNL A   1      31.362  28.949  25.015  1.00  0.00     0.142 A 
ATOM     20  C   UNL A   1      31.713  30.183  25.570  1.00  0.00     0.050 A 
ATOM     21  C   UNL A   1      32.832  30.283  26.400  1.00  0.00     0.024 A 
ATOM     22  C   UNL A   1      33.218  27.912  26.167  1.00  0.00     0.050 A 
ATOM     23  C   UNL A   1      33.584  29.149  26.687  1.00  0.00     0.043 A 
ATOM     24  Cl  UNL A   1      34.979  29.272  27.687  1.00  0.00    -0.084 Cl
BRANCH  19  25
ATOM     25  O   UNL A   1      30.270  28.778  24.197  1.00  0.00    -0.495 OA
ATOM     26  C   UNL A   1      30.408  29.379  22.912  1.00  0.00     0.278 C 
ENDBRANCH  19  25
ENDBRANCH  16  18
ENDBRANCH   7  16
ENDBRANCH   3   6
ENDBRANCH   1   2
BRANCH   1  27
ATOM     27  C   UNL A   1      38.626  21.669  25.719  1.00  0.00     0.042 C 
BRANCH  27  28
ATOM     28  C   UNL A   1      39.643  22.154  26.731  1.00  0.00     0.118 C 
BRANCH  28  29
ATOM     29  N   UNL A   1      41.018  22.112  26.219  1.00  0.00    -0.352 N 
ATOM     30  C   UNL A   1      41.920  23.157  26.093  1.00  0.00     0.251 C 
ATOM     31  H   UNL A   1      41.340  21.229  25.928  1.00  0.00     0.163 HD
ATOM     32  O   UNL A   1      42.898  23.073  25.374  1.00  0.00    -0.269 OA
BRANCH  30  33
ATOM     33  C   UNL A   1      41.660  24.380  26.871  1.00  0.00     0.039 A 
ATOM     34  C   UNL A   1      42.247  24.618  28.114  1.00  0.00     0.014 A 
ATOM     35  C   UNL A   1      40.851  25.334  26.268  1.00  0.00     0.014 A 
ATOM     36  C   UNL A   1      42.053  25.865  28.704  1.00  0.00     0.010 A 
ATOM     37  C   UNL A   1      40.896  26.621  26.706  1.00  0.00     0.010 A 
ATOM     38  C   UNL A   1      41.386  26.865  27.976  1.00  0.00    -0.014 A 
BRANCH  38  39
ATOM     39  C   UNL A   1      41.210  28.211  28.484  1.00  0.00     0.031 A 
ATOM     40  C   UNL A   1      42.229  29.180  28.021  1.00  0.00     0.074 A 
ATOM     41  C   UNL A   1      40.110  28.591  29.172  1.00  0.00     0.049 A 
ATOM     42  N   UNL A   1      43.166  29.710  28.730  1.00  0.00    -0.248 NA
ATOM     43  C   UNL A   1      42.314  29.483  26.586  1.00  0.00     0.031 C 
ATOM     44  C   UNL A   1      38.879  27.842  29.462  1.00  0.00     0.029 A 
ATOM     45  N   UNL A   1      39.847  29.805  29.718  1.00  0.00    -0.354 N 
ATOM     46  C   UNL A   1      43.859  30.560  27.878  1.00  0.00     0.074 A 
ATOM     47  C   UNL A   1      43.403  30.255  26.545  1.00  0.00     0.031 C 
ATOM     48  C   UNL A   1      37.932  28.682  29.940  1.00  0.00     0.029 A 
ATOM     49  C   UNL A   1      38.543  29.977  30.165  1.00  0.00     0.049 A 
ATOM     50  H   UNL A   1      40.529  30.511  29.794  1.00  0.00     0.167 HD
ATOM     51  C   UNL A   1      44.589  31.594  28.379  1.00  0.00     0.037 A 
ATOM     52  C   UNL A   1      38.019  31.113  30.688  1.00  0.00     0.037 A 
ATOM     53  C   UNL A   1      44.825  31.422  29.793  1.00  0.00     0.049 A 
ATOM     54  C   UNL A   1      39.164  31.927  31.171  1.00  0.00     0.074 A 
ATOM     55  C   UNL A   1      45.481  30.470  30.551  1.00  0.00     0.029 A 
ATOM     56  N   UNL A   1      43.991  32.077  30.669  1.00  0.00    -0.354 N 
ATOM     57  N   UNL A   1      39.919  31.578  32.176  1.00  0.00    -0.248 NA
ATOM     58  C   UNL A   1      39.761  32.865  30.234  1.00  0.00     0.031 C 
ATOM     59  C   UNL A   1      44.652  30.275  31.698  1.00  0.00     0.029 A 
ATOM     60  C   UNL A   1      43.585  31.168  31.615  1.00  0.00     0.049 A 
ATOM     61  H   UNL A   1      43.733  33.026  30.625  1.00  0.00     0.167 HD
ATOM     62  C   UNL A   1      41.208  31.893  31.773  1.00  0.00     0.074 A 
ATOM     63  C   UNL A   1      41.041  32.750  30.599  1.00  0.00     0.031 C 
ATOM     64  C   UNL A   1      42.285  31.197  32.246  1.00  0.00     0.037 A 
BRANCH  51  65
ATOM     65  C   UNL A   1      44.789  32.914  27.680  1.00  0.00     0.064 A 
ATOM     66  C   UNL A   1      45.957  33.119  26.920  1.00  0.00     0.173 A 
ATOM     67  C   UNL A   1      44.029  34.071  27.954  1.00  0.00     0.173 A 
ATOM     68  F   UNL A   1      46.766  32.093  26.618  1.00  0.00    -0.203 F 
ATOM     69  C   UNL A   1      46.367  34.397  26.528  1.00  0.00     0.198 A 
ATOM     70  C   UNL A   1      44.413  35.337  27.515  1.00  0.00     0.198 A 
ATOM     71  F   UNL A   1      42.953  34.047  28.749  1.00  0.00    -0.203 F 
ATOM     72  F   UNL A   1      47.546  34.557  25.912  1.00  0.00    -0.200 F 
ATOM     73  C   UNL A   1      45.597  35.504  26.829  1.00  0.00     0.200 A 
ATOM     74  F   UNL A   1      43.663  36.400  27.837  1.00  0.00    -0.200 F 
ATOM     75  F   UNL A   1      46.016  36.735  26.507  1.00  0.00    -0.200 F 
ENDBRANCH  51  65
BRANCH  52  76
ATOM     76  C   UNL A   1      36.670  31.689  30.485  1.00  0.00     0.064 A 
ATOM     77  C   UNL A   1      35.862  32.027  31.583  1.00  0.00     0.173 A 
ATOM     78  C   UNL A   1      36.284  32.213  29.236  1.00  0.00     0.173 A 
ATOM     79  F   UNL A   1      36.182  31.598  32.812  1.00  0.00    -0.203 F 
ATOM     80  C   UNL A   1      34.760  32.879  31.447  1.00  0.00     0.198 A 
ATOM     81  C   UNL A   1      35.183  33.062  29.102  1.00  0.00     0.198 A 
ATOM     82  F   UNL A   1      37.027  31.996  28.141  1.00  0.00    -0.203 F 
ATOM     83  F   UNL A   1      34.057  33.240  32.531  1.00  0.00    -0.200 F 
ATOM     84  C   UNL A   1      34.433  33.409  30.211  1.00  0.00     0.200 A 
ATOM     85  F   UNL A   1      34.898  33.599  27.908  1.00  0.00    -0.200 F 
ATOM     86  F   UNL A   1      33.425  34.286  30.095  1.00  0.00    -0.200 F 
ENDBRANCH  52  76
BRANCH  64  87
ATOM     87  C   UNL A   1      42.043  30.232  33.380  1.00  0.00     0.064 A 
ATOM     88  C   UNL A   1      41.735  28.869  33.211  1.00  0.00     0.173 A 
ATOM     89  C   UNL A   1      42.239  30.680  34.692  1.00  0.00     0.173 A 
ATOM     90  F   UNL A   1      41.632  28.331  31.991  1.00  0.00    -0.203 F 
ATOM     91  C   UNL A   1      41.576  28.015  34.302  1.00  0.00     0.198 A 
ATOM     92  C   UNL A   1      42.114  29.818  35.779  1.00  0.00     0.198 A 
ATOM     93  F   UNL A   1      42.590  31.955  34.920  1.00  0.00    -0.203 F 
ATOM     94  F   UNL A   1      41.261  26.725  34.107  1.00  0.00    -0.200 F 
ATOM     95  C   UNL A   1      41.770  28.490  35.586  1.00  0.00     0.200 A 
ATOM     96  F   UNL A   1      42.352  30.271  37.018  1.00  0.00    -0.200 F 
ATOM     97  F   UNL A   1      41.648  27.665  36.636  1.00  0.00    -0.200 F 
ENDBRANCH  64  87
ENDBRANCH  38  39
ENDBRANCH  30  33
ENDBRANCH  28  29
ENDBRANCH  27  28
ENDBRANCH   1  27
TORSDOF 13
ENDMDL
MODEL 3
REMARK VINA RESULT:     -13.6      3.425      9.015
REMARK SMILES COc1ccc(Cl)cc1Nc1ncnc2sc(C(=O)NCCCNC(=O)c3ccc(-c4c5nc(c(-c6c(F)c(F)c(F)c(F)c6F)c6ccc([nH]6)c(-c6c(F)c(F)c(F)c(F)c6F)c6nc(c(-c7c(F)c(F)c(F)c(F)c7F)c7ccc4[nH]7)C=C6)C=C5)cc3)c(C)c12
REMARK SMILES IDX 21 1 20 2 18 3 19 4 17 6 11 7 12 8 92 9 13 10 15 11 90 12
REMARK SMILES IDX 14 13 16 14 91 15 10 16 9 18 3 19 4 20 5 21 8 22 6 23 7 24
REMARK SMILES IDX 2 25 1 26 22 27 23 28 24 29 25 30 26 32 27 33 28 34 89 35
REMARK SMILES IDX 29 36 88 37 30 38 31 39 32 40 82 41 33 42 87 43 81 44 83 45
REMARK SMILES IDX 34 46 86 47 80 48 79 49 35 51 67 52 47 53 66 54 48 55 51 56
REMARK SMILES IDX 65 57 84 58 49 59 50 60 64 62 85 63 52 64 36 65 37 66 45 67
REMARK SMILES IDX 38 68 39 69 43 70 46 71 40 72 41 73 44 74 42 75 68 76 69 77
REMARK SMILES IDX 77 78 70 79 71 80 75 81 78 82 72 83 73 84 76 85 74 86 53 87
REMARK SMILES IDX 54 88 62 89 55 90 56 91 60 92 63 93 57 94 58 95 61 96 59 97
REMARK H PARENT 20 5 10 17 24 31 83 50 51 61
REMARK Flexibility Score: inf
ROOT
ATOM      1  C   UNL A   1      33.974  29.631  26.312  1.00  0.00     0.118 C 
ENDROOT
BRANCH   1   2
ATOM      2  N   UNL A   1      33.093  29.664  25.151  1.00  0.00    -0.351 N 
ATOM      3  C   UNL A   1      32.252  28.730  24.585  1.00  0.00     0.261 C 
ATOM      4  O   UNL A   1      31.605  29.155  23.623  1.00  0.00    -0.268 OA
ATOM      5  H   UNL A   1      33.100  30.526  24.676  1.00  0.00     0.163 HD
BRANCH   3   6
ATOM      6  C   UNL A   1      32.096  27.365  25.098  1.00  0.00     0.098 A 
ATOM      7  C   UNL A   1      32.493  23.632  25.199  1.00  0.00     0.142 A 
ATOM      8  N   UNL A   1      31.669  22.758  25.830  1.00  0.00    -0.219 NA
ATOM      9  C   UNL A   1      32.252  25.015  25.350  1.00  0.00     0.058 A 
ATOM     10  C   UNL A   1      30.691  23.223  26.614  1.00  0.00     0.225 A 
ATOM     11  C   UNL A   1      31.214  25.338  26.202  1.00  0.00     0.129 A 
ATOM     12  C   UNL A   1      32.813  26.217  24.732  1.00  0.00    -0.014 A 
ATOM     13  N   UNL A   1      30.412  24.497  26.870  1.00  0.00    -0.225 NA
ATOM     14  S   UNL A   1      31.024  26.997  26.378  1.00  0.00    -0.110 S 
ATOM     15  C   UNL A   1      33.954  26.166  23.756  1.00  0.00     0.047 C 
BRANCH   7  16
ATOM     16  N   UNL A   1      33.498  23.133  24.376  1.00  0.00    -0.337 N 
ATOM     17  H   UNL A   1      33.302  23.142  23.411  1.00  0.00     0.168 HD
BRANCH  16  18
ATOM     18  C   UNL A   1      34.755  22.619  24.739  1.00  0.00     0.084 A 
ATOM     19  C   UNL A   1      34.976  21.228  24.695  1.00  0.00     0.142 A 
ATOM     20  C   UNL A   1      36.224  20.699  25.041  1.00  0.00     0.050 A 
ATOM     21  C   UNL A   1      37.244  21.547  25.478  1.00  0.00     0.024 A 
ATOM     22  C   UNL A   1      35.796  23.453  25.171  1.00  0.00     0.050 A 
ATOM     23  C   UNL A   1      37.023  22.918  25.548  1.00  0.00     0.043 A 
ATOM     24  Cl  UNL A   1      38.269  23.963  26.111  1.00  0.00    -0.084 Cl
BRANCH  19  25
ATOM     25  O   UNL A   1      33.930  20.452  24.251  1.00  0.00    -0.495 OA
ATOM     26  C   UNL A   1      34.024  19.081  24.627  1.00  0.00     0.278 C 
ENDBRANCH  19  25
ENDBRANCH  16  18
ENDBRANCH   7  16
ENDBRANCH   3   6
ENDBRANCH   1   2
BRANCH   1  27
ATOM     27  C   UNL A   1      33.645  30.738  27.325  1.00  0.00     0.042 C 
BRANCH  27  28
ATOM     28  C   UNL A   1      34.854  31.597  27.633  1.00  0.00     0.118 C 
BRANCH  28  29
ATOM     29  N   UNL A   1      34.783  32.222  28.959  1.00  0.00    -0.352 N 
ATOM     30  C   UNL A   1      35.501  31.901  30.100  1.00  0.00     0.251 C 
ATOM     31  H   UNL A   1      34.144  32.965  29.048  1.00  0.00     0.163 HD
ATOM     32  O   UNL A   1      35.141  32.263  31.204  1.00  0.00    -0.269 OA
BRANCH  30  33
ATOM     33  C   UNL A   1      36.730  31.106  29.932  1.00  0.00     0.039 A 
ATOM     34  C   UNL A   1      37.989  31.692  29.794  1.00  0.00     0.014 A 
ATOM     35  C   UNL A   1      36.586  29.727  29.992  1.00  0.00     0.014 A 
ATOM     36  C   UNL A   1      39.104  30.857  29.786  1.00  0.00     0.010 A 
ATOM     37  C   UNL A   1      37.671  28.953  30.262  1.00  0.00     0.010 A 
ATOM     38  C   UNL A   1      38.928  29.485  30.038  1.00  0.00    -0.014 A 
BRANCH  38  39
ATOM     39  C   UNL A   1      40.041  28.560  30.124  1.00  0.00     0.031 A 
ATOM     40  C   UNL A   1      40.531  28.315  31.499  1.00  0.00     0.074 A 
ATOM     41  C   UNL A   1      40.475  27.845  29.063  1.00  0.00     0.049 A 
ATOM     42  N   UNL A   1      41.645  28.720  32.004  1.00  0.00    -0.248 NA
ATOM     43  C   UNL A   1      39.626  27.680  32.467  1.00  0.00     0.031 C 
ATOM     44  C   UNL A   1      39.919  27.746  27.705  1.00  0.00     0.029 A 
ATOM     45  N   UNL A   1      41.518  26.977  29.013  1.00  0.00    -0.354 N 
ATOM     46  C   UNL A   1      41.675  28.240  33.306  1.00  0.00     0.074 A 
ATOM     47  C   UNL A   1      40.347  27.756  33.589  1.00  0.00     0.031 C 
ATOM     48  C   UNL A   1      40.500  26.718  27.045  1.00  0.00     0.029 A 
ATOM     49  C   UNL A   1      41.589  26.212  27.855  1.00  0.00     0.049 A 
ATOM     50  H   UNL A   1      42.174  26.895  29.742  1.00  0.00     0.167 HD
ATOM     51  C   UNL A   1      42.860  28.086  33.957  1.00  0.00     0.037 A 
ATOM     52  C   UNL A   1      42.495  25.237  27.595  1.00  0.00     0.037 A 
ATOM     53  C   UNL A   1      43.915  28.811  33.289  1.00  0.00     0.049 A 
ATOM     54  C   UNL A   1      43.658  25.487  28.485  1.00  0.00     0.074 A 
ATOM     55  C   UNL A   1      44.137  30.147  33.009  1.00  0.00     0.029 A 
ATOM     56  N   UNL A   1      44.727  28.116  32.425  1.00  0.00    -0.354 N 
ATOM     57  N   UNL A   1      44.444  26.521  28.365  1.00  0.00    -0.248 NA
ATOM     58  C   UNL A   1      43.645  24.857  29.795  1.00  0.00     0.031 C 
ATOM     59  C   UNL A   1      44.671  30.163  31.684  1.00  0.00     0.029 A 
ATOM     60  C   UNL A   1      44.817  28.843  31.263  1.00  0.00     0.049 A 
ATOM     61  H   UNL A   1      45.166  27.253  32.607  1.00  0.00     0.167 HD
ATOM     62  C   UNL A   1      44.680  26.935  29.667  1.00  0.00     0.074 A 
ATOM     63  C   UNL A   1      44.223  25.828  30.507  1.00  0.00     0.031 C 
ATOM     64  C   UNL A   1      44.949  28.244  29.953  1.00  0.00     0.037 A 
BRANCH  51  65
ATOM     65  C   UNL A   1      43.138  27.015  34.980  1.00  0.00     0.064 A 
ATOM     66  C   UNL A   1      43.379  27.388  36.317  1.00  0.00     0.173 A 
ATOM     67  C   UNL A   1      43.456  25.679  34.654  1.00  0.00     0.173 A 
ATOM     68  F   UNL A   1      43.133  28.639  36.734  1.00  0.00    -0.203 F 
ATOM     69  C   UNL A   1      43.960  26.508  37.235  1.00  0.00     0.198 A 
ATOM     70  C   UNL A   1      43.986  24.789  35.586  1.00  0.00     0.198 A 
ATOM     71  F   UNL A   1      43.378  25.212  33.403  1.00  0.00    -0.203 F 
ATOM     72  F   UNL A   1      44.283  26.944  38.461  1.00  0.00    -0.200 F 
ATOM     73  C   UNL A   1      44.267  25.212  36.868  1.00  0.00     0.200 A 
ATOM     74  F   UNL A   1      44.295  23.543  35.203  1.00  0.00    -0.200 F 
ATOM     75  F   UNL A   1      44.877  24.385  37.727  1.00  0.00    -0.200 F 
ENDBRANCH  51  65
BRANCH  52  76
ATOM     76  C   UNL A   1      42.287  23.939  26.912  1.00  0.00     0.064 A 
ATOM     77  C   UNL A   1      43.203  23.479  25.953  1.00  0.00     0.173 A 
ATOM     78  C   UNL A   1      41.374  22.992  27.415  1.00  0.00     0.173 A 
ATOM     79  F   UNL A   1      44.128  24.310  25.451  1.00  0.00    -0.203 F 
ATOM     80  C   UNL A   1      43.237  22.137  25.555  1.00  0.00     0.198 A 
ATOM     81  C   UNL A   1      41.409  21.654  27.016  1.00  0.00     0.198 A 
ATOM     82  F   UNL A   1      40.503  23.322  28.378  1.00  0.00    -0.203 F 
ATOM     83  F   UNL A   1      44.175  21.719  24.693  1.00  0.00    -0.200 F 
ATOM     84  C   UNL A   1      42.352  21.224  26.100  1.00  0.00     0.200 A 
ATOM     85  F   UNL A   1      40.572  20.770  27.578  1.00  0.00    -0.200 F 
ATOM     86  F   UNL A   1      42.434  19.925  25.778  1.00  0.00    -0.200 F 
ENDBRANCH  52  76
BRANCH  64  87
ATOM     87  C   UNL A   1      45.198  29.171  28.789  1.00  0.00     0.064 A 
ATOM     88  C   UNL A   1      44.193  29.900  28.126  1.00  0.00     0.173 A 
ATOM     89  C   UNL A   1      46.521  29.416  28.401  1.00  0.00     0.173 A 
ATOM     90  F   UNL A   1      42.913  29.807  28.500  1.00  0.00    -0.203 F 
ATOM     91  C   UNL A   1      44.495  30.784  27.090  1.00  0.00     0.198 A 
ATOM     92  C   UNL A   1      46.823  30.326  27.390  1.00  0.00     0.198 A 
ATOM     93  F   UNL A   1      47.531  28.797  29.031  1.00  0.00    -0.203 F 
ATOM     94  F   UNL A   1      43.511  31.448  26.463  1.00  0.00    -0.200 F 
ATOM     95  C   UNL A   1      45.811  30.999  26.725  1.00  0.00     0.200 A 
ATOM     96  F   UNL A   1      48.103  30.568  27.074  1.00  0.00    -0.200 F 
ATOM     97  F   UNL A   1      46.107  31.871  25.751  1.00  0.00    -0.200 F 
ENDBRANCH  64  87
ENDBRANCH  38  39
ENDBRANCH  30  33
ENDBRANCH  28  29
ENDBRANCH  27  28
ENDBRANCH   1  27
TORSDOF 13
ENDMDL
