MODEL 1
REMARK VINA RESULT:     -13.7      0.000      0.000
REMARK SMILES Cc1c(Cl)cccc1NC(=O)NCc1cn([C@@H]2C[NH2+][C@H](C(=O)NCCCNC(=O)c3ccc(-c4c5nc(c(-c6c(F)c(F)c(F)c(F)c6F)c6ccc([nH]6)c(-c6c(F)c(F)c(F)c(F)c6F)c6nc(c(-c7c(F)c(F)c(F)c(F)c7F)c7ccc4[nH]7)C=C6)C=C5)cc3)C2)nn1
REMARK SMILES IDX 24 1 23 2 21 3 22 4 20 6 17 7 18 8 93 9 19 10 16 13 14 14
REMARK SMILES IDX 15 15 95 16 94 17 13 18 12 19 9 20 10 21 11 23 8 25 1 26
REMARK SMILES IDX 2 27 3 28 4 29 5 30 7 31 6 32 25 33 26 34 27 35 28 36 29 38
REMARK SMILES IDX 30 39 31 40 92 41 32 42 91 43 33 44 34 45 35 46 85 47 36 48
REMARK SMILES IDX 90 49 84 50 86 51 37 52 89 53 83 54 82 55 38 57 70 58 50 59
REMARK SMILES IDX 69 60 51 61 54 62 68 63 87 64 52 65 53 66 67 68 88 69 55 70
REMARK SMILES IDX 39 71 40 72 48 73 41 74 42 75 46 76 49 77 43 78 44 79 47 80
REMARK SMILES IDX 45 81 71 82 72 83 80 84 73 85 74 86 78 87 81 88 75 89 76 90
REMARK SMILES IDX 79 91 77 92 56 93 57 94 65 95 58 96 59 97 63 98 66 99 60 100
REMARK SMILES IDX 61 101 64 102 62 103
REMARK H PARENT 23 5 19 11 19 12 9 22 12 24 27 37 86 56 54 67
REMARK Flexibility Score: inf
ROOT
ATOM      1  C   UNL A   1      38.149  20.927  25.305  1.00  0.00     0.118 C 
ENDROOT
BRANCH   1   2
ATOM      2  N   UNL A   1      37.615  22.260  25.521  1.00  0.00    -0.351 N 
ATOM      3  C   UNL A   1      36.358  22.710  25.781  1.00  0.00     0.278 C 
ATOM      4  O   UNL A   1      36.238  23.936  25.901  1.00  0.00    -0.268 OA
ATOM      5  H   UNL A   1      38.291  22.974  25.469  1.00  0.00     0.163 HD
BRANCH   3   6
ATOM      6  C   UNL A   1      35.132  21.812  26.053  1.00  0.00     0.274 C 
ATOM      7  C   UNL A   1      32.742  22.133  26.322  1.00  0.00     0.170 C 
ATOM      8  C   UNL A   1      33.423  22.093  27.684  1.00  0.00     0.288 C 
ATOM      9  C   UNL A   1      33.898  22.368  25.354  1.00  0.00     0.109 C 
ATOM     10  N   UNL A   1      34.798  21.600  27.479  1.00  0.00    -0.334 N 
ATOM     11  H   UNL A   1      34.850  20.606  27.705  1.00  0.00     0.347 HD
ATOM     12  H   UNL A   1      35.454  22.096  28.081  1.00  0.00     0.347 HD
BRANCH   7  13
ATOM     13  N   UNL A   1      31.710  23.145  26.251  1.00  0.00    -0.243 N 
ATOM     14  C   UNL A   1      30.656  24.993  25.868  1.00  0.00     0.102 A 
ATOM     15  C   UNL A   1      31.646  24.175  25.372  1.00  0.00     0.137 A 
ATOM     16  N   UNL A   1      30.110  24.412  26.975  1.00  0.00    -0.134 NA
ATOM     17  N   UNL A   1      30.760  23.267  27.196  1.00  0.00    -0.067 NA
BRANCH  14  18
ATOM     18  C   UNL A   1      30.497  26.382  25.405  1.00  0.00     0.178 C 
BRANCH  18  19
ATOM     19  N   UNL A   1      30.387  26.663  24.015  1.00  0.00    -0.332 N 
ATOM     20  N   UNL A   1      31.683  28.671  23.690  1.00  0.00    -0.308 N 
ATOM     21  C   UNL A   1      31.018  27.575  23.260  1.00  0.00     0.319 C 
ATOM     22  H   UNL A   1      31.982  29.215  22.926  1.00  0.00     0.171 HD
ATOM     23  O   UNL A   1      30.900  27.455  22.034  1.00  0.00    -0.248 OA
ATOM     24  H   UNL A   1      29.746  26.096  23.529  1.00  0.00     0.165 HD
BRANCH  20  25
ATOM     25  C   UNL A   1      32.080  29.271  24.909  1.00  0.00     0.047 A 
ATOM     26  C   UNL A   1      34.000  27.578  25.166  1.00  0.00     0.048 C 
ATOM     27  C   UNL A   1      33.266  28.840  25.553  1.00  0.00    -0.009 A 
ATOM     28  C   UNL A   1      33.757  29.596  26.646  1.00  0.00     0.046 A 
ATOM     29  Cl  UNL A   1      35.218  29.171  27.476  1.00  0.00    -0.084 Cl
ATOM     30  C   UNL A   1      33.080  30.722  27.112  1.00  0.00     0.021 A 
ATOM     31  C   UNL A   1      31.320  30.262  25.540  1.00  0.00     0.026 A 
ATOM     32  C   UNL A   1      31.838  31.034  26.583  1.00  0.00     0.004 A 
ENDBRANCH  20  25
ENDBRANCH  18  19
ENDBRANCH  14  18
ENDBRANCH   7  13
ENDBRANCH   3   6
ENDBRANCH   1   2
BRANCH   1  33
ATOM     33  C   UNL A   1      39.562  20.754  25.868  1.00  0.00     0.042 C 
BRANCH  33  34
ATOM     34  C   UNL A   1      40.166  22.086  26.292  1.00  0.00     0.118 C 
BRANCH  34  35
ATOM     35  N   UNL A   1      41.495  22.310  25.711  1.00  0.00    -0.352 N 
ATOM     36  C   UNL A   1      42.236  23.478  25.652  1.00  0.00     0.251 C 
ATOM     37  H   UNL A   1      41.920  21.518  25.307  1.00  0.00     0.163 HD
ATOM     38  O   UNL A   1      43.175  23.589  24.889  1.00  0.00    -0.269 OA
BRANCH  36  39
ATOM     39  C   UNL A   1      41.845  24.596  26.530  1.00  0.00     0.039 A 
ATOM     40  C   UNL A   1      42.388  24.732  27.809  1.00  0.00     0.014 A 
ATOM     41  C   UNL A   1      40.976  25.551  26.016  1.00  0.00     0.014 A 
ATOM     42  C   UNL A   1      42.129  25.900  28.521  1.00  0.00     0.010 A 
ATOM     43  C   UNL A   1      40.869  26.767  26.637  1.00  0.00     0.010 A 
ATOM     44  C   UNL A   1      41.399  26.933  27.910  1.00  0.00    -0.014 A 
BRANCH  44  45
ATOM     45  C   UNL A   1      41.296  28.244  28.542  1.00  0.00     0.031 A 
ATOM     46  C   UNL A   1      42.369  29.200  28.156  1.00  0.00     0.074 A 
ATOM     47  C   UNL A   1      40.221  28.644  29.257  1.00  0.00     0.049 A 
ATOM     48  N   UNL A   1      43.294  29.682  28.917  1.00  0.00    -0.248 NA
ATOM     49  C   UNL A   1      42.522  29.559  26.736  1.00  0.00     0.031 C 
ATOM     50  C   UNL A   1      38.954  27.938  29.477  1.00  0.00     0.029 A 
ATOM     51  N   UNL A   1      40.000  29.839  29.868  1.00  0.00    -0.354 N 
ATOM     52  C   UNL A   1      44.031  30.559  28.127  1.00  0.00     0.074 A 
ATOM     53  C   UNL A   1      43.627  30.308  26.768  1.00  0.00     0.031 C 
ATOM     54  C   UNL A   1      38.029  28.801  29.952  1.00  0.00     0.029 A 
ATOM     55  C   UNL A   1      38.678  30.066  30.236  1.00  0.00     0.049 A 
ATOM     56  H   UNL A   1      40.718  30.492  30.036  1.00  0.00     0.167 HD
ATOM     57  C   UNL A   1      44.722  31.587  28.696  1.00  0.00     0.037 A 
ATOM     58  C   UNL A   1      38.155  31.218  30.722  1.00  0.00     0.037 A 
ATOM     59  C   UNL A   1      44.911  31.354  30.109  1.00  0.00     0.049 A 
ATOM     60  C   UNL A   1      39.286  32.018  31.256  1.00  0.00     0.074 A 
ATOM     61  C   UNL A   1      45.494  30.346  30.856  1.00  0.00     0.029 A 
ATOM     62  N   UNL A   1      44.115  32.046  30.991  1.00  0.00    -0.354 N 
ATOM     63  N   UNL A   1      39.974  31.682  32.311  1.00  0.00    -0.248 NA
ATOM     64  C   UNL A   1      39.948  32.938  30.343  1.00  0.00     0.031 C 
ATOM     65  C   UNL A   1      44.631  30.176  31.979  1.00  0.00     0.029 A 
ATOM     66  C   UNL A   1      43.627  31.142  31.897  1.00  0.00     0.049 A 
ATOM     67  H   UNL A   1      43.930  33.013  30.974  1.00  0.00     0.167 HD
ATOM     68  C   UNL A   1      41.288  31.968  31.973  1.00  0.00     0.074 A 
ATOM     69  C   UNL A   1      41.201  32.821  30.789  1.00  0.00     0.031 C 
ATOM     70  C   UNL A   1      42.321  31.248  32.501  1.00  0.00     0.037 A 
BRANCH  57  71
ATOM     71  C   UNL A   1      44.864  32.966  28.089  1.00  0.00     0.064 A 
ATOM     72  C   UNL A   1      46.155  33.429  27.756  1.00  0.00     0.173 A 
ATOM     73  C   UNL A   1      43.860  33.957  28.125  1.00  0.00     0.173 A 
ATOM     74  F   UNL A   1      47.189  32.578  27.687  1.00  0.00    -0.203 F 
ATOM     75  C   UNL A   1      46.435  34.788  27.595  1.00  0.00     0.198 A 
ATOM     76  C   UNL A   1      44.135  35.308  27.912  1.00  0.00     0.198 A 
ATOM     77  F   UNL A   1      42.597  33.691  28.477  1.00  0.00    -0.203 F 
ATOM     78  F   UNL A   1      47.704  35.189  27.432  1.00  0.00    -0.200 F 
ATOM     79  C   UNL A   1      45.428  35.728  27.687  1.00  0.00     0.200 A 
ATOM     80  F   UNL A   1      43.144  36.204  28.018  1.00  0.00    -0.200 F 
ATOM     81  F   UNL A   1      45.704  37.036  27.611  1.00  0.00    -0.200 F 
ENDBRANCH  57  71
BRANCH  58  82
ATOM     82  C   UNL A   1      36.803  31.791  30.517  1.00  0.00     0.064 A 
ATOM     83  C   UNL A   1      35.972  32.091  31.610  1.00  0.00     0.173 A 
ATOM     84  C   UNL A   1      36.411  32.324  29.273  1.00  0.00     0.173 A 
ATOM     85  F   UNL A   1      36.290  31.657  32.838  1.00  0.00    -0.203 F 
ATOM     86  C   UNL A   1      34.844  32.908  31.475  1.00  0.00     0.198 A 
ATOM     87  C   UNL A   1      35.280  33.132  29.137  1.00  0.00     0.198 A 
ATOM     88  F   UNL A   1      37.171  32.153  28.181  1.00  0.00    -0.203 F 
ATOM     89  F   UNL A   1      34.119  33.230  32.555  1.00  0.00    -0.200 F 
ATOM     90  C   UNL A   1      34.506  33.438  30.242  1.00  0.00     0.200 A 
ATOM     91  F   UNL A   1      34.985  33.667  27.944  1.00  0.00    -0.200 F 
ATOM     92  F   UNL A   1      33.466  34.274  30.123  1.00  0.00    -0.200 F 
ENDBRANCH  58  82
BRANCH  70  93
ATOM     93  C   UNL A   1      42.028  30.325  33.653  1.00  0.00     0.064 A 
ATOM     94  C   UNL A   1      41.643  28.981  33.516  1.00  0.00     0.173 A 
ATOM     95  C   UNL A   1      42.291  30.788  34.949  1.00  0.00     0.173 A 
ATOM     96  F   UNL A   1      41.470  28.429  32.308  1.00  0.00    -0.203 F 
ATOM     97  C   UNL A   1      41.485  28.155  34.629  1.00  0.00     0.198 A 
ATOM     98  C   UNL A   1      42.171  29.952  36.055  1.00  0.00     0.198 A 
ATOM     99  F   UNL A   1      42.715  32.047  35.140  1.00  0.00    -0.203 F 
ATOM    100  F   UNL A   1      41.102  26.879  34.471  1.00  0.00    -0.200 F 
ATOM    101  C   UNL A   1      41.756  28.640  35.897  1.00  0.00     0.200 A 
ATOM    102  F   UNL A   1      42.484  30.413  37.274  1.00  0.00    -0.200 F 
ATOM    103  F   UNL A   1      41.646  27.836  36.963  1.00  0.00    -0.200 F 
ENDBRANCH  70  93
ENDBRANCH  44  45
ENDBRANCH  36  39
ENDBRANCH  34  35
ENDBRANCH  33  34
ENDBRANCH   1  33
TORSDOF 14
ENDMDL
MODEL 2
REMARK VINA RESULT:     -13.5      2.761      3.857
REMARK SMILES Cc1c(Cl)cccc1NC(=O)NCc1cn([C@@H]2C[NH2+][C@H](C(=O)NCCCNC(=O)c3ccc(-c4c5nc(c(-c6c(F)c(F)c(F)c(F)c6F)c6ccc([nH]6)c(-c6c(F)c(F)c(F)c(F)c6F)c6nc(c(-c7c(F)c(F)c(F)c(F)c7F)c7ccc4[nH]7)C=C6)C=C5)cc3)C2)nn1
REMARK SMILES IDX 24 1 23 2 21 3 22 4 20 6 17 7 18 8 93 9 19 10 16 13 14 14
REMARK SMILES IDX 15 15 95 16 94 17 13 18 12 19 9 20 10 21 11 23 8 25 1 26
REMARK SMILES IDX 2 27 3 28 4 29 5 30 7 31 6 32 25 33 26 34 27 35 28 36 29 38
REMARK SMILES IDX 30 39 31 40 92 41 32 42 91 43 33 44 34 45 35 46 85 47 36 48
REMARK SMILES IDX 90 49 84 50 86 51 37 52 89 53 83 54 82 55 38 57 70 58 50 59
REMARK SMILES IDX 69 60 51 61 54 62 68 63 87 64 52 65 53 66 67 68 88 69 55 70
REMARK SMILES IDX 39 71 40 72 48 73 41 74 42 75 46 76 49 77 43 78 44 79 47 80
REMARK SMILES IDX 45 81 71 82 72 83 80 84 73 85 74 86 78 87 81 88 75 89 76 90
REMARK SMILES IDX 79 91 77 92 56 93 57 94 65 95 58 96 59 97 63 98 66 99 60 100
REMARK SMILES IDX 61 101 64 102 62 103
REMARK H PARENT 23 5 19 11 19 12 9 22 12 24 27 37 86 56 54 67
REMARK Flexibility Score: inf
ROOT
ATOM      1  C   UNL A   1      40.327  20.847  27.135  1.00  0.00     0.118 C 
ENDROOT
BRANCH   1   2
ATOM      2  N   UNL A   1      39.719  22.147  26.915  1.00  0.00    -0.351 N 
ATOM      3  C   UNL A   1      38.710  22.558  26.102  1.00  0.00     0.278 C 
ATOM      4  O   UNL A   1      38.439  23.766  26.146  1.00  0.00    -0.268 OA
ATOM      5  H   UNL A   1      40.112  22.868  27.458  1.00  0.00     0.163 HD
BRANCH   3   6
ATOM      6  C   UNL A   1      37.823  21.627  25.247  1.00  0.00     0.274 C 
ATOM      7  C   UNL A   1      35.660  21.772  24.156  1.00  0.00     0.170 C 
ATOM      8  C   UNL A   1      35.516  21.115  25.524  1.00  0.00     0.288 C 
ATOM      9  C   UNL A   1      37.033  22.434  24.224  1.00  0.00     0.109 C 
ATOM     10  N   UNL A   1      36.871  20.781  26.000  1.00  0.00    -0.334 N 
ATOM     11  H   UNL A   1      37.070  19.795  25.828  1.00  0.00     0.347 HD
ATOM     12  H   UNL A   1      36.954  20.948  27.003  1.00  0.00     0.347 HD
BRANCH   7  13
ATOM     13  N   UNL A   1      34.583  22.697  23.873  1.00  0.00    -0.243 N 
ATOM     14  C   UNL A   1      32.639  23.640  23.797  1.00  0.00     0.102 A 
ATOM     15  C   UNL A   1      33.451  22.868  24.597  1.00  0.00     0.137 A 
ATOM     16  N   UNL A   1      33.317  23.966  22.658  1.00  0.00    -0.134 NA
ATOM     17  N   UNL A   1      34.519  23.389  22.720  1.00  0.00    -0.067 NA
BRANCH  14  18
ATOM     18  C   UNL A   1      31.197  23.774  24.059  1.00  0.00     0.178 C 
BRANCH  18  19
ATOM     19  N   UNL A   1      30.681  23.511  25.359  1.00  0.00    -0.332 N 
ATOM     20  N   UNL A   1      30.410  25.687  26.364  1.00  0.00    -0.308 N 
ATOM     21  C   UNL A   1      30.213  24.351  26.295  1.00  0.00     0.319 C 
ATOM     22  H   UNL A   1      30.026  26.050  27.195  1.00  0.00     0.171 HD
ATOM     23  O   UNL A   1      29.617  23.838  27.250  1.00  0.00    -0.248 OA
ATOM     24  H   UNL A   1      30.665  22.560  25.611  1.00  0.00     0.165 HD
BRANCH  20  25
ATOM     25  C   UNL A   1      31.001  26.722  25.600  1.00  0.00     0.047 A 
ATOM     26  C   UNL A   1      29.035  26.678  23.942  1.00  0.00     0.048 C 
ATOM     27  C   UNL A   1      30.289  27.293  24.517  1.00  0.00    -0.009 A 
ATOM     28  C   UNL A   1      30.804  28.465  23.910  1.00  0.00     0.046 A 
ATOM     29  Cl  UNL A   1      29.986  29.257  22.603  1.00  0.00    -0.084 Cl
ATOM     30  C   UNL A   1      32.002  29.036  24.333  1.00  0.00     0.021 A 
ATOM     31  C   UNL A   1      32.298  27.189  25.845  1.00  0.00     0.026 A 
ATOM     32  C   UNL A   1      32.771  28.375  25.277  1.00  0.00     0.004 A 
ENDBRANCH  20  25
ENDBRANCH  18  19
ENDBRANCH  14  18
ENDBRANCH   7  13
ENDBRANCH   3   6
ENDBRANCH   1   2
BRANCH   1  33
ATOM     33  C   UNL A   1      41.325  20.464  26.038  1.00  0.00     0.042 C 
BRANCH  33  34
ATOM     34  C   UNL A   1      42.578  19.822  26.617  1.00  0.00     0.118 C 
BRANCH  34  35
ATOM     35  N   UNL A   1      43.600  19.564  25.596  1.00  0.00    -0.352 N 
ATOM     36  C   UNL A   1      44.301  20.467  24.815  1.00  0.00     0.251 C 
ATOM     37  H   UNL A   1      43.817  18.615  25.445  1.00  0.00     0.163 HD
ATOM     38  O   UNL A   1      44.890  20.108  23.815  1.00  0.00    -0.269 OA
BRANCH  36  39
ATOM     39  C   UNL A   1      44.304  21.884  25.221  1.00  0.00     0.039 A 
ATOM     40  C   UNL A   1      43.450  22.809  24.618  1.00  0.00     0.014 A 
ATOM     41  C   UNL A   1      45.130  22.253  26.276  1.00  0.00     0.014 A 
ATOM     42  C   UNL A   1      43.360  24.087  25.164  1.00  0.00     0.010 A 
ATOM     43  C   UNL A   1      44.910  23.443  26.919  1.00  0.00     0.010 A 
ATOM     44  C   UNL A   1      44.066  24.384  26.343  1.00  0.00    -0.014 A 
BRANCH  44  45
ATOM     45  C   UNL A   1      43.827  25.635  27.056  1.00  0.00     0.031 A 
ATOM     46  C   UNL A   1      44.773  26.731  26.711  1.00  0.00     0.074 A 
ATOM     47  C   UNL A   1      42.729  25.863  27.811  1.00  0.00     0.049 A 
ATOM     48  N   UNL A   1      45.654  27.271  27.485  1.00  0.00    -0.248 NA
ATOM     49  C   UNL A   1      44.850  27.188  25.314  1.00  0.00     0.031 C 
ATOM     50  C   UNL A   1      41.558  25.003  28.007  1.00  0.00     0.029 A 
ATOM     51  N   UNL A   1      42.386  26.987  28.497  1.00  0.00    -0.354 N 
ATOM     52  C   UNL A   1      46.265  28.274  26.738  1.00  0.00     0.074 A 
ATOM     53  C   UNL A   1      45.862  28.057  25.373  1.00  0.00     0.031 C 
ATOM     54  C   UNL A   1      40.550  25.722  28.548  1.00  0.00     0.029 A 
ATOM     55  C   UNL A   1      41.056  27.035  28.899  1.00  0.00     0.049 A 
ATOM     56  H   UNL A   1      43.028  27.708  28.693  1.00  0.00     0.167 HD
ATOM     57  C   UNL A   1      46.846  29.340  27.358  1.00  0.00     0.037 A 
ATOM     58  C   UNL A   1      40.414  28.088  29.463  1.00  0.00     0.037 A 
ATOM     59  C   UNL A   1      47.093  29.048  28.751  1.00  0.00     0.049 A 
ATOM     60  C   UNL A   1      41.457  28.982  30.026  1.00  0.00     0.074 A 
ATOM     61  C   UNL A   1      47.805  28.073  29.425  1.00  0.00     0.029 A 
ATOM     62  N   UNL A   1      46.243  29.589  29.686  1.00  0.00    -0.354 N 
ATOM     63  N   UNL A   1      42.204  28.667  31.048  1.00  0.00    -0.248 NA
ATOM     64  C   UNL A   1      41.987  30.025  29.162  1.00  0.00     0.031 C 
ATOM     65  C   UNL A   1      46.994  27.737  30.550  1.00  0.00     0.029 A 
ATOM     66  C   UNL A   1      45.884  28.582  30.543  1.00  0.00     0.049 A 
ATOM     67  H   UNL A   1      45.947  30.527  29.732  1.00  0.00     0.167 HD
ATOM     68  C   UNL A   1      43.467  29.124  30.708  1.00  0.00     0.074 A 
ATOM     69  C   UNL A   1      43.255  30.029  29.579  1.00  0.00     0.031 C 
ATOM     70  C   UNL A   1      44.589  28.499  31.173  1.00  0.00     0.037 A 
BRANCH  57  71
ATOM     71  C   UNL A   1      46.813  30.759  26.834  1.00  0.00     0.064 A 
ATOM     72  C   UNL A   1      47.997  31.526  26.884  1.00  0.00     0.173 A 
ATOM     73  C   UNL A   1      45.631  31.493  26.600  1.00  0.00     0.173 A 
ATOM     74  F   UNL A   1      49.184  30.938  27.098  1.00  0.00    -0.203 F 
ATOM     75  C   UNL A   1      47.978  32.922  26.828  1.00  0.00     0.198 A 
ATOM     76  C   UNL A   1      45.623  32.884  26.491  1.00  0.00     0.198 A 
ATOM     77  F   UNL A   1      44.421  30.922  26.579  1.00  0.00    -0.203 F 
ATOM     78  F   UNL A   1      49.110  33.610  27.033  1.00  0.00    -0.200 F 
ATOM     79  C   UNL A   1      46.789  33.600  26.646  1.00  0.00     0.200 A 
ATOM     80  F   UNL A   1      44.456  33.523  26.327  1.00  0.00    -0.200 F 
ATOM     81  F   UNL A   1      46.756  34.939  26.668  1.00  0.00    -0.200 F 
ENDBRANCH  57  71
BRANCH  58  82
ATOM     82  C   UNL A   1      39.000  28.511  29.315  1.00  0.00     0.064 A 
ATOM     83  C   UNL A   1      38.171  28.664  30.439  1.00  0.00     0.173 A 
ATOM     84  C   UNL A   1      38.516  29.049  28.107  1.00  0.00     0.173 A 
ATOM     85  F   UNL A   1      38.570  28.215  31.638  1.00  0.00    -0.203 F 
ATOM     86  C   UNL A   1      36.954  29.351  30.368  1.00  0.00     0.198 A 
ATOM     87  C   UNL A   1      37.298  29.727  28.034  1.00  0.00     0.198 A 
ATOM     88  F   UNL A   1      39.261  29.016  26.991  1.00  0.00    -0.203 F 
ATOM     89  F   UNL A   1      36.227  29.540  31.478  1.00  0.00    -0.200 F 
ATOM     90  C   UNL A   1      36.525  29.893  29.168  1.00  0.00     0.200 A 
ATOM     91  F   UNL A   1      36.912  30.277  26.874  1.00  0.00    -0.200 F 
ATOM     92  F   UNL A   1      35.393  30.609  29.112  1.00  0.00    -0.200 F 
ENDBRANCH  58  82
BRANCH  70  93
ATOM     93  C   UNL A   1      44.431  27.483  32.271  1.00  0.00     0.064 A 
ATOM     94  C   UNL A   1      44.233  26.108  32.058  1.00  0.00     0.173 A 
ATOM     95  C   UNL A   1      44.634  27.905  33.592  1.00  0.00     0.173 A 
ATOM     96  F   UNL A   1      44.132  25.605  30.822  1.00  0.00    -0.203 F 
ATOM     97  C   UNL A   1      44.196  25.208  33.123  1.00  0.00     0.198 A 
ATOM     98  C   UNL A   1      44.635  27.000  34.649  1.00  0.00     0.198 A 
ATOM     99  F   UNL A   1      44.881  29.197  33.854  1.00  0.00    -0.203 F 
ATOM    100  F   UNL A   1      43.991  23.902  32.893  1.00  0.00    -0.200 F 
ATOM    101  C   UNL A   1      44.404  25.654  34.417  1.00  0.00     0.200 A 
ATOM    102  F   UNL A   1      44.888  27.431  35.893  1.00  0.00    -0.200 F 
ATOM    103  F   UNL A   1      44.410  24.784  35.436  1.00  0.00    -0.200 F 
ENDBRANCH  70  93
ENDBRANCH  44  45
ENDBRANCH  36  39
ENDBRANCH  34  35
ENDBRANCH  33  34
ENDBRANCH   1  33
TORSDOF 14
ENDMDL
MODEL 3
REMARK VINA RESULT:     -13.4      1.672      2.261
REMARK SMILES Cc1c(Cl)cccc1NC(=O)NCc1cn([C@@H]2C[NH2+][C@H](C(=O)NCCCNC(=O)c3ccc(-c4c5nc(c(-c6c(F)c(F)c(F)c(F)c6F)c6ccc([nH]6)c(-c6c(F)c(F)c(F)c(F)c6F)c6nc(c(-c7c(F)c(F)c(F)c(F)c7F)c7ccc4[nH]7)C=C6)C=C5)cc3)C2)nn1
REMARK SMILES IDX 24 1 23 2 21 3 22 4 20 6 17 7 18 8 93 9 19 10 16 13 14 14
REMARK SMILES IDX 15 15 95 16 94 17 13 18 12 19 9 20 10 21 11 23 8 25 1 26
REMARK SMILES IDX 2 27 3 28 4 29 5 30 7 31 6 32 25 33 26 34 27 35 28 36 29 38
REMARK SMILES IDX 30 39 31 40 92 41 32 42 91 43 33 44 34 45 35 46 85 47 36 48
REMARK SMILES IDX 90 49 84 50 86 51 37 52 89 53 83 54 82 55 38 57 70 58 50 59
REMARK SMILES IDX 69 60 51 61 54 62 68 63 87 64 52 65 53 66 67 68 88 69 55 70
REMARK SMILES IDX 39 71 40 72 48 73 41 74 42 75 46 76 49 77 43 78 44 79 47 80
REMARK SMILES IDX 45 81 71 82 72 83 80 84 73 85 74 86 78 87 81 88 75 89 76 90
REMARK SMILES IDX 79 91 77 92 56 93 57 94 65 95 58 96 59 97 63 98 66 99 60 100
REMARK SMILES IDX 61 101 64 102 62 103
REMARK H PARENT 23 5 19 11 19 12 9 22 12 24 27 37 86 56 54 67
REMARK Flexibility Score: inf
ROOT
ATOM      1  C   UNL A   1      36.519  20.733  25.076  1.00  0.00     0.118 C 
ENDROOT
BRANCH   1   2
ATOM      2  N   UNL A   1      35.553  21.158  26.073  1.00  0.00    -0.351 N 
ATOM      3  C   UNL A   1      34.248  21.531  25.981  1.00  0.00     0.278 C 
ATOM      4  O   UNL A   1      33.703  21.856  27.044  1.00  0.00    -0.268 OA
ATOM      5  H   UNL A   1      35.910  21.182  26.990  1.00  0.00     0.163 HD
BRANCH   3   6
ATOM      6  C   UNL A   1      33.392  21.457  24.699  1.00  0.00     0.274 C 
ATOM      7  C   UNL A   1      32.827  22.952  22.872  1.00  0.00     0.170 C 
ATOM      8  C   UNL A   1      31.735  22.984  23.934  1.00  0.00     0.288 C 
ATOM      9  C   UNL A   1      34.007  22.310  23.596  1.00  0.00     0.109 C 
ATOM     10  N   UNL A   1      31.975  21.854  24.852  1.00  0.00    -0.334 N 
ATOM     11  H   UNL A   1      31.366  21.072  24.610  1.00  0.00     0.347 HD
ATOM     12  H   UNL A   1      31.776  22.122  25.815  1.00  0.00     0.347 HD
BRANCH   7  13
ATOM     13  N   UNL A   1      33.117  24.266  22.340  1.00  0.00    -0.243 N 
ATOM     14  C   UNL A   1      33.204  26.409  22.068  1.00  0.00     0.102 A 
ATOM     15  C   UNL A   1      33.159  25.429  23.034  1.00  0.00     0.137 A 
ATOM     16  N   UNL A   1      33.257  25.819  20.838  1.00  0.00    -0.134 NA
ATOM     17  N   UNL A   1      33.215  24.497  21.018  1.00  0.00    -0.067 NA
BRANCH  14  18
ATOM     18  C   UNL A   1      32.920  27.818  22.382  1.00  0.00     0.178 C 
BRANCH  18  19
ATOM     19  N   UNL A   1      31.756  28.446  21.855  1.00  0.00    -0.332 N 
ATOM     20  N   UNL A   1      30.538  29.204  23.794  1.00  0.00    -0.308 N 
ATOM     21  C   UNL A   1      30.803  29.164  22.469  1.00  0.00     0.319 C 
ATOM     22  H   UNL A   1      29.735  29.747  23.969  1.00  0.00     0.171 HD
ATOM     23  O   UNL A   1      30.021  29.783  21.737  1.00  0.00    -0.248 OA
ATOM     24  H   UNL A   1      31.631  28.335  20.886  1.00  0.00     0.165 HD
BRANCH  20  25
ATOM     25  C   UNL A   1      31.067  28.701  25.007  1.00  0.00     0.047 A 
ATOM     26  C   UNL A   1      30.056  26.383  24.535  1.00  0.00     0.048 C 
ATOM     27  C   UNL A   1      30.955  27.321  25.305  1.00  0.00    -0.009 A 
ATOM     28  C   UNL A   1      31.678  26.805  26.409  1.00  0.00     0.046 A 
ATOM     29  Cl  UNL A   1      31.634  25.125  26.832  1.00  0.00    -0.084 Cl
ATOM     30  C   UNL A   1      32.458  27.631  27.216  1.00  0.00     0.021 A 
ATOM     31  C   UNL A   1      31.673  29.526  25.961  1.00  0.00     0.026 A 
ATOM     32  C   UNL A   1      32.425  29.002  27.015  1.00  0.00     0.004 A 
ENDBRANCH  20  25
ENDBRANCH  18  19
ENDBRANCH  14  18
ENDBRANCH   7  13
ENDBRANCH   3   6
ENDBRANCH   1   2
BRANCH   1  33
ATOM     33  C   UNL A   1      37.388  21.883  24.560  1.00  0.00     0.042 C 
BRANCH  33  34
ATOM     34  C   UNL A   1      37.983  22.694  25.703  1.00  0.00     0.118 C 
BRANCH  34  35
ATOM     35  N   UNL A   1      38.925  21.915  26.514  1.00  0.00    -0.352 N 
ATOM     36  C   UNL A   1      40.075  22.336  27.160  1.00  0.00     0.251 C 
ATOM     37  H   UNL A   1      38.710  20.959  26.612  1.00  0.00     0.163 HD
ATOM     38  O   UNL A   1      40.910  21.538  27.541  1.00  0.00    -0.269 OA
BRANCH  36  39
ATOM     39  C   UNL A   1      40.270  23.782  27.365  1.00  0.00     0.039 A 
ATOM     40  C   UNL A   1      39.236  24.690  27.131  1.00  0.00     0.014 A 
ATOM     41  C   UNL A   1      41.494  24.206  27.869  1.00  0.00     0.014 A 
ATOM     42  C   UNL A   1      39.413  26.016  27.516  1.00  0.00     0.010 A 
ATOM     43  C   UNL A   1      41.601  25.461  28.409  1.00  0.00     0.010 A 
ATOM     44  C   UNL A   1      40.588  26.386  28.193  1.00  0.00    -0.014 A 
BRANCH  44  45
ATOM     45  C   UNL A   1      40.711  27.708  28.797  1.00  0.00     0.031 A 
ATOM     46  C   UNL A   1      41.794  28.550  28.220  1.00  0.00     0.074 A 
ATOM     47  C   UNL A   1      39.806  28.220  29.661  1.00  0.00     0.049 A 
ATOM     48  N   UNL A   1      42.870  28.949  28.812  1.00  0.00    -0.248 NA
ATOM     49  C   UNL A   1      41.752  28.875  26.785  1.00  0.00     0.031 C 
ATOM     50  C   UNL A   1      38.529  27.645  30.097  1.00  0.00     0.029 A 
ATOM     51  N   UNL A   1      39.799  29.439  30.265  1.00  0.00    -0.354 N 
ATOM     52  C   UNL A   1      43.551  29.740  27.892  1.00  0.00     0.074 A 
ATOM     53  C   UNL A   1      42.914  29.512  26.621  1.00  0.00     0.031 C 
ATOM     54  C   UNL A   1      37.778  28.600  30.687  1.00  0.00     0.029 A 
ATOM     55  C   UNL A   1      38.581  29.798  30.830  1.00  0.00     0.049 A 
ATOM     56  H   UNL A   1      40.594  30.021  30.300  1.00  0.00     0.167 HD
ATOM     57  C   UNL A   1      44.418  30.702  28.316  1.00  0.00     0.037 A 
ATOM     58  C   UNL A   1      38.253  31.002  31.361  1.00  0.00     0.037 A 
ATOM     59  C   UNL A   1      44.807  30.470  29.688  1.00  0.00     0.049 A 
ATOM     60  C   UNL A   1      39.525  31.695  31.687  1.00  0.00     0.074 A 
ATOM     61  C   UNL A   1      45.403  29.419  30.361  1.00  0.00     0.029 A 
ATOM     62  N   UNL A   1      44.231  31.247  30.664  1.00  0.00    -0.354 N 
ATOM     63  N   UNL A   1      40.338  31.306  32.629  1.00  0.00    -0.248 NA
ATOM     64  C   UNL A   1      40.117  32.534  30.656  1.00  0.00     0.031 C 
ATOM     65  C   UNL A   1      44.718  29.348  31.611  1.00  0.00     0.029 A 
ATOM     66  C   UNL A   1      43.810  30.406  31.661  1.00  0.00     0.049 A 
ATOM     67  H   UNL A   1      44.138  32.227  30.650  1.00  0.00     0.167 HD
ATOM     68  C   UNL A   1      41.602  31.458  32.082  1.00  0.00     0.074 A 
ATOM     69  C   UNL A   1      41.409  32.300  30.903  1.00  0.00     0.031 C 
ATOM     70  C   UNL A   1      42.633  30.647  32.459  1.00  0.00     0.037 A 
BRANCH  57  71
ATOM     71  C   UNL A   1      44.591  32.053  27.656  1.00  0.00     0.064 A 
ATOM     72  C   UNL A   1      45.728  32.271  26.850  1.00  0.00     0.173 A 
ATOM     73  C   UNL A   1      43.889  33.218  28.033  1.00  0.00     0.173 A 
ATOM     74  F   UNL A   1      46.474  31.240  26.426  1.00  0.00    -0.203 F 
ATOM     75  C   UNL A   1      46.190  33.556  26.552  1.00  0.00     0.198 A 
ATOM     76  C   UNL A   1      44.324  34.497  27.689  1.00  0.00     0.198 A 
ATOM     77  F   UNL A   1      42.822  33.186  28.840  1.00  0.00    -0.203 F 
ATOM     78  F   UNL A   1      47.358  33.710  25.913  1.00  0.00    -0.200 F 
ATOM     79  C   UNL A   1      45.495  34.668  26.984  1.00  0.00     0.200 A 
ATOM     80  F   UNL A   1      43.641  35.563  28.129  1.00  0.00    -0.200 F 
ATOM     81  F   UNL A   1      45.974  35.900  26.768  1.00  0.00    -0.200 F 
ENDBRANCH  57  71
BRANCH  58  82
ATOM     82  C   UNL A   1      36.945  31.702  31.355  1.00  0.00     0.064 A 
ATOM     83  C   UNL A   1      36.251  31.944  32.552  1.00  0.00     0.173 A 
ATOM     84  C   UNL A   1      36.490  32.401  30.219  1.00  0.00     0.173 A 
ATOM     85  F   UNL A   1      36.640  31.351  33.690  1.00  0.00    -0.203 F 
ATOM     86  C   UNL A   1      35.194  32.859  32.618  1.00  0.00     0.198 A 
ATOM     87  C   UNL A   1      35.431  33.307  30.284  1.00  0.00     0.198 A 
ATOM     88  F   UNL A   1      37.127  32.293  29.044  1.00  0.00    -0.203 F 
ATOM     89  F   UNL A   1      34.605  33.116  33.794  1.00  0.00    -0.200 F 
ATOM     90  C   UNL A   1      34.794  33.549  31.487  1.00  0.00     0.200 A 
ATOM     91  F   UNL A   1      35.076  33.995  29.189  1.00  0.00    -0.200 F 
ATOM     92  F   UNL A   1      33.828  34.476  31.563  1.00  0.00    -0.200 F 
ENDBRANCH  58  82
BRANCH  70  93
ATOM     93  C   UNL A   1      42.442  29.772  33.669  1.00  0.00     0.064 A 
ATOM     94  C   UNL A   1      41.898  28.476  33.633  1.00  0.00     0.173 A 
ATOM     95  C   UNL A   1      42.966  30.215  34.891  1.00  0.00     0.173 A 
ATOM     96  F   UNL A   1      41.467  27.936  32.487  1.00  0.00    -0.203 F 
ATOM     97  C   UNL A   1      41.843  27.683  34.779  1.00  0.00     0.198 A 
ATOM     98  C   UNL A   1      42.945  29.406  36.023  1.00  0.00     0.198 A 
ATOM     99  F   UNL A   1      43.547  31.421  34.974  1.00  0.00    -0.203 F 
ATOM    100  F   UNL A   1      41.306  26.455  34.721  1.00  0.00    -0.200 F 
ATOM    101  C   UNL A   1      42.373  28.146  35.971  1.00  0.00     0.200 A 
ATOM    102  F   UNL A   1      43.505  29.840  37.160  1.00  0.00    -0.200 F 
ATOM    103  F   UNL A   1      42.359  27.368  37.061  1.00  0.00    -0.200 F 
ENDBRANCH  70  93
ENDBRANCH  44  45
ENDBRANCH  36  39
ENDBRANCH  34  35
ENDBRANCH  33  34
ENDBRANCH   1  33
TORSDOF 14
ENDMDL
