MODEL 1
REMARK VINA RESULT:     -12.0      0.000      0.000
REMARK SMILES CC(C)(C)OC(=O)N1CCC[C@H]1C(=O)N[C@@H](Cc1ccccc1)C(=O)NCCCNC(=O)c1ccc(-c2c3nc(c(-c4c(F)c(F)c(F)c(F)c4F)c4ccc([nH]4)c(-c4c(F)c(F)c(F)c(F)c4F)c4nc(c(-c5c(F)c(F)c(F)c(F)c5F)c5ccc2[nH]5)C=C4)C=C3)cc1
REMARK SMILES IDX 24 1 25 2 26 3 16 5 15 6 13 7 14 8 12 10 8 11 9 12 10 13
REMARK SMILES IDX 11 14 6 15 7 16 5 17 2 18 1 19 3 20 4 21 17 22 18 23 19 24
REMARK SMILES IDX 23 25 20 26 22 27 21 28 27 29 28 30 29 31 30 32 31 33 32 35
REMARK SMILES IDX 33 36 34 37 95 38 35 39 94 40 36 41 37 42 38 43 88 44 39 45
REMARK SMILES IDX 93 46 87 47 89 48 40 49 92 50 86 51 85 52 41 54 73 55 53 56
REMARK SMILES IDX 72 57 54 58 57 59 71 60 90 61 55 62 56 63 70 65 91 66 58 67
REMARK SMILES IDX 42 68 43 69 51 70 44 71 45 72 49 73 52 74 46 75 47 76 50 77
REMARK SMILES IDX 48 78 74 79 75 80 83 81 76 82 77 83 81 84 84 85 78 86 79 87
REMARK SMILES IDX 82 88 80 89 59 90 60 91 68 92 61 93 62 94 66 95 69 96 63 97
REMARK SMILES IDX 64 98 67 99 65 100
REMARK H PARENT 26 4 15 9 30 34 89 53 57 64
REMARK Flexibility Score: inf
ROOT
ATOM      1  C   UNL A   1      31.053  26.249  25.860  1.00  0.00     0.242 C 
ATOM      2  O   UNL A   1      30.197  26.190  26.747  1.00  0.00    -0.273 OA
ATOM      3  N   UNL A   1      31.911  27.295  25.949  1.00  0.00    -0.354 N 
ATOM      4  H   UNL A   1      31.733  27.914  26.693  1.00  0.00     0.163 HD
ENDROOT
BRANCH   1   5
ATOM      5  C   UNL A   1      31.078  25.221  24.712  1.00  0.00     0.175 C 
BRANCH   5   6
ATOM      6  N   UNL A   1      30.486  23.960  25.140  1.00  0.00    -0.342 N 
ATOM      7  C   UNL A   1      31.057  22.739  25.339  1.00  0.00     0.243 C 
ATOM      8  O   UNL A   1      30.288  21.896  25.822  1.00  0.00    -0.273 OA
ATOM      9  H   UNL A   1      29.517  23.997  25.313  1.00  0.00     0.164 HD
BRANCH   7  10
ATOM     10  C   UNL A   1      32.470  22.322  24.800  1.00  0.00     0.178 C 
ATOM     11  N   UNL A   1      33.553  22.097  25.764  1.00  0.00    -0.296 N 
ATOM     12  C   UNL A   1      33.721  20.684  26.019  1.00  0.00     0.124 C 
ATOM     13  C   UNL A   1      33.490  20.097  24.638  1.00  0.00     0.024 C 
ATOM     14  C   UNL A   1      32.369  20.964  24.062  1.00  0.00     0.037 C 
BRANCH  11  15
ATOM     15  C   UNL A   1      34.547  23.025  26.009  1.00  0.00     0.410 C 
ATOM     16  O   UNL A   1      34.307  24.213  26.176  1.00  0.00    -0.224 OA
BRANCH  15  17
ATOM     17  O   UNL A   1      35.765  22.443  26.122  1.00  0.00    -0.444 OA
BRANCH  17  18
ATOM     18  C   UNL A   1      36.863  22.618  25.178  1.00  0.00     0.106 C 
ATOM     19  C   UNL A   1      37.653  21.306  25.178  1.00  0.00     0.056 C 
ATOM     20  C   UNL A   1      37.755  23.730  25.748  1.00  0.00     0.056 C 
ATOM     21  C   UNL A   1      36.485  22.998  23.741  1.00  0.00     0.056 C 
ENDBRANCH  17  18
ENDBRANCH  15  17
ENDBRANCH  11  15
ENDBRANCH   7  10
ENDBRANCH   5   6
BRANCH   5  22
ATOM     22  C   UNL A   1      30.711  25.692  23.289  1.00  0.00     0.070 C 
BRANCH  22  23
ATOM     23  C   UNL A   1      29.932  26.967  23.097  1.00  0.00    -0.045 A 
ATOM     24  C   UNL A   1      28.593  27.066  23.503  1.00  0.00     0.004 A 
ATOM     25  C   UNL A   1      30.551  28.088  22.520  1.00  0.00     0.004 A 
ATOM     26  C   UNL A   1      27.917  28.285  23.409  1.00  0.00     0.000 A 
ATOM     27  C   UNL A   1      29.868  29.301  22.415  1.00  0.00     0.000 A 
ATOM     28  C   UNL A   1      28.558  29.404  22.878  1.00  0.00     0.000 A 
ENDBRANCH  22  23
ENDBRANCH   5  22
ENDBRANCH   1   5
BRANCH   3  29
ATOM     29  C   UNL A   1      33.043  27.645  25.128  1.00  0.00     0.117 C 
BRANCH  29  30
ATOM     30  C   UNL A   1      34.019  28.575  25.812  1.00  0.00     0.042 C 
BRANCH  30  31
ATOM     31  C   UNL A   1      33.720  28.753  27.291  1.00  0.00     0.118 C 
BRANCH  31  32
ATOM     32  N   UNL A   1      33.831  30.141  27.738  1.00  0.00    -0.352 N 
ATOM     33  C   UNL A   1      34.864  30.805  28.355  1.00  0.00     0.251 C 
ATOM     34  H   UNL A   1      33.033  30.693  27.566  1.00  0.00     0.163 HD
ATOM     35  O   UNL A   1      34.691  31.929  28.816  1.00  0.00    -0.269 OA
BRANCH  33  36
ATOM     36  C   UNL A   1      36.175  30.142  28.498  1.00  0.00     0.039 A 
ATOM     37  C   UNL A   1      37.092  30.193  27.446  1.00  0.00     0.014 A 
ATOM     38  C   UNL A   1      36.515  29.504  29.690  1.00  0.00     0.014 A 
ATOM     39  C   UNL A   1      38.385  29.700  27.636  1.00  0.00     0.010 A 
ATOM     40  C   UNL A   1      37.832  29.144  29.924  1.00  0.00     0.010 A 
ATOM     41  C   UNL A   1      38.783  29.228  28.898  1.00  0.00    -0.014 A 
BRANCH  41  42
ATOM     42  C   UNL A   1      40.174  28.790  29.177  1.00  0.00     0.031 A 
ATOM     43  C   UNL A   1      41.114  29.726  29.892  1.00  0.00     0.074 A 
ATOM     44  C   UNL A   1      40.616  27.607  28.709  1.00  0.00     0.049 A 
ATOM     45  N   UNL A   1      42.402  29.612  30.093  1.00  0.00    -0.248 NA
ATOM     46  C   UNL A   1      40.537  30.979  30.408  1.00  0.00     0.031 C 
ATOM     47  C   UNL A   1      39.819  26.640  27.948  1.00  0.00     0.029 A 
ATOM     48  N   UNL A   1      41.854  27.019  28.791  1.00  0.00    -0.354 N 
ATOM     49  C   UNL A   1      42.785  30.783  30.734  1.00  0.00     0.074 A 
ATOM     50  C   UNL A   1      41.614  31.626  30.822  1.00  0.00     0.031 C 
ATOM     51  C   UNL A   1      40.580  25.573  27.657  1.00  0.00     0.029 A 
ATOM     52  C   UNL A   1      41.927  25.796  28.169  1.00  0.00     0.049 A 
ATOM     53  H   UNL A   1      42.617  27.435  29.252  1.00  0.00     0.167 HD
ATOM     54  C   UNL A   1      43.996  31.112  31.242  1.00  0.00     0.037 A 
ATOM     55  C   UNL A   1      42.971  24.957  28.020  1.00  0.00     0.037 A 
ATOM     56  C   UNL A   1      45.147  30.252  31.195  1.00  0.00     0.049 A 
ATOM     57  C   UNL A   1      44.303  25.342  28.608  1.00  0.00     0.074 A 
ATOM     58  C   UNL A   1      46.410  30.470  31.713  1.00  0.00     0.029 A 
ATOM     59  N   UNL A   1      45.164  28.997  30.606  1.00  0.00    -0.354 N 
ATOM     60  N   UNL A   1      44.638  26.430  29.256  1.00  0.00    -0.248 NA
ATOM     61  C   UNL A   1      45.400  24.378  28.448  1.00  0.00     0.031 C 
ATOM     62  C   UNL A   1      47.201  29.356  31.416  1.00  0.00     0.029 A 
ATOM     63  C   UNL A   1      46.419  28.428  30.748  1.00  0.00     0.049 A 
ATOM     64  H   UNL A   1      44.399  28.572  30.154  1.00  0.00     0.167 HD
ATOM     65  C   UNL A   1      45.971  26.269  29.609  1.00  0.00     0.074 A 
ATOM     66  C   UNL A   1      46.378  24.969  29.119  1.00  0.00     0.031 C 
ATOM     67  C   UNL A   1      46.788  27.121  30.274  1.00  0.00     0.037 A 
BRANCH  54  68
ATOM     68  C   UNL A   1      44.126  32.441  31.926  1.00  0.00     0.064 A 
ATOM     69  C   UNL A   1      44.495  33.593  31.214  1.00  0.00     0.173 A 
ATOM     70  C   UNL A   1      43.842  32.577  33.292  1.00  0.00     0.173 A 
ATOM     71  F   UNL A   1      44.793  33.513  29.908  1.00  0.00    -0.203 F 
ATOM     72  C   UNL A   1      44.597  34.827  31.850  1.00  0.00     0.198 A 
ATOM     73  C   UNL A   1      43.916  33.819  33.919  1.00  0.00     0.198 A 
ATOM     74  F   UNL A   1      43.483  31.507  34.020  1.00  0.00    -0.203 F 
ATOM     75  F   UNL A   1      44.996  35.904  31.158  1.00  0.00    -0.200 F 
ATOM     76  C   UNL A   1      44.299  34.941  33.199  1.00  0.00     0.200 A 
ATOM     77  F   UNL A   1      43.616  33.930  35.220  1.00  0.00    -0.200 F 
ATOM     78  F   UNL A   1      44.386  36.132  33.808  1.00  0.00    -0.200 F 
ENDBRANCH  54  68
BRANCH  55  79
ATOM     79  C   UNL A   1      42.803  23.664  27.305  1.00  0.00     0.064 A 
ATOM     80  C   UNL A   1      42.292  22.538  27.966  1.00  0.00     0.173 A 
ATOM     81  C   UNL A   1      43.183  23.513  25.964  1.00  0.00     0.173 A 
ATOM     82  F   UNL A   1      41.931  22.626  29.255  1.00  0.00    -0.203 F 
ATOM     83  C   UNL A   1      42.203  21.303  27.326  1.00  0.00     0.198 A 
ATOM     84  C   UNL A   1      43.065  22.285  25.315  1.00  0.00     0.198 A 
ATOM     85  F   UNL A   1      43.672  24.560  25.282  1.00  0.00    -0.203 F 
ATOM     86  F   UNL A   1      41.770  20.230  28.003  1.00  0.00    -0.200 F 
ATOM     87  C   UNL A   1      42.586  21.179  26.000  1.00  0.00     0.200 A 
ATOM     88  F   UNL A   1      43.423  22.173  24.028  1.00  0.00    -0.200 F 
ATOM     89  F   UNL A   1      42.508  19.990  25.387  1.00  0.00    -0.200 F 
ENDBRANCH  55  79
BRANCH  67  90
ATOM     90  C   UNL A   1      48.186  26.654  30.554  1.00  0.00     0.064 A 
ATOM     91  C   UNL A   1      48.492  25.888  31.687  1.00  0.00     0.173 A 
ATOM     92  C   UNL A   1      49.220  26.939  29.649  1.00  0.00     0.173 A 
ATOM     93  F   UNL A   1      47.538  25.603  32.588  1.00  0.00    -0.203 F 
ATOM     94  C   UNL A   1      49.790  25.445  31.919  1.00  0.00     0.198 A 
ATOM     95  C   UNL A   1      50.511  26.468  29.869  1.00  0.00     0.198 A 
ATOM     96  F   UNL A   1      48.975  27.661  28.546  1.00  0.00    -0.203 F 
ATOM     97  F   UNL A   1      50.071  24.753  33.032  1.00  0.00    -0.200 F 
ATOM     98  C   UNL A   1      50.796  25.728  31.007  1.00  0.00     0.200 A 
ATOM     99  F   UNL A   1      51.478  26.730  28.980  1.00  0.00    -0.200 F 
ATOM    100  F   UNL A   1      52.044  25.291  31.228  1.00  0.00    -0.200 F 
ENDBRANCH  67  90
ENDBRANCH  41  42
ENDBRANCH  33  36
ENDBRANCH  31  32
ENDBRANCH  30  31
ENDBRANCH  29  30
ENDBRANCH   3  29
TORSDOF 17
ENDMDL
MODEL 2
REMARK VINA RESULT:     -11.9      3.857      8.685
REMARK SMILES CC(C)(C)OC(=O)N1CCC[C@H]1C(=O)N[C@@H](Cc1ccccc1)C(=O)NCCCNC(=O)c1ccc(-c2c3nc(c(-c4c(F)c(F)c(F)c(F)c4F)c4ccc([nH]4)c(-c4c(F)c(F)c(F)c(F)c4F)c4nc(c(-c5c(F)c(F)c(F)c(F)c5F)c5ccc2[nH]5)C=C4)C=C3)cc1
REMARK SMILES IDX 24 1 25 2 26 3 16 5 15 6 13 7 14 8 12 10 8 11 9 12 10 13
REMARK SMILES IDX 11 14 6 15 7 16 5 17 2 18 1 19 3 20 4 21 17 22 18 23 19 24
REMARK SMILES IDX 23 25 20 26 22 27 21 28 27 29 28 30 29 31 30 32 31 33 32 35
REMARK SMILES IDX 33 36 34 37 95 38 35 39 94 40 36 41 37 42 38 43 88 44 39 45
REMARK SMILES IDX 93 46 87 47 89 48 40 49 92 50 86 51 85 52 41 54 73 55 53 56
REMARK SMILES IDX 72 57 54 58 57 59 71 60 90 61 55 62 56 63 70 65 91 66 58 67
REMARK SMILES IDX 42 68 43 69 51 70 44 71 45 72 49 73 52 74 46 75 47 76 50 77
REMARK SMILES IDX 48 78 74 79 75 80 83 81 76 82 77 83 81 84 84 85 78 86 79 87
REMARK SMILES IDX 82 88 80 89 59 90 60 91 68 92 61 93 62 94 66 95 69 96 63 97
REMARK SMILES IDX 64 98 67 99 65 100
REMARK H PARENT 26 4 15 9 30 34 89 53 57 64
REMARK Flexibility Score: inf
ROOT
ATOM      1  C   UNL A   1      33.064  29.017  24.511  1.00  0.00     0.242 C 
ATOM      2  O   UNL A   1      34.150  28.917  23.933  1.00  0.00    -0.273 OA
ATOM      3  N   UNL A   1      33.049  29.857  25.575  1.00  0.00    -0.354 N 
ATOM      4  H   UNL A   1      33.917  30.268  25.791  1.00  0.00     0.163 HD
ENDROOT
BRANCH   1   5
ATOM      5  C   UNL A   1      31.847  28.184  24.064  1.00  0.00     0.175 C 
BRANCH   5   6
ATOM      6  N   UNL A   1      31.112  27.689  25.220  1.00  0.00    -0.342 N 
ATOM      7  C   UNL A   1      31.137  26.468  25.825  1.00  0.00     0.243 C 
ATOM      8  O   UNL A   1      30.473  26.409  26.869  1.00  0.00    -0.273 OA
ATOM      9  H   UNL A   1      30.499  28.342  25.630  1.00  0.00     0.164 HD
BRANCH   7  10
ATOM     10  C   UNL A   1      31.732  25.169  25.177  1.00  0.00     0.178 C 
ATOM     11  N   UNL A   1      32.872  24.516  25.828  1.00  0.00    -0.296 N 
ATOM     12  C   UNL A   1      32.429  23.389  26.618  1.00  0.00     0.124 C 
ATOM     13  C   UNL A   1      31.331  22.815  25.740  1.00  0.00     0.024 C 
ATOM     14  C   UNL A   1      30.655  24.056  25.155  1.00  0.00     0.037 C 
BRANCH  11  15
ATOM     15  C   UNL A   1      34.172  24.651  25.382  1.00  0.00     0.410 C 
ATOM     16  O   UNL A   1      34.666  25.740  25.122  1.00  0.00    -0.224 OA
BRANCH  15  17
ATOM     17  O   UNL A   1      34.826  23.464  25.358  1.00  0.00    -0.444 OA
BRANCH  17  18
ATOM     18  C   UNL A   1      34.996  22.630  24.174  1.00  0.00     0.106 C 
ATOM     19  C   UNL A   1      34.787  21.182  24.625  1.00  0.00     0.056 C 
ATOM     20  C   UNL A   1      36.455  22.801  23.727  1.00  0.00     0.056 C 
ATOM     21  C   UNL A   1      34.090  22.938  22.975  1.00  0.00     0.056 C 
ENDBRANCH  17  18
ENDBRANCH  15  17
ENDBRANCH  11  15
ENDBRANCH   7  10
ENDBRANCH   5   6
BRANCH   5  22
ATOM     22  C   UNL A   1      30.991  28.700  22.888  1.00  0.00     0.070 C 
BRANCH  22  23
ATOM     23  C   UNL A   1      29.709  29.442  23.161  1.00  0.00    -0.045 A 
ATOM     24  C   UNL A   1      29.721  30.775  23.596  1.00  0.00     0.004 A 
ATOM     25  C   UNL A   1      28.473  28.804  22.963  1.00  0.00     0.004 A 
ATOM     26  C   UNL A   1      28.523  31.478  23.748  1.00  0.00     0.000 A 
ATOM     27  C   UNL A   1      27.277  29.505  23.128  1.00  0.00     0.000 A 
ATOM     28  C   UNL A   1      27.303  30.847  23.502  1.00  0.00     0.000 A 
ENDBRANCH  22  23
ENDBRANCH   5  22
ENDBRANCH   1   5
BRANCH   3  29
ATOM     29  C   UNL A   1      31.963  30.246  26.439  1.00  0.00     0.117 C 
BRANCH  29  30
ATOM     30  C   UNL A   1      31.754  31.742  26.507  1.00  0.00     0.042 C 
BRANCH  30  31
ATOM     31  C   UNL A   1      32.800  32.442  27.358  1.00  0.00     0.118 C 
BRANCH  31  32
ATOM     32  N   UNL A   1      32.514  33.860  27.572  1.00  0.00    -0.352 N 
ATOM     33  C   UNL A   1      33.036  34.754  28.476  1.00  0.00     0.251 C 
ATOM     34  H   UNL A   1      31.836  34.238  26.967  1.00  0.00     0.163 HD
ATOM     35  O   UNL A   1      32.528  35.862  28.616  1.00  0.00    -0.269 OA
BRANCH  33  36
ATOM     36  C   UNL A   1      34.188  34.360  29.311  1.00  0.00     0.039 A 
ATOM     37  C   UNL A   1      33.967  33.801  30.572  1.00  0.00     0.014 A 
ATOM     38  C   UNL A   1      35.488  34.504  28.830  1.00  0.00     0.014 A 
ATOM     39  C   UNL A   1      35.046  33.289  31.297  1.00  0.00     0.010 A 
ATOM     40  C   UNL A   1      36.535  33.874  29.483  1.00  0.00     0.010 A 
ATOM     41  C   UNL A   1      36.330  33.266  30.729  1.00  0.00    -0.014 A 
BRANCH  41  42
ATOM     42  C   UNL A   1      37.488  32.641  31.416  1.00  0.00     0.031 A 
ATOM     43  C   UNL A   1      38.210  31.495  30.755  1.00  0.00     0.074 A 
ATOM     44  C   UNL A   1      37.826  33.031  32.661  1.00  0.00     0.049 A 
ATOM     45  N   UNL A   1      39.134  30.706  31.240  1.00  0.00    -0.248 NA
ATOM     46  C   UNL A   1      37.806  31.164  29.377  1.00  0.00     0.031 C 
ATOM     47  C   UNL A   1      37.163  34.085  33.432  1.00  0.00     0.029 A 
ATOM     48  N   UNL A   1      38.806  32.572  33.506  1.00  0.00    -0.354 N 
ATOM     49  C   UNL A   1      39.398  29.780  30.240  1.00  0.00     0.074 A 
ATOM     50  C   UNL A   1      38.488  30.054  29.151  1.00  0.00     0.031 C 
ATOM     51  C   UNL A   1      37.771  34.209  34.624  1.00  0.00     0.029 A 
ATOM     52  C   UNL A   1      38.834  33.215  34.720  1.00  0.00     0.049 A 
ATOM     53  H   UNL A   1      39.429  31.850  33.265  1.00  0.00     0.167 HD
ATOM     54  C   UNL A   1      40.343  28.811  30.213  1.00  0.00     0.037 A 
ATOM     55  C   UNL A   1      39.625  33.016  35.792  1.00  0.00     0.037 A 
ATOM     56  C   UNL A   1      41.278  28.571  31.279  1.00  0.00     0.049 A 
ATOM     57  C   UNL A   1      40.677  31.940  35.729  1.00  0.00     0.074 A 
ATOM     58  C   UNL A   1      42.300  27.642  31.339  1.00  0.00     0.029 A 
ATOM     59  N   UNL A   1      41.310  29.283  32.468  1.00  0.00    -0.354 N 
ATOM     60  N   UNL A   1      40.950  31.105  34.757  1.00  0.00    -0.248 NA
ATOM     61  C   UNL A   1      41.536  31.785  36.911  1.00  0.00     0.031 C 
ATOM     62  C   UNL A   1      42.937  27.774  32.576  1.00  0.00     0.029 A 
ATOM     63  C   UNL A   1      42.337  28.813  33.269  1.00  0.00     0.049 A 
ATOM     64  H   UNL A   1      40.695  30.014  32.708  1.00  0.00     0.167 HD
ATOM     65  C   UNL A   1      42.029  30.348  35.195  1.00  0.00     0.074 A 
ATOM     66  C   UNL A   1      42.372  30.837  36.513  1.00  0.00     0.031 C 
ATOM     67  C   UNL A   1      42.674  29.336  34.567  1.00  0.00     0.037 A 
BRANCH  54  68
ATOM     68  C   UNL A   1      40.437  27.965  28.978  1.00  0.00     0.064 A 
ATOM     69  C   UNL A   1      41.270  28.330  27.908  1.00  0.00     0.173 A 
ATOM     70  C   UNL A   1      39.725  26.763  28.873  1.00  0.00     0.173 A 
ATOM     71  F   UNL A   1      41.960  29.480  27.951  1.00  0.00    -0.203 F 
ATOM     72  C   UNL A   1      41.367  27.533  26.771  1.00  0.00     0.198 A 
ATOM     73  C   UNL A   1      39.848  25.953  27.747  1.00  0.00     0.198 A 
ATOM     74  F   UNL A   1      38.915  26.366  29.868  1.00  0.00    -0.203 F 
ATOM     75  F   UNL A   1      42.132  27.927  25.743  1.00  0.00    -0.200 F 
ATOM     76  C   UNL A   1      40.663  26.342  26.695  1.00  0.00     0.200 A 
ATOM     77  F   UNL A   1      39.176  24.795  27.680  1.00  0.00    -0.200 F 
ATOM     78  F   UNL A   1      40.767  25.569  25.604  1.00  0.00    -0.200 F 
ENDBRANCH  54  68
BRANCH  55  79
ATOM     79  C   UNL A   1      39.473  33.857  37.008  1.00  0.00     0.064 A 
ATOM     80  C   UNL A   1      40.143  35.085  37.122  1.00  0.00     0.173 A 
ATOM     81  C   UNL A   1      38.692  33.440  38.096  1.00  0.00     0.173 A 
ATOM     82  F   UNL A   1      40.918  35.518  36.117  1.00  0.00    -0.203 F 
ATOM     83  C   UNL A   1      40.067  35.843  38.289  1.00  0.00     0.198 A 
ATOM     84  C   UNL A   1      38.592  34.215  39.250  1.00  0.00     0.198 A 
ATOM     85  F   UNL A   1      38.024  32.278  38.038  1.00  0.00    -0.203 F 
ATOM     86  F   UNL A   1      40.769  36.980  38.392  1.00  0.00    -0.200 F 
ATOM     87  C   UNL A   1      39.289  35.409  39.351  1.00  0.00     0.200 A 
ATOM     88  F   UNL A   1      37.827  33.799  40.269  1.00  0.00    -0.200 F 
ATOM     89  F   UNL A   1      39.223  36.134  40.475  1.00  0.00    -0.200 F 
ENDBRANCH  55  79
BRANCH  67  90
ATOM     90  C   UNL A   1      43.847  28.726  35.275  1.00  0.00     0.064 A 
ATOM     91  C   UNL A   1      45.150  29.207  35.089  1.00  0.00     0.173 A 
ATOM     92  C   UNL A   1      43.654  27.676  36.186  1.00  0.00     0.173 A 
ATOM     93  F   UNL A   1      45.385  30.200  34.217  1.00  0.00    -0.203 F 
ATOM     94  C   UNL A   1      46.223  28.642  35.772  1.00  0.00     0.198 A 
ATOM     95  C   UNL A   1      44.725  27.134  36.889  1.00  0.00     0.198 A 
ATOM     96  F   UNL A   1      42.424  27.187  36.404  1.00  0.00    -0.203 F 
ATOM     97  F   UNL A   1      47.467  29.087  35.545  1.00  0.00    -0.200 F 
ATOM     98  C   UNL A   1      46.009  27.613  36.676  1.00  0.00     0.200 A 
ATOM     99  F   UNL A   1      44.515  26.150  37.772  1.00  0.00    -0.200 F 
ATOM    100  F   UNL A   1      47.043  27.077  37.339  1.00  0.00    -0.200 F 
ENDBRANCH  67  90
ENDBRANCH  41  42
ENDBRANCH  33  36
ENDBRANCH  31  32
ENDBRANCH  30  31
ENDBRANCH  29  30
ENDBRANCH   3  29
TORSDOF 17
ENDMDL
MODEL 3
REMARK VINA RESULT:     -11.8      3.162      8.680
REMARK SMILES CC(C)(C)OC(=O)N1CCC[C@H]1C(=O)N[C@@H](Cc1ccccc1)C(=O)NCCCNC(=O)c1ccc(-c2c3nc(c(-c4c(F)c(F)c(F)c(F)c4F)c4ccc([nH]4)c(-c4c(F)c(F)c(F)c(F)c4F)c4nc(c(-c5c(F)c(F)c(F)c(F)c5F)c5ccc2[nH]5)C=C4)C=C3)cc1
REMARK SMILES IDX 24 1 25 2 26 3 16 5 15 6 13 7 14 8 12 10 8 11 9 12 10 13
REMARK SMILES IDX 11 14 6 15 7 16 5 17 2 18 1 19 3 20 4 21 17 22 18 23 19 24
REMARK SMILES IDX 23 25 20 26 22 27 21 28 27 29 28 30 29 31 30 32 31 33 32 35
REMARK SMILES IDX 33 36 34 37 95 38 35 39 94 40 36 41 37 42 38 43 88 44 39 45
REMARK SMILES IDX 93 46 87 47 89 48 40 49 92 50 86 51 85 52 41 54 73 55 53 56
REMARK SMILES IDX 72 57 54 58 57 59 71 60 90 61 55 62 56 63 70 65 91 66 58 67
REMARK SMILES IDX 42 68 43 69 51 70 44 71 45 72 49 73 52 74 46 75 47 76 50 77
REMARK SMILES IDX 48 78 74 79 75 80 83 81 76 82 77 83 81 84 84 85 78 86 79 87
REMARK SMILES IDX 82 88 80 89 59 90 60 91 68 92 61 93 62 94 66 95 69 96 63 97
REMARK SMILES IDX 64 98 67 99 65 100
REMARK H PARENT 26 4 15 9 30 34 89 53 57 64
REMARK Flexibility Score: inf
ROOT
ATOM      1  C   UNL A   1      34.809  21.650  26.356  1.00  0.00     0.242 C 
ATOM      2  O   UNL A   1      34.524  21.900  27.530  1.00  0.00    -0.273 OA
ATOM      3  N   UNL A   1      36.120  21.395  26.119  1.00  0.00    -0.354 N 
ATOM      4  H   UNL A   1      36.706  21.473  26.906  1.00  0.00     0.163 HD
ENDROOT
BRANCH   1   5
ATOM      5  C   UNL A   1      33.735  21.694  25.251  1.00  0.00     0.175 C 
BRANCH   5   6
ATOM      6  N   UNL A   1      34.306  22.176  24.000  1.00  0.00    -0.342 N 
ATOM      7  C   UNL A   1      34.073  23.327  23.309  1.00  0.00     0.243 C 
ATOM      8  O   UNL A   1      34.817  23.488  22.332  1.00  0.00    -0.273 OA
ATOM      9  H   UNL A   1      34.967  21.573  23.589  1.00  0.00     0.164 HD
BRANCH   7  10
ATOM     10  C   UNL A   1      32.837  24.266  23.541  1.00  0.00     0.178 C 
ATOM     11  N   UNL A   1      33.047  25.552  24.214  1.00  0.00    -0.296 N 
ATOM     12  C   UNL A   1      33.124  26.625  23.248  1.00  0.00     0.124 C 
ATOM     13  C   UNL A   1      32.074  26.199  22.237  1.00  0.00     0.024 C 
ATOM     14  C   UNL A   1      32.231  24.678  22.177  1.00  0.00     0.037 C 
BRANCH  11  15
ATOM     15  C   UNL A   1      32.741  25.764  25.544  1.00  0.00     0.410 C 
ATOM     16  O   UNL A   1      33.233  25.098  26.444  1.00  0.00    -0.224 OA
BRANCH  15  17
ATOM     17  O   UNL A   1      31.919  26.829  25.711  1.00  0.00    -0.444 OA
BRANCH  17  18
ATOM     18  C   UNL A   1      32.298  28.081  26.355  1.00  0.00     0.106 C 
ATOM     19  C   UNL A   1      31.583  28.111  27.709  1.00  0.00     0.056 C 
ATOM     20  C   UNL A   1      31.736  29.209  25.477  1.00  0.00     0.056 C 
ATOM     21  C   UNL A   1      33.798  28.331  26.552  1.00  0.00     0.056 C 
ENDBRANCH  17  18
ENDBRANCH  15  17
ENDBRANCH  11  15
ENDBRANCH   7  10
ENDBRANCH   5   6
BRANCH   5  22
ATOM     22  C   UNL A   1      32.747  20.515  25.134  1.00  0.00     0.070 C 
BRANCH  22  23
ATOM     23  C   UNL A   1      33.127  19.293  24.340  1.00  0.00    -0.045 A 
ATOM     24  C   UNL A   1      34.208  18.485  24.722  1.00  0.00     0.004 A 
ATOM     25  C   UNL A   1      32.382  18.934  23.204  1.00  0.00     0.004 A 
ATOM     26  C   UNL A   1      34.484  17.302  24.032  1.00  0.00     0.000 A 
ATOM     27  C   UNL A   1      32.668  17.758  22.508  1.00  0.00     0.000 A 
ATOM     28  C   UNL A   1      33.706  16.933  22.934  1.00  0.00     0.000 A 
ENDBRANCH  22  23
ENDBRANCH   5  22
ENDBRANCH   1   5
BRANCH   3  29
ATOM     29  C   UNL A   1      36.792  21.027  24.897  1.00  0.00     0.117 C 
BRANCH  29  30
ATOM     30  C   UNL A   1      37.811  19.926  25.080  1.00  0.00     0.042 C 
BRANCH  30  31
ATOM     31  C   UNL A   1      39.059  20.396  25.808  1.00  0.00     0.118 C 
BRANCH  31  32
ATOM     32  N   UNL A   1      40.079  19.356  25.934  1.00  0.00    -0.352 N 
ATOM     33  C   UNL A   1      41.438  19.450  26.114  1.00  0.00     0.251 C 
ATOM     34  H   UNL A   1      39.735  18.435  25.883  1.00  0.00     0.163 HD
ATOM     35  O   UNL A   1      42.147  18.454  26.013  1.00  0.00    -0.269 OA
BRANCH  33  36
ATOM     36  C   UNL A   1      42.049  20.766  26.390  1.00  0.00     0.039 A 
ATOM     37  C   UNL A   1      42.535  21.536  25.332  1.00  0.00     0.014 A 
ATOM     38  C   UNL A   1      42.104  21.257  27.693  1.00  0.00     0.014 A 
ATOM     39  C   UNL A   1      42.973  22.840  25.574  1.00  0.00     0.010 A 
ATOM     40  C   UNL A   1      42.405  22.591  27.911  1.00  0.00     0.010 A 
ATOM     41  C   UNL A   1      42.852  23.398  26.857  1.00  0.00    -0.014 A 
BRANCH  41  42
ATOM     42  C   UNL A   1      43.207  24.812  27.142  1.00  0.00     0.031 A 
ATOM     43  C   UNL A   1      44.617  25.283  26.903  1.00  0.00     0.074 A 
ATOM     44  C   UNL A   1      42.299  25.636  27.701  1.00  0.00     0.049 A 
ATOM     45  N   UNL A   1      45.179  26.419  27.231  1.00  0.00    -0.248 NA
ATOM     46  C   UNL A   1      45.532  24.332  26.248  1.00  0.00     0.031 C 
ATOM     47  C   UNL A   1      40.919  25.278  28.040  1.00  0.00     0.029 A 
ATOM     48  N   UNL A   1      42.406  26.945  28.100  1.00  0.00    -0.354 N 
ATOM     49  C   UNL A   1      46.508  26.305  26.844  1.00  0.00     0.074 A 
ATOM     50  C   UNL A   1      46.689  24.967  26.327  1.00  0.00     0.031 C 
ATOM     51  C   UNL A   1      40.303  26.348  28.570  1.00  0.00     0.029 A 
ATOM     52  C   UNL A   1      41.253  27.451  28.651  1.00  0.00     0.049 A 
ATOM     53  H   UNL A   1      43.231  27.471  28.001  1.00  0.00     0.167 HD
ATOM     54  C   UNL A   1      47.482  27.244  26.878  1.00  0.00     0.037 A 
ATOM     55  C   UNL A   1      40.999  28.667  29.172  1.00  0.00     0.037 A 
ATOM     56  C   UNL A   1      47.286  28.588  27.349  1.00  0.00     0.049 A 
ATOM     57  C   UNL A   1      42.098  29.697  29.184  1.00  0.00     0.074 A 
ATOM     58  C   UNL A   1      48.194  29.630  27.391  1.00  0.00     0.029 A 
ATOM     59  N   UNL A   1      46.087  29.077  27.846  1.00  0.00    -0.354 N 
ATOM     60  N   UNL A   1      43.336  29.591  28.768  1.00  0.00    -0.248 NA
ATOM     61  C   UNL A   1      41.761  31.018  29.733  1.00  0.00     0.031 C 
ATOM     62  C   UNL A   1      47.552  30.745  27.937  1.00  0.00     0.029 A 
ATOM     63  C   UNL A   1      46.233  30.408  28.197  1.00  0.00     0.049 A 
ATOM     64  H   UNL A   1      45.256  28.556  27.935  1.00  0.00     0.167 HD
ATOM     65  C   UNL A   1      43.915  30.836  28.974  1.00  0.00     0.074 A 
ATOM     66  C   UNL A   1      42.887  31.687  29.535  1.00  0.00     0.031 C 
ATOM     67  C   UNL A   1      45.185  31.240  28.727  1.00  0.00     0.037 A 
BRANCH  54  68
ATOM     68  C   UNL A   1      48.836  26.861  26.356  1.00  0.00     0.064 A 
ATOM     69  C   UNL A   1      49.793  26.259  27.189  1.00  0.00     0.173 A 
ATOM     70  C   UNL A   1      49.169  27.057  25.009  1.00  0.00     0.173 A 
ATOM     71  F   UNL A   1      49.530  26.064  28.490  1.00  0.00    -0.203 F 
ATOM     72  C   UNL A   1      51.041  25.890  26.695  1.00  0.00     0.198 A 
ATOM     73  C   UNL A   1      50.408  26.659  24.512  1.00  0.00     0.198 A 
ATOM     74  F   UNL A   1      48.290  27.627  24.170  1.00  0.00    -0.203 F 
ATOM     75  F   UNL A   1      51.955  25.360  27.521  1.00  0.00    -0.200 F 
ATOM     76  C   UNL A   1      51.344  26.081  25.357  1.00  0.00     0.200 A 
ATOM     77  F   UNL A   1      50.695  26.834  23.215  1.00  0.00    -0.200 F 
ATOM     78  F   UNL A   1      52.542  25.715  24.880  1.00  0.00    -0.200 F 
ENDBRANCH  54  68
BRANCH  55  79
ATOM     79  C   UNL A   1      39.651  28.991  29.709  1.00  0.00     0.064 A 
ATOM     80  C   UNL A   1      39.326  28.721  31.047  1.00  0.00     0.173 A 
ATOM     81  C   UNL A   1      38.649  29.537  28.894  1.00  0.00     0.173 A 
ATOM     82  F   UNL A   1      40.244  28.181  31.862  1.00  0.00    -0.203 F 
ATOM     83  C   UNL A   1      38.042  28.950  31.537  1.00  0.00     0.198 A 
ATOM     84  C   UNL A   1      37.374  29.795  29.395  1.00  0.00     0.198 A 
ATOM     85  F   UNL A   1      38.907  29.821  27.609  1.00  0.00    -0.203 F 
ATOM     86  F   UNL A   1      37.743  28.624  32.803  1.00  0.00    -0.200 F 
ATOM     87  C   UNL A   1      37.068  29.490  30.712  1.00  0.00     0.200 A 
ATOM     88  F   UNL A   1      36.439  30.330  28.597  1.00  0.00    -0.200 F 
ATOM     89  F   UNL A   1      35.831  29.703  31.182  1.00  0.00    -0.200 F 
ENDBRANCH  55  79
BRANCH  67  90
ATOM     90  C   UNL A   1      45.518  32.674  29.014  1.00  0.00     0.064 A 
ATOM     91  C   UNL A   1      46.056  33.070  30.246  1.00  0.00     0.173 A 
ATOM     92  C   UNL A   1      45.337  33.652  28.026  1.00  0.00     0.173 A 
ATOM     93  F   UNL A   1      46.233  32.172  31.227  1.00  0.00    -0.203 F 
ATOM     94  C   UNL A   1      46.379  34.402  30.487  1.00  0.00     0.198 A 
ATOM     95  C   UNL A   1      45.689  34.978  28.260  1.00  0.00     0.198 A 
ATOM     96  F   UNL A   1      44.832  33.320  26.828  1.00  0.00    -0.203 F 
ATOM     97  F   UNL A   1      46.850  34.769  31.687  1.00  0.00    -0.200 F 
ATOM     98  C   UNL A   1      46.203  35.352  29.492  1.00  0.00     0.200 A 
ATOM     99  F   UNL A   1      45.531  35.892  27.294  1.00  0.00    -0.200 F 
ATOM    100  F   UNL A   1      46.524  36.633  29.724  1.00  0.00    -0.200 F 
ENDBRANCH  67  90
ENDBRANCH  41  42
ENDBRANCH  33  36
ENDBRANCH  31  32
ENDBRANCH  30  31
ENDBRANCH  29  30
ENDBRANCH   3  29
TORSDOF 17
ENDMDL
