MODEL 1
REMARK VINA RESULT:     -12.1      0.000      0.000
REMARK SMILES Cc1noc(C)c1[C@H](C)NC(=O)NC[C@@](C)(O)C(=O)NCCCNC(=O)c1ccc(-c2c3nc(c(-c4c(F)c(F)c(F)c(F)c4F)c4ccc([nH]4)c(-c4c(F)c(F)c(F)c(F)c4F)c4nc(c(-c5c(F)c(F)c(F)c(F)c5F)c5ccc2[nH]5)C=C4)C=C3)cc1
REMARK SMILES IDX 21 1 20 2 18 3 19 4 15 6 16 7 14 8 13 9 10 10 11 11 12 13
REMARK SMILES IDX 8 15 9 16 7 17 1 18 2 19 3 20 4 21 5 22 6 23 17 24 22 26
REMARK SMILES IDX 23 27 24 28 25 29 26 31 27 32 28 33 89 34 29 35 88 36 30 37
REMARK SMILES IDX 31 38 32 39 82 40 33 41 87 42 81 43 83 44 34 45 86 46 80 47
REMARK SMILES IDX 79 48 35 50 67 51 47 52 66 53 48 54 51 55 65 56 84 57 49 58
REMARK SMILES IDX 50 59 64 61 85 62 52 63 36 64 37 65 45 66 38 67 39 68 43 69
REMARK SMILES IDX 46 70 40 71 41 72 44 73 42 74 68 75 69 76 77 77 70 78 71 79
REMARK SMILES IDX 75 80 78 81 72 82 73 83 76 84 74 85 53 86 54 87 62 88 55 89
REMARK SMILES IDX 56 90 60 91 63 92 57 93 58 94 61 95 59 96
REMARK H PARENT 20 5 10 12 13 14 17 25 24 30 83 49 51 60
REMARK Flexibility Score: inf
ROOT
ATOM      1  C   UNL A   1      31.397  30.734  26.387  1.00  0.00     0.117 C 
ENDROOT
BRANCH   1   2
ATOM      2  N   UNL A   1      31.525  30.290  25.010  1.00  0.00    -0.353 N 
ATOM      3  C   UNL A   1      31.936  29.100  24.474  1.00  0.00     0.253 C 
ATOM      4  O   UNL A   1      31.796  29.007  23.254  1.00  0.00    -0.272 OA
ATOM      5  H   UNL A   1      31.270  30.967  24.343  1.00  0.00     0.163 HD
BRANCH   3   6
ATOM      6  C   UNL A   1      32.438  27.929  25.372  1.00  0.00     0.157 C 
ATOM      7  C   UNL A   1      31.195  27.138  25.813  1.00  0.00     0.055 C 
BRANCH   6   8
ATOM      8  C   UNL A   1      33.460  26.943  24.714  1.00  0.00     0.162 C 
BRANCH   8   9
ATOM      9  N   UNL A   1      33.556  26.883  23.270  1.00  0.00    -0.335 N 
ATOM     10  N   UNL A   1      32.670  24.793  22.581  1.00  0.00    -0.331 N 
ATOM     11  C   UNL A   1      33.259  25.969  22.335  1.00  0.00     0.315 C 
ATOM     12  H   UNL A   1      32.670  24.190  21.803  1.00  0.00     0.165 HD
ATOM     13  O   UNL A   1      33.538  26.240  21.165  1.00  0.00    -0.249 OA
ATOM     14  H   UNL A   1      33.926  27.709  22.883  1.00  0.00     0.165 HD
BRANCH  10  15
ATOM     15  C   UNL A   1      32.029  24.215  23.749  1.00  0.00     0.116 C 
ATOM     16  C   UNL A   1      30.528  24.121  23.490  1.00  0.00     0.036 C 
BRANCH  15  17
ATOM     17  C   UNL A   1      32.707  22.914  24.082  1.00  0.00     0.040 A 
ATOM     18  C   UNL A   1      33.882  23.605  26.322  1.00  0.00     0.071 C 
ATOM     19  C   UNL A   1      33.517  22.667  25.237  1.00  0.00     0.086 A 
ATOM     20  N   UNL A   1      33.936  21.399  25.292  1.00  0.00    -0.085 NA
ATOM     21  O   UNL A   1      33.412  20.786  24.179  1.00  0.00    -0.361 OA
ATOM     22  C   UNL A   1      32.672  21.675  23.464  1.00  0.00     0.139 A 
ATOM     23  C   UNL A   1      32.024  21.107  22.265  1.00  0.00     0.091 C 
ENDBRANCH  15  17
ENDBRANCH  10  15
ENDBRANCH   8   9
ENDBRANCH   6   8
BRANCH   6  24
ATOM     24  O   UNL A   1      33.087  28.457  26.544  1.00  0.00    -0.378 OA
ATOM     25  H   UNL A   1      32.723  29.333  26.748  1.00  0.00     0.212 HD
ENDBRANCH   6  24
ENDBRANCH   3   6
ENDBRANCH   1   2
BRANCH   1  26
ATOM     26  C   UNL A   1      31.364  32.252  26.529  1.00  0.00     0.042 C 
BRANCH  26  27
ATOM     27  C   UNL A   1      32.624  32.878  27.123  1.00  0.00     0.118 C 
BRANCH  27  28
ATOM     28  N   UNL A   1      32.419  34.230  27.628  1.00  0.00    -0.352 N 
ATOM     29  C   UNL A   1      33.028  34.932  28.634  1.00  0.00     0.251 C 
ATOM     30  H   UNL A   1      31.713  34.732  27.158  1.00  0.00     0.163 HD
ATOM     31  O   UNL A   1      32.555  36.021  28.972  1.00  0.00    -0.269 OA
BRANCH  29  32
ATOM     32  C   UNL A   1      34.217  34.414  29.347  1.00  0.00     0.039 A 
ATOM     33  C   UNL A   1      34.030  33.759  30.570  1.00  0.00     0.014 A 
ATOM     34  C   UNL A   1      35.513  34.606  28.863  1.00  0.00     0.014 A 
ATOM     35  C   UNL A   1      35.125  33.232  31.262  1.00  0.00     0.010 A 
ATOM     36  C   UNL A   1      36.596  34.011  29.510  1.00  0.00     0.010 A 
ATOM     37  C   UNL A   1      36.415  33.314  30.714  1.00  0.00    -0.014 A 
BRANCH  37  38
ATOM     38  C   UNL A   1      37.578  32.668  31.379  1.00  0.00     0.031 A 
ATOM     39  C   UNL A   1      38.293  31.518  30.722  1.00  0.00     0.074 A 
ATOM     40  C   UNL A   1      37.950  33.072  32.608  1.00  0.00     0.049 A 
ATOM     41  N   UNL A   1      39.272  30.778  31.183  1.00  0.00    -0.248 NA
ATOM     42  C   UNL A   1      37.831  31.132  29.380  1.00  0.00     0.031 C 
ATOM     43  C   UNL A   1      37.314  34.147  33.373  1.00  0.00     0.029 A 
ATOM     44  N   UNL A   1      38.945  32.619  33.442  1.00  0.00    -0.354 N 
ATOM     45  C   UNL A   1      39.528  29.833  30.198  1.00  0.00     0.074 A 
ATOM     46  C   UNL A   1      38.571  30.060  29.136  1.00  0.00     0.031 C 
ATOM     47  C   UNL A   1      37.944  34.283  34.550  1.00  0.00     0.029 A 
ATOM     48  C   UNL A   1      39.000  33.279  34.645  1.00  0.00     0.049 A 
ATOM     49  H   UNL A   1      39.560  31.890  33.198  1.00  0.00     0.167 HD
ATOM     50  C   UNL A   1      40.488  28.877  30.172  1.00  0.00     0.037 A 
ATOM     51  C   UNL A   1      39.800  33.088  35.711  1.00  0.00     0.037 A 
ATOM     52  C   UNL A   1      41.453  28.665  31.219  1.00  0.00     0.049 A 
ATOM     53  C   UNL A   1      40.847  32.008  35.663  1.00  0.00     0.074 A 
ATOM     54  C   UNL A   1      42.503  27.763  31.257  1.00  0.00     0.029 A 
ATOM     55  N   UNL A   1      41.484  29.363  32.417  1.00  0.00    -0.354 N 
ATOM     56  N   UNL A   1      41.125  31.167  34.698  1.00  0.00    -0.248 NA
ATOM     57  C   UNL A   1      41.696  31.856  36.852  1.00  0.00     0.031 C 
ATOM     58  C   UNL A   1      43.134  27.878  32.500  1.00  0.00     0.029 A 
ATOM     59  C   UNL A   1      42.518  28.893  33.213  1.00  0.00     0.049 A 
ATOM     60  H   UNL A   1      40.864  30.086  32.667  1.00  0.00     0.167 HD
ATOM     61  C   UNL A   1      42.196  30.408  35.148  1.00  0.00     0.074 A 
ATOM     62  C   UNL A   1      42.529  30.900  36.469  1.00  0.00     0.031 C 
ATOM     63  C   UNL A   1      42.845  29.395  34.524  1.00  0.00     0.037 A 
BRANCH  50  64
ATOM     64  C   UNL A   1      40.545  27.981  28.966  1.00  0.00     0.064 A 
ATOM     65  C   UNL A   1      39.789  26.802  28.887  1.00  0.00     0.173 A 
ATOM     66  C   UNL A   1      41.335  28.328  27.858  1.00  0.00     0.173 A 
ATOM     67  F   UNL A   1      39.024  26.420  29.921  1.00  0.00    -0.203 F 
ATOM     68  C   UNL A   1      39.845  25.988  27.758  1.00  0.00     0.198 A 
ATOM     69  C   UNL A   1      41.362  27.528  26.718  1.00  0.00     0.198 A 
ATOM     70  F   UNL A   1      42.071  29.450  27.875  1.00  0.00    -0.203 F 
ATOM     71  F   UNL A   1      39.152  24.841  27.727  1.00  0.00    -0.200 F 
ATOM     72  C   UNL A   1      40.625  26.355  26.673  1.00  0.00     0.200 A 
ATOM     73  F   UNL A   1      42.104  27.893  25.663  1.00  0.00    -0.200 F 
ATOM     74  F   UNL A   1      40.670  25.575  25.584  1.00  0.00    -0.200 F 
ENDBRANCH  50  64
BRANCH  51  75
ATOM     75  C   UNL A   1      39.654  33.951  36.914  1.00  0.00     0.064 A 
ATOM     76  C   UNL A   1      38.858  33.549  37.995  1.00  0.00     0.173 A 
ATOM     77  C   UNL A   1      40.297  35.194  37.005  1.00  0.00     0.173 A 
ATOM     78  F   UNL A   1      38.205  32.378  37.946  1.00  0.00    -0.203 F 
ATOM     79  C   UNL A   1      38.691  34.367  39.111  1.00  0.00     0.198 A 
ATOM     80  C   UNL A   1      40.156  35.997  38.135  1.00  0.00     0.198 A 
ATOM     81  F   UNL A   1      41.075  35.624  36.001  1.00  0.00    -0.203 F 
ATOM     82  F   UNL A   1      37.885  33.979  40.109  1.00  0.00    -0.200 F 
ATOM     83  C   UNL A   1      39.346  35.587  39.183  1.00  0.00     0.200 A 
ATOM     84  F   UNL A   1      40.802  37.168  38.207  1.00  0.00    -0.200 F 
ATOM     85  F   UNL A   1      39.189  36.371  40.258  1.00  0.00    -0.200 F 
ENDBRANCH  51  75
BRANCH  63  86
ATOM     86  C   UNL A   1      44.008  28.773  35.242  1.00  0.00     0.064 A 
ATOM     87  C   UNL A   1      43.842  27.687  36.114  1.00  0.00     0.173 A 
ATOM     88  C   UNL A   1      45.311  29.248  35.027  1.00  0.00     0.173 A 
ATOM     89  F   UNL A   1      42.615  27.205  36.367  1.00  0.00    -0.203 F 
ATOM     90  C   UNL A   1      44.934  27.117  36.764  1.00  0.00     0.198 A 
ATOM     91  C   UNL A   1      46.404  28.655  35.653  1.00  0.00     0.198 A 
ATOM     92  F   UNL A   1      45.526  30.281  34.199  1.00  0.00    -0.203 F 
ATOM     93  F   UNL A   1      44.746  26.112  37.631  1.00  0.00    -0.200 F 
ATOM     94  C   UNL A   1      46.214  27.595  36.527  1.00  0.00     0.200 A 
ATOM     95  F   UNL A   1      47.641  29.110  35.411  1.00  0.00    -0.200 F 
ATOM     96  F   UNL A   1      47.264  27.040  37.147  1.00  0.00    -0.200 F 
ENDBRANCH  63  86
ENDBRANCH  37  38
ENDBRANCH  29  32
ENDBRANCH  27  28
ENDBRANCH  26  27
ENDBRANCH   1  26
TORSDOF 15
ENDMDL
MODEL 2
REMARK VINA RESULT:     -12.0      2.028      3.212
REMARK SMILES Cc1noc(C)c1[C@H](C)NC(=O)NC[C@@](C)(O)C(=O)NCCCNC(=O)c1ccc(-c2c3nc(c(-c4c(F)c(F)c(F)c(F)c4F)c4ccc([nH]4)c(-c4c(F)c(F)c(F)c(F)c4F)c4nc(c(-c5c(F)c(F)c(F)c(F)c5F)c5ccc2[nH]5)C=C4)C=C3)cc1
REMARK SMILES IDX 21 1 20 2 18 3 19 4 15 6 16 7 14 8 13 9 10 10 11 11 12 13
REMARK SMILES IDX 8 15 9 16 7 17 1 18 2 19 3 20 4 21 5 22 6 23 17 24 22 26
REMARK SMILES IDX 23 27 24 28 25 29 26 31 27 32 28 33 89 34 29 35 88 36 30 37
REMARK SMILES IDX 31 38 32 39 82 40 33 41 87 42 81 43 83 44 34 45 86 46 80 47
REMARK SMILES IDX 79 48 35 50 67 51 47 52 66 53 48 54 51 55 65 56 84 57 49 58
REMARK SMILES IDX 50 59 64 61 85 62 52 63 36 64 37 65 45 66 38 67 39 68 43 69
REMARK SMILES IDX 46 70 40 71 41 72 44 73 42 74 68 75 69 76 77 77 70 78 71 79
REMARK SMILES IDX 75 80 78 81 72 82 73 83 76 84 74 85 53 86 54 87 62 88 55 89
REMARK SMILES IDX 56 90 60 91 63 92 57 93 58 94 61 95 59 96
REMARK H PARENT 20 5 10 12 13 14 17 25 24 30 83 49 51 60
REMARK Flexibility Score: inf
ROOT
ATOM      1  C   UNL A   1      30.898  28.580  24.737  1.00  0.00     0.117 C 
ENDROOT
BRANCH   1   2
ATOM      2  N   UNL A   1      31.535  27.780  23.707  1.00  0.00    -0.353 N 
ATOM      3  C   UNL A   1      31.374  26.471  23.345  1.00  0.00     0.253 C 
ATOM      4  O   UNL A   1      31.981  26.137  22.326  1.00  0.00    -0.272 OA
ATOM      5  H   UNL A   1      32.203  28.267  23.173  1.00  0.00     0.163 HD
BRANCH   3   6
ATOM      6  C   UNL A   1      30.407  25.522  24.116  1.00  0.00     0.157 C 
ATOM      7  C   UNL A   1      30.428  24.169  23.385  1.00  0.00     0.055 C 
BRANCH   6   8
ATOM      8  C   UNL A   1      30.730  25.286  25.629  1.00  0.00     0.162 C 
BRANCH   8   9
ATOM      9  N   UNL A   1      29.959  24.312  26.373  1.00  0.00    -0.335 N 
ATOM     10  N   UNL A   1      31.453  22.608  27.077  1.00  0.00    -0.331 N 
ATOM     11  C   UNL A   1      30.231  23.144  26.974  1.00  0.00     0.315 C 
ATOM     12  H   UNL A   1      31.441  21.682  27.411  1.00  0.00     0.165 HD
ATOM     13  O   UNL A   1      29.288  22.531  27.479  1.00  0.00    -0.249 OA
ATOM     14  H   UNL A   1      29.013  24.567  26.459  1.00  0.00     0.165 HD
BRANCH  10  15
ATOM     15  C   UNL A   1      32.791  23.098  26.803  1.00  0.00     0.116 C 
ATOM     16  C   UNL A   1      33.750  22.510  27.835  1.00  0.00     0.036 C 
BRANCH  15  17
ATOM     17  C   UNL A   1      33.133  22.805  25.368  1.00  0.00     0.040 A 
ATOM     18  C   UNL A   1      34.414  25.014  24.773  1.00  0.00     0.071 C 
ATOM     19  C   UNL A   1      33.864  23.669  24.491  1.00  0.00     0.086 A 
ATOM     20  N   UNL A   1      34.062  23.113  23.292  1.00  0.00    -0.085 NA
ATOM     21  O   UNL A   1      33.470  21.874  23.355  1.00  0.00    -0.361 OA
ATOM     22  C   UNL A   1      32.929  21.680  24.587  1.00  0.00     0.139 A 
ATOM     23  C   UNL A   1      32.302  20.356  24.777  1.00  0.00     0.091 C 
ENDBRANCH  15  17
ENDBRANCH  10  15
ENDBRANCH   8   9
ENDBRANCH   6   8
BRANCH   6  24
ATOM     24  O   UNL A   1      29.067  26.049  24.068  1.00  0.00    -0.378 OA
ATOM     25  H   UNL A   1      28.743  26.025  23.155  1.00  0.00     0.212 HD
ENDBRANCH   6  24
ENDBRANCH   3   6
ENDBRANCH   1   2
BRANCH   1  26
ATOM     26  C   UNL A   1      31.773  28.781  25.970  1.00  0.00     0.042 C 
BRANCH  26  27
ATOM     27  C   UNL A   1      32.969  29.710  25.776  1.00  0.00     0.118 C 
BRANCH  27  28
ATOM     28  N   UNL A   1      32.735  31.067  26.255  1.00  0.00    -0.352 N 
ATOM     29  C   UNL A   1      33.372  31.824  27.204  1.00  0.00     0.251 C 
ATOM     30  H   UNL A   1      31.980  31.524  25.817  1.00  0.00     0.163 HD
ATOM     31  O   UNL A   1      32.871  32.901  27.541  1.00  0.00    -0.269 OA
BRANCH  29  32
ATOM     32  C   UNL A   1      34.622  31.378  27.856  1.00  0.00     0.039 A 
ATOM     33  C   UNL A   1      35.681  32.288  27.965  1.00  0.00     0.014 A 
ATOM     34  C   UNL A   1      34.794  30.070  28.313  1.00  0.00     0.014 A 
ATOM     35  C   UNL A   1      36.870  31.913  28.597  1.00  0.00     0.010 A 
ATOM     36  C   UNL A   1      35.947  29.720  29.015  1.00  0.00     0.010 A 
ATOM     37  C   UNL A   1      36.997  30.637  29.169  1.00  0.00    -0.014 A 
BRANCH  37  38
ATOM     38  C   UNL A   1      38.210  30.254  29.939  1.00  0.00     0.031 A 
ATOM     39  C   UNL A   1      39.207  29.283  29.365  1.00  0.00     0.074 A 
ATOM     40  C   UNL A   1      38.382  30.729  31.188  1.00  0.00     0.049 A 
ATOM     41  N   UNL A   1      40.278  28.770  29.919  1.00  0.00    -0.248 NA
ATOM     42  C   UNL A   1      38.953  28.807  27.997  1.00  0.00     0.031 C 
ATOM     43  C   UNL A   1      37.469  31.643  31.877  1.00  0.00     0.029 A 
ATOM     44  N   UNL A   1      39.376  30.499  32.109  1.00  0.00    -0.354 N 
ATOM     45  C   UNL A   1      40.812  27.901  28.977  1.00  0.00     0.074 A 
ATOM     46  C   UNL A   1      39.923  27.919  27.835  1.00  0.00     0.031 C 
ATOM     47  C   UNL A   1      37.954  31.912  33.100  1.00  0.00     0.029 A 
ATOM     48  C   UNL A   1      39.187  31.156  33.300  1.00  0.00     0.049 A 
ATOM     49  H   UNL A   1      40.151  29.919  31.930  1.00  0.00     0.167 HD
ATOM     50  C   UNL A   1      41.952  27.173  29.048  1.00  0.00     0.037 A 
ATOM     51  C   UNL A   1      39.916  31.141  34.433  1.00  0.00     0.037 A 
ATOM     52  C   UNL A   1      42.848  27.172  30.175  1.00  0.00     0.049 A 
ATOM     53  C   UNL A   1      41.169  30.309  34.491  1.00  0.00     0.074 A 
ATOM     54  C   UNL A   1      44.058  26.515  30.317  1.00  0.00     0.029 A 
ATOM     55  N   UNL A   1      42.628  27.861  31.359  1.00  0.00    -0.354 N 
ATOM     56  N   UNL A   1      41.700  29.547  33.568  1.00  0.00    -0.248 NA
ATOM     57  C   UNL A   1      41.926  30.343  35.749  1.00  0.00     0.031 C 
ATOM     58  C   UNL A   1      44.543  26.762  31.605  1.00  0.00     0.029 A 
ATOM     59  C   UNL A   1      43.667  27.623  32.246  1.00  0.00     0.049 A 
ATOM     60  H   UNL A   1      41.849  28.434  31.543  1.00  0.00     0.167 HD
ATOM     61  C   UNL A   1      42.866  29.034  34.120  1.00  0.00     0.074 A 
ATOM     62  C   UNL A   1      42.973  29.586  35.454  1.00  0.00     0.031 C 
ATOM     63  C   UNL A   1      43.767  28.183  33.570  1.00  0.00     0.037 A 
BRANCH  50  64
ATOM     64  C   UNL A   1      42.301  26.310  27.868  1.00  0.00     0.064 A 
ATOM     65  C   UNL A   1      43.210  26.734  26.887  1.00  0.00     0.173 A 
ATOM     66  C   UNL A   1      41.752  25.024  27.738  1.00  0.00     0.173 A 
ATOM     67  F   UNL A   1      43.759  27.956  26.958  1.00  0.00    -0.203 F 
ATOM     68  C   UNL A   1      43.532  25.918  25.805  1.00  0.00     0.198 A 
ATOM     69  C   UNL A   1      42.101  24.198  26.673  1.00  0.00     0.198 A 
ATOM     70  F   UNL A   1      40.884  24.563  28.652  1.00  0.00    -0.203 F 
ATOM     71  F   UNL A   1      44.364  26.365  24.855  1.00  0.00    -0.200 F 
ATOM     72  C   UNL A   1      42.983  24.649  25.703  1.00  0.00     0.200 A 
ATOM     73  F   UNL A   1      41.583  22.966  26.584  1.00  0.00    -0.200 F 
ATOM     74  F   UNL A   1      43.301  23.861  24.666  1.00  0.00    -0.200 F 
ENDBRANCH  50  64
BRANCH  51  75
ATOM     75  C   UNL A   1      39.487  31.953  35.603  1.00  0.00     0.064 A 
ATOM     76  C   UNL A   1      38.550  31.455  36.519  1.00  0.00     0.173 A 
ATOM     77  C   UNL A   1      39.997  33.240  35.826  1.00  0.00     0.173 A 
ATOM     78  F   UNL A   1      38.018  30.238  36.337  1.00  0.00    -0.203 F 
ATOM     79  C   UNL A   1      38.121  32.224  37.600  1.00  0.00     0.198 A 
ATOM     80  C   UNL A   1      39.591  33.996  36.925  1.00  0.00     0.198 A 
ATOM     81  F   UNL A   1      40.900  33.762  34.982  1.00  0.00    -0.203 F 
ATOM     82  F   UNL A   1      37.188  31.742  38.432  1.00  0.00    -0.200 F 
ATOM     83  C   UNL A   1      38.647  33.490  37.805  1.00  0.00     0.200 A 
ATOM     84  F   UNL A   1      40.113  35.212  37.129  1.00  0.00    -0.200 F 
ATOM     85  F   UNL A   1      38.238  34.226  38.847  1.00  0.00    -0.200 F 
ENDBRANCH  51  75
BRANCH  63  86
ATOM     86  C   UNL A   1      44.970  27.824  34.394  1.00  0.00     0.064 A 
ATOM     87  C   UNL A   1      44.983  26.698  35.229  1.00  0.00     0.173 A 
ATOM     88  C   UNL A   1      46.138  28.599  34.318  1.00  0.00     0.173 A 
ATOM     89  F   UNL A   1      43.887  25.933  35.351  1.00  0.00    -0.203 F 
ATOM     90  C   UNL A   1      46.112  26.375  35.978  1.00  0.00     0.198 A 
ATOM     91  C   UNL A   1      47.275  28.255  35.043  1.00  0.00     0.198 A 
ATOM     92  F   UNL A   1      46.180  29.683  33.530  1.00  0.00    -0.203 F 
ATOM     93  F   UNL A   1      46.085  25.323  36.809  1.00  0.00    -0.200 F 
ATOM     94  C   UNL A   1      47.259  27.148  35.879  1.00  0.00     0.200 A 
ATOM     95  F   UNL A   1      48.387  28.995  34.933  1.00  0.00    -0.200 F 
ATOM     96  F   UNL A   1      48.347  26.831  36.594  1.00  0.00    -0.200 F 
ENDBRANCH  63  86
ENDBRANCH  37  38
ENDBRANCH  29  32
ENDBRANCH  27  28
ENDBRANCH  26  27
ENDBRANCH   1  26
TORSDOF 15
ENDMDL
MODEL 3
REMARK VINA RESULT:     -11.9      5.422     11.152
REMARK SMILES Cc1noc(C)c1[C@H](C)NC(=O)NC[C@@](C)(O)C(=O)NCCCNC(=O)c1ccc(-c2c3nc(c(-c4c(F)c(F)c(F)c(F)c4F)c4ccc([nH]4)c(-c4c(F)c(F)c(F)c(F)c4F)c4nc(c(-c5c(F)c(F)c(F)c(F)c5F)c5ccc2[nH]5)C=C4)C=C3)cc1
REMARK SMILES IDX 21 1 20 2 18 3 19 4 15 6 16 7 14 8 13 9 10 10 11 11 12 13
REMARK SMILES IDX 8 15 9 16 7 17 1 18 2 19 3 20 4 21 5 22 6 23 17 24 22 26
REMARK SMILES IDX 23 27 24 28 25 29 26 31 27 32 28 33 89 34 29 35 88 36 30 37
REMARK SMILES IDX 31 38 32 39 82 40 33 41 87 42 81 43 83 44 34 45 86 46 80 47
REMARK SMILES IDX 79 48 35 50 67 51 47 52 66 53 48 54 51 55 65 56 84 57 49 58
REMARK SMILES IDX 50 59 64 61 85 62 52 63 36 64 37 65 45 66 38 67 39 68 43 69
REMARK SMILES IDX 46 70 40 71 41 72 44 73 42 74 68 75 69 76 77 77 70 78 71 79
REMARK SMILES IDX 75 80 78 81 72 82 73 83 76 84 74 85 53 86 54 87 62 88 55 89
REMARK SMILES IDX 56 90 60 91 63 92 57 93 58 94 61 95 59 96
REMARK H PARENT 20 5 10 12 13 14 17 25 24 30 83 49 51 60
REMARK Flexibility Score: inf
ROOT
ATOM      1  C   UNL A   1      36.710  20.757  24.727  1.00  0.00     0.117 C 
ENDROOT
BRANCH   1   2
ATOM      2  N   UNL A   1      35.901  21.070  25.891  1.00  0.00    -0.353 N 
ATOM      3  C   UNL A   1      34.613  21.515  26.008  1.00  0.00     0.253 C 
ATOM      4  O   UNL A   1      34.181  21.552  27.162  1.00  0.00    -0.272 OA
ATOM      5  H   UNL A   1      36.362  20.937  26.750  1.00  0.00     0.163 HD
BRANCH   3   6
ATOM      6  C   UNL A   1      33.744  21.843  24.757  1.00  0.00     0.157 C 
ATOM      7  C   UNL A   1      33.091  20.525  24.307  1.00  0.00     0.055 C 
BRANCH   6   8
ATOM      8  C   UNL A   1      32.626  22.921  24.954  1.00  0.00     0.162 C 
BRANCH   8   9
ATOM      9  N   UNL A   1      31.688  22.776  26.048  1.00  0.00    -0.335 N 
ATOM     10  N   UNL A   1      30.524  24.832  26.268  1.00  0.00    -0.331 N 
ATOM     11  C   UNL A   1      30.804  23.581  26.654  1.00  0.00     0.315 C 
ATOM     12  H   UNL A   1      29.968  25.321  26.917  1.00  0.00     0.165 HD
ATOM     13  O   UNL A   1      30.194  23.128  27.626  1.00  0.00    -0.249 OA
ATOM     14  H   UNL A   1      31.704  21.873  26.439  1.00  0.00     0.165 HD
BRANCH  10  15
ATOM     15  C   UNL A   1      30.864  25.622  25.099  1.00  0.00     0.116 C 
ATOM     16  C   UNL A   1      29.606  26.328  24.600  1.00  0.00     0.036 C 
BRANCH  15  17
ATOM     17  C   UNL A   1      32.016  26.526  25.441  1.00  0.00     0.040 A 
ATOM     18  C   UNL A   1      33.588  26.007  23.407  1.00  0.00     0.071 C 
ATOM     19  C   UNL A   1      33.211  26.687  24.667  1.00  0.00     0.086 A 
ATOM     20  N   UNL A   1      34.028  27.603  25.193  1.00  0.00    -0.085 NA
ATOM     21  O   UNL A   1      33.392  28.067  26.319  1.00  0.00    -0.361 OA
ATOM     22  C   UNL A   1      32.193  27.442  26.465  1.00  0.00     0.139 A 
ATOM     23  C   UNL A   1      31.403  27.899  27.626  1.00  0.00     0.091 C 
ENDBRANCH  15  17
ENDBRANCH  10  15
ENDBRANCH   8   9
ENDBRANCH   6   8
BRANCH   6  24
ATOM     24  O   UNL A   1      34.585  22.326  23.693  1.00  0.00    -0.378 OA
ATOM     25  H   UNL A   1      34.497  21.745  22.922  1.00  0.00     0.212 HD
ENDBRANCH   6  24
ENDBRANCH   3   6
ENDBRANCH   1   2
BRANCH   1  26
ATOM     26  C   UNL A   1      37.776  19.702  25.001  1.00  0.00     0.042 C 
BRANCH  26  27
ATOM     27  C   UNL A   1      38.927  20.156  25.897  1.00  0.00     0.118 C 
BRANCH  27  28
ATOM     28  N   UNL A   1      40.028  19.203  25.957  1.00  0.00    -0.352 N 
ATOM     29  C   UNL A   1      41.378  19.375  26.119  1.00  0.00     0.251 C 
ATOM     30  H   UNL A   1      39.752  18.262  25.866  1.00  0.00     0.163 HD
ATOM     31  O   UNL A   1      42.124  18.403  25.973  1.00  0.00    -0.269 OA
BRANCH  29  32
ATOM     32  C   UNL A   1      41.970  20.694  26.434  1.00  0.00     0.039 A 
ATOM     33  C   UNL A   1      42.278  21.558  25.376  1.00  0.00     0.014 A 
ATOM     34  C   UNL A   1      42.278  21.075  27.741  1.00  0.00     0.014 A 
ATOM     35  C   UNL A   1      42.815  22.823  25.633  1.00  0.00     0.010 A 
ATOM     36  C   UNL A   1      42.737  22.365  28.005  1.00  0.00     0.010 A 
ATOM     37  C   UNL A   1      43.007  23.256  26.955  1.00  0.00    -0.014 A 
BRANCH  37  38
ATOM     38  C   UNL A   1      43.475  24.635  27.255  1.00  0.00     0.031 A 
ATOM     39  C   UNL A   1      42.524  25.664  27.804  1.00  0.00     0.074 A 
ATOM     40  C   UNL A   1      44.745  24.983  26.969  1.00  0.00     0.049 A 
ATOM     41  N   UNL A   1      42.729  26.935  28.050  1.00  0.00    -0.248 NA
ATOM     42  C   UNL A   1      41.155  25.211  28.091  1.00  0.00     0.031 C 
ATOM     43  C   UNL A   1      45.756  24.094  26.395  1.00  0.00     0.029 A 
ATOM     44  N   UNL A   1      45.402  26.183  27.107  1.00  0.00    -0.354 N 
ATOM     45  C   UNL A   1      41.514  27.434  28.502  1.00  0.00     0.074 A 
ATOM     46  C   UNL A   1      40.565  26.342  28.450  1.00  0.00     0.031 C 
ATOM     47  C   UNL A   1      46.907  24.770  26.248  1.00  0.00     0.029 A 
ATOM     48  C   UNL A   1      46.705  26.151  26.676  1.00  0.00     0.049 A 
ATOM     49  H   UNL A   1      44.977  26.989  27.480  1.00  0.00     0.167 HD
ATOM     50  C   UNL A   1      41.222  28.681  28.942  1.00  0.00     0.037 A 
ATOM     51  C   UNL A   1      47.632  27.127  26.618  1.00  0.00     0.037 A 
ATOM     52  C   UNL A   1      42.172  29.761  29.013  1.00  0.00     0.049 A 
ATOM     53  C   UNL A   1      47.276  28.509  27.096  1.00  0.00     0.074 A 
ATOM     54  C   UNL A   1      41.988  31.044  29.501  1.00  0.00     0.029 A 
ATOM     55  N   UNL A   1      43.488  29.686  28.579  1.00  0.00    -0.354 N 
ATOM     56  N   UNL A   1      46.144  28.950  27.587  1.00  0.00    -0.248 NA
ATOM     57  C   UNL A   1      48.332  29.528  27.018  1.00  0.00     0.031 C 
ATOM     58  C   UNL A   1      43.175  31.760  29.312  1.00  0.00     0.029 A 
ATOM     59  C   UNL A   1      44.118  30.907  28.763  1.00  0.00     0.049 A 
ATOM     60  H   UNL A   1      43.912  28.884  28.197  1.00  0.00     0.167 HD
ATOM     61  C   UNL A   1      46.358  30.285  27.903  1.00  0.00     0.074 A 
ATOM     62  C   UNL A   1      47.735  30.578  27.563  1.00  0.00     0.031 C 
ATOM     63  C   UNL A   1      45.492  31.186  28.427  1.00  0.00     0.037 A 
BRANCH  50  64
ATOM     64  C   UNL A   1      39.811  28.952  29.384  1.00  0.00     0.064 A 
ATOM     65  C   UNL A   1      38.838  29.429  28.493  1.00  0.00     0.173 A 
ATOM     66  C   UNL A   1      39.417  28.690  30.706  1.00  0.00     0.173 A 
ATOM     67  F   UNL A   1      39.164  29.703  27.220  1.00  0.00    -0.203 F 
ATOM     68  C   UNL A   1      37.532  29.664  28.916  1.00  0.00     0.198 A 
ATOM     69  C   UNL A   1      38.102  28.895  31.115  1.00  0.00     0.198 A 
ATOM     70  F   UNL A   1      40.303  28.223  31.598  1.00  0.00    -0.203 F 
ATOM     71  F   UNL A   1      36.633  30.168  28.059  1.00  0.00    -0.200 F 
ATOM     72  C   UNL A   1      37.163  29.391  30.223  1.00  0.00     0.200 A 
ATOM     73  F   UNL A   1      37.742  28.614  32.376  1.00  0.00    -0.200 F 
ATOM     74  F   UNL A   1      35.903  29.608  30.626  1.00  0.00    -0.200 F 
ENDBRANCH  50  64
BRANCH  51  75
ATOM     75  C   UNL A   1      48.994  26.829  26.100  1.00  0.00     0.064 A 
ATOM     76  C   UNL A   1      49.307  27.024  24.747  1.00  0.00     0.173 A 
ATOM     77  C   UNL A   1      50.004  26.338  26.938  1.00  0.00     0.173 A 
ATOM     78  F   UNL A   1      48.367  27.472  23.901  1.00  0.00    -0.203 F 
ATOM     79  C   UNL A   1      50.571  26.717  24.249  1.00  0.00     0.198 A 
ATOM     80  C   UNL A   1      51.278  26.062  26.446  1.00  0.00     0.198 A 
ATOM     81  F   UNL A   1      49.759  26.139  28.242  1.00  0.00    -0.203 F 
ATOM     82  F   UNL A   1      50.828  26.867  22.942  1.00  0.00    -0.200 F 
ATOM     83  C   UNL A   1      51.558  26.243  25.100  1.00  0.00     0.200 A 
ATOM     84  F   UNL A   1      52.233  25.619  27.275  1.00  0.00    -0.200 F 
ATOM     85  F   UNL A   1      52.775  25.952  24.622  1.00  0.00    -0.200 F 
ENDBRANCH  51  75
BRANCH  63  86
ATOM     86  C   UNL A   1      46.015  32.566  28.704  1.00  0.00     0.064 A 
ATOM     87  C   UNL A   1      46.654  32.885  29.912  1.00  0.00     0.173 A 
ATOM     88  C   UNL A   1      45.907  33.574  27.733  1.00  0.00     0.173 A 
ATOM     89  F   UNL A   1      46.769  31.962  30.880  1.00  0.00    -0.203 F 
ATOM     90  C   UNL A   1      47.141  34.168  30.147  1.00  0.00     0.198 A 
ATOM     91  C   UNL A   1      46.424  34.846  27.959  1.00  0.00     0.198 A 
ATOM     92  F   UNL A   1      45.310  33.320  26.560  1.00  0.00    -0.203 F 
ATOM     93  F   UNL A   1      47.703  34.464  31.328  1.00  0.00    -0.200 F 
ATOM     94  C   UNL A   1      47.034  35.145  29.168  1.00  0.00     0.200 A 
ATOM     95  F   UNL A   1      46.332  35.783  27.006  1.00  0.00    -0.200 F 
ATOM     96  F   UNL A   1      47.511  36.376  29.394  1.00  0.00    -0.200 F 
ENDBRANCH  63  86
ENDBRANCH  37  38
ENDBRANCH  29  32
ENDBRANCH  27  28
ENDBRANCH  26  27
ENDBRANCH   1  26
TORSDOF 15
ENDMDL
