MODEL 1
REMARK VINA RESULT:     -11.0      0.000      0.000
REMARK SMILES O=C(NCCCNC(=O)c1ccc(-c2c3nc(c(-c4c(F)c(F)c(F)c(F)c4F)c4ccc([nH]4)c(-c4c(F)c(F)c(F)c(F)c4F)c4nc(c(-c5c(F)c(F)c(F)c(F)c5F)c5ccc2[nH]5)C=C4)C=C3)cc1)c1ccc(/C=C/c2ccc3cccc(O)c3n2)cc1
REMARK SMILES IDX 4 1 3 2 1 3 2 4 73 6 74 7 91 8 75 9 90 10 76 11 77 12 78 13
REMARK SMILES IDX 79 14 80 15 89 16 81 17 88 18 82 19 86 20 83 21 85 22 84 23
REMARK SMILES IDX 87 24 5 26 6 27 7 28 8 29 9 31 10 32 11 33 72 34 12 35 71 36
REMARK SMILES IDX 13 37 14 38 15 39 65 40 16 41 70 42 64 43 66 44 17 45 69 46
REMARK SMILES IDX 63 47 62 48 18 50 50 51 30 52 49 53 31 54 34 55 48 56 67 57
REMARK SMILES IDX 32 58 33 59 47 61 68 62 35 63 19 64 20 65 28 66 21 67 22 68
REMARK SMILES IDX 26 69 29 70 23 71 24 72 27 73 25 74 51 75 52 76 60 77 53 78
REMARK SMILES IDX 54 79 58 80 61 81 55 82 56 83 59 84 57 85 36 86 37 87 45 88
REMARK SMILES IDX 38 89 39 90 43 91 46 92 40 93 41 94 44 95 42 96
REMARK H PARENT 3 5 87 25 7 30 66 49 34 60
REMARK Flexibility Score: inf
ROOT
ATOM      1  C   UNL A   1      35.866  33.613  31.221  1.00  0.00     0.118 C 
ENDROOT
BRANCH   1   2
ATOM      2  N   UNL A   1      35.547  33.930  32.602  1.00  0.00    -0.352 N 
ATOM      3  O   UNL A   1      35.439  33.661  34.823  1.00  0.00    -0.269 OA
ATOM      4  C   UNL A   1      35.996  33.371  33.770  1.00  0.00     0.251 C 
ATOM      5  H   UNL A   1      34.903  34.665  32.717  1.00  0.00     0.163 HD
BRANCH   4   6
ATOM      6  C   UNL A   1      37.117  32.404  33.784  1.00  0.00     0.039 A 
ATOM      7  C   UNL A   1      37.016  31.118  33.237  1.00  0.00     0.014 A 
ATOM      8  C   UNL A   1      38.338  32.845  34.290  1.00  0.00     0.014 A 
ATOM      9  C   UNL A   1      38.120  30.250  33.253  1.00  0.00     0.009 A 
ATOM     10  C   UNL A   1      39.436  31.985  34.289  1.00  0.00     0.009 A 
ATOM     11  C   UNL A   1      39.340  30.675  33.781  1.00  0.00    -0.026 A 
BRANCH  11  12
ATOM     12  C   UNL A   1      40.534  29.832  33.924  1.00  0.00     0.010 C 
ATOM     13  C   UNL A   1      40.711  28.513  33.703  1.00  0.00     0.029 C 
BRANCH  13  14
ATOM     14  C   UNL A   1      41.816  27.921  34.505  1.00  0.00     0.064 A 
ATOM     15  C   UNL A   1      43.057  28.191  33.935  1.00  0.00     0.029 A 
ATOM     16  N   UNL A   1      41.540  26.755  35.141  1.00  0.00    -0.245 NA
ATOM     17  C   UNL A   1      43.859  27.102  33.627  1.00  0.00     0.013 A 
ATOM     18  C   UNL A   1      42.382  25.719  34.920  1.00  0.00     0.113 A 
ATOM     19  C   UNL A   1      43.476  25.823  34.042  1.00  0.00     0.004 A 
ATOM     20  C   UNL A   1      42.155  24.472  35.503  1.00  0.00     0.141 A 
ATOM     21  C   UNL A   1      44.137  24.668  33.588  1.00  0.00     0.010 A 
ATOM     22  C   UNL A   1      42.847  23.327  35.113  1.00  0.00     0.048 A 
ATOM     23  C   UNL A   1      43.800  23.418  34.104  1.00  0.00     0.005 A 
BRANCH  20  24
ATOM     24  O   UNL A   1      41.218  24.348  36.498  1.00  0.00    -0.506 OA
ATOM     25  H   UNL A   1      41.352  23.734  37.194  1.00  0.00     0.293 HD
ENDBRANCH  20  24
ENDBRANCH  13  14
ENDBRANCH  11  12
ENDBRANCH   4   6
ENDBRANCH   1   2
BRANCH   1  26
ATOM     26  C   UNL A   1      34.795  32.754  30.556  1.00  0.00     0.042 C 
BRANCH  26  27
ATOM     27  C   UNL A   1      34.748  32.842  29.033  1.00  0.00     0.118 C 
BRANCH  27  28
ATOM     28  N   UNL A   1      34.064  31.714  28.415  1.00  0.00    -0.352 N 
ATOM     29  C   UNL A   1      34.524  30.488  28.004  1.00  0.00     0.251 C 
ATOM     30  H   UNL A   1      33.102  31.855  28.267  1.00  0.00     0.163 HD
ATOM     31  O   UNL A   1      33.779  29.764  27.346  1.00  0.00    -0.269 OA
BRANCH  29  32
ATOM     32  C   UNL A   1      35.899  30.027  28.310  1.00  0.00     0.039 A 
ATOM     33  C   UNL A   1      36.866  30.108  27.302  1.00  0.00     0.014 A 
ATOM     34  C   UNL A   1      36.239  29.472  29.545  1.00  0.00     0.014 A 
ATOM     35  C   UNL A   1      38.178  29.697  27.554  1.00  0.00     0.010 A 
ATOM     36  C   UNL A   1      37.568  29.147  29.826  1.00  0.00     0.010 A 
ATOM     37  C   UNL A   1      38.551  29.252  28.832  1.00  0.00    -0.014 A 
BRANCH  37  38
ATOM     38  C   UNL A   1      39.968  28.913  29.134  1.00  0.00     0.031 A 
ATOM     39  C   UNL A   1      40.845  29.867  29.900  1.00  0.00     0.074 A 
ATOM     40  C   UNL A   1      40.479  27.751  28.678  1.00  0.00     0.049 A 
ATOM     41  N   UNL A   1      42.101  29.738  30.248  1.00  0.00    -0.248 NA
ATOM     42  C   UNL A   1      40.242  31.146  30.306  1.00  0.00     0.031 C 
ATOM     43  C   UNL A   1      39.754  26.771  27.869  1.00  0.00     0.029 A 
ATOM     44  N   UNL A   1      41.728  27.198  28.827  1.00  0.00    -0.354 N 
ATOM     45  C   UNL A   1      42.438  30.917  30.901  1.00  0.00     0.074 A 
ATOM     46  C   UNL A   1      41.273  31.773  30.852  1.00  0.00     0.031 C 
ATOM     47  C   UNL A   1      40.556  25.724  27.619  1.00  0.00     0.029 A 
ATOM     48  C   UNL A   1      41.863  25.974  28.218  1.00  0.00     0.049 A 
ATOM     49  H   UNL A   1      42.456  27.637  29.323  1.00  0.00     0.167 HD
ATOM     50  C   UNL A   1      43.605  31.245  31.506  1.00  0.00     0.037 A 
ATOM     51  C   UNL A   1      42.923  25.145  28.147  1.00  0.00     0.037 A 
ATOM     52  C   UNL A   1      44.755  30.380  31.575  1.00  0.00     0.049 A 
ATOM     53  C   UNL A   1      44.202  25.531  28.840  1.00  0.00     0.074 A 
ATOM     54  C   UNL A   1      45.956  30.593  32.229  1.00  0.00     0.029 A 
ATOM     55  N   UNL A   1      44.850  29.140  30.961  1.00  0.00    -0.354 N 
ATOM     56  N   UNL A   1      44.476  26.610  29.531  1.00  0.00    -0.248 NA
ATOM     57  C   UNL A   1      45.314  24.576  28.752  1.00  0.00     0.031 C 
ATOM     58  C   UNL A   1      46.798  29.508  31.964  1.00  0.00     0.029 A 
ATOM     59  C   UNL A   1      46.101  28.590  31.197  1.00  0.00     0.049 A 
ATOM     60  H   UNL A   1      44.134  28.713  30.435  1.00  0.00     0.167 HD
ATOM     61  C   UNL A   1      45.781  26.454  29.980  1.00  0.00     0.074 A 
ATOM     62  C   UNL A   1      46.233  25.163  29.505  1.00  0.00     0.031 C 
ATOM     63  C   UNL A   1      46.538  27.304  30.716  1.00  0.00     0.037 A 
BRANCH  50  64
ATOM     64  C   UNL A   1      43.703  32.598  32.153  1.00  0.00     0.064 A 
ATOM     65  C   UNL A   1      43.998  33.751  31.411  1.00  0.00     0.173 A 
ATOM     66  C   UNL A   1      43.437  32.752  33.524  1.00  0.00     0.173 A 
ATOM     67  F   UNL A   1      44.268  33.660  30.101  1.00  0.00    -0.203 F 
ATOM     68  C   UNL A   1      44.049  35.004  32.020  1.00  0.00     0.198 A 
ATOM     69  C   UNL A   1      43.458  34.010  34.122  1.00  0.00     0.198 A 
ATOM     70  F   UNL A   1      43.143  31.684  34.280  1.00  0.00    -0.203 F 
ATOM     71  F   UNL A   1      44.377  36.084  31.298  1.00  0.00    -0.200 F 
ATOM     72  C   UNL A   1      43.770  35.133  33.372  1.00  0.00     0.200 A 
ATOM     73  F   UNL A   1      43.173  34.134  35.426  1.00  0.00    -0.200 F 
ATOM     74  F   UNL A   1      43.806  36.340  33.953  1.00  0.00    -0.200 F 
ENDBRANCH  50  64
BRANCH  51  75
ATOM     75  C   UNL A   1      42.815  23.859  27.407  1.00  0.00     0.064 A 
ATOM     76  C   UNL A   1      42.338  22.701  28.037  1.00  0.00     0.173 A 
ATOM     77  C   UNL A   1      43.200  23.758  26.063  1.00  0.00     0.173 A 
ATOM     78  F   UNL A   1      41.976  22.741  29.328  1.00  0.00    -0.203 F 
ATOM     79  C   UNL A   1      42.279  21.485  27.360  1.00  0.00     0.198 A 
ATOM     80  C   UNL A   1      43.108  22.549  25.376  1.00  0.00     0.198 A 
ATOM     81  F   UNL A   1      43.656  24.837  25.411  1.00  0.00    -0.203 F 
ATOM     82  F   UNL A   1      41.872  20.381  28.002  1.00  0.00    -0.200 F 
ATOM     83  C   UNL A   1      42.658  21.411  26.028  1.00  0.00     0.200 A 
ATOM     84  F   UNL A   1      43.458  22.487  24.084  1.00  0.00    -0.200 F 
ATOM     85  F   UNL A   1      42.598  20.242  25.375  1.00  0.00    -0.200 F 
ENDBRANCH  51  75
BRANCH  63  86
ATOM     86  C   UNL A   1      47.926  26.852  31.074  1.00  0.00     0.064 A 
ATOM     87  C   UNL A   1      48.179  26.086  32.223  1.00  0.00     0.173 A 
ATOM     88  C   UNL A   1      49.015  27.175  30.249  1.00  0.00     0.173 A 
ATOM     89  F   UNL A   1      47.175  25.762  33.053  1.00  0.00    -0.203 F 
ATOM     90  C   UNL A   1      49.474  25.695  32.551  1.00  0.00     0.198 A 
ATOM     91  C   UNL A   1      50.303  26.752  30.562  1.00  0.00     0.198 A 
ATOM     92  F   UNL A   1      48.827  27.897  29.134  1.00  0.00    -0.203 F 
ATOM     93  F   UNL A   1      49.699  25.019  33.686  1.00  0.00    -0.200 F 
ATOM     94  C   UNL A   1      50.534  26.022  31.718  1.00  0.00     0.200 A 
ATOM     95  F   UNL A   1      51.322  27.055  29.746  1.00  0.00    -0.200 F 
ATOM     96  F   UNL A   1      51.778  25.644  32.035  1.00  0.00    -0.200 F 
ENDBRANCH  63  86
ENDBRANCH  37  38
ENDBRANCH  29  32
ENDBRANCH  27  28
ENDBRANCH  26  27
ENDBRANCH   1  26
TORSDOF 13
ENDMDL
MODEL 2
REMARK VINA RESULT:     -10.9      0.275      1.596
REMARK SMILES O=C(NCCCNC(=O)c1ccc(-c2c3nc(c(-c4c(F)c(F)c(F)c(F)c4F)c4ccc([nH]4)c(-c4c(F)c(F)c(F)c(F)c4F)c4nc(c(-c5c(F)c(F)c(F)c(F)c5F)c5ccc2[nH]5)C=C4)C=C3)cc1)c1ccc(/C=C/c2ccc3cccc(O)c3n2)cc1
REMARK SMILES IDX 4 1 3 2 1 3 2 4 73 6 74 7 91 8 75 9 90 10 76 11 77 12 78 13
REMARK SMILES IDX 79 14 80 15 89 16 81 17 88 18 82 19 86 20 83 21 85 22 84 23
REMARK SMILES IDX 87 24 5 26 6 27 7 28 8 29 9 31 10 32 11 33 72 34 12 35 71 36
REMARK SMILES IDX 13 37 14 38 15 39 65 40 16 41 70 42 64 43 66 44 17 45 69 46
REMARK SMILES IDX 63 47 62 48 18 50 50 51 30 52 49 53 31 54 34 55 48 56 67 57
REMARK SMILES IDX 32 58 33 59 47 61 68 62 35 63 19 64 20 65 28 66 21 67 22 68
REMARK SMILES IDX 26 69 29 70 23 71 24 72 27 73 25 74 51 75 52 76 60 77 53 78
REMARK SMILES IDX 54 79 58 80 61 81 55 82 56 83 59 84 57 85 36 86 37 87 45 88
REMARK SMILES IDX 38 89 39 90 43 91 46 92 40 93 41 94 44 95 42 96
REMARK H PARENT 3 5 87 25 7 30 66 49 34 60
REMARK Flexibility Score: inf
ROOT
ATOM      1  C   UNL A   1      35.807  33.314  31.135  1.00  0.00     0.118 C 
ENDROOT
BRANCH   1   2
ATOM      2  N   UNL A   1      35.515  33.679  32.509  1.00  0.00    -0.352 N 
ATOM      3  O   UNL A   1      35.454  33.489  34.741  1.00  0.00    -0.269 OA
ATOM      4  C   UNL A   1      35.991  33.164  33.687  1.00  0.00     0.251 C 
ATOM      5  H   UNL A   1      34.870  34.415  32.612  1.00  0.00     0.163 HD
BRANCH   4   6
ATOM      6  C   UNL A   1      37.116  32.202  33.712  1.00  0.00     0.039 A 
ATOM      7  C   UNL A   1      37.016  30.905  33.194  1.00  0.00     0.014 A 
ATOM      8  C   UNL A   1      38.339  32.658  34.199  1.00  0.00     0.014 A 
ATOM      9  C   UNL A   1      38.124  30.041  33.219  1.00  0.00     0.009 A 
ATOM     10  C   UNL A   1      39.441  31.803  34.208  1.00  0.00     0.009 A 
ATOM     11  C   UNL A   1      39.346  30.483  33.728  1.00  0.00    -0.026 A 
BRANCH  11  12
ATOM     12  C   UNL A   1      40.545  29.648  33.880  1.00  0.00     0.010 C 
ATOM     13  C   UNL A   1      40.728  28.326  33.676  1.00  0.00     0.029 C 
BRANCH  13  14
ATOM     14  C   UNL A   1      41.838  27.752  34.482  1.00  0.00     0.064 A 
ATOM     15  C   UNL A   1      43.080  28.131  33.981  1.00  0.00     0.029 A 
ATOM     16  N   UNL A   1      41.613  26.533  35.033  1.00  0.00    -0.245 NA
ATOM     17  C   UNL A   1      43.959  27.115  33.637  1.00  0.00     0.013 A 
ATOM     18  C   UNL A   1      42.526  25.565  34.782  1.00  0.00     0.113 A 
ATOM     19  C   UNL A   1      43.642  25.791  33.956  1.00  0.00     0.004 A 
ATOM     20  C   UNL A   1      42.356  24.271  35.276  1.00  0.00     0.141 A 
ATOM     21  C   UNL A   1      44.389  24.710  33.458  1.00  0.00     0.010 A 
ATOM     22  C   UNL A   1      43.132  23.198  34.843  1.00  0.00     0.048 A 
ATOM     23  C   UNL A   1      44.113  23.412  33.880  1.00  0.00     0.005 A 
BRANCH  20  24
ATOM     24  O   UNL A   1      41.394  24.027  36.224  1.00  0.00    -0.506 OA
ATOM     25  H   UNL A   1      41.606  24.092  37.134  1.00  0.00     0.293 HD
ENDBRANCH  20  24
ENDBRANCH  13  14
ENDBRANCH  11  12
ENDBRANCH   4   6
ENDBRANCH   1   2
BRANCH   1  26
ATOM     26  C   UNL A   1      34.545  33.070  30.314  1.00  0.00     0.042 C 
BRANCH  26  27
ATOM     27  C   UNL A   1      34.777  32.834  28.824  1.00  0.00     0.118 C 
BRANCH  27  28
ATOM     28  N   UNL A   1      34.093  31.652  28.318  1.00  0.00    -0.352 N 
ATOM     29  C   UNL A   1      34.557  30.398  28.006  1.00  0.00     0.251 C 
ATOM     30  H   UNL A   1      33.127  31.773  28.176  1.00  0.00     0.163 HD
ATOM     31  O   UNL A   1      33.807  29.614  27.427  1.00  0.00    -0.269 OA
BRANCH  29  32
ATOM     32  C   UNL A   1      35.940  29.977  28.326  1.00  0.00     0.039 A 
ATOM     33  C   UNL A   1      36.920  30.107  27.336  1.00  0.00     0.014 A 
ATOM     34  C   UNL A   1      36.279  29.409  29.556  1.00  0.00     0.014 A 
ATOM     35  C   UNL A   1      38.240  29.734  27.601  1.00  0.00     0.010 A 
ATOM     36  C   UNL A   1      37.613  29.122  29.853  1.00  0.00     0.010 A 
ATOM     37  C   UNL A   1      38.608  29.277  28.877  1.00  0.00    -0.014 A 
BRANCH  37  38
ATOM     38  C   UNL A   1      40.030  28.978  29.196  1.00  0.00     0.031 A 
ATOM     39  C   UNL A   1      40.870  29.957  29.971  1.00  0.00     0.074 A 
ATOM     40  C   UNL A   1      40.579  27.830  28.747  1.00  0.00     0.049 A 
ATOM     41  N   UNL A   1      42.125  29.863  30.334  1.00  0.00    -0.248 NA
ATOM     42  C   UNL A   1      40.227  31.218  30.369  1.00  0.00     0.031 C 
ATOM     43  C   UNL A   1      39.891  26.830  27.930  1.00  0.00     0.029 A 
ATOM     44  N   UNL A   1      41.841  27.313  28.910  1.00  0.00    -0.354 N 
ATOM     45  C   UNL A   1      42.422  31.051  30.990  1.00  0.00     0.074 A 
ATOM     46  C   UNL A   1      41.234  31.875  30.927  1.00  0.00     0.031 C 
ATOM     47  C   UNL A   1      40.725  25.806  27.690  1.00  0.00     0.029 A 
ATOM     48  C   UNL A   1      42.018  26.092  28.304  1.00  0.00     0.049 A 
ATOM     49  H   UNL A   1      42.550  27.772  29.415  1.00  0.00     0.167 HD
ATOM     50  C   UNL A   1      43.572  31.413  31.609  1.00  0.00     0.037 A 
ATOM     51  C   UNL A   1      43.101  25.294  28.247  1.00  0.00     0.037 A 
ATOM     52  C   UNL A   1      44.745  30.580  31.691  1.00  0.00     0.049 A 
ATOM     53  C   UNL A   1      44.360  25.716  28.954  1.00  0.00     0.074 A 
ATOM     54  C   UNL A   1      45.932  30.827  32.359  1.00  0.00     0.029 A 
ATOM     55  N   UNL A   1      44.882  29.343  31.079  1.00  0.00    -0.354 N 
ATOM     56  N   UNL A   1      44.596  26.803  29.647  1.00  0.00    -0.248 NA
ATOM     57  C   UNL A   1      45.500  24.792  28.880  1.00  0.00     0.031 C 
ATOM     58  C   UNL A   1      46.807  29.765  32.105  1.00  0.00     0.029 A 
ATOM     59  C   UNL A   1      46.145  28.828  31.331  1.00  0.00     0.049 A 
ATOM     60  H   UNL A   1      44.185  28.896  30.546  1.00  0.00     0.167 HD
ATOM     61  C   UNL A   1      45.899  26.683  30.111  1.00  0.00     0.074 A 
ATOM     62  C   UNL A   1      46.393  25.405  29.643  1.00  0.00     0.031 C 
ATOM     63  C   UNL A   1      46.624  27.554  30.856  1.00  0.00     0.037 A 
BRANCH  50  64
ATOM     64  C   UNL A   1      43.624  32.768  32.256  1.00  0.00     0.064 A 
ATOM     65  C   UNL A   1      44.010  33.912  31.541  1.00  0.00     0.173 A 
ATOM     66  C   UNL A   1      43.225  32.934  33.592  1.00  0.00     0.173 A 
ATOM     67  F   UNL A   1      44.408  33.809  30.265  1.00  0.00    -0.203 F 
ATOM     68  C   UNL A   1      44.018  35.167  32.146  1.00  0.00     0.198 A 
ATOM     69  C   UNL A   1      43.204  34.195  34.184  1.00  0.00     0.198 A 
ATOM     70  F   UNL A   1      42.841  31.875  34.320  1.00  0.00    -0.203 F 
ATOM     71  F   UNL A   1      44.432  36.239  31.456  1.00  0.00    -0.200 F 
ATOM     72  C   UNL A   1      43.607  35.309  33.463  1.00  0.00     0.200 A 
ATOM     73  F   UNL A   1      42.792  34.331  35.451  1.00  0.00    -0.200 F 
ATOM     74  F   UNL A   1      43.602  36.519  34.039  1.00  0.00    -0.200 F 
ENDBRANCH  50  64
BRANCH  51  75
ATOM     75  C   UNL A   1      43.038  24.005  27.506  1.00  0.00     0.064 A 
ATOM     76  C   UNL A   1      43.404  23.929  26.155  1.00  0.00     0.173 A 
ATOM     77  C   UNL A   1      42.597  22.829  28.129  1.00  0.00     0.173 A 
ATOM     78  F   UNL A   1      43.814  25.031  25.509  1.00  0.00    -0.203 F 
ATOM     79  C   UNL A   1      43.304  22.733  25.447  1.00  0.00     0.198 A 
ATOM     80  C   UNL A   1      42.530  21.625  27.430  1.00  0.00     0.198 A 
ATOM     81  F   UNL A   1      42.242  22.844  29.422  1.00  0.00    -0.203 F 
ATOM     82  F   UNL A   1      43.607  22.701  24.142  1.00  0.00    -0.200 F 
ATOM     83  C   UNL A   1      42.872  21.581  26.087  1.00  0.00     0.200 A 
ATOM     84  F   UNL A   1      42.129  20.510  28.056  1.00  0.00    -0.200 F 
ATOM     85  F   UNL A   1      42.778  20.429  25.407  1.00  0.00    -0.200 F 
ENDBRANCH  51  75
BRANCH  63  86
ATOM     86  C   UNL A   1      48.019  27.141  31.230  1.00  0.00     0.064 A 
ATOM     87  C   UNL A   1      49.111  27.376  30.379  1.00  0.00     0.173 A 
ATOM     88  C   UNL A   1      48.271  26.517  32.462  1.00  0.00     0.173 A 
ATOM     89  F   UNL A   1      48.923  27.956  29.184  1.00  0.00    -0.203 F 
ATOM     90  C   UNL A   1      50.394  26.966  30.731  1.00  0.00     0.198 A 
ATOM     91  C   UNL A   1      49.561  26.141  32.825  1.00  0.00     0.198 A 
ATOM     92  F   UNL A   1      47.265  26.277  33.315  1.00  0.00    -0.203 F 
ATOM     93  F   UNL A   1      51.410  27.144  29.875  1.00  0.00    -0.200 F 
ATOM     94  C   UNL A   1      50.619  26.356  31.956  1.00  0.00     0.200 A 
ATOM     95  F   UNL A   1      49.778  25.567  34.017  1.00  0.00    -0.200 F 
ATOM     96  F   UNL A   1      51.854  25.964  32.294  1.00  0.00    -0.200 F 
ENDBRANCH  63  86
ENDBRANCH  37  38
ENDBRANCH  29  32
ENDBRANCH  27  28
ENDBRANCH  26  27
ENDBRANCH   1  26
TORSDOF 13
ENDMDL
MODEL 3
REMARK VINA RESULT:     -10.8      3.842     10.289
REMARK SMILES O=C(NCCCNC(=O)c1ccc(-c2c3nc(c(-c4c(F)c(F)c(F)c(F)c4F)c4ccc([nH]4)c(-c4c(F)c(F)c(F)c(F)c4F)c4nc(c(-c5c(F)c(F)c(F)c(F)c5F)c5ccc2[nH]5)C=C4)C=C3)cc1)c1ccc(/C=C/c2ccc3cccc(O)c3n2)cc1
REMARK SMILES IDX 4 1 3 2 1 3 2 4 73 6 74 7 91 8 75 9 90 10 76 11 77 12 78 13
REMARK SMILES IDX 79 14 80 15 89 16 81 17 88 18 82 19 86 20 83 21 85 22 84 23
REMARK SMILES IDX 87 24 5 26 6 27 7 28 8 29 9 31 10 32 11 33 72 34 12 35 71 36
REMARK SMILES IDX 13 37 14 38 15 39 65 40 16 41 70 42 64 43 66 44 17 45 69 46
REMARK SMILES IDX 63 47 62 48 18 50 50 51 30 52 49 53 31 54 34 55 48 56 67 57
REMARK SMILES IDX 32 58 33 59 47 61 68 62 35 63 19 64 20 65 28 66 21 67 22 68
REMARK SMILES IDX 26 69 29 70 23 71 24 72 27 73 25 74 51 75 52 76 60 77 53 78
REMARK SMILES IDX 54 79 58 80 61 81 55 82 56 83 59 84 57 85 36 86 37 87 45 88
REMARK SMILES IDX 38 89 39 90 43 91 46 92 40 93 41 94 44 95 42 96
REMARK H PARENT 3 5 87 25 7 30 66 49 34 60
REMARK Flexibility Score: inf
ROOT
ATOM      1  C   UNL A   1      43.756  22.634  26.387  1.00  0.00     0.118 C 
ENDROOT
BRANCH   1   2
ATOM      2  N   UNL A   1      44.866  22.671  25.451  1.00  0.00    -0.352 N 
ATOM      3  O   UNL A   1      46.317  23.541  23.982  1.00  0.00    -0.269 OA
ATOM      4  C   UNL A   1      45.541  23.735  24.911  1.00  0.00     0.251 C 
ATOM      5  H   UNL A   1      45.185  21.788  25.155  1.00  0.00     0.163 HD
BRANCH   4   6
ATOM      6  C   UNL A   1      45.330  25.115  25.405  1.00  0.00     0.039 A 
ATOM      7  C   UNL A   1      44.146  25.829  25.180  1.00  0.00     0.014 A 
ATOM      8  C   UNL A   1      46.331  25.672  26.198  1.00  0.00     0.014 A 
ATOM      9  C   UNL A   1      43.989  27.126  25.695  1.00  0.00     0.009 A 
ATOM     10  C   UNL A   1      46.164  26.954  26.721  1.00  0.00     0.009 A 
ATOM     11  C   UNL A   1      44.998  27.701  26.469  1.00  0.00    -0.026 A 
BRANCH  11  12
ATOM     12  C   UNL A   1      44.979  29.074  26.990  1.00  0.00     0.010 C 
ATOM     13  C   UNL A   1      44.121  30.090  26.760  1.00  0.00     0.029 C 
BRANCH  13  14
ATOM     14  C   UNL A   1      44.731  31.434  26.951  1.00  0.00     0.064 A 
ATOM     15  C   UNL A   1      44.932  31.713  28.300  1.00  0.00     0.029 A 
ATOM     16  N   UNL A   1      44.382  32.387  26.051  1.00  0.00    -0.245 NA
ATOM     17  C   UNL A   1      44.342  32.865  28.800  1.00  0.00     0.013 A 
ATOM     18  C   UNL A   1      43.901  33.553  26.542  1.00  0.00     0.113 A 
ATOM     19  C   UNL A   1      43.729  33.763  27.923  1.00  0.00     0.004 A 
ATOM     20  C   UNL A   1      43.482  34.574  25.689  1.00  0.00     0.141 A 
ATOM     21  C   UNL A   1      42.945  34.834  28.386  1.00  0.00     0.010 A 
ATOM     22  C   UNL A   1      42.761  35.677  26.141  1.00  0.00     0.048 A 
ATOM     23  C   UNL A   1      42.438  35.773  27.490  1.00  0.00     0.005 A 
BRANCH  20  24
ATOM     24  O   UNL A   1      43.781  34.507  24.351  1.00  0.00    -0.506 OA
ATOM     25  H   UNL A   1      44.654  34.684  24.056  1.00  0.00     0.293 HD
ENDBRANCH  20  24
ENDBRANCH  13  14
ENDBRANCH  11  12
ENDBRANCH   4   6
ENDBRANCH   1   2
BRANCH   1  26
ATOM     26  C   UNL A   1      42.403  22.558  25.686  1.00  0.00     0.042 C 
BRANCH  26  27
ATOM     27  C   UNL A   1      41.287  21.911  26.502  1.00  0.00     0.118 C 
BRANCH  27  28
ATOM     28  N   UNL A   1      39.963  22.130  25.936  1.00  0.00    -0.352 N 
ATOM     29  C   UNL A   1      39.070  23.162  26.087  1.00  0.00     0.251 C 
ATOM     30  H   UNL A   1      39.655  21.412  25.338  1.00  0.00     0.163 HD
ATOM     31  O   UNL A   1      37.933  23.034  25.636  1.00  0.00    -0.269 OA
BRANCH  29  32
ATOM     32  C   UNL A   1      39.432  24.409  26.799  1.00  0.00     0.039 A 
ATOM     33  C   UNL A   1      39.007  24.566  28.122  1.00  0.00     0.014 A 
ATOM     34  C   UNL A   1      40.133  25.444  26.175  1.00  0.00     0.014 A 
ATOM     35  C   UNL A   1      39.340  25.722  28.834  1.00  0.00     0.010 A 
ATOM     36  C   UNL A   1      40.542  26.557  26.911  1.00  0.00     0.010 A 
ATOM     37  C   UNL A   1      40.147  26.711  28.248  1.00  0.00    -0.014 A 
BRANCH  37  38
ATOM     38  C   UNL A   1      40.591  27.894  29.035  1.00  0.00     0.031 A 
ATOM     39  C   UNL A   1      41.993  27.980  29.576  1.00  0.00     0.074 A 
ATOM     40  C   UNL A   1      39.708  28.879  29.296  1.00  0.00     0.049 A 
ATOM     41  N   UNL A   1      42.548  28.931  30.284  1.00  0.00    -0.248 NA
ATOM     42  C   UNL A   1      42.880  26.838  29.312  1.00  0.00     0.031 C 
ATOM     43  C   UNL A   1      38.303  28.885  28.886  1.00  0.00     0.029 A 
ATOM     44  N   UNL A   1      39.859  30.065  29.973  1.00  0.00    -0.354 N 
ATOM     45  C   UNL A   1      43.840  28.499  30.557  1.00  0.00     0.074 A 
ATOM     46  C   UNL A   1      43.969  27.175  29.987  1.00  0.00     0.031 C 
ATOM     47  C   UNL A   1      37.730  30.030  29.289  1.00  0.00     0.029 A 
ATOM     48  C   UNL A   1      38.714  30.823  30.018  1.00  0.00     0.049 A 
ATOM     49  H   UNL A   1      40.708  30.345  30.386  1.00  0.00     0.167 HD
ATOM     50  C   UNL A   1      44.834  29.155  31.203  1.00  0.00     0.037 A 
ATOM     51  C   UNL A   1      38.481  32.022  30.585  1.00  0.00     0.037 A 
ATOM     52  C   UNL A   1      44.709  30.482  31.747  1.00  0.00     0.049 A 
ATOM     53  C   UNL A   1      39.608  32.733  31.284  1.00  0.00     0.074 A 
ATOM     54  C   UNL A   1      45.681  31.261  32.353  1.00  0.00     0.029 A 
ATOM     55  N   UNL A   1      43.539  31.227  31.759  1.00  0.00    -0.354 N 
ATOM     56  N   UNL A   1      40.850  32.350  31.455  1.00  0.00    -0.248 NA
ATOM     57  C   UNL A   1      39.302  34.049  31.860  1.00  0.00     0.031 C 
ATOM     58  C   UNL A   1      45.085  32.451  32.781  1.00  0.00     0.029 A 
ATOM     59  C   UNL A   1      43.757  32.443  32.388  1.00  0.00     0.049 A 
ATOM     60  H   UNL A   1      42.679  30.934  31.376  1.00  0.00     0.167 HD
ATOM     61  C   UNL A   1      41.478  33.385  32.134  1.00  0.00     0.074 A 
ATOM     62  C   UNL A   1      40.486  34.424  32.320  1.00  0.00     0.031 C 
ATOM     63  C   UNL A   1      42.760  33.467  32.568  1.00  0.00     0.037 A 
BRANCH  50  64
ATOM     64  C   UNL A   1      46.154  28.453  31.354  1.00  0.00     0.064 A 
ATOM     65  C   UNL A   1      47.180  28.599  30.409  1.00  0.00     0.173 A 
ATOM     66  C   UNL A   1      46.417  27.671  32.491  1.00  0.00     0.173 A 
ATOM     67  F   UNL A   1      46.980  29.328  29.302  1.00  0.00    -0.203 F 
ATOM     68  C   UNL A   1      48.411  27.970  30.583  1.00  0.00     0.198 A 
ATOM     69  C   UNL A   1      47.659  27.069  32.677  1.00  0.00     0.198 A 
ATOM     70  F   UNL A   1      45.474  27.502  33.429  1.00  0.00    -0.203 F 
ATOM     71  F   UNL A   1      49.361  28.090  29.646  1.00  0.00    -0.200 F 
ATOM     72  C   UNL A   1      48.653  27.214  31.720  1.00  0.00     0.200 A 
ATOM     73  F   UNL A   1      47.896  26.352  33.784  1.00  0.00    -0.200 F 
ATOM     74  F   UNL A   1      49.843  26.621  31.892  1.00  0.00    -0.200 F 
ENDBRANCH  50  64
BRANCH  51  75
ATOM     75  C   UNL A   1      37.129  32.637  30.500  1.00  0.00     0.064 A 
ATOM     76  C   UNL A   1      36.763  33.430  29.403  1.00  0.00     0.173 A 
ATOM     77  C   UNL A   1      36.182  32.457  31.519  1.00  0.00     0.173 A 
ATOM     78  F   UNL A   1      37.640  33.648  28.412  1.00  0.00    -0.203 F 
ATOM     79  C   UNL A   1      35.513  34.043  29.343  1.00  0.00     0.198 A 
ATOM     80  C   UNL A   1      34.920  33.042  31.441  1.00  0.00     0.198 A 
ATOM     81  F   UNL A   1      36.478  31.701  32.586  1.00  0.00    -0.203 F 
ATOM     82  F   UNL A   1      35.210  34.841  28.310  1.00  0.00    -0.200 F 
ATOM     83  C   UNL A   1      34.591  33.844  30.359  1.00  0.00     0.200 A 
ATOM     84  F   UNL A   1      34.025  32.833  32.416  1.00  0.00    -0.200 F 
ATOM     85  F   UNL A   1      33.388  34.432  30.299  1.00  0.00    -0.200 F 
ENDBRANCH  51  75
BRANCH  63  86
ATOM     86  C   UNL A   1      43.168  34.735  33.264  1.00  0.00     0.064 A 
ATOM     87  C   UNL A   1      43.013  34.899  34.649  1.00  0.00     0.173 A 
ATOM     88  C   UNL A   1      43.737  35.794  32.538  1.00  0.00     0.173 A 
ATOM     89  F   UNL A   1      42.461  33.923  35.387  1.00  0.00    -0.203 F 
ATOM     90  C   UNL A   1      43.375  36.089  35.274  1.00  0.00     0.198 A 
ATOM     91  C   UNL A   1      44.131  36.968  33.173  1.00  0.00     0.198 A 
ATOM     92  F   UNL A   1      43.916  35.686  31.214  1.00  0.00    -0.203 F 
ATOM     93  F   UNL A   1      43.158  36.246  36.588  1.00  0.00    -0.200 F 
ATOM     94  C   UNL A   1      43.940  37.119  34.538  1.00  0.00     0.200 A 
ATOM     95  F   UNL A   1      44.692  37.956  32.462  1.00  0.00    -0.200 F 
ATOM     96  F   UNL A   1      44.290  38.262  35.142  1.00  0.00    -0.200 F 
ENDBRANCH  63  86
ENDBRANCH  37  38
ENDBRANCH  29  32
ENDBRANCH  27  28
ENDBRANCH  26  27
ENDBRANCH   1  26
TORSDOF 13
ENDMDL
