MODEL 1
REMARK VINA RESULT:     -14.0      0.000      0.000
REMARK SMILES O=C(NCCCNC(=O)c1cc(Cl)c2c(c1)[C@H]1C=CC[C@H]1[C@H](c1ccc(S(=O)(=O)N3CCOCC3)cc1)N2)c1ccc(-c2c3nc(c(-c4c(F)c(F)c(F)c(F)c4F)c4ccc([nH]4)c(-c4c(F)c(F)c(F)c(F)c4F)c4nc(c(-c5c(F)c(F)c(F)c(F)c5F)c5ccc2[nH]5)C=C4)C=C3)cc1
REMARK SMILES IDX 5 1 4 2 3 3 1 4 2 5 39 7 40 8 101 9 41 10 100 11 42 12 43 13
REMARK SMILES IDX 44 14 94 15 45 16 99 17 93 18 95 19 46 20 98 21 92 22 91 23
REMARK SMILES IDX 47 25 79 26 59 27 78 28 60 29 63 30 77 31 96 32 61 33 62 34
REMARK SMILES IDX 76 36 97 37 64 38 48 39 49 40 57 41 50 42 51 43 55 44 58 45
REMARK SMILES IDX 52 46 53 47 56 48 54 49 80 50 81 51 89 52 82 53 83 54 87 55
REMARK SMILES IDX 90 56 84 57 85 58 88 59 86 60 65 61 66 62 74 63 67 64 68 65
REMARK SMILES IDX 72 66 75 67 69 68 70 69 73 70 71 71 6 72 7 73 8 74 9 76
REMARK SMILES IDX 10 77 11 78 16 79 12 80 15 81 13 82 14 83 17 84 38 85 18 86
REMARK SMILES IDX 21 87 22 88 19 90 20 91 23 92 24 93 37 94 25 95 36 96 26 97
REMARK SMILES IDX 27 98 28 99 29 100 30 101 31 102 35 103 32 104 34 105 33 106
REMARK H PARENT 3 6 95 24 63 35 7 75 38 89
REMARK Flexibility Score: inf
ROOT
ATOM      1  C   UNL A   1      43.515  22.414  25.780  1.00  0.00     0.042 C 
ENDROOT
BRANCH   1   2
ATOM      2  C   UNL A   1      43.324  23.712  25.012  1.00  0.00     0.118 C 
BRANCH   2   3
ATOM      3  N   UNL A   1      44.587  24.376  24.723  1.00  0.00    -0.352 N 
ATOM      4  O   UNL A   1      46.063  26.078  24.650  1.00  0.00    -0.269 OA
ATOM      5  C   UNL A   1      45.064  25.584  25.165  1.00  0.00     0.251 C 
ATOM      6  H   UNL A   1      45.190  23.884  24.120  1.00  0.00     0.163 HD
BRANCH   5   7
ATOM      7  C   UNL A   1      44.364  26.298  26.251  1.00  0.00     0.039 A 
ATOM      8  C   UNL A   1      44.300  27.694  26.256  1.00  0.00     0.014 A 
ATOM      9  C   UNL A   1      43.749  25.559  27.264  1.00  0.00     0.014 A 
ATOM     10  C   UNL A   1      43.736  28.354  27.341  1.00  0.00     0.010 A 
ATOM     11  C   UNL A   1      43.127  26.222  28.322  1.00  0.00     0.010 A 
ATOM     12  C   UNL A   1      43.148  27.624  28.385  1.00  0.00    -0.014 A 
BRANCH  12  13
ATOM     13  C   UNL A   1      42.540  28.348  29.525  1.00  0.00     0.031 A 
ATOM     14  C   UNL A   1      41.198  29.005  29.383  1.00  0.00     0.074 A 
ATOM     15  C   UNL A   1      43.193  28.374  30.702  1.00  0.00     0.049 A 
ATOM     16  N   UNL A   1      40.498  29.650  30.282  1.00  0.00    -0.248 NA
ATOM     17  C   UNL A   1      40.553  28.930  28.062  1.00  0.00     0.031 C 
ATOM     18  C   UNL A   1      44.501  27.766  30.950  1.00  0.00     0.029 A 
ATOM     19  N   UNL A   1      42.844  28.923  31.908  1.00  0.00    -0.354 N 
ATOM     20  C   UNL A   1      39.336  30.053  29.641  1.00  0.00     0.074 A 
ATOM     21  C   UNL A   1      39.434  29.613  28.266  1.00  0.00     0.031 C 
ATOM     22  C   UNL A   1      44.835  27.957  32.236  1.00  0.00     0.029 A 
ATOM     23  C   UNL A   1      43.785  28.732  32.890  1.00  0.00     0.049 A 
ATOM     24  H   UNL A   1      42.000  29.407  32.058  1.00  0.00     0.167 HD
ATOM     25  C   UNL A   1      38.277  30.716  30.162  1.00  0.00     0.037 A 
ATOM     26  C   UNL A   1      43.804  29.148  34.170  1.00  0.00     0.037 A 
ATOM     27  C   UNL A   1      38.180  31.141  31.534  1.00  0.00     0.049 A 
ATOM     28  C   UNL A   1      42.637  29.930  34.703  1.00  0.00     0.074 A 
ATOM     29  C   UNL A   1      37.128  31.784  32.163  1.00  0.00     0.029 A 
ATOM     30  N   UNL A   1      39.173  30.970  32.487  1.00  0.00    -0.354 N 
ATOM     31  N   UNL A   1      41.522  30.264  34.100  1.00  0.00    -0.248 NA
ATOM     32  C   UNL A   1      42.728  30.393  36.094  1.00  0.00     0.031 C 
ATOM     33  C   UNL A   1      37.502  32.044  33.485  1.00  0.00     0.029 A 
ATOM     34  C   UNL A   1      38.769  31.522  33.692  1.00  0.00     0.049 A 
ATOM     35  H   UNL A   1      40.036  30.523  32.330  1.00  0.00     0.167 HD
ATOM     36  C   UNL A   1      40.776  30.962  35.037  1.00  0.00     0.074 A 
ATOM     37  C   UNL A   1      41.554  30.987  36.257  1.00  0.00     0.031 C 
ATOM     38  C   UNL A   1      39.557  31.537  34.897  1.00  0.00     0.037 A 
BRANCH  25  39
ATOM     39  C   UNL A   1      37.121  31.025  29.258  1.00  0.00     0.064 A 
ATOM     40  C   UNL A   1      36.156  30.054  28.953  1.00  0.00     0.173 A 
ATOM     41  C   UNL A   1      36.920  32.328  28.780  1.00  0.00     0.173 A 
ATOM     42  F   UNL A   1      36.310  28.791  29.379  1.00  0.00    -0.203 F 
ATOM     43  C   UNL A   1      35.030  30.378  28.201  1.00  0.00     0.198 A 
ATOM     44  C   UNL A   1      35.783  32.653  28.046  1.00  0.00     0.198 A 
ATOM     45  F   UNL A   1      37.813  33.292  29.050  1.00  0.00    -0.203 F 
ATOM     46  F   UNL A   1      34.127  29.432  27.907  1.00  0.00    -0.200 F 
ATOM     47  C   UNL A   1      34.838  31.679  27.758  1.00  0.00     0.200 A 
ATOM     48  F   UNL A   1      35.593  33.912  27.629  1.00  0.00    -0.200 F 
ATOM     49  F   UNL A   1      33.743  31.993  27.053  1.00  0.00    -0.200 F 
ENDBRANCH  25  39
BRANCH  26  50
ATOM     50  C   UNL A   1      44.971  28.831  35.031  1.00  0.00     0.064 A 
ATOM     51  C   UNL A   1      44.997  27.668  35.811  1.00  0.00     0.173 A 
ATOM     52  C   UNL A   1      46.084  29.684  35.089  1.00  0.00     0.173 A 
ATOM     53  F   UNL A   1      43.948  26.833  35.804  1.00  0.00    -0.203 F 
ATOM     54  C   UNL A   1      46.087  27.376  36.630  1.00  0.00     0.198 A 
ATOM     55  C   UNL A   1      47.184  29.377  35.886  1.00  0.00     0.198 A 
ATOM     56  F   UNL A   1      46.107  30.809  34.359  1.00  0.00    -0.203 F 
ATOM     57  F   UNL A   1      46.070  26.278  37.396  1.00  0.00    -0.200 F 
ATOM     58  C   UNL A   1      47.181  28.227  36.661  1.00  0.00     0.200 A 
ATOM     59  F   UNL A   1      48.245  30.196  35.904  1.00  0.00    -0.200 F 
ATOM     60  F   UNL A   1      48.231  27.944  37.444  1.00  0.00    -0.200 F 
ENDBRANCH  26  50
BRANCH  38  61
ATOM     61  C   UNL A   1      38.982  32.238  36.090  1.00  0.00     0.064 A 
ATOM     62  C   UNL A   1      38.145  31.569  36.995  1.00  0.00     0.173 A 
ATOM     63  C   UNL A   1      39.328  33.568  36.371  1.00  0.00     0.173 A 
ATOM     64  F   UNL A   1      37.776  30.301  36.761  1.00  0.00    -0.203 F 
ATOM     65  C   UNL A   1      37.665  32.211  38.132  1.00  0.00     0.198 A 
ATOM     66  C   UNL A   1      38.867  34.198  37.524  1.00  0.00     0.198 A 
ATOM     67  F   UNL A   1      40.133  34.248  35.541  1.00  0.00    -0.203 F 
ATOM     68  F   UNL A   1      36.840  31.563  38.967  1.00  0.00    -0.200 F 
ATOM     69  C   UNL A   1      38.034  33.521  38.401  1.00  0.00     0.200 A 
ATOM     70  F   UNL A   1      39.237  35.459  37.790  1.00  0.00    -0.200 F 
ATOM     71  F   UNL A   1      37.584  34.132  39.505  1.00  0.00    -0.200 F 
ENDBRANCH  38  61
ENDBRANCH  12  13
ENDBRANCH   5   7
ENDBRANCH   2   3
ENDBRANCH   1   2
BRANCH   1  72
ATOM     72  C   UNL A   1      42.685  21.257  25.245  1.00  0.00     0.118 C 
BRANCH  72  73
ATOM     73  N   UNL A   1      42.181  20.393  26.305  1.00  0.00    -0.352 N 
ATOM     74  C   UNL A   1      41.011  20.501  27.016  1.00  0.00     0.251 C 
ATOM     75  H   UNL A   1      42.754  19.629  26.542  1.00  0.00     0.163 HD
ATOM     76  O   UNL A   1      40.792  19.791  27.989  1.00  0.00    -0.269 OA
BRANCH  74  77
ATOM     77  C   UNL A   1      40.039  21.525  26.607  1.00  0.00     0.041 A 
ATOM     78  C   UNL A   1      40.166  22.834  27.067  1.00  0.00     0.036 A 
ATOM     79  C   UNL A   1      38.959  21.147  25.813  1.00  0.00     0.020 A 
ATOM     80  C   UNL A   1      39.121  23.723  26.858  1.00  0.00     0.065 A 
ATOM     81  C   UNL A   1      37.926  22.061  25.562  1.00  0.00    -0.015 A 
ATOM     82  Cl  UNL A   1      39.244  25.302  27.554  1.00  0.00    -0.082 Cl
ATOM     83  C   UNL A   1      37.965  23.334  26.150  1.00  0.00     0.057 A 
ATOM     84  C   UNL A   1      36.807  21.671  24.638  1.00  0.00     0.049 C 
ATOM     85  N   UNL A   1      36.915  24.220  25.978  1.00  0.00    -0.376 N 
ATOM     86  C   UNL A   1      35.860  20.630  25.177  1.00  0.00    -0.023 C 
ATOM     87  C   UNL A   1      35.844  22.817  24.256  1.00  0.00     0.031 C 
ATOM     88  C   UNL A   1      35.635  23.768  25.461  1.00  0.00     0.114 C 
ATOM     89  H   UNL A   1      37.038  25.170  26.208  1.00  0.00     0.161 HD
ATOM     90  C   UNL A   1      34.621  20.833  24.715  1.00  0.00    -0.030 C 
ATOM     91  C   UNL A   1      34.578  22.040  23.832  1.00  0.00     0.034 C 
BRANCH  88  92
ATOM     92  C   UNL A   1      34.795  24.990  25.111  1.00  0.00    -0.025 A 
ATOM     93  C   UNL A   1      34.406  25.962  26.055  1.00  0.00     0.007 A 
ATOM     94  C   UNL A   1      34.394  25.163  23.785  1.00  0.00     0.007 A 
ATOM     95  C   UNL A   1      33.658  27.083  25.674  1.00  0.00     0.022 A 
ATOM     96  C   UNL A   1      33.694  26.297  23.401  1.00  0.00     0.022 A 
ATOM     97  C   UNL A   1      33.319  27.255  24.332  1.00  0.00     0.082 A 
BRANCH  97  98
ATOM     98  S   UNL A   1      32.435  28.718  23.839  1.00  0.00     0.243 S 
ATOM     99  O   UNL A   1      32.805  29.751  24.788  1.00  0.00    -0.207 OA
ATOM    100  O   UNL A   1      32.656  28.871  22.421  1.00  0.00    -0.207 OA
BRANCH  98 101
ATOM    101  N   UNL A   1      30.816  28.353  24.071  1.00  0.00    -0.193 NA
ATOM    102  C   UNL A   1      30.364  27.085  24.680  1.00  0.00     0.131 C 
ATOM    103  C   UNL A   1      29.741  29.252  23.615  1.00  0.00     0.131 C 
ATOM    104  C   UNL A   1      29.233  26.429  23.868  1.00  0.00     0.177 C 
ATOM    105  C   UNL A   1      28.723  28.476  22.776  1.00  0.00     0.177 C 
ATOM    106  O   UNL A   1      28.201  27.351  23.497  1.00  0.00    -0.379 OA
ENDBRANCH  98 101
ENDBRANCH  97  98
ENDBRANCH  88  92
ENDBRANCH  74  77
ENDBRANCH  72  73
ENDBRANCH   1  72
TORSDOF 13
ENDMDL
MODEL 2
REMARK VINA RESULT:     -13.7      0.381      6.804
REMARK SMILES O=C(NCCCNC(=O)c1cc(Cl)c2c(c1)[C@H]1C=CC[C@H]1[C@H](c1ccc(S(=O)(=O)N3CCOCC3)cc1)N2)c1ccc(-c2c3nc(c(-c4c(F)c(F)c(F)c(F)c4F)c4ccc([nH]4)c(-c4c(F)c(F)c(F)c(F)c4F)c4nc(c(-c5c(F)c(F)c(F)c(F)c5F)c5ccc2[nH]5)C=C4)C=C3)cc1
REMARK SMILES IDX 5 1 4 2 3 3 1 4 2 5 39 7 40 8 101 9 41 10 100 11 42 12 43 13
REMARK SMILES IDX 44 14 94 15 45 16 99 17 93 18 95 19 46 20 98 21 92 22 91 23
REMARK SMILES IDX 47 25 79 26 59 27 78 28 60 29 63 30 77 31 96 32 61 33 62 34
REMARK SMILES IDX 76 36 97 37 64 38 48 39 49 40 57 41 50 42 51 43 55 44 58 45
REMARK SMILES IDX 52 46 53 47 56 48 54 49 80 50 81 51 89 52 82 53 83 54 87 55
REMARK SMILES IDX 90 56 84 57 85 58 88 59 86 60 65 61 66 62 74 63 67 64 68 65
REMARK SMILES IDX 72 66 75 67 69 68 70 69 73 70 71 71 6 72 7 73 8 74 9 76
REMARK SMILES IDX 10 77 11 78 16 79 12 80 15 81 13 82 14 83 17 84 38 85 18 86
REMARK SMILES IDX 21 87 22 88 19 90 20 91 23 92 24 93 37 94 25 95 36 96 26 97
REMARK SMILES IDX 27 98 28 99 29 100 30 101 31 102 35 103 32 104 34 105 33 106
REMARK H PARENT 3 6 95 24 63 35 7 75 38 89
REMARK Flexibility Score: inf
ROOT
ATOM      1  C   UNL A   1      43.610  22.277  25.704  1.00  0.00     0.042 C 
ENDROOT
BRANCH   1   2
ATOM      2  C   UNL A   1      43.357  23.603  25.003  1.00  0.00     0.118 C 
BRANCH   2   3
ATOM      3  N   UNL A   1      44.592  24.313  24.698  1.00  0.00    -0.352 N 
ATOM      4  O   UNL A   1      46.007  26.066  24.614  1.00  0.00    -0.269 OA
ATOM      5  C   UNL A   1      45.035  25.533  25.142  1.00  0.00     0.251 C 
ATOM      6  H   UNL A   1      45.201  23.847  24.081  1.00  0.00     0.163 HD
BRANCH   5   7
ATOM      7  C   UNL A   1      44.329  26.215  26.245  1.00  0.00     0.039 A 
ATOM      8  C   UNL A   1      44.404  27.603  26.386  1.00  0.00     0.014 A 
ATOM      9  C   UNL A   1      43.568  25.454  27.137  1.00  0.00     0.014 A 
ATOM     10  C   UNL A   1      43.828  28.216  27.492  1.00  0.00     0.010 A 
ATOM     11  C   UNL A   1      42.937  26.079  28.213  1.00  0.00     0.010 A 
ATOM     12  C   UNL A   1      43.093  27.459  28.417  1.00  0.00    -0.014 A 
BRANCH  12  13
ATOM     13  C   UNL A   1      42.475  28.134  29.581  1.00  0.00     0.031 A 
ATOM     14  C   UNL A   1      43.171  28.151  30.911  1.00  0.00     0.074 A 
ATOM     15  C   UNL A   1      41.297  28.765  29.417  1.00  0.00     0.049 A 
ATOM     16  N   UNL A   1      42.797  28.723  32.028  1.00  0.00    -0.248 NA
ATOM     17  C   UNL A   1      44.454  27.437  31.004  1.00  0.00     0.031 C 
ATOM     18  C   UNL A   1      40.536  28.812  28.168  1.00  0.00     0.029 A 
ATOM     19  N   UNL A   1      40.540  29.493  30.298  1.00  0.00    -0.354 N 
ATOM     20  C   UNL A   1      43.794  28.442  32.950  1.00  0.00     0.074 A 
ATOM     21  C   UNL A   1      44.775  27.618  32.278  1.00  0.00     0.031 C 
ATOM     22  C   UNL A   1      39.432  29.550  28.356  1.00  0.00     0.029 A 
ATOM     23  C   UNL A   1      39.387  29.993  29.746  1.00  0.00     0.049 A 
ATOM     24  H   UNL A   1      40.799  29.644  31.236  1.00  0.00     0.167 HD
ATOM     25  C   UNL A   1      43.885  28.851  34.238  1.00  0.00     0.037 A 
ATOM     26  C   UNL A   1      38.398  30.716  30.305  1.00  0.00     0.037 A 
ATOM     27  C   UNL A   1      42.911  29.679  34.898  1.00  0.00     0.049 A 
ATOM     28  C   UNL A   1      38.503  31.107  31.751  1.00  0.00     0.074 A 
ATOM     29  C   UNL A   1      42.939  30.177  36.189  1.00  0.00     0.029 A 
ATOM     30  N   UNL A   1      41.733  30.127  34.320  1.00  0.00    -0.354 N 
ATOM     31  N   UNL A   1      39.474  30.874  32.600  1.00  0.00    -0.248 NA
ATOM     32  C   UNL A   1      37.377  31.860  32.318  1.00  0.00     0.031 C 
ATOM     33  C   UNL A   1      41.755  30.889  36.408  1.00  0.00     0.029 A 
ATOM     34  C   UNL A   1      41.012  30.873  35.239  1.00  0.00     0.049 A 
ATOM     35  H   UNL A   1      41.451  29.944  33.395  1.00  0.00     0.167 HD
ATOM     36  C   UNL A   1      39.084  31.462  33.795  1.00  0.00     0.074 A 
ATOM     37  C   UNL A   1      37.797  32.081  33.556  1.00  0.00     0.031 C 
ATOM     38  C   UNL A   1      39.732  31.482  34.984  1.00  0.00     0.037 A 
BRANCH  25  39
ATOM     39  C   UNL A   1      45.082  28.421  35.033  1.00  0.00     0.064 A 
ATOM     40  C   UNL A   1      45.088  27.213  35.745  1.00  0.00     0.173 A 
ATOM     41  C   UNL A   1      46.268  29.170  34.995  1.00  0.00     0.173 A 
ATOM     42  F   UNL A   1      43.976  26.467  35.818  1.00  0.00    -0.203 F 
ATOM     43  C   UNL A   1      46.240  26.771  36.391  1.00  0.00     0.198 A 
ATOM     44  C   UNL A   1      47.422  28.715  35.624  1.00  0.00     0.198 A 
ATOM     45  F   UNL A   1      46.313  30.330  34.322  1.00  0.00    -0.203 F 
ATOM     46  F   UNL A   1      46.220  25.621  37.079  1.00  0.00    -0.200 F 
ATOM     47  C   UNL A   1      47.408  27.515  36.321  1.00  0.00     0.200 A 
ATOM     48  F   UNL A   1      48.554  29.429  35.546  1.00  0.00    -0.200 F 
ATOM     49  F   UNL A   1      48.520  27.076  36.926  1.00  0.00    -0.200 F 
ENDBRANCH  25  39
BRANCH  26  50
ATOM     50  C   UNL A   1      37.224  31.112  29.487  1.00  0.00     0.064 A 
ATOM     51  C   UNL A   1      36.236  30.179  29.143  1.00  0.00     0.173 A 
ATOM     52  C   UNL A   1      37.065  32.431  29.035  1.00  0.00     0.173 A 
ATOM     53  F   UNL A   1      36.356  28.903  29.535  1.00  0.00    -0.203 F 
ATOM     54  C   UNL A   1      35.141  30.548  28.364  1.00  0.00     0.198 A 
ATOM     55  C   UNL A   1      35.955  32.804  28.280  1.00  0.00     0.198 A 
ATOM     56  F   UNL A   1      37.982  33.361  29.340  1.00  0.00    -0.203 F 
ATOM     57  F   UNL A   1      34.231  29.628  28.016  1.00  0.00    -0.200 F 
ATOM     58  C   UNL A   1      34.997  31.860  27.940  1.00  0.00     0.200 A 
ATOM     59  F   UNL A   1      35.814  34.076  27.884  1.00  0.00    -0.200 F 
ATOM     60  F   UNL A   1      33.941  32.215  27.196  1.00  0.00    -0.200 F 
ENDBRANCH  26  50
BRANCH  38  61
ATOM     61  C   UNL A   1      39.068  32.198  36.121  1.00  0.00     0.064 A 
ATOM     62  C   UNL A   1      38.184  31.534  36.983  1.00  0.00     0.173 A 
ATOM     63  C   UNL A   1      39.373  33.540  36.394  1.00  0.00     0.173 A 
ATOM     64  F   UNL A   1      37.852  30.255  36.754  1.00  0.00    -0.203 F 
ATOM     65  C   UNL A   1      37.618  32.192  38.071  1.00  0.00     0.198 A 
ATOM     66  C   UNL A   1      38.826  34.186  37.499  1.00  0.00     0.198 A 
ATOM     67  F   UNL A   1      40.220  34.216  35.603  1.00  0.00    -0.203 F 
ATOM     68  F   UNL A   1      36.750  31.548  38.864  1.00  0.00    -0.200 F 
ATOM     69  C   UNL A   1      37.947  33.513  38.334  1.00  0.00     0.200 A 
ATOM     70  F   UNL A   1      39.156  35.459  37.760  1.00  0.00    -0.200 F 
ATOM     71  F   UNL A   1      37.414  34.140  39.392  1.00  0.00    -0.200 F 
ENDBRANCH  38  61
ENDBRANCH  12  13
ENDBRANCH   5   7
ENDBRANCH   2   3
ENDBRANCH   1   2
BRANCH   1  72
ATOM     72  C   UNL A   1      42.682  21.160  25.255  1.00  0.00     0.118 C 
BRANCH  72  73
ATOM     73  N   UNL A   1      42.195  20.356  26.369  1.00  0.00    -0.352 N 
ATOM     74  C   UNL A   1      41.036  20.502  27.091  1.00  0.00     0.251 C 
ATOM     75  H   UNL A   1      42.773  19.607  26.639  1.00  0.00     0.163 HD
ATOM     76  O   UNL A   1      40.833  19.848  28.105  1.00  0.00    -0.269 OA
BRANCH  74  77
ATOM     77  C   UNL A   1      40.057  21.503  26.640  1.00  0.00     0.041 A 
ATOM     78  C   UNL A   1      40.174  22.829  27.047  1.00  0.00     0.036 A 
ATOM     79  C   UNL A   1      38.980  21.084  25.862  1.00  0.00     0.020 A 
ATOM     80  C   UNL A   1      39.122  23.701  26.802  1.00  0.00     0.065 A 
ATOM     81  C   UNL A   1      37.941  21.980  25.573  1.00  0.00    -0.015 A 
ATOM     82  Cl  UNL A   1      39.232  25.308  27.435  1.00  0.00    -0.082 Cl
ATOM     83  C   UNL A   1      37.970  23.276  26.110  1.00  0.00     0.057 A 
ATOM     84  C   UNL A   1      36.826  21.545  24.666  1.00  0.00     0.049 C 
ATOM     85  N   UNL A   1      36.913  24.146  25.902  1.00  0.00    -0.376 N 
ATOM     86  C   UNL A   1      35.886  20.519  25.246  1.00  0.00    -0.023 C 
ATOM     87  C   UNL A   1      35.854  22.667  24.237  1.00  0.00     0.031 C 
ATOM     88  C   UNL A   1      35.637  23.664  25.403  1.00  0.00     0.114 C 
ATOM     89  H   UNL A   1      37.028  25.105  26.094  1.00  0.00     0.161 HD
ATOM     90  C   UNL A   1      34.645  20.694  24.775  1.00  0.00    -0.030 C 
ATOM     91  C   UNL A   1      34.594  21.864  23.844  1.00  0.00     0.034 C 
BRANCH  88  92
ATOM     92  C   UNL A   1      34.788  24.864  25.003  1.00  0.00    -0.025 A 
ATOM     93  C   UNL A   1      34.371  25.859  25.912  1.00  0.00     0.007 A 
ATOM     94  C   UNL A   1      34.407  24.994  23.666  1.00  0.00     0.007 A 
ATOM     95  C   UNL A   1      33.616  26.958  25.487  1.00  0.00     0.022 A 
ATOM     96  C   UNL A   1      33.699  26.107  23.238  1.00  0.00     0.022 A 
ATOM     97  C   UNL A   1      33.298  27.087  24.135  1.00  0.00     0.082 A 
BRANCH  97  98
ATOM     98  S   UNL A   1      32.404  28.524  23.586  1.00  0.00     0.243 S 
ATOM     99  O   UNL A   1      32.241  29.368  24.753  1.00  0.00    -0.207 OA
ATOM    100  O   UNL A   1      33.073  28.990  22.395  1.00  0.00    -0.207 OA
BRANCH  98 101
ATOM    101  N   UNL A   1      30.892  27.957  23.136  1.00  0.00    -0.193 NA
ATOM    102  C   UNL A   1      29.912  28.790  22.411  1.00  0.00     0.131 C 
ATOM    103  C   UNL A   1      30.425  26.607  23.502  1.00  0.00     0.131 C 
ATOM    104  C   UNL A   1      28.510  28.708  23.041  1.00  0.00     0.177 C 
ATOM    105  C   UNL A   1      29.049  26.687  24.167  1.00  0.00     0.177 C 
ATOM    106  O   UNL A   1      28.102  27.365  23.329  1.00  0.00    -0.379 OA
ENDBRANCH  98 101
ENDBRANCH  97  98
ENDBRANCH  88  92
ENDBRANCH  74  77
ENDBRANCH  72  73
ENDBRANCH   1  72
TORSDOF 13
ENDMDL
MODEL 3
REMARK VINA RESULT:     -13.5      5.014     11.099
REMARK SMILES O=C(NCCCNC(=O)c1cc(Cl)c2c(c1)[C@H]1C=CC[C@H]1[C@H](c1ccc(S(=O)(=O)N3CCOCC3)cc1)N2)c1ccc(-c2c3nc(c(-c4c(F)c(F)c(F)c(F)c4F)c4ccc([nH]4)c(-c4c(F)c(F)c(F)c(F)c4F)c4nc(c(-c5c(F)c(F)c(F)c(F)c5F)c5ccc2[nH]5)C=C4)C=C3)cc1
REMARK SMILES IDX 5 1 4 2 3 3 1 4 2 5 39 7 40 8 101 9 41 10 100 11 42 12 43 13
REMARK SMILES IDX 44 14 94 15 45 16 99 17 93 18 95 19 46 20 98 21 92 22 91 23
REMARK SMILES IDX 47 25 79 26 59 27 78 28 60 29 63 30 77 31 96 32 61 33 62 34
REMARK SMILES IDX 76 36 97 37 64 38 48 39 49 40 57 41 50 42 51 43 55 44 58 45
REMARK SMILES IDX 52 46 53 47 56 48 54 49 80 50 81 51 89 52 82 53 83 54 87 55
REMARK SMILES IDX 90 56 84 57 85 58 88 59 86 60 65 61 66 62 74 63 67 64 68 65
REMARK SMILES IDX 72 66 75 67 69 68 70 69 73 70 71 71 6 72 7 73 8 74 9 76
REMARK SMILES IDX 10 77 11 78 16 79 12 80 15 81 13 82 14 83 17 84 38 85 18 86
REMARK SMILES IDX 21 87 22 88 19 90 20 91 23 92 24 93 37 94 25 95 36 96 26 97
REMARK SMILES IDX 27 98 28 99 29 100 30 101 31 102 35 103 32 104 34 105 33 106
REMARK H PARENT 3 6 95 24 63 35 7 75 38 89
REMARK Flexibility Score: inf
ROOT
ATOM      1  C   UNL A   1      34.933  34.309  31.872  1.00  0.00     0.042 C 
ENDROOT
BRANCH   1   2
ATOM      2  C   UNL A   1      36.384  34.009  32.217  1.00  0.00     0.118 C 
BRANCH   2   3
ATOM      3  N   UNL A   1      36.523  33.373  33.519  1.00  0.00    -0.352 N 
ATOM      4  O   UNL A   1      37.110  31.767  34.987  1.00  0.00    -0.269 OA
ATOM      5  C   UNL A   1      37.280  32.290  33.890  1.00  0.00     0.251 C 
ATOM      6  H   UNL A   1      35.996  33.782  34.243  1.00  0.00     0.163 HD
BRANCH   5   7
ATOM      7  C   UNL A   1      38.286  31.743  32.959  1.00  0.00     0.039 A 
ATOM      8  C   UNL A   1      39.399  31.051  33.444  1.00  0.00     0.014 A 
ATOM      9  C   UNL A   1      38.101  31.909  31.584  1.00  0.00     0.014 A 
ATOM     10  C   UNL A   1      40.394  30.641  32.564  1.00  0.00     0.010 A 
ATOM     11  C   UNL A   1      39.070  31.441  30.696  1.00  0.00     0.010 A 
ATOM     12  C   UNL A   1      40.239  30.836  31.183  1.00  0.00    -0.014 A 
BRANCH  12  13
ATOM     13  C   UNL A   1      41.304  30.378  30.261  1.00  0.00     0.031 A 
ATOM     14  C   UNL A   1      42.468  31.268  29.939  1.00  0.00     0.074 A 
ATOM     15  C   UNL A   1      41.229  29.137  29.747  1.00  0.00     0.049 A 
ATOM     16  N   UNL A   1      43.508  31.022  29.183  1.00  0.00    -0.248 NA
ATOM     17  C   UNL A   1      42.472  32.611  30.543  1.00  0.00     0.031 C 
ATOM     18  C   UNL A   1      40.142  28.188  29.995  1.00  0.00     0.029 A 
ATOM     19  N   UNL A   1      42.084  28.457  28.918  1.00  0.00    -0.354 N 
ATOM     20  C   UNL A   1      44.287  32.169  29.222  1.00  0.00     0.074 A 
ATOM     21  C   UNL A   1      43.588  33.130  30.047  1.00  0.00     0.031 C 
ATOM     22  C   UNL A   1      40.407  27.041  29.352  1.00  0.00     0.029 A 
ATOM     23  C   UNL A   1      41.659  27.187  28.616  1.00  0.00     0.049 A 
ATOM     24  H   UNL A   1      42.923  28.841  28.575  1.00  0.00     0.167 HD
ATOM     25  C   UNL A   1      45.487  32.389  28.634  1.00  0.00     0.037 A 
ATOM     26  C   UNL A   1      42.212  26.251  27.821  1.00  0.00     0.037 A 
ATOM     27  C   UNL A   1      46.183  31.425  27.823  1.00  0.00     0.049 A 
ATOM     28  C   UNL A   1      43.517  26.548  27.138  1.00  0.00     0.074 A 
ATOM     29  C   UNL A   1      47.422  31.545  27.218  1.00  0.00     0.029 A 
ATOM     30  N   UNL A   1      45.699  30.166  27.501  1.00  0.00    -0.354 N 
ATOM     31  N   UNL A   1      44.267  27.619  27.221  1.00  0.00    -0.248 NA
ATOM     32  C   UNL A   1      44.053  25.506  26.252  1.00  0.00     0.031 C 
ATOM     33  C   UNL A   1      47.669  30.376  26.492  1.00  0.00     0.029 A 
ATOM     34  C   UNL A   1      46.603  29.510  26.681  1.00  0.00     0.049 A 
ATOM     35  H   UNL A   1      44.842  29.794  27.809  1.00  0.00     0.167 HD
ATOM     36  C   UNL A   1      45.367  27.378  26.412  1.00  0.00     0.074 A 
ATOM     37  C   UNL A   1      45.199  26.049  25.862  1.00  0.00     0.031 C 
ATOM     38  C   UNL A   1      46.420  28.188  26.143  1.00  0.00     0.037 A 
BRANCH  25  39
ATOM     39  C   UNL A   1      46.142  33.722  28.842  1.00  0.00     0.064 A 
ATOM     40  C   UNL A   1      47.091  33.916  29.856  1.00  0.00     0.173 A 
ATOM     41  C   UNL A   1      45.898  34.781  27.956  1.00  0.00     0.173 A 
ATOM     42  F   UNL A   1      47.351  32.936  30.735  1.00  0.00    -0.203 F 
ATOM     43  C   UNL A   1      47.773  35.124  29.975  1.00  0.00     0.198 A 
ATOM     44  C   UNL A   1      46.597  35.980  28.065  1.00  0.00     0.198 A 
ATOM     45  F   UNL A   1      45.003  34.643  26.966  1.00  0.00    -0.203 F 
ATOM     46  F   UNL A   1      48.665  35.294  30.961  1.00  0.00    -0.200 F 
ATOM     47  C   UNL A   1      47.534  36.151  29.073  1.00  0.00     0.200 A 
ATOM     48  F   UNL A   1      46.374  36.967  27.186  1.00  0.00    -0.200 F 
ATOM     49  F   UNL A   1      48.208  37.304  29.176  1.00  0.00    -0.200 F 
ENDBRANCH  25  39
BRANCH  26  50
ATOM     50  C   UNL A   1      41.527  24.948  27.631  1.00  0.00     0.064 A 
ATOM     51  C   UNL A   1      42.011  23.783  28.241  1.00  0.00     0.173 A 
ATOM     52  C   UNL A   1      40.374  24.841  26.839  1.00  0.00     0.173 A 
ATOM     53  F   UNL A   1      43.121  23.832  28.992  1.00  0.00    -0.203 F 
ATOM     54  C   UNL A   1      41.376  22.557  28.053  1.00  0.00     0.198 A 
ATOM     55  C   UNL A   1      39.725  23.620  26.674  1.00  0.00     0.198 A 
ATOM     56  F   UNL A   1      39.870  25.928  26.236  1.00  0.00    -0.203 F 
ATOM     57  F   UNL A   1      41.882  21.450  28.615  1.00  0.00    -0.200 F 
ATOM     58  C   UNL A   1      40.231  22.477  27.276  1.00  0.00     0.200 A 
ATOM     59  F   UNL A   1      38.611  23.550  25.933  1.00  0.00    -0.200 F 
ATOM     60  F   UNL A   1      39.618  21.299  27.100  1.00  0.00    -0.200 F 
ENDBRANCH  26  50
BRANCH  38  61
ATOM     61  C   UNL A   1      47.476  27.663  25.220  1.00  0.00     0.064 A 
ATOM     62  C   UNL A   1      47.434  27.921  23.842  1.00  0.00     0.173 A 
ATOM     63  C   UNL A   1      48.579  26.957  25.725  1.00  0.00     0.173 A 
ATOM     64  F   UNL A   1      46.393  28.580  23.312  1.00  0.00    -0.203 F 
ATOM     65  C   UNL A   1      48.451  27.481  23.001  1.00  0.00     0.198 A 
ATOM     66  C   UNL A   1      49.607  26.541  24.884  1.00  0.00     0.198 A 
ATOM     67  F   UNL A   1      48.669  26.692  27.037  1.00  0.00    -0.203 F 
ATOM     68  F   UNL A   1      48.375  27.711  21.683  1.00  0.00    -0.200 F 
ATOM     69  C   UNL A   1      49.541  26.800  23.523  1.00  0.00     0.200 A 
ATOM     70  F   UNL A   1      50.667  25.897  25.393  1.00  0.00    -0.200 F 
ATOM     71  F   UNL A   1      50.528  26.391  22.714  1.00  0.00    -0.200 F 
ENDBRANCH  38  61
ENDBRANCH  12  13
ENDBRANCH   5   7
ENDBRANCH   2   3
ENDBRANCH   1   2
BRANCH   1  72
ATOM     72  C   UNL A   1      34.395  33.480  30.716  1.00  0.00     0.118 C 
BRANCH  72  73
ATOM     73  N   UNL A   1      34.400  34.209  29.454  1.00  0.00    -0.352 N 
ATOM     74  C   UNL A   1      34.530  33.717  28.179  1.00  0.00     0.251 C 
ATOM     75  H   UNL A   1      34.295  35.185  29.525  1.00  0.00     0.163 HD
ATOM     76  O   UNL A   1      34.677  34.465  27.221  1.00  0.00    -0.269 OA
BRANCH  74  77
ATOM     77  C   UNL A   1      34.534  32.258  27.993  1.00  0.00     0.041 A 
ATOM     78  C   UNL A   1      35.696  31.526  28.229  1.00  0.00     0.036 A 
ATOM     79  C   UNL A   1      33.382  31.640  27.512  1.00  0.00     0.020 A 
ATOM     80  C   UNL A   1      35.743  30.197  27.830  1.00  0.00     0.065 A 
ATOM     81  C   UNL A   1      33.418  30.284  27.155  1.00  0.00    -0.015 A 
ATOM     82  Cl  UNL A   1      37.239  29.346  28.011  1.00  0.00    -0.082 Cl
ATOM     83  C   UNL A   1      34.625  29.574  27.240  1.00  0.00     0.057 A 
ATOM     84  C   UNL A   1      32.152  29.606  26.717  1.00  0.00     0.049 C 
ATOM     85  N   UNL A   1      34.697  28.258  26.816  1.00  0.00    -0.376 N 
ATOM     86  C   UNL A   1      31.629  30.028  25.368  1.00  0.00    -0.023 C 
ATOM     87  C   UNL A   1      32.250  28.072  26.559  1.00  0.00     0.031 C 
ATOM     88  C   UNL A   1      33.642  27.678  26.002  1.00  0.00     0.114 C 
ATOM     89  H   UNL A   1      35.472  27.707  27.070  1.00  0.00     0.161 HD
ATOM     90  C   UNL A   1      31.019  29.006  24.755  1.00  0.00    -0.030 C 
ATOM     91  C   UNL A   1      31.075  27.774  25.603  1.00  0.00     0.034 C 
BRANCH  88  92
ATOM     92  C   UNL A   1      33.849  26.170  25.943  1.00  0.00    -0.025 A 
ATOM     93  C   UNL A   1      34.983  25.563  25.365  1.00  0.00     0.007 A 
ATOM     94  C   UNL A   1      32.869  25.342  26.496  1.00  0.00     0.007 A 
ATOM     95  C   UNL A   1      35.138  24.171  25.364  1.00  0.00     0.022 A 
ATOM     96  C   UNL A   1      33.047  23.967  26.536  1.00  0.00     0.022 A 
ATOM     97  C   UNL A   1      34.168  23.374  25.972  1.00  0.00     0.082 A 
BRANCH  97  98
ATOM     98  S   UNL A   1      34.405  21.613  26.036  1.00  0.00     0.243 S 
ATOM     99  O   UNL A   1      35.839  21.401  26.101  1.00  0.00    -0.207 OA
ATOM    100  O   UNL A   1      33.515  21.118  27.058  1.00  0.00    -0.207 OA
BRANCH  98 101
ATOM    101  N   UNL A   1      33.860  21.041  24.558  1.00  0.00    -0.193 NA
ATOM    102  C   UNL A   1      33.382  21.937  23.484  1.00  0.00     0.131 C 
ATOM    103  C   UNL A   1      33.761  19.599  24.268  1.00  0.00     0.131 C 
ATOM    104  C   UNL A   1      32.046  21.457  22.889  1.00  0.00     0.177 C 
ATOM    105  C   UNL A   1      32.366  19.262  23.738  1.00  0.00     0.177 C 
ATOM    106  O   UNL A   1      32.037  20.055  22.590  1.00  0.00    -0.379 OA
ENDBRANCH  98 101
ENDBRANCH  97  98
ENDBRANCH  88  92
ENDBRANCH  74  77
ENDBRANCH  72  73
ENDBRANCH   1  72
TORSDOF 13
ENDMDL
