MODEL 1
REMARK VINA RESULT:     -11.7      0.000      0.000
REMARK SMILES O=C(NCCCNC(=O)c1ccc(-c2c(F)cccc2F)cn1)c1ccc(-c2c3nc(c(-c4c(F)c(F)c(F)c(F)c4F)c4ccc([nH]4)c(-c4c(F)c(F)c(F)c(F)c4F)c4nc(c(-c5c(F)c(F)c(F)c(F)c5F)c5ccc2[nH]5)C=C4)C=C3)cc1
REMARK SMILES IDX 4 1 3 2 1 3 2 4 24 6 25 7 86 8 26 9 85 10 27 11 28 12 29 13
REMARK SMILES IDX 79 14 30 15 84 16 78 17 80 18 31 19 83 20 77 21 76 22 32 24
REMARK SMILES IDX 64 25 44 26 63 27 45 28 48 29 62 30 81 31 46 32 47 33 61 35
REMARK SMILES IDX 82 36 49 37 33 38 34 39 42 40 35 41 36 42 40 43 43 44 37 45
REMARK SMILES IDX 38 46 41 47 39 48 65 49 66 50 74 51 67 52 68 53 72 54 75 55
REMARK SMILES IDX 69 56 70 57 73 58 71 59 50 60 51 61 59 62 52 63 53 64 57 65
REMARK SMILES IDX 60 66 54 67 55 68 58 69 56 70 5 71 6 72 7 73 8 74 9 76 10 77
REMARK SMILES IDX 11 78 23 79 12 80 22 81 13 82 14 83 15 84 20 85 16 86 17 87
REMARK SMILES IDX 19 88 21 89 18 90
REMARK H PARENT 3 5 80 23 48 34 7 75
REMARK Flexibility Score: inf
ROOT
ATOM      1  C   UNL A   1      33.788  28.862  25.258  1.00  0.00     0.118 C 
ENDROOT
BRANCH   1   2
ATOM      2  N   UNL A   1      33.154  30.067  25.785  1.00  0.00    -0.352 N 
ATOM      3  O   UNL A   1      32.700  31.716  27.250  1.00  0.00    -0.269 OA
ATOM      4  C   UNL A   1      33.472  30.837  26.876  1.00  0.00     0.251 C 
ATOM      5  H   UNL A   1      32.372  30.378  25.274  1.00  0.00     0.163 HD
BRANCH   4   6
ATOM      6  C   UNL A   1      34.729  30.602  27.618  1.00  0.00     0.039 A 
ATOM      7  C   UNL A   1      34.988  29.363  28.201  1.00  0.00     0.014 A 
ATOM      8  C   UNL A   1      35.677  31.627  27.712  1.00  0.00     0.014 A 
ATOM      9  C   UNL A   1      36.092  29.205  29.027  1.00  0.00     0.010 A 
ATOM     10  C   UNL A   1      36.851  31.427  28.444  1.00  0.00     0.010 A 
ATOM     11  C   UNL A   1      37.052  30.224  29.136  1.00  0.00    -0.014 A 
BRANCH  11  12
ATOM     12  C   UNL A   1      38.288  29.949  29.909  1.00  0.00     0.031 A 
ATOM     13  C   UNL A   1      38.480  30.466  31.304  1.00  0.00     0.074 A 
ATOM     14  C   UNL A   1      39.223  29.158  29.344  1.00  0.00     0.049 A 
ATOM     15  N   UNL A   1      39.463  30.234  32.137  1.00  0.00    -0.248 NA
ATOM     16  C   UNL A   1      37.447  31.368  31.833  1.00  0.00     0.031 C 
ATOM     17  C   UNL A   1      39.146  28.617  27.984  1.00  0.00     0.029 A 
ATOM     18  N   UNL A   1      40.386  28.635  29.844  1.00  0.00    -0.354 N 
ATOM     19  C   UNL A   1      39.179  30.973  33.277  1.00  0.00     0.074 A 
ATOM     20  C   UNL A   1      37.944  31.683  33.023  1.00  0.00     0.031 C 
ATOM     21  C   UNL A   1      40.168  27.776  27.788  1.00  0.00     0.029 A 
ATOM     22  C   UNL A   1      41.012  27.773  28.977  1.00  0.00     0.049 A 
ATOM     23  H   UNL A   1      40.738  28.855  30.737  1.00  0.00     0.167 HD
ATOM     24  C   UNL A   1      39.886  31.041  34.431  1.00  0.00     0.037 A 
ATOM     25  C   UNL A   1      42.144  27.059  29.117  1.00  0.00     0.037 A 
ATOM     26  C   UNL A   1      41.102  30.309  34.680  1.00  0.00     0.049 A 
ATOM     27  C   UNL A   1      42.907  27.153  30.404  1.00  0.00     0.074 A 
ATOM     28  C   UNL A   1      41.866  30.277  35.833  1.00  0.00     0.029 A 
ATOM     29  N   UNL A   1      41.734  29.485  33.759  1.00  0.00    -0.354 N 
ATOM     30  N   UNL A   1      42.612  27.830  31.486  1.00  0.00    -0.248 NA
ATOM     31  C   UNL A   1      44.163  26.396  30.488  1.00  0.00     0.031 C 
ATOM     32  C   UNL A   1      42.987  29.475  35.593  1.00  0.00     0.029 A 
ATOM     33  C   UNL A   1      42.894  28.962  34.309  1.00  0.00     0.049 A 
ATOM     34  H   UNL A   1      41.407  29.298  32.849  1.00  0.00     0.167 HD
ATOM     35  C   UNL A   1      43.638  27.580  32.383  1.00  0.00     0.074 A 
ATOM     36  C   UNL A   1      44.556  26.671  31.725  1.00  0.00     0.031 C 
ATOM     37  C   UNL A   1      43.801  28.063  33.638  1.00  0.00     0.037 A 
BRANCH  24  38
ATOM     38  C   UNL A   1      39.379  31.949  35.514  1.00  0.00     0.064 A 
ATOM     39  C   UNL A   1      39.815  33.281  35.584  1.00  0.00     0.173 A 
ATOM     40  C   UNL A   1      38.516  31.490  36.521  1.00  0.00     0.173 A 
ATOM     41  F   UNL A   1      40.646  33.770  34.651  1.00  0.00    -0.203 F 
ATOM     42  C   UNL A   1      39.413  34.116  36.623  1.00  0.00     0.198 A 
ATOM     43  C   UNL A   1      38.095  32.335  37.545  1.00  0.00     0.198 A 
ATOM     44  F   UNL A   1      38.063  30.228  36.497  1.00  0.00    -0.203 F 
ATOM     45  F   UNL A   1      39.866  35.376  36.683  1.00  0.00    -0.200 F 
ATOM     46  C   UNL A   1      38.549  33.644  37.600  1.00  0.00     0.200 A 
ATOM     47  F   UNL A   1      37.241  31.885  38.475  1.00  0.00    -0.200 F 
ATOM     48  F   UNL A   1      38.152  34.452  38.592  1.00  0.00    -0.200 F 
ENDBRANCH  24  38
BRANCH  25  49
ATOM     49  C   UNL A   1      42.583  26.185  28.001  1.00  0.00     0.064 A 
ATOM     50  C   UNL A   1      43.510  26.637  27.049  1.00  0.00     0.173 A 
ATOM     51  C   UNL A   1      42.010  24.921  27.808  1.00  0.00     0.173 A 
ATOM     52  F   UNL A   1      44.077  27.844  27.184  1.00  0.00    -0.203 F 
ATOM     53  C   UNL A   1      43.816  25.874  25.924  1.00  0.00     0.198 A 
ATOM     54  C   UNL A   1      42.338  24.148  26.697  1.00  0.00     0.198 A 
ATOM     55  F   UNL A   1      41.128  24.443  28.698  1.00  0.00    -0.203 F 
ATOM     56  F   UNL A   1      44.658  26.355  25.001  1.00  0.00    -0.200 F 
ATOM     57  C   UNL A   1      43.228  24.630  25.749  1.00  0.00     0.200 A 
ATOM     58  F   UNL A   1      41.781  22.939  26.538  1.00  0.00    -0.200 F 
ATOM     59  F   UNL A   1      43.518  23.899  24.664  1.00  0.00    -0.200 F 
ENDBRANCH  25  49
BRANCH  37  60
ATOM     60  C   UNL A   1      45.016  27.620  34.396  1.00  0.00     0.064 A 
ATOM     61  C   UNL A   1      46.221  28.330  34.283  1.00  0.00     0.173 A 
ATOM     62  C   UNL A   1      45.009  26.448  35.166  1.00  0.00     0.173 A 
ATOM     63  F   UNL A   1      46.278  29.453  33.553  1.00  0.00    -0.203 F 
ATOM     64  C   UNL A   1      47.381  27.870  34.900  1.00  0.00     0.198 A 
ATOM     65  C   UNL A   1      46.166  26.006  35.802  1.00  0.00     0.198 A 
ATOM     66  F   UNL A   1      43.877  25.744  35.315  1.00  0.00    -0.203 F 
ATOM     67  F   UNL A   1      48.530  28.544  34.750  1.00  0.00    -0.200 F 
ATOM     68  C   UNL A   1      47.352  26.710  35.660  1.00  0.00     0.200 A 
ATOM     69  F   UNL A   1      46.133  24.897  36.554  1.00  0.00    -0.200 F 
ATOM     70  F   UNL A   1      48.469  26.271  36.256  1.00  0.00    -0.200 F 
ENDBRANCH  37  60
ENDBRANCH  11  12
ENDBRANCH   4   6
ENDBRANCH   1   2
BRANCH   1  71
ATOM     71  C   UNL A   1      33.138  27.583  25.762  1.00  0.00     0.042 C 
BRANCH  71  72
ATOM     72  C   UNL A   1      32.146  26.978  24.781  1.00  0.00     0.118 C 
BRANCH  72  73
ATOM     73  N   UNL A   1      32.621  27.050  23.408  1.00  0.00    -0.351 N 
ATOM     74  C   UNL A   1      33.144  26.052  22.614  1.00  0.00     0.269 C 
ATOM     75  H   UNL A   1      32.560  27.937  22.986  1.00  0.00     0.163 HD
ATOM     76  O   UNL A   1      33.653  26.347  21.536  1.00  0.00    -0.268 OA
BRANCH  74  77
ATOM     77  C   UNL A   1      33.055  24.638  23.063  1.00  0.00     0.128 A 
ATOM     78  C   UNL A   1      34.208  23.971  23.453  1.00  0.00     0.035 A 
ATOM     79  N   UNL A   1      31.828  24.066  23.042  1.00  0.00    -0.250 NA
ATOM     80  C   UNL A   1      34.111  22.622  23.778  1.00  0.00     0.013 A 
ATOM     81  C   UNL A   1      31.768  22.761  23.402  1.00  0.00     0.120 A 
ATOM     82  C   UNL A   1      32.867  21.973  23.759  1.00  0.00     0.006 A 
BRANCH  82  83
ATOM     83  C   UNL A   1      32.741  20.543  24.086  1.00  0.00     0.055 A 
ATOM     84  C   UNL A   1      32.991  20.053  25.377  1.00  0.00     0.134 A 
ATOM     85  C   UNL A   1      32.390  19.591  23.116  1.00  0.00     0.134 A 
ATOM     86  F   UNL A   1      33.324  20.897  26.366  1.00  0.00    -0.206 F 
ATOM     87  C   UNL A   1      32.903  18.696  25.687  1.00  0.00     0.040 A 
ATOM     88  C   UNL A   1      32.296  18.230  23.410  1.00  0.00     0.040 A 
ATOM     89  F   UNL A   1      32.153  19.973  21.851  1.00  0.00    -0.206 F 
ATOM     90  C   UNL A   1      32.555  17.779  24.702  1.00  0.00     0.006 A 
ENDBRANCH  82  83
ENDBRANCH  74  77
ENDBRANCH  72  73
ENDBRANCH  71  72
ENDBRANCH   1  71
TORSDOF 11
ENDMDL
MODEL 2
REMARK VINA RESULT:     -11.7      4.557      7.801
REMARK SMILES O=C(NCCCNC(=O)c1ccc(-c2c(F)cccc2F)cn1)c1ccc(-c2c3nc(c(-c4c(F)c(F)c(F)c(F)c4F)c4ccc([nH]4)c(-c4c(F)c(F)c(F)c(F)c4F)c4nc(c(-c5c(F)c(F)c(F)c(F)c5F)c5ccc2[nH]5)C=C4)C=C3)cc1
REMARK SMILES IDX 4 1 3 2 1 3 2 4 24 6 25 7 86 8 26 9 85 10 27 11 28 12 29 13
REMARK SMILES IDX 79 14 30 15 84 16 78 17 80 18 31 19 83 20 77 21 76 22 32 24
REMARK SMILES IDX 64 25 44 26 63 27 45 28 48 29 62 30 81 31 46 32 47 33 61 35
REMARK SMILES IDX 82 36 49 37 33 38 34 39 42 40 35 41 36 42 40 43 43 44 37 45
REMARK SMILES IDX 38 46 41 47 39 48 65 49 66 50 74 51 67 52 68 53 72 54 75 55
REMARK SMILES IDX 69 56 70 57 73 58 71 59 50 60 51 61 59 62 52 63 53 64 57 65
REMARK SMILES IDX 60 66 54 67 55 68 58 69 56 70 5 71 6 72 7 73 8 74 9 76 10 77
REMARK SMILES IDX 11 78 23 79 12 80 22 81 13 82 14 83 15 84 20 85 16 86 17 87
REMARK SMILES IDX 19 88 21 89 18 90
REMARK H PARENT 3 5 80 23 48 34 7 75
REMARK Flexibility Score: inf
ROOT
ATOM      1  C   UNL A   1      34.394  32.619  28.600  1.00  0.00     0.118 C 
ENDROOT
BRANCH   1   2
ATOM      2  N   UNL A   1      33.845  31.427  27.960  1.00  0.00    -0.352 N 
ATOM      3  O   UNL A   1      33.845  29.428  26.923  1.00  0.00    -0.269 OA
ATOM      4  C   UNL A   1      34.447  30.241  27.618  1.00  0.00     0.251 C 
ATOM      5  H   UNL A   1      32.888  31.483  27.738  1.00  0.00     0.163 HD
BRANCH   4   6
ATOM      6  C   UNL A   1      35.826  29.946  28.064  1.00  0.00     0.039 A 
ATOM      7  C   UNL A   1      36.912  30.196  27.228  1.00  0.00     0.014 A 
ATOM      8  C   UNL A   1      36.040  29.434  29.348  1.00  0.00     0.014 A 
ATOM      9  C   UNL A   1      38.179  29.766  27.594  1.00  0.00     0.010 A 
ATOM     10  C   UNL A   1      37.335  29.114  29.766  1.00  0.00     0.010 A 
ATOM     11  C   UNL A   1      38.413  29.247  28.878  1.00  0.00    -0.014 A 
BRANCH  11  12
ATOM     12  C   UNL A   1      39.810  28.946  29.274  1.00  0.00     0.031 A 
ATOM     13  C   UNL A   1      40.540  29.776  30.288  1.00  0.00     0.074 A 
ATOM     14  C   UNL A   1      40.397  27.856  28.740  1.00  0.00     0.049 A 
ATOM     15  N   UNL A   1      41.729  29.584  30.803  1.00  0.00    -0.248 NA
ATOM     16  C   UNL A   1      39.860  30.981  30.785  1.00  0.00     0.031 C 
ATOM     17  C   UNL A   1      39.785  26.991  27.728  1.00  0.00     0.029 A 
ATOM     18  N   UNL A   1      41.606  27.263  28.997  1.00  0.00    -0.354 N 
ATOM     19  C   UNL A   1      41.948  30.649  31.665  1.00  0.00     0.074 A 
ATOM     20  C   UNL A   1      40.780  31.501  31.588  1.00  0.00     0.031 C 
ATOM     21  C   UNL A   1      40.581  25.937  27.513  1.00  0.00     0.029 A 
ATOM     22  C   UNL A   1      41.790  26.087  28.312  1.00  0.00     0.049 A 
ATOM     23  H   UNL A   1      42.275  27.642  29.612  1.00  0.00     0.167 HD
ATOM     24  C   UNL A   1      43.025  30.884  32.453  1.00  0.00     0.037 A 
ATOM     25  C   UNL A   1      42.821  25.221  28.321  1.00  0.00     0.037 A 
ATOM     26  C   UNL A   1      44.171  30.015  32.538  1.00  0.00     0.049 A 
ATOM     27  C   UNL A   1      44.000  25.505  29.201  1.00  0.00     0.074 A 
ATOM     28  C   UNL A   1      45.291  30.144  33.340  1.00  0.00     0.029 A 
ATOM     29  N   UNL A   1      44.346  28.858  31.791  1.00  0.00    -0.354 N 
ATOM     30  N   UNL A   1      44.181  26.499  30.035  1.00  0.00    -0.248 NA
ATOM     31  C   UNL A   1      45.122  24.559  29.135  1.00  0.00     0.031 C 
ATOM     32  C   UNL A   1      46.167  29.095  33.042  1.00  0.00     0.029 A 
ATOM     33  C   UNL A   1      45.569  28.280  32.093  1.00  0.00     0.049 A 
ATOM     34  H   UNL A   1      43.697  28.500  31.142  1.00  0.00     0.167 HD
ATOM     35  C   UNL A   1      45.431  26.300  30.599  1.00  0.00     0.074 A 
ATOM     36  C   UNL A   1      45.957  25.077  30.025  1.00  0.00     0.031 C 
ATOM     37  C   UNL A   1      46.081  27.065  31.509  1.00  0.00     0.037 A 
BRANCH  24  38
ATOM     38  C   UNL A   1      43.032  32.139  33.278  1.00  0.00     0.064 A 
ATOM     39  C   UNL A   1      42.431  32.158  34.546  1.00  0.00     0.173 A 
ATOM     40  C   UNL A   1      43.573  33.340  32.792  1.00  0.00     0.173 A 
ATOM     41  F   UNL A   1      41.892  31.040  35.054  1.00  0.00    -0.203 F 
ATOM     42  C   UNL A   1      42.363  33.332  35.293  1.00  0.00     0.198 A 
ATOM     43  C   UNL A   1      43.528  34.506  33.554  1.00  0.00     0.198 A 
ATOM     44  F   UNL A   1      44.167  33.375  31.590  1.00  0.00    -0.203 F 
ATOM     45  F   UNL A   1      41.759  33.330  36.489  1.00  0.00    -0.200 F 
ATOM     46  C   UNL A   1      42.916  34.503  34.798  1.00  0.00     0.200 A 
ATOM     47  F   UNL A   1      44.084  35.632  33.085  1.00  0.00    -0.200 F 
ATOM     48  F   UNL A   1      42.863  35.629  35.523  1.00  0.00    -0.200 F 
ENDBRANCH  24  38
BRANCH  25  49
ATOM     49  C   UNL A   1      42.741  24.003  27.476  1.00  0.00     0.064 A 
ATOM     50  C   UNL A   1      42.372  22.765  28.024  1.00  0.00     0.173 A 
ATOM     51  C   UNL A   1      43.126  24.036  26.130  1.00  0.00     0.173 A 
ATOM     52  F   UNL A   1      42.008  22.682  29.311  1.00  0.00    -0.203 F 
ATOM     53  C   UNL A   1      42.433  21.597  27.266  1.00  0.00     0.198 A 
ATOM     54  C   UNL A   1      43.159  22.871  25.366  1.00  0.00     0.198 A 
ATOM     55  F   UNL A   1      43.473  25.199  25.560  1.00  0.00    -0.203 F 
ATOM     56  F   UNL A   1      42.136  20.420  27.831  1.00  0.00    -0.200 F 
ATOM     57  C   UNL A   1      42.828  21.651  25.938  1.00  0.00     0.200 A 
ATOM     58  F   UNL A   1      43.525  22.928  24.078  1.00  0.00    -0.200 F 
ATOM     59  F   UNL A   1      42.892  20.527  25.212  1.00  0.00    -0.200 F 
ENDBRANCH  25  49
BRANCH  37  60
ATOM     60  C   UNL A   1      47.437  26.606  31.954  1.00  0.00     0.064 A 
ATOM     61  C   UNL A   1      48.586  27.004  31.254  1.00  0.00     0.173 A 
ATOM     62  C   UNL A   1      47.591  25.708  33.020  1.00  0.00     0.173 A 
ATOM     63  F   UNL A   1      48.488  27.857  30.223  1.00  0.00    -0.203 F 
ATOM     64  C   UNL A   1      49.839  26.504  31.594  1.00  0.00     0.198 A 
ATOM     65  C   UNL A   1      48.850  25.231  33.373  1.00  0.00     0.198 A 
ATOM     66  F   UNL A   1      46.524  25.311  33.728  1.00  0.00    -0.203 F 
ATOM     67  F   UNL A   1      50.919  26.870  30.889  1.00  0.00    -0.200 F 
ATOM     68  C   UNL A   1      49.970  25.619  32.654  1.00  0.00     0.200 A 
ATOM     69  F   UNL A   1      48.980  24.392  34.411  1.00  0.00    -0.200 F 
ATOM     70  F   UNL A   1      51.179  25.142  32.983  1.00  0.00    -0.200 F 
ENDBRANCH  37  60
ENDBRANCH  11  12
ENDBRANCH   4   6
ENDBRANCH   1   2
BRANCH   1  71
ATOM     71  C   UNL A   1      33.530  33.853  28.391  1.00  0.00     0.042 C 
BRANCH  71  72
ATOM     72  C   UNL A   1      34.149  35.128  28.941  1.00  0.00     0.118 C 
BRANCH  72  73
ATOM     73  N   UNL A   1      33.215  35.878  29.768  1.00  0.00    -0.351 N 
ATOM     74  C   UNL A   1      33.002  35.803  31.127  1.00  0.00     0.269 C 
ATOM     75  H   UNL A   1      32.656  36.530  29.287  1.00  0.00     0.163 HD
ATOM     76  O   UNL A   1      32.044  36.394  31.618  1.00  0.00    -0.268 OA
BRANCH  74  77
ATOM     77  C   UNL A   1      33.952  35.036  31.976  1.00  0.00     0.128 A 
ATOM     78  C   UNL A   1      35.080  35.669  32.480  1.00  0.00     0.035 A 
ATOM     79  N   UNL A   1      33.664  33.732  32.191  1.00  0.00    -0.250 NA
ATOM     80  C   UNL A   1      36.001  34.906  33.191  1.00  0.00     0.013 A 
ATOM     81  C   UNL A   1      34.566  33.030  32.920  1.00  0.00     0.120 A 
ATOM     82  C   UNL A   1      35.762  33.545  33.431  1.00  0.00     0.006 A 
BRANCH  82  83
ATOM     83  C   UNL A   1      36.728  32.714  34.169  1.00  0.00     0.055 A 
ATOM     84  C   UNL A   1      37.082  32.993  35.498  1.00  0.00     0.134 A 
ATOM     85  C   UNL A   1      37.364  31.613  33.572  1.00  0.00     0.134 A 
ATOM     86  F   UNL A   1      36.515  34.022  36.146  1.00  0.00    -0.206 F 
ATOM     87  C   UNL A   1      38.019  32.228  36.194  1.00  0.00     0.040 A 
ATOM     88  C   UNL A   1      38.303  30.838  34.255  1.00  0.00     0.040 A 
ATOM     89  F   UNL A   1      37.097  31.289  32.297  1.00  0.00    -0.206 F 
ATOM     90  C   UNL A   1      38.633  31.146  35.572  1.00  0.00     0.006 A 
ENDBRANCH  82  83
ENDBRANCH  74  77
ENDBRANCH  72  73
ENDBRANCH  71  72
ENDBRANCH   1  71
TORSDOF 11
ENDMDL
MODEL 3
REMARK VINA RESULT:     -11.6      0.506      1.959
REMARK SMILES O=C(NCCCNC(=O)c1ccc(-c2c(F)cccc2F)cn1)c1ccc(-c2c3nc(c(-c4c(F)c(F)c(F)c(F)c4F)c4ccc([nH]4)c(-c4c(F)c(F)c(F)c(F)c4F)c4nc(c(-c5c(F)c(F)c(F)c(F)c5F)c5ccc2[nH]5)C=C4)C=C3)cc1
REMARK SMILES IDX 4 1 3 2 1 3 2 4 24 6 25 7 86 8 26 9 85 10 27 11 28 12 29 13
REMARK SMILES IDX 79 14 30 15 84 16 78 17 80 18 31 19 83 20 77 21 76 22 32 24
REMARK SMILES IDX 64 25 44 26 63 27 45 28 48 29 62 30 81 31 46 32 47 33 61 35
REMARK SMILES IDX 82 36 49 37 33 38 34 39 42 40 35 41 36 42 40 43 43 44 37 45
REMARK SMILES IDX 38 46 41 47 39 48 65 49 66 50 74 51 67 52 68 53 72 54 75 55
REMARK SMILES IDX 69 56 70 57 73 58 71 59 50 60 51 61 59 62 52 63 53 64 57 65
REMARK SMILES IDX 60 66 54 67 55 68 58 69 56 70 5 71 6 72 7 73 8 74 9 76 10 77
REMARK SMILES IDX 11 78 23 79 12 80 22 81 13 82 14 83 15 84 20 85 16 86 17 87
REMARK SMILES IDX 19 88 21 89 18 90
REMARK H PARENT 3 5 80 23 48 34 7 75
REMARK Flexibility Score: inf
ROOT
ATOM      1  C   UNL A   1      33.406  29.231  25.287  1.00  0.00     0.118 C 
ENDROOT
BRANCH   1   2
ATOM      2  N   UNL A   1      32.828  30.468  25.801  1.00  0.00    -0.352 N 
ATOM      3  O   UNL A   1      32.470  32.166  27.237  1.00  0.00    -0.269 OA
ATOM      4  C   UNL A   1      33.202  31.254  26.863  1.00  0.00     0.251 C 
ATOM      5  H   UNL A   1      32.042  30.793  25.305  1.00  0.00     0.163 HD
BRANCH   4   6
ATOM      6  C   UNL A   1      34.472  30.995  27.574  1.00  0.00     0.039 A 
ATOM      7  C   UNL A   1      34.781  29.716  28.033  1.00  0.00     0.014 A 
ATOM      8  C   UNL A   1      35.381  32.041  27.766  1.00  0.00     0.014 A 
ATOM      9  C   UNL A   1      35.896  29.521  28.836  1.00  0.00     0.010 A 
ATOM     10  C   UNL A   1      36.567  31.816  28.471  1.00  0.00     0.010 A 
ATOM     11  C   UNL A   1      36.818  30.560  29.041  1.00  0.00    -0.014 A 
BRANCH  11  12
ATOM     12  C   UNL A   1      38.069  30.257  29.779  1.00  0.00     0.031 A 
ATOM     13  C   UNL A   1      38.280  30.708  31.194  1.00  0.00     0.074 A 
ATOM     14  C   UNL A   1      38.999  29.502  29.162  1.00  0.00     0.049 A 
ATOM     15  N   UNL A   1      39.278  30.444  31.999  1.00  0.00    -0.248 NA
ATOM     16  C   UNL A   1      37.249  31.575  31.784  1.00  0.00     0.031 C 
ATOM     17  C   UNL A   1      38.904  29.027  27.779  1.00  0.00     0.029 A 
ATOM     18  N   UNL A   1      40.175  28.965  29.617  1.00  0.00    -0.354 N 
ATOM     19  C   UNL A   1      39.009  31.125  33.178  1.00  0.00     0.074 A 
ATOM     20  C   UNL A   1      37.764  31.836  32.979  1.00  0.00     0.031 C 
ATOM     21  C   UNL A   1      39.929  28.205  27.526  1.00  0.00     0.029 A 
ATOM     22  C   UNL A   1      40.793  28.151  28.699  1.00  0.00     0.049 A 
ATOM     23  H   UNL A   1      40.540  29.145  30.514  1.00  0.00     0.167 HD
ATOM     24  C   UNL A   1      39.734  31.143  34.322  1.00  0.00     0.037 A 
ATOM     25  C   UNL A   1      41.932  27.440  28.786  1.00  0.00     0.037 A 
ATOM     26  C   UNL A   1      40.959  30.410  34.516  1.00  0.00     0.049 A 
ATOM     27  C   UNL A   1      42.716  27.478  30.063  1.00  0.00     0.074 A 
ATOM     28  C   UNL A   1      41.743  30.328  35.653  1.00  0.00     0.029 A 
ATOM     29  N   UNL A   1      41.582  29.636  33.546  1.00  0.00    -0.354 N 
ATOM     30  N   UNL A   1      42.433  28.099  31.182  1.00  0.00    -0.248 NA
ATOM     31  C   UNL A   1      43.978  26.728  30.090  1.00  0.00     0.031 C 
ATOM     32  C   UNL A   1      42.865  29.548  35.357  1.00  0.00     0.029 A 
ATOM     33  C   UNL A   1      42.755  29.097  34.051  1.00  0.00     0.049 A 
ATOM     34  H   UNL A   1      41.241  29.490  32.633  1.00  0.00     0.167 HD
ATOM     35  C   UNL A   1      43.476  27.815  32.049  1.00  0.00     0.074 A 
ATOM     36  C   UNL A   1      44.389  26.947  31.332  1.00  0.00     0.031 C 
ATOM     37  C   UNL A   1      43.657  28.238  33.323  1.00  0.00     0.037 A 
BRANCH  24  38
ATOM     38  C   UNL A   1      39.238  31.994  35.456  1.00  0.00     0.064 A 
ATOM     39  C   UNL A   1      39.640  33.334  35.565  1.00  0.00     0.173 A 
ATOM     40  C   UNL A   1      38.422  31.471  36.471  1.00  0.00     0.173 A 
ATOM     41  F   UNL A   1      40.427  33.882  34.626  1.00  0.00    -0.203 F 
ATOM     42  C   UNL A   1      39.250  34.117  36.649  1.00  0.00     0.198 A 
ATOM     43  C   UNL A   1      38.012  32.264  37.541  1.00  0.00     0.198 A 
ATOM     44  F   UNL A   1      38.003  30.199  36.412  1.00  0.00    -0.203 F 
ATOM     45  F   UNL A   1      39.670  35.386  36.744  1.00  0.00    -0.200 F 
ATOM     46  C   UNL A   1      38.432  33.582  37.633  1.00  0.00     0.200 A 
ATOM     47  F   UNL A   1      37.202  31.754  38.479  1.00  0.00    -0.200 F 
ATOM     48  F   UNL A   1      38.046  34.340  38.669  1.00  0.00    -0.200 F 
ENDBRANCH  24  38
BRANCH  25  49
ATOM     49  C   UNL A   1      42.358  26.625  27.622  1.00  0.00     0.064 A 
ATOM     50  C   UNL A   1      41.902  25.307  27.454  1.00  0.00     0.173 A 
ATOM     51  C   UNL A   1      43.303  27.111  26.710  1.00  0.00     0.173 A 
ATOM     52  F   UNL A   1      41.006  24.794  28.309  1.00  0.00    -0.203 F 
ATOM     53  C   UNL A   1      42.409  24.494  26.443  1.00  0.00     0.198 A 
ATOM     54  C   UNL A   1      43.788  26.305  25.682  1.00  0.00     0.198 A 
ATOM     55  F   UNL A   1      43.758  28.368  26.823  1.00  0.00    -0.203 F 
ATOM     56  F   UNL A   1      42.003  23.222  26.343  1.00  0.00    -0.200 F 
ATOM     57  C   UNL A   1      43.352  24.994  25.559  1.00  0.00     0.200 A 
ATOM     58  F   UNL A   1      44.688  26.796  24.818  1.00  0.00    -0.200 F 
ATOM     59  F   UNL A   1      43.844  24.210  24.590  1.00  0.00    -0.200 F 
ENDBRANCH  25  49
BRANCH  37  60
ATOM     60  C   UNL A   1      44.887  27.769  34.039  1.00  0.00     0.064 A 
ATOM     61  C   UNL A   1      44.870  26.572  34.770  1.00  0.00     0.173 A 
ATOM     62  C   UNL A   1      46.055  28.544  34.069  1.00  0.00     0.173 A 
ATOM     63  F   UNL A   1      43.773  25.799  34.777  1.00  0.00    -0.203 F 
ATOM     64  C   UNL A   1      45.972  26.178  35.522  1.00  0.00     0.198 A 
ATOM     65  C   UNL A   1      47.165  28.133  34.802  1.00  0.00     0.198 A 
ATOM     66  F   UNL A   1      46.124  29.689  33.373  1.00  0.00    -0.203 F 
ATOM     67  F   UNL A   1      45.922  25.048  36.242  1.00  0.00    -0.200 F 
ATOM     68  C   UNL A   1      47.119  26.958  35.536  1.00  0.00     0.200 A 
ATOM     69  F   UNL A   1      48.281  28.876  34.798  1.00  0.00    -0.200 F 
ATOM     70  F   UNL A   1      48.182  26.575  36.257  1.00  0.00    -0.200 F 
ENDBRANCH  37  60
ENDBRANCH  11  12
ENDBRANCH   4   6
ENDBRANCH   1   2
BRANCH   1  71
ATOM     71  C   UNL A   1      32.537  28.014  25.559  1.00  0.00     0.042 C 
BRANCH  71  72
ATOM     72  C   UNL A   1      33.025  26.751  24.866  1.00  0.00     0.118 C 
BRANCH  72  73
ATOM     73  N   UNL A   1      33.180  26.939  23.432  1.00  0.00    -0.351 N 
ATOM     74  C   UNL A   1      33.366  25.994  22.445  1.00  0.00     0.269 C 
ATOM     75  H   UNL A   1      33.149  27.872  23.122  1.00  0.00     0.163 HD
ATOM     76  O   UNL A   1      33.652  26.360  21.309  1.00  0.00    -0.268 OA
BRANCH  74  77
ATOM     77  C   UNL A   1      33.185  24.554  22.769  1.00  0.00     0.128 A 
ATOM     78  C   UNL A   1      31.904  24.048  22.938  1.00  0.00     0.035 A 
ATOM     79  N   UNL A   1      34.308  23.812  22.905  1.00  0.00    -0.250 NA
ATOM     80  C   UNL A   1      31.766  22.721  23.333  1.00  0.00     0.013 A 
ATOM     81  C   UNL A   1      34.132  22.514  23.253  1.00  0.00     0.120 A 
ATOM     82  C   UNL A   1      32.896  21.909  23.504  1.00  0.00     0.006 A 
BRANCH  82  83
ATOM     83  C   UNL A   1      32.777  20.506  23.935  1.00  0.00     0.055 A 
ATOM     84  C   UNL A   1      32.387  19.490  23.048  1.00  0.00     0.134 A 
ATOM     85  C   UNL A   1      33.021  20.116  25.261  1.00  0.00     0.134 A 
ATOM     86  F   UNL A   1      32.142  19.775  21.760  1.00  0.00    -0.206 F 
ATOM     87  C   UNL A   1      32.242  18.163  23.456  1.00  0.00     0.040 A 
ATOM     88  C   UNL A   1      32.881  18.793  25.684  1.00  0.00     0.040 A 
ATOM     89  F   UNL A   1      33.379  21.029  26.177  1.00  0.00    -0.206 F 
ATOM     90  C   UNL A   1      32.489  17.811  24.778  1.00  0.00     0.006 A 
ENDBRANCH  82  83
ENDBRANCH  74  77
ENDBRANCH  72  73
ENDBRANCH  71  72
ENDBRANCH   1  71
TORSDOF 11
ENDMDL
