MODEL 1
REMARK VINA RESULT:     -12.7      0.000      0.000
REMARK SMILES Cc1nonc1C[C@@H](C(=O)NCCCNC(=O)c1ccc(-c2c3nc(c(-c4c(F)c(F)c(F)c(F)c4F)c4ccc([nH]4)c(-c4c(F)c(F)c(F)c(F)c4F)c4nc(c(-c5c(F)c(F)c(F)c(F)c5F)c5ccc2[nH]5)C=C4)C=C3)cc1)c1ccccc1Br
REMARK SMILES IDX 13 1 12 2 11 3 9 4 10 5 8 7 7 8 6 9 1 10 2 11 3 12 4 13 5 14
REMARK SMILES IDX 81 15 82 16 86 17 83 18 85 19 87 20 84 21 14 22 15 23 16 24
REMARK SMILES IDX 17 26 18 27 19 28 80 29 20 30 79 31 21 32 22 33 23 34 73 35
REMARK SMILES IDX 24 36 78 37 72 38 74 39 25 40 77 41 71 42 70 43 26 45 58 46
REMARK SMILES IDX 38 47 57 48 39 49 42 50 56 51 75 52 40 53 41 54 55 56 76 57
REMARK SMILES IDX 43 58 27 59 28 60 36 61 29 62 30 63 34 64 37 65 31 66 32 67
REMARK SMILES IDX 35 68 33 69 59 70 60 71 68 72 61 73 62 74 66 75 69 76 63 77
REMARK SMILES IDX 64 78 67 79 65 80 44 81 45 82 53 83 46 84 47 85 51 86 54 87
REMARK SMILES IDX 48 88 49 89 52 90 50 91
REMARK H PARENT 11 6 15 25 74 44 42 55
REMARK Flexibility Score: inf
ROOT
ATOM      1  C   UNL A   1      31.776  29.041  26.725  1.00  0.00     0.042 C 
ENDROOT
BRANCH   1   2
ATOM      2  C   UNL A   1      32.414  27.675  26.990  1.00  0.00     0.117 C 
BRANCH   2   3
ATOM      3  N   UNL A   1      31.399  26.630  26.981  1.00  0.00    -0.355 N 
ATOM      4  C   UNL A   1      30.535  26.217  26.012  1.00  0.00     0.227 C 
ATOM      5  O   UNL A   1      29.594  25.503  26.368  1.00  0.00    -0.274 OA
ATOM      6  H   UNL A   1      31.325  26.133  27.827  1.00  0.00     0.163 HD
BRANCH   4   7
ATOM      7  C   UNL A   1      30.766  26.568  24.531  1.00  0.00     0.116 C 
BRANCH   7   8
ATOM      8  C   UNL A   1      29.377  26.783  23.882  1.00  0.00     0.080 C 
BRANCH   8   9
ATOM      9  C   UNL A   1      29.239  27.909  22.921  1.00  0.00     0.109 A 
ATOM     10  C   UNL A   1      26.801  28.796  23.298  1.00  0.00     0.073 C 
ATOM     11  C   UNL A   1      28.146  28.768  22.686  1.00  0.00     0.105 A 
ATOM     12  N   UNL A   1      28.492  29.689  21.784  1.00  0.00    -0.055 NA
ATOM     13  O   UNL A   1      29.832  29.441  21.510  1.00  0.00    -0.244 OA
ATOM     14  N   UNL A   1      30.291  28.338  22.221  1.00  0.00    -0.055 NA
ENDBRANCH   8   9
ENDBRANCH   7   8
BRANCH   7  15
ATOM     15  C   UNL A   1      31.586  25.440  23.838  1.00  0.00    -0.021 A 
ATOM     16  C   UNL A   1      31.058  24.134  23.705  1.00  0.00     0.006 A 
ATOM     17  C   UNL A   1      32.893  25.636  23.336  1.00  0.00     0.021 A 
ATOM     18  C   UNL A   1      31.809  23.072  23.191  1.00  0.00     0.000 A 
ATOM     19  C   UNL A   1      33.658  24.557  22.861  1.00  0.00     0.016 A 
ATOM     20  Br  UNL A   1      33.722  27.344  23.186  1.00  0.00    -0.051 Br
ATOM     21  C   UNL A   1      33.122  23.276  22.799  1.00  0.00     0.001 A 
ENDBRANCH   7  15
ENDBRANCH   4   7
ENDBRANCH   2   3
ENDBRANCH   1   2
BRANCH   1  22
ATOM     22  C   UNL A   1      32.671  29.999  25.943  1.00  0.00     0.118 C 
BRANCH  22  23
ATOM     23  N   UNL A   1      32.539  31.370  26.398  1.00  0.00    -0.352 N 
ATOM     24  C   UNL A   1      33.274  32.109  27.290  1.00  0.00     0.251 C 
ATOM     25  H   UNL A   1      31.785  31.858  25.994  1.00  0.00     0.163 HD
ATOM     26  O   UNL A   1      32.820  33.192  27.656  1.00  0.00    -0.269 OA
BRANCH  24  27
ATOM     27  C   UNL A   1      34.583  31.658  27.836  1.00  0.00     0.039 A 
ATOM     28  C   UNL A   1      34.678  30.333  28.285  1.00  0.00     0.014 A 
ATOM     29  C   UNL A   1      35.670  32.513  28.035  1.00  0.00     0.014 A 
ATOM     30  C   UNL A   1      35.841  29.874  28.913  1.00  0.00     0.010 A 
ATOM     31  C   UNL A   1      36.865  32.030  28.580  1.00  0.00     0.010 A 
ATOM     32  C   UNL A   1      36.953  30.716  29.062  1.00  0.00    -0.014 A 
BRANCH  32  33
ATOM     33  C   UNL A   1      38.170  30.252  29.787  1.00  0.00     0.031 A 
ATOM     34  C   UNL A   1      38.417  30.678  31.214  1.00  0.00     0.074 A 
ATOM     35  C   UNL A   1      39.063  29.452  29.173  1.00  0.00     0.049 A 
ATOM     36  N   UNL A   1      39.419  30.384  32.008  1.00  0.00    -0.248 NA
ATOM     37  C   UNL A   1      37.419  31.571  31.822  1.00  0.00     0.031 C 
ATOM     38  C   UNL A   1      38.980  28.999  27.785  1.00  0.00     0.029 A 
ATOM     39  N   UNL A   1      40.219  28.876  29.643  1.00  0.00    -0.354 N 
ATOM     40  C   UNL A   1      39.185  31.079  33.188  1.00  0.00     0.074 A 
ATOM     41  C   UNL A   1      37.970  31.842  32.996  1.00  0.00     0.031 C 
ATOM     42  C   UNL A   1      40.020  28.189  27.525  1.00  0.00     0.029 A 
ATOM     43  C   UNL A   1      40.855  28.084  28.719  1.00  0.00     0.049 A 
ATOM     44  H   UNL A   1      40.559  29.017  30.557  1.00  0.00     0.167 HD
ATOM     45  C   UNL A   1      39.900  31.068  34.340  1.00  0.00     0.037 A 
ATOM     46  C   UNL A   1      41.978  27.348  28.823  1.00  0.00     0.037 A 
ATOM     47  C   UNL A   1      41.079  30.274  34.562  1.00  0.00     0.049 A 
ATOM     48  C   UNL A   1      42.721  27.304  30.130  1.00  0.00     0.074 A 
ATOM     49  C   UNL A   1      41.840  30.156  35.713  1.00  0.00     0.029 A 
ATOM     50  N   UNL A   1      41.663  29.449  33.613  1.00  0.00    -0.354 N 
ATOM     51  N   UNL A   1      42.458  27.924  31.254  1.00  0.00    -0.248 NA
ATOM     52  C   UNL A   1      43.911  26.442  30.186  1.00  0.00     0.031 C 
ATOM     53  C   UNL A   1      42.897  29.275  35.453  1.00  0.00     0.029 A 
ATOM     54  C   UNL A   1      42.775  28.820  34.151  1.00  0.00     0.049 A 
ATOM     55  H   UNL A   1      41.336  29.327  32.692  1.00  0.00     0.167 HD
ATOM     56  C   UNL A   1      43.431  27.511  32.155  1.00  0.00     0.074 A 
ATOM     57  C   UNL A   1      44.280  26.573  31.453  1.00  0.00     0.031 C 
ATOM     58  C   UNL A   1      43.604  27.878  33.447  1.00  0.00     0.037 A 
BRANCH  45  59
ATOM     59  C   UNL A   1      39.417  31.940  35.461  1.00  0.00     0.064 A 
ATOM     60  C   UNL A   1      38.540  31.456  36.443  1.00  0.00     0.173 A 
ATOM     61  C   UNL A   1      39.859  33.267  35.572  1.00  0.00     0.173 A 
ATOM     62  F   UNL A   1      38.079  30.198  36.374  1.00  0.00    -0.203 F 
ATOM     63  C   UNL A   1      38.100  32.276  37.478  1.00  0.00     0.198 A 
ATOM     64  C   UNL A   1      39.438  34.077  36.624  1.00  0.00     0.198 A 
ATOM     65  F   UNL A   1      40.704  33.778  34.664  1.00  0.00    -0.203 F 
ATOM     66  F   UNL A   1      37.225  31.805  38.377  1.00  0.00    -0.200 F 
ATOM     67  C   UNL A   1      38.553  33.584  37.572  1.00  0.00     0.200 A 
ATOM     68  F   UNL A   1      39.885  35.336  36.720  1.00  0.00    -0.200 F 
ATOM     69  F   UNL A   1      38.131  34.370  38.571  1.00  0.00    -0.200 F 
ENDBRANCH  45  59
BRANCH  46  70
ATOM     70  C   UNL A   1      42.445  26.547  27.664  1.00  0.00     0.064 A 
ATOM     71  C   UNL A   1      41.944  25.258  27.436  1.00  0.00     0.173 A 
ATOM     72  C   UNL A   1      43.401  27.048  26.769  1.00  0.00     0.173 A 
ATOM     73  F   UNL A   1      41.046  24.729  28.280  1.00  0.00    -0.203 F 
ATOM     74  C   UNL A   1      42.396  24.491  26.364  1.00  0.00     0.198 A 
ATOM     75  C   UNL A   1      43.834  26.288  25.684  1.00  0.00     0.198 A 
ATOM     76  F   UNL A   1      43.909  28.276  26.947  1.00  0.00    -0.203 F 
ATOM     77  F   UNL A   1      41.932  23.246  26.193  1.00  0.00    -0.200 F 
ATOM     78  C   UNL A   1      43.336  25.009  25.486  1.00  0.00     0.200 A 
ATOM     79  F   UNL A   1      44.737  26.793  24.833  1.00  0.00    -0.200 F 
ATOM     80  F   UNL A   1      43.769  24.271  24.455  1.00  0.00    -0.200 F 
ENDBRANCH  46  70
BRANCH  58  81
ATOM     81  C   UNL A   1      44.732  27.236  34.197  1.00  0.00     0.064 A 
ATOM     82  C   UNL A   1      46.006  27.820  34.248  1.00  0.00     0.173 A 
ATOM     83  C   UNL A   1      44.530  26.034  34.893  1.00  0.00     0.173 A 
ATOM     84  F   UNL A   1      46.252  28.961  33.587  1.00  0.00    -0.203 F 
ATOM     85  C   UNL A   1      47.045  27.208  34.944  1.00  0.00     0.198 A 
ATOM     86  C   UNL A   1      45.565  25.438  35.608  1.00  0.00     0.198 A 
ATOM     87  F   UNL A   1      43.327  25.440  34.879  1.00  0.00    -0.203 F 
ATOM     88  F   UNL A   1      48.267  27.759  34.942  1.00  0.00    -0.200 F 
ATOM     89  C   UNL A   1      46.822  26.022  35.627  1.00  0.00     0.200 A 
ATOM     90  F   UNL A   1      45.346  24.296  36.273  1.00  0.00    -0.200 F 
ATOM     91  F   UNL A   1      47.825  25.434  36.296  1.00  0.00    -0.200 F 
ENDBRANCH  58  81
ENDBRANCH  32  33
ENDBRANCH  24  27
ENDBRANCH  22  23
ENDBRANCH   1  22
TORSDOF 13
ENDMDL
MODEL 2
REMARK VINA RESULT:     -12.5      4.562      7.985
REMARK SMILES Cc1nonc1C[C@@H](C(=O)NCCCNC(=O)c1ccc(-c2c3nc(c(-c4c(F)c(F)c(F)c(F)c4F)c4ccc([nH]4)c(-c4c(F)c(F)c(F)c(F)c4F)c4nc(c(-c5c(F)c(F)c(F)c(F)c5F)c5ccc2[nH]5)C=C4)C=C3)cc1)c1ccccc1Br
REMARK SMILES IDX 13 1 12 2 11 3 9 4 10 5 8 7 7 8 6 9 1 10 2 11 3 12 4 13 5 14
REMARK SMILES IDX 81 15 82 16 86 17 83 18 85 19 87 20 84 21 14 22 15 23 16 24
REMARK SMILES IDX 17 26 18 27 19 28 80 29 20 30 79 31 21 32 22 33 23 34 73 35
REMARK SMILES IDX 24 36 78 37 72 38 74 39 25 40 77 41 71 42 70 43 26 45 58 46
REMARK SMILES IDX 38 47 57 48 39 49 42 50 56 51 75 52 40 53 41 54 55 56 76 57
REMARK SMILES IDX 43 58 27 59 28 60 36 61 29 62 30 63 34 64 37 65 31 66 32 67
REMARK SMILES IDX 35 68 33 69 59 70 60 71 68 72 61 73 62 74 66 75 69 76 63 77
REMARK SMILES IDX 64 78 67 79 65 80 44 81 45 82 53 83 46 84 47 85 51 86 54 87
REMARK SMILES IDX 48 88 49 89 52 90 50 91
REMARK H PARENT 11 6 15 25 74 44 42 55
REMARK Flexibility Score: inf
ROOT
ATOM      1  C   UNL A   1      34.417  33.038  29.887  1.00  0.00     0.042 C 
ENDROOT
BRANCH   1   2
ATOM      2  C   UNL A   1      34.912  32.150  31.031  1.00  0.00     0.117 C 
BRANCH   2   3
ATOM      3  N   UNL A   1      35.305  32.965  32.173  1.00  0.00    -0.355 N 
ATOM      4  C   UNL A   1      36.347  32.859  33.045  1.00  0.00     0.227 C 
ATOM      5  O   UNL A   1      36.276  33.520  34.084  1.00  0.00    -0.274 OA
ATOM      6  H   UNL A   1      34.710  33.731  32.345  1.00  0.00     0.163 HD
BRANCH   4   7
ATOM      7  C   UNL A   1      37.586  32.010  32.710  1.00  0.00     0.116 C 
BRANCH   7   8
ATOM      8  C   UNL A   1      37.716  30.926  33.809  1.00  0.00     0.080 C 
BRANCH   8   9
ATOM      9  C   UNL A   1      38.198  29.584  33.389  1.00  0.00     0.109 A 
ATOM     10  C   UNL A   1      40.810  29.748  33.545  1.00  0.00     0.073 C 
ATOM     11  C   UNL A   1      39.514  29.086  33.290  1.00  0.00     0.105 A 
ATOM     12  N   UNL A   1      39.475  27.797  32.944  1.00  0.00    -0.055 NA
ATOM     13  O   UNL A   1      38.125  27.476  32.896  1.00  0.00    -0.244 OA
ATOM     14  N   UNL A   1      37.337  28.587  33.176  1.00  0.00    -0.055 NA
ENDBRANCH   8   9
ENDBRANCH   7   8
BRANCH   7  15
ATOM     15  C   UNL A   1      38.845  32.920  32.611  1.00  0.00    -0.021 A 
ATOM     16  C   UNL A   1      39.745  33.039  33.697  1.00  0.00     0.006 A 
ATOM     17  C   UNL A   1      39.148  33.693  31.466  1.00  0.00     0.021 A 
ATOM     18  C   UNL A   1      40.821  33.931  33.683  1.00  0.00     0.000 A 
ATOM     19  C   UNL A   1      40.206  34.619  31.474  1.00  0.00     0.016 A 
ATOM     20  Br  UNL A   1      38.231  33.526  29.806  1.00  0.00    -0.051 Br
ATOM     21  C   UNL A   1      41.033  34.747  32.584  1.00  0.00     0.001 A 
ENDBRANCH   7  15
ENDBRANCH   4   7
ENDBRANCH   2   3
ENDBRANCH   1   2
BRANCH   1  22
ATOM     22  C   UNL A   1      34.801  32.528  28.500  1.00  0.00     0.118 C 
BRANCH  22  23
ATOM     23  N   UNL A   1      34.285  31.197  28.241  1.00  0.00    -0.352 N 
ATOM     24  C   UNL A   1      34.916  29.990  28.076  1.00  0.00     0.251 C 
ATOM     25  H   UNL A   1      33.304  31.153  28.170  1.00  0.00     0.163 HD
ATOM     26  O   UNL A   1      34.253  29.044  27.657  1.00  0.00    -0.269 OA
BRANCH  24  27
ATOM     27  C   UNL A   1      36.359  29.781  28.374  1.00  0.00     0.039 A 
ATOM     28  C   UNL A   1      37.272  29.967  27.328  1.00  0.00     0.014 A 
ATOM     29  C   UNL A   1      36.829  29.292  29.596  1.00  0.00     0.014 A 
ATOM     30  C   UNL A   1      38.631  29.677  27.505  1.00  0.00     0.010 A 
ATOM     31  C   UNL A   1      38.199  29.089  29.802  1.00  0.00     0.010 A 
ATOM     32  C   UNL A   1      39.112  29.241  28.748  1.00  0.00    -0.014 A 
BRANCH  32  33
ATOM     33  C   UNL A   1      40.545  28.870  28.924  1.00  0.00     0.031 A 
ATOM     34  C   UNL A   1      41.494  29.805  29.632  1.00  0.00     0.074 A 
ATOM     35  C   UNL A   1      41.006  27.697  28.449  1.00  0.00     0.049 A 
ATOM     36  N   UNL A   1      42.775  29.662  29.876  1.00  0.00    -0.248 NA
ATOM     37  C   UNL A   1      40.938  31.082  30.107  1.00  0.00     0.031 C 
ATOM     38  C   UNL A   1      40.216  26.716  27.705  1.00  0.00     0.029 A 
ATOM     39  N   UNL A   1      42.255  27.131  28.525  1.00  0.00    -0.354 N 
ATOM     40  C   UNL A   1      43.177  30.836  30.502  1.00  0.00     0.074 A 
ATOM     41  C   UNL A   1      42.017  31.700  30.563  1.00  0.00     0.031 C 
ATOM     42  C   UNL A   1      40.989  25.655  27.422  1.00  0.00     0.029 A 
ATOM     43  C   UNL A   1      42.334  25.889  27.942  1.00  0.00     0.049 A 
ATOM     44  H   UNL A   1      43.023  27.572  28.956  1.00  0.00     0.167 HD
ATOM     45  C   UNL A   1      44.394  31.161  31.002  1.00  0.00     0.037 A 
ATOM     46  C   UNL A   1      43.368  25.032  27.847  1.00  0.00     0.037 A 
ATOM     47  C   UNL A   1      45.539  30.292  30.995  1.00  0.00     0.049 A 
ATOM     48  C   UNL A   1      44.692  25.390  28.464  1.00  0.00     0.074 A 
ATOM     49  C   UNL A   1      46.799  30.515  31.526  1.00  0.00     0.029 A 
ATOM     50  N   UNL A   1      45.562  29.024  30.435  1.00  0.00    -0.354 N 
ATOM     51  N   UNL A   1      45.042  26.482  29.098  1.00  0.00    -0.248 NA
ATOM     52  C   UNL A   1      45.761  24.386  28.364  1.00  0.00     0.031 C 
ATOM     53  C   UNL A   1      47.590  29.388  31.270  1.00  0.00     0.029 A 
ATOM     54  C   UNL A   1      46.813  28.452  30.608  1.00  0.00     0.049 A 
ATOM     55  H   UNL A   1      44.801  28.592  29.982  1.00  0.00     0.167 HD
ATOM     56  C   UNL A   1      46.359  26.288  29.493  1.00  0.00     0.074 A 
ATOM     57  C   UNL A   1      46.742  24.967  29.043  1.00  0.00     0.031 C 
ATOM     58  C   UNL A   1      47.177  27.131  30.168  1.00  0.00     0.037 A 
BRANCH  45  59
ATOM     59  C   UNL A   1      44.546  32.523  31.615  1.00  0.00     0.064 A 
ATOM     60  C   UNL A   1      44.877  33.644  30.840  1.00  0.00     0.173 A 
ATOM     61  C   UNL A   1      44.328  32.715  32.987  1.00  0.00     0.173 A 
ATOM     62  F   UNL A   1      45.107  33.511  29.524  1.00  0.00    -0.203 F 
ATOM     63  C   UNL A   1      45.014  34.902  31.421  1.00  0.00     0.198 A 
ATOM     64  C   UNL A   1      44.440  33.979  33.560  1.00  0.00     0.198 A 
ATOM     65  F   UNL A   1      44.002  31.678  33.773  1.00  0.00    -0.203 F 
ATOM     66  F   UNL A   1      45.378  35.949  30.667  1.00  0.00    -0.200 F 
ATOM     67  C   UNL A   1      44.790  35.070  32.779  1.00  0.00     0.200 A 
ATOM     68  F   UNL A   1      44.212  34.143  34.871  1.00  0.00    -0.200 F 
ATOM     69  F   UNL A   1      44.919  36.282  33.335  1.00  0.00    -0.200 F 
ENDBRANCH  45  59
BRANCH  46  70
ATOM     70  C   UNL A   1      43.179  23.720  27.179  1.00  0.00     0.064 A 
ATOM     71  C   UNL A   1      42.558  22.657  27.850  1.00  0.00     0.173 A 
ATOM     72  C   UNL A   1      43.617  23.499  25.865  1.00  0.00     0.173 A 
ATOM     73  F   UNL A   1      42.145  22.815  29.116  1.00  0.00    -0.203 F 
ATOM     74  C   UNL A   1      42.399  21.416  27.238  1.00  0.00     0.198 A 
ATOM     75  C   UNL A   1      43.436  22.264  25.247  1.00  0.00     0.198 A 
ATOM     76  F   UNL A   1      44.217  24.486  25.184  1.00  0.00    -0.203 F 
ATOM     77  F   UNL A   1      41.841  20.404  27.917  1.00  0.00    -0.200 F 
ATOM     78  C   UNL A   1      42.833  21.222  25.935  1.00  0.00     0.200 A 
ATOM     79  F   UNL A   1      43.850  22.082  23.986  1.00  0.00    -0.200 F 
ATOM     80  F   UNL A   1      42.679  20.028  25.347  1.00  0.00    -0.200 F 
ENDBRANCH  46  70
BRANCH  58  81
ATOM     81  C   UNL A   1      48.554  26.636  30.493  1.00  0.00     0.064 A 
ATOM     82  C   UNL A   1      48.817  25.914  31.666  1.00  0.00     0.173 A 
ATOM     83  C   UNL A   1      49.619  26.867  29.608  1.00  0.00     0.173 A 
ATOM     84  F   UNL A   1      47.835  25.682  32.550  1.00  0.00    -0.203 F 
ATOM     85  C   UNL A   1      50.103  25.467  31.956  1.00  0.00     0.198 A 
ATOM     86  C   UNL A   1      50.899  26.397  29.890  1.00  0.00     0.198 A 
ATOM     87  F   UNL A   1      49.416  27.547  28.470  1.00  0.00    -0.203 F 
ATOM     88  F   UNL A   1      50.343  24.819  33.105  1.00  0.00    -0.200 F 
ATOM     89  C   UNL A   1      51.141  25.703  31.066  1.00  0.00     0.200 A 
ATOM     90  F   UNL A   1      51.898  26.620  29.026  1.00  0.00    -0.200 F 
ATOM     91  F   UNL A   1      52.378  25.272  31.349  1.00  0.00    -0.200 F 
ENDBRANCH  58  81
ENDBRANCH  32  33
ENDBRANCH  24  27
ENDBRANCH  22  23
ENDBRANCH   1  22
TORSDOF 13
ENDMDL
MODEL 3
REMARK VINA RESULT:     -12.5      1.583      3.186
REMARK SMILES Cc1nonc1C[C@@H](C(=O)NCCCNC(=O)c1ccc(-c2c3nc(c(-c4c(F)c(F)c(F)c(F)c4F)c4ccc([nH]4)c(-c4c(F)c(F)c(F)c(F)c4F)c4nc(c(-c5c(F)c(F)c(F)c(F)c5F)c5ccc2[nH]5)C=C4)C=C3)cc1)c1ccccc1Br
REMARK SMILES IDX 13 1 12 2 11 3 9 4 10 5 8 7 7 8 6 9 1 10 2 11 3 12 4 13 5 14
REMARK SMILES IDX 81 15 82 16 86 17 83 18 85 19 87 20 84 21 14 22 15 23 16 24
REMARK SMILES IDX 17 26 18 27 19 28 80 29 20 30 79 31 21 32 22 33 23 34 73 35
REMARK SMILES IDX 24 36 78 37 72 38 74 39 25 40 77 41 71 42 70 43 26 45 58 46
REMARK SMILES IDX 38 47 57 48 39 49 42 50 56 51 75 52 40 53 41 54 55 56 76 57
REMARK SMILES IDX 43 58 27 59 28 60 36 61 29 62 30 63 34 64 37 65 31 66 32 67
REMARK SMILES IDX 35 68 33 69 59 70 60 71 68 72 61 73 62 74 66 75 69 76 63 77
REMARK SMILES IDX 64 78 67 79 65 80 44 81 45 82 53 83 46 84 47 85 51 86 54 87
REMARK SMILES IDX 48 88 49 89 52 90 50 91
REMARK H PARENT 11 6 15 25 74 44 42 55
REMARK Flexibility Score: inf
ROOT
ATOM      1  C   UNL A   1      31.578  30.809  25.997  1.00  0.00     0.042 C 
ENDROOT
BRANCH   1   2
ATOM      2  C   UNL A   1      31.889  29.388  25.520  1.00  0.00     0.117 C 
BRANCH   2   3
ATOM      3  N   UNL A   1      32.575  29.424  24.235  1.00  0.00    -0.355 N 
ATOM      4  C   UNL A   1      32.470  28.631  23.132  1.00  0.00     0.227 C 
ATOM      5  O   UNL A   1      33.372  28.716  22.293  1.00  0.00    -0.274 OA
ATOM      6  H   UNL A   1      33.232  30.151  24.149  1.00  0.00     0.163 HD
BRANCH   4   7
ATOM      7  C   UNL A   1      31.244  27.727  22.910  1.00  0.00     0.116 C 
BRANCH   7   8
ATOM      8  C   UNL A   1      31.591  26.747  21.762  1.00  0.00     0.080 C 
BRANCH   8   9
ATOM      9  C   UNL A   1      32.405  25.551  22.108  1.00  0.00     0.109 A 
ATOM     10  C   UNL A   1      30.754  23.996  23.423  1.00  0.00     0.073 C 
ATOM     11  C   UNL A   1      32.039  24.381  22.804  1.00  0.00     0.105 A 
ATOM     12  N   UNL A   1      33.071  23.534  22.818  1.00  0.00    -0.055 NA
ATOM     13  O   UNL A   1      34.059  24.156  22.066  1.00  0.00    -0.244 OA
ATOM     14  N   UNL A   1      33.640  25.405  21.624  1.00  0.00    -0.055 NA
ENDBRANCH   8   9
ENDBRANCH   7   8
BRANCH   7  15
ATOM     15  C   UNL A   1      29.990  28.596  22.601  1.00  0.00    -0.021 A 
ATOM     16  C   UNL A   1      30.096  29.781  21.834  1.00  0.00     0.006 A 
ATOM     17  C   UNL A   1      28.698  28.281  23.081  1.00  0.00     0.021 A 
ATOM     18  C   UNL A   1      29.013  30.642  21.633  1.00  0.00     0.000 A 
ATOM     19  C   UNL A   1      27.623  29.171  22.912  1.00  0.00     0.016 A 
ATOM     20  Br  UNL A   1      28.258  26.632  23.927  1.00  0.00    -0.051 Br
ATOM     21  C   UNL A   1      27.783  30.354  22.200  1.00  0.00     0.001 A 
ENDBRANCH   7  15
ENDBRANCH   4   7
ENDBRANCH   2   3
ENDBRANCH   1   2
BRANCH   1  22
ATOM     22  C   UNL A   1      32.370  31.232  27.232  1.00  0.00     0.118 C 
BRANCH  22  23
ATOM     23  N   UNL A   1      32.655  32.655  27.241  1.00  0.00    -0.352 N 
ATOM     24  C   UNL A   1      33.695  33.373  27.775  1.00  0.00     0.251 C 
ATOM     25  H   UNL A   1      31.978  33.204  26.782  1.00  0.00     0.163 HD
ATOM     26  O   UNL A   1      33.587  34.597  27.823  1.00  0.00    -0.269 OA
BRANCH  24  27
ATOM     27  C   UNL A   1      34.935  32.740  28.298  1.00  0.00     0.039 A 
ATOM     28  C   UNL A   1      34.833  31.441  28.815  1.00  0.00     0.014 A 
ATOM     29  C   UNL A   1      36.154  33.414  28.414  1.00  0.00     0.014 A 
ATOM     30  C   UNL A   1      35.933  30.828  29.427  1.00  0.00     0.010 A 
ATOM     31  C   UNL A   1      37.277  32.769  28.943  1.00  0.00     0.010 A 
ATOM     32  C   UNL A   1      37.171  31.482  29.492  1.00  0.00    -0.014 A 
BRANCH  32  33
ATOM     33  C   UNL A   1      38.327  30.860  30.200  1.00  0.00     0.031 A 
ATOM     34  C   UNL A   1      38.585  31.167  31.655  1.00  0.00     0.074 A 
ATOM     35  C   UNL A   1      39.153  30.022  29.545  1.00  0.00     0.049 A 
ATOM     36  N   UNL A   1      39.541  30.730  32.439  1.00  0.00    -0.248 NA
ATOM     37  C   UNL A   1      37.663  32.108  32.309  1.00  0.00     0.031 C 
ATOM     38  C   UNL A   1      39.054  29.670  28.128  1.00  0.00     0.029 A 
ATOM     39  N   UNL A   1      40.242  29.311  29.989  1.00  0.00    -0.354 N 
ATOM     40  C   UNL A   1      39.351  31.364  33.661  1.00  0.00     0.074 A 
ATOM     41  C   UNL A   1      38.216  32.248  33.505  1.00  0.00     0.031 C 
ATOM     42  C   UNL A   1      40.019  28.786  27.828  1.00  0.00     0.029 A 
ATOM     43  C   UNL A   1      40.819  28.526  29.022  1.00  0.00     0.049 A 
ATOM     44  H   UNL A   1      40.577  29.360  30.915  1.00  0.00     0.167 HD
ATOM     45  C   UNL A   1      40.041  31.211  34.817  1.00  0.00     0.037 A 
ATOM     46  C   UNL A   1      41.867  27.683  29.091  1.00  0.00     0.037 A 
ATOM     47  C   UNL A   1      41.137  30.298  35.000  1.00  0.00     0.049 A 
ATOM     48  C   UNL A   1      42.579  27.484  30.401  1.00  0.00     0.074 A 
ATOM     49  C   UNL A   1      41.863  30.035  36.150  1.00  0.00     0.029 A 
ATOM     50  N   UNL A   1      41.660  29.486  34.005  1.00  0.00    -0.354 N 
ATOM     51  N   UNL A   1      42.354  28.052  31.560  1.00  0.00    -0.248 NA
ATOM     52  C   UNL A   1      43.683  26.513  30.413  1.00  0.00     0.031 C 
ATOM     53  C   UNL A   1      42.839  29.078  35.845  1.00  0.00     0.029 A 
ATOM     54  C   UNL A   1      42.699  28.723  34.514  1.00  0.00     0.049 A 
ATOM     55  H   UNL A   1      41.340  29.456  33.075  1.00  0.00     0.167 HD
ATOM     56  C   UNL A   1      43.268  27.491  32.443  1.00  0.00     0.074 A 
ATOM     57  C   UNL A   1      44.040  26.526  31.690  1.00  0.00     0.031 C 
ATOM     58  C   UNL A   1      43.450  27.755  33.759  1.00  0.00     0.037 A 
BRANCH  45  59
ATOM     59  C   UNL A   1      39.620  32.050  35.988  1.00  0.00     0.064 A 
ATOM     60  C   UNL A   1      40.249  33.268  36.283  1.00  0.00     0.173 A 
ATOM     61  C   UNL A   1      38.554  31.646  36.807  1.00  0.00     0.173 A 
ATOM     62  F   UNL A   1      41.281  33.692  35.537  1.00  0.00    -0.203 F 
ATOM     63  C   UNL A   1      39.847  34.037  37.372  1.00  0.00     0.198 A 
ATOM     64  C   UNL A   1      38.137  32.431  37.879  1.00  0.00     0.198 A 
ATOM     65  F   UNL A   1      37.913  30.493  36.565  1.00  0.00    -0.203 F 
ATOM     66  F   UNL A   1      40.495  35.174  37.662  1.00  0.00    -0.200 F 
ATOM     67  C   UNL A   1      38.789  33.622  38.166  1.00  0.00     0.200 A 
ATOM     68  F   UNL A   1      37.107  32.034  38.639  1.00  0.00    -0.200 F 
ATOM     69  F   UNL A   1      38.401  34.365  39.211  1.00  0.00    -0.200 F 
ENDBRANCH  45  59
BRANCH  46  70
ATOM     70  C   UNL A   1      42.280  26.919  27.886  1.00  0.00     0.064 A 
ATOM     71  C   UNL A   1      41.762  25.641  27.636  1.00  0.00     0.173 A 
ATOM     72  C   UNL A   1      43.200  27.446  26.968  1.00  0.00     0.173 A 
ATOM     73  F   UNL A   1      40.898  25.088  28.501  1.00  0.00    -0.203 F 
ATOM     74  C   UNL A   1      42.163  24.909  26.521  1.00  0.00     0.198 A 
ATOM     75  C   UNL A   1      43.581  26.721  25.841  1.00  0.00     0.198 A 
ATOM     76  F   UNL A   1      43.722  28.665  27.165  1.00  0.00    -0.203 F 
ATOM     77  F   UNL A   1      41.684  23.672  26.328  1.00  0.00    -0.200 F 
ATOM     78  C   UNL A   1      43.067  25.452  25.621  1.00  0.00     0.200 A 
ATOM     79  F   UNL A   1      44.450  27.251  24.969  1.00  0.00    -0.200 F 
ATOM     80  F   UNL A   1      43.451  24.747  24.548  1.00  0.00    -0.200 F 
ENDBRANCH  46  70
BRANCH  58  81
ATOM     81  C   UNL A   1      44.500  26.963  34.478  1.00  0.00     0.064 A 
ATOM     82  C   UNL A   1      44.207  25.729  35.078  1.00  0.00     0.173 A 
ATOM     83  C   UNL A   1      45.820  27.432  34.548  1.00  0.00     0.173 A 
ATOM     84  F   UNL A   1      42.956  25.246  35.050  1.00  0.00    -0.203 F 
ATOM     85  C   UNL A   1      45.192  25.008  35.747  1.00  0.00     0.198 A 
ATOM     86  C   UNL A   1      46.808  26.696  35.198  1.00  0.00     0.198 A 
ATOM     87  F   UNL A   1      46.151  28.604  33.985  1.00  0.00    -0.203 F 
ATOM     88  F   UNL A   1      44.880  23.854  36.353  1.00  0.00    -0.200 F 
ATOM     89  C   UNL A   1      46.492  25.490  35.802  1.00  0.00     0.200 A 
ATOM     90  F   UNL A   1      48.065  27.160  35.243  1.00  0.00    -0.200 F 
ATOM     91  F   UNL A   1      47.438  24.794  36.448  1.00  0.00    -0.200 F 
ENDBRANCH  58  81
ENDBRANCH  32  33
ENDBRANCH  24  27
ENDBRANCH  22  23
ENDBRANCH   1  22
TORSDOF 13
ENDMDL
