MODEL 1
REMARK VINA RESULT:     -10.0      0.000      0.000
REMARK SMILES C[C@@H](C(=O)NCCCNC(=O)c1ccc(-c2c3nc(c(-c4c(F)c(F)c(F)c(F)c4F)c4ccc([nH]4)c(-c4c(F)c(F)c(F)c(F)c4F)c4nc(c(-c5c(F)c(F)c(F)c(F)c5F)c5ccc2[nH]5)C=C4)C=C3)cc1)N1C(=O)/C(=C\c2ccc(OCc3ccccc3Cl)cc2)SC1=S
REMARK SMILES IDX 3 1 4 2 5 3 2 5 1 6 75 7 76 8 96 9 77 10 78 11 95 12 97 13
REMARK SMILES IDX 79 14 80 15 81 16 94 17 82 18 93 19 83 20 84 21 85 22 86 23
REMARK SMILES IDX 87 24 91 25 88 26 90 27 92 28 89 29 6 30 7 31 8 32 9 33
REMARK SMILES IDX 10 34 11 36 12 37 13 38 74 39 14 40 73 41 15 42 16 43 17 44
REMARK SMILES IDX 67 45 18 46 72 47 66 48 68 49 19 50 71 51 65 52 64 53 20 55
REMARK SMILES IDX 52 56 32 57 51 58 33 59 36 60 50 61 69 62 34 63 35 64 49 66
REMARK SMILES IDX 70 67 37 68 21 69 22 70 30 71 23 72 24 73 28 74 31 75 25 76
REMARK SMILES IDX 26 77 29 78 27 79 53 80 54 81 62 82 55 83 56 84 60 85 63 86
REMARK SMILES IDX 57 87 58 88 61 89 59 90 38 91 39 92 47 93 40 94 41 95 45 96
REMARK SMILES IDX 48 97 42 98 43 99 46 100 44 101
REMARK H PARENT 5 4 9 35 68 54 36 65
REMARK Flexibility Score: inf
ROOT
ATOM      1  C   UNL A   1      35.576  31.938  31.690  1.00  0.00     0.242 C 
ATOM      2  O   UNL A   1      35.431  30.801  32.147  1.00  0.00    -0.273 OA
ATOM      3  N   UNL A   1      34.551  32.444  30.944  1.00  0.00    -0.354 N 
ATOM      4  H   UNL A   1      33.765  31.855  30.866  1.00  0.00     0.163 HD
ENDROOT
BRANCH   1   5
ATOM      5  C   UNL A   1      36.832  32.791  31.976  1.00  0.00     0.178 C 
ATOM      6  C   UNL A   1      37.819  32.773  30.808  1.00  0.00     0.042 C 
BRANCH   5   7
ATOM      7  N   UNL A   1      37.415  32.335  33.261  1.00  0.00    -0.281 N 
ATOM      8  C   UNL A   1      38.269  31.241  33.303  1.00  0.00     0.266 C 
ATOM      9  C   UNL A   1      37.026  32.840  34.488  1.00  0.00     0.149 C 
ATOM     10  O   UNL A   1      38.570  30.529  32.359  1.00  0.00    -0.268 OA
ATOM     11  C   UNL A   1      38.786  31.043  34.692  1.00  0.00     0.081 C 
ATOM     12  S   UNL A   1      37.844  31.978  35.789  1.00  0.00    -0.054 SA
ATOM     13  S   UNL A   1      35.972  34.098  34.803  1.00  0.00    -0.052 S 
ATOM     14  C   UNL A   1      39.863  30.338  35.069  1.00  0.00     0.029 C 
BRANCH  14  15
ATOM     15  C   UNL A   1      40.778  29.687  34.129  1.00  0.00    -0.024 A 
ATOM     16  C   UNL A   1      42.123  30.054  34.080  1.00  0.00     0.012 A 
ATOM     17  C   UNL A   1      40.320  28.632  33.329  1.00  0.00     0.012 A 
ATOM     18  C   UNL A   1      43.016  29.301  33.315  1.00  0.00     0.047 A 
ATOM     19  C   UNL A   1      41.217  27.883  32.561  1.00  0.00     0.047 A 
ATOM     20  C   UNL A   1      42.578  28.176  32.609  1.00  0.00     0.119 A 
BRANCH  20  21
ATOM     21  O   UNL A   1      43.585  27.398  32.113  1.00  0.00    -0.489 OA
BRANCH  21  22
ATOM     22  C   UNL A   1      44.516  26.782  33.014  1.00  0.00     0.267 C 
BRANCH  22  23
ATOM     23  C   UNL A   1      44.220  25.351  33.452  1.00  0.00     0.008 A 
ATOM     24  C   UNL A   1      44.720  24.237  32.754  1.00  0.00     0.009 A 
ATOM     25  C   UNL A   1      43.497  25.092  34.633  1.00  0.00     0.047 A 
ATOM     26  C   UNL A   1      44.530  22.935  33.220  1.00  0.00     0.001 A 
ATOM     27  C   UNL A   1      43.296  23.782  35.091  1.00  0.00     0.021 A 
ATOM     28  Cl  UNL A   1      42.825  26.364  35.596  1.00  0.00    -0.084 Cl
ATOM     29  C   UNL A   1      43.824  22.702  34.391  1.00  0.00     0.002 A 
ENDBRANCH  22  23
ENDBRANCH  21  22
ENDBRANCH  20  21
ENDBRANCH  14  15
ENDBRANCH   5   7
ENDBRANCH   1   5
BRANCH   3  30
ATOM     30  C   UNL A   1      34.434  33.711  30.245  1.00  0.00     0.117 C 
BRANCH  30  31
ATOM     31  C   UNL A   1      34.036  33.509  28.784  1.00  0.00     0.042 C 
BRANCH  31  32
ATOM     32  C   UNL A   1      34.914  32.501  28.041  1.00  0.00     0.118 C 
BRANCH  32  33
ATOM     33  N   UNL A   1      34.301  31.183  27.965  1.00  0.00    -0.352 N 
ATOM     34  C   UNL A   1      34.870  29.935  27.918  1.00  0.00     0.251 C 
ATOM     35  H   UNL A   1      33.316  31.187  27.946  1.00  0.00     0.163 HD
ATOM     36  O   UNL A   1      34.170  28.964  27.641  1.00  0.00    -0.269 OA
BRANCH  34  37
ATOM     37  C   UNL A   1      36.314  29.745  28.174  1.00  0.00     0.039 A 
ATOM     38  C   UNL A   1      36.716  29.316  29.443  1.00  0.00     0.014 A 
ATOM     39  C   UNL A   1      37.274  30.024  27.198  1.00  0.00     0.014 A 
ATOM     40  C   UNL A   1      38.070  29.101  29.709  1.00  0.00     0.010 A 
ATOM     41  C   UNL A   1      38.618  29.741  27.441  1.00  0.00     0.010 A 
ATOM     42  C   UNL A   1      39.029  29.269  28.697  1.00  0.00    -0.014 A 
BRANCH  42  43
ATOM     43  C   UNL A   1      40.454  28.916  28.929  1.00  0.00     0.031 A 
ATOM     44  C   UNL A   1      41.408  29.916  29.522  1.00  0.00     0.074 A 
ATOM     45  C   UNL A   1      40.901  27.703  28.547  1.00  0.00     0.049 A 
ATOM     46  N   UNL A   1      42.694  29.802  29.742  1.00  0.00    -0.248 NA
ATOM     47  C   UNL A   1      40.850  31.225  29.900  1.00  0.00     0.031 C 
ATOM     48  C   UNL A   1      40.082  26.661  27.922  1.00  0.00     0.029 A 
ATOM     49  N   UNL A   1      42.152  27.142  28.617  1.00  0.00    -0.354 N 
ATOM     50  C   UNL A   1      43.099  31.019  30.272  1.00  0.00     0.074 A 
ATOM     51  C   UNL A   1      41.933  31.876  30.300  1.00  0.00     0.031 C 
ATOM     52  C   UNL A   1      40.847  25.583  27.687  1.00  0.00     0.029 A 
ATOM     53  C   UNL A   1      42.216  25.872  28.097  1.00  0.00     0.049 A 
ATOM     54  H   UNL A   1      42.929  27.606  29.003  1.00  0.00     0.167 HD
ATOM     55  C   UNL A   1      44.328  31.381  30.713  1.00  0.00     0.037 A 
ATOM     56  C   UNL A   1      43.265  25.039  27.951  1.00  0.00     0.037 A 
ATOM     57  C   UNL A   1      45.482  30.519  30.700  1.00  0.00     0.049 A 
ATOM     58  C   UNL A   1      44.624  25.482  28.425  1.00  0.00     0.074 A 
ATOM     59  C   UNL A   1      46.754  30.774  31.183  1.00  0.00     0.029 A 
ATOM     60  N   UNL A   1      45.507  29.237  30.168  1.00  0.00    -0.354 N 
ATOM     61  N   UNL A   1      44.974  26.606  28.999  1.00  0.00    -0.248 NA
ATOM     62  C   UNL A   1      45.731  24.534  28.236  1.00  0.00     0.031 C 
ATOM     63  C   UNL A   1      47.565  29.674  30.889  1.00  0.00     0.029 A 
ATOM     64  C   UNL A   1      46.783  28.704  30.281  1.00  0.00     0.049 A 
ATOM     65  H   UNL A   1      44.735  28.775  29.770  1.00  0.00     0.167 HD
ATOM     66  C   UNL A   1      46.332  26.490  29.267  1.00  0.00     0.074 A 
ATOM     67  C   UNL A   1      46.736  25.176  28.813  1.00  0.00     0.031 C 
ATOM     68  C   UNL A   1      47.170  27.391  29.834  1.00  0.00     0.037 A 
BRANCH  55  69
ATOM     69  C   UNL A   1      44.502  32.772  31.251  1.00  0.00     0.064 A 
ATOM     70  C   UNL A   1      44.601  33.023  32.629  1.00  0.00     0.173 A 
ATOM     71  C   UNL A   1      44.654  33.859  30.376  1.00  0.00     0.173 A 
ATOM     72  F   UNL A   1      44.456  32.021  33.509  1.00  0.00    -0.203 F 
ATOM     73  C   UNL A   1      44.826  34.310  33.110  1.00  0.00     0.198 A 
ATOM     74  C   UNL A   1      44.910  35.140  30.859  1.00  0.00     0.198 A 
ATOM     75  F   UNL A   1      44.576  33.675  29.050  1.00  0.00    -0.203 F 
ATOM     76  F   UNL A   1      44.881  34.531  34.431  1.00  0.00    -0.200 F 
ATOM     77  C   UNL A   1      44.992  35.365  32.225  1.00  0.00     0.200 A 
ATOM     78  F   UNL A   1      45.087  36.155  30.002  1.00  0.00    -0.200 F 
ATOM     79  F   UNL A   1      45.228  36.600  32.688  1.00  0.00    -0.200 F 
ENDBRANCH  55  69
BRANCH  56  80
ATOM     80  C   UNL A   1      43.080  23.700  27.327  1.00  0.00     0.064 A 
ATOM     81  C   UNL A   1      43.439  23.470  25.991  1.00  0.00     0.173 A 
ATOM     82  C   UNL A   1      42.510  22.634  28.039  1.00  0.00     0.173 A 
ATOM     83  F   UNL A   1      43.970  24.461  25.260  1.00  0.00    -0.203 F 
ATOM     84  C   UNL A   1      43.200  22.240  25.382  1.00  0.00     0.198 A 
ATOM     85  C   UNL A   1      42.306  21.393  27.440  1.00  0.00     0.198 A 
ATOM     86  F   UNL A   1      42.158  22.796  29.323  1.00  0.00    -0.203 F 
ATOM     87  F   UNL A   1      43.491  22.069  24.085  1.00  0.00    -0.200 F 
ATOM     88  C   UNL A   1      42.638  21.201  26.108  1.00  0.00     0.200 A 
ATOM     89  F   UNL A   1      41.782  20.386  28.153  1.00  0.00    -0.200 F 
ATOM     90  F   UNL A   1      42.406  20.019  25.521  1.00  0.00    -0.200 F 
ENDBRANCH  56  80
BRANCH  68  91
ATOM     91  C   UNL A   1      48.600  26.973  30.035  1.00  0.00     0.064 A 
ATOM     92  C   UNL A   1      49.607  27.325  29.123  1.00  0.00     0.173 A 
ATOM     93  C   UNL A   1      48.972  26.240  31.172  1.00  0.00     0.173 A 
ATOM     94  F   UNL A   1      49.302  28.011  28.012  1.00  0.00    -0.203 F 
ATOM     95  C   UNL A   1      50.926  26.928  29.326  1.00  0.00     0.198 A 
ATOM     96  C   UNL A   1      50.297  25.876  31.390  1.00  0.00     0.198 A 
ATOM     97  F   UNL A   1      48.049  25.884  32.080  1.00  0.00    -0.203 F 
ATOM     98  F   UNL A   1      51.860  27.224  28.412  1.00  0.00    -0.200 F 
ATOM     99  C   UNL A   1      51.271  26.212  30.462  1.00  0.00     0.200 A 
ATOM    100  F   UNL A   1      50.632  25.199  32.498  1.00  0.00    -0.200 F 
ATOM    101  F   UNL A   1      52.543  25.837  30.660  1.00  0.00    -0.200 F 
ENDBRANCH  68  91
ENDBRANCH  42  43
ENDBRANCH  34  37
ENDBRANCH  32  33
ENDBRANCH  31  32
ENDBRANCH  30  31
ENDBRANCH   3  30
TORSDOF 15
ENDMDL
MODEL 2
REMARK VINA RESULT:      -9.4      7.121     13.784
REMARK SMILES C[C@@H](C(=O)NCCCNC(=O)c1ccc(-c2c3nc(c(-c4c(F)c(F)c(F)c(F)c4F)c4ccc([nH]4)c(-c4c(F)c(F)c(F)c(F)c4F)c4nc(c(-c5c(F)c(F)c(F)c(F)c5F)c5ccc2[nH]5)C=C4)C=C3)cc1)N1C(=O)/C(=C\c2ccc(OCc3ccccc3Cl)cc2)SC1=S
REMARK SMILES IDX 3 1 4 2 5 3 2 5 1 6 75 7 76 8 96 9 77 10 78 11 95 12 97 13
REMARK SMILES IDX 79 14 80 15 81 16 94 17 82 18 93 19 83 20 84 21 85 22 86 23
REMARK SMILES IDX 87 24 91 25 88 26 90 27 92 28 89 29 6 30 7 31 8 32 9 33
REMARK SMILES IDX 10 34 11 36 12 37 13 38 74 39 14 40 73 41 15 42 16 43 17 44
REMARK SMILES IDX 67 45 18 46 72 47 66 48 68 49 19 50 71 51 65 52 64 53 20 55
REMARK SMILES IDX 52 56 32 57 51 58 33 59 36 60 50 61 69 62 34 63 35 64 49 66
REMARK SMILES IDX 70 67 37 68 21 69 22 70 30 71 23 72 24 73 28 74 31 75 25 76
REMARK SMILES IDX 26 77 29 78 27 79 53 80 54 81 62 82 55 83 56 84 60 85 63 86
REMARK SMILES IDX 57 87 58 88 61 89 59 90 38 91 39 92 47 93 40 94 41 95 45 96
REMARK SMILES IDX 48 97 42 98 43 99 46 100 44 101
REMARK H PARENT 5 4 9 35 68 54 36 65
REMARK Flexibility Score: inf
ROOT
ATOM      1  C   UNL A   1      49.299  20.648  37.577  1.00  0.00     0.242 C 
ATOM      2  O   UNL A   1      49.976  19.617  37.625  1.00  0.00    -0.273 OA
ATOM      3  N   UNL A   1      48.854  21.044  36.348  1.00  0.00    -0.354 N 
ATOM      4  H   UNL A   1      49.093  20.441  35.607  1.00  0.00     0.163 HD
ENDROOT
BRANCH   1   5
ATOM      5  C   UNL A   1      48.917  21.446  38.843  1.00  0.00     0.178 C 
ATOM      6  C   UNL A   1      49.768  22.706  39.008  1.00  0.00     0.042 C 
BRANCH   5   7
ATOM      7  N   UNL A   1      48.978  20.526  40.004  1.00  0.00    -0.281 N 
ATOM      8  C   UNL A   1      47.834  19.893  40.468  1.00  0.00     0.266 C 
ATOM      9  C   UNL A   1      50.108  20.371  40.786  1.00  0.00     0.149 C 
ATOM     10  O   UNL A   1      46.700  20.061  40.046  1.00  0.00    -0.268 OA
ATOM     11  C   UNL A   1      48.177  18.956  41.581  1.00  0.00     0.081 C 
ATOM     12  S   UNL A   1      49.771  19.291  42.136  1.00  0.00    -0.054 SA
ATOM     13  S   UNL A   1      51.624  21.037  40.558  1.00  0.00    -0.052 S 
ATOM     14  C   UNL A   1      47.437  17.939  42.049  1.00  0.00     0.029 C 
BRANCH  14  15
ATOM     15  C   UNL A   1      46.158  17.529  41.466  1.00  0.00    -0.024 A 
ATOM     16  C   UNL A   1      46.120  16.643  40.390  1.00  0.00     0.012 A 
ATOM     17  C   UNL A   1      44.958  17.965  42.043  1.00  0.00     0.012 A 
ATOM     18  C   UNL A   1      44.897  16.120  39.968  1.00  0.00     0.047 A 
ATOM     19  C   UNL A   1      43.734  17.442  41.615  1.00  0.00     0.047 A 
ATOM     20  C   UNL A   1      43.710  16.466  40.621  1.00  0.00     0.119 A 
BRANCH  20  21
ATOM     21  O   UNL A   1      42.634  15.701  40.273  1.00  0.00    -0.489 OA
BRANCH  21  22
ATOM     22  C   UNL A   1      41.724  15.253  41.287  1.00  0.00     0.267 C 
BRANCH  22  23
ATOM     23  C   UNL A   1      42.138  14.035  42.106  1.00  0.00     0.008 A 
ATOM     24  C   UNL A   1      42.747  14.154  43.367  1.00  0.00     0.009 A 
ATOM     25  C   UNL A   1      41.843  12.731  41.660  1.00  0.00     0.047 A 
ATOM     26  C   UNL A   1      43.029  13.035  44.154  1.00  0.00     0.001 A 
ATOM     27  C   UNL A   1      42.139  11.609  42.448  1.00  0.00     0.021 A 
ATOM     28  Cl  UNL A   1      41.090  12.431  40.131  1.00  0.00    -0.084 Cl
ATOM     29  C   UNL A   1      42.721  11.761  43.702  1.00  0.00     0.002 A 
ENDBRANCH  22  23
ENDBRANCH  21  22
ENDBRANCH  20  21
ENDBRANCH  14  15
ENDBRANCH   5   7
ENDBRANCH   1   5
BRANCH   3  30
ATOM     30  C   UNL A   1      48.085  22.213  35.959  1.00  0.00     0.117 C 
BRANCH  30  31
ATOM     31  C   UNL A   1      48.818  23.036  34.901  1.00  0.00     0.042 C 
BRANCH  31  32
ATOM     32  C   UNL A   1      48.534  24.536  34.982  1.00  0.00     0.118 C 
BRANCH  32  33
ATOM     33  N   UNL A   1      48.244  24.972  36.341  1.00  0.00    -0.352 N 
ATOM     34  C   UNL A   1      47.324  25.875  36.811  1.00  0.00     0.251 C 
ATOM     35  H   UNL A   1      48.799  24.549  37.036  1.00  0.00     0.163 HD
ATOM     36  O   UNL A   1      47.393  26.252  37.978  1.00  0.00    -0.269 OA
BRANCH  34  37
ATOM     37  C   UNL A   1      46.267  26.416  35.931  1.00  0.00     0.039 A 
ATOM     38  C   UNL A   1      45.080  25.690  35.789  1.00  0.00     0.014 A 
ATOM     39  C   UNL A   1      46.445  27.602  35.214  1.00  0.00     0.014 A 
ATOM     40  C   UNL A   1      44.050  26.186  34.986  1.00  0.00     0.010 A 
ATOM     41  C   UNL A   1      45.392  28.133  34.470  1.00  0.00     0.010 A 
ATOM     42  C   UNL A   1      44.181  27.434  34.355  1.00  0.00    -0.014 A 
BRANCH  42  43
ATOM     43  C   UNL A   1      43.043  28.034  33.608  1.00  0.00     0.031 A 
ATOM     44  C   UNL A   1      42.848  27.748  32.145  1.00  0.00     0.074 A 
ATOM     45  C   UNL A   1      42.217  28.888  34.244  1.00  0.00     0.049 A 
ATOM     46  N   UNL A   1      41.948  28.227  31.322  1.00  0.00    -0.248 NA
ATOM     47  C   UNL A   1      43.799  26.817  31.516  1.00  0.00     0.031 C 
ATOM     48  C   UNL A   1      42.328  29.278  35.652  1.00  0.00     0.029 A 
ATOM     49  N   UNL A   1      41.129  29.591  33.792  1.00  0.00    -0.354 N 
ATOM     50  C   UNL A   1      42.229  27.667  30.083  1.00  0.00     0.074 A 
ATOM     51  C   UNL A   1      43.410  26.846  30.249  1.00  0.00     0.031 C 
ATOM     52  C   UNL A   1      41.336  30.131  35.952  1.00  0.00     0.029 A 
ATOM     53  C   UNL A   1      40.550  30.388  34.751  1.00  0.00     0.049 A 
ATOM     54  H   UNL A   1      40.795  29.531  32.868  1.00  0.00     0.167 HD
ATOM     55  C   UNL A   1      41.551  27.810  28.919  1.00  0.00     0.037 A 
ATOM     56  C   UNL A   1      39.512  31.243  34.667  1.00  0.00     0.037 A 
ATOM     57  C   UNL A   1      40.365  28.612  28.763  1.00  0.00     0.049 A 
ATOM     58  C   UNL A   1      38.797  31.400  33.352  1.00  0.00     0.074 A 
ATOM     59  C   UNL A   1      39.572  28.770  27.639  1.00  0.00     0.029 A 
ATOM     60  N   UNL A   1      39.807  29.403  29.758  1.00  0.00    -0.354 N 
ATOM     61  N   UNL A   1      39.024  30.801  32.209  1.00  0.00    -0.248 NA
ATOM     62  C   UNL A   1      37.675  32.349  33.318  1.00  0.00     0.031 C 
ATOM     63  C   UNL A   1      38.572  29.700  27.934  1.00  0.00     0.029 A 
ATOM     64  C   UNL A   1      38.700  30.075  29.262  1.00  0.00     0.049 A 
ATOM     65  H   UNL A   1      40.146  29.475  30.679  1.00  0.00     0.167 HD
ATOM     66  C   UNL A   1      38.058  31.275  31.331  1.00  0.00     0.074 A 
ATOM     67  C   UNL A   1      37.229  32.195  32.081  1.00  0.00     0.031 C 
ATOM     68  C   UNL A   1      37.876  30.980  30.021  1.00  0.00     0.037 A 
BRANCH  55  69
ATOM     69  C   UNL A   1      42.066  27.083  27.709  1.00  0.00     0.064 A 
ATOM     70  C   UNL A   1      43.007  27.664  26.845  1.00  0.00     0.173 A 
ATOM     71  C   UNL A   1      41.675  25.759  27.456  1.00  0.00     0.173 A 
ATOM     72  F   UNL A   1      43.409  28.930  27.037  1.00  0.00    -0.203 F 
ATOM     73  C   UNL A   1      43.522  26.954  25.764  1.00  0.00     0.198 A 
ATOM     74  C   UNL A   1      42.215  25.042  26.392  1.00  0.00     0.198 A 
ATOM     75  F   UNL A   1      40.784  25.153  28.255  1.00  0.00    -0.203 F 
ATOM     76  F   UNL A   1      44.393  27.542  24.931  1.00  0.00    -0.200 F 
ATOM     77  C   UNL A   1      43.135  25.641  25.545  1.00  0.00     0.200 A 
ATOM     78  F   UNL A   1      41.853  23.767  26.192  1.00  0.00    -0.200 F 
ATOM     79  F   UNL A   1      43.647  24.952  24.515  1.00  0.00    -0.200 F 
ENDBRANCH  55  69
BRANCH  56  80
ATOM     80  C   UNL A   1      39.081  32.021  35.861  1.00  0.00     0.064 A 
ATOM     81  C   UNL A   1      39.543  33.327  36.076  1.00  0.00     0.173 A 
ATOM     82  C   UNL A   1      38.230  31.464  36.827  1.00  0.00     0.173 A 
ATOM     83  F   UNL A   1      40.373  33.898  35.193  1.00  0.00    -0.203 F 
ATOM     84  C   UNL A   1      39.200  34.031  37.229  1.00  0.00     0.198 A 
ATOM     85  C   UNL A   1      37.858  32.184  37.961  1.00  0.00     0.198 A 
ATOM     86  F   UNL A   1      37.751  30.222  36.667  1.00  0.00    -0.203 F 
ATOM     87  F   UNL A   1      39.709  35.253  37.441  1.00  0.00    -0.200 F 
ATOM     88  C   UNL A   1      38.355  33.461  38.168  1.00  0.00     0.200 A 
ATOM     89  F   UNL A   1      37.024  31.635  38.856  1.00  0.00    -0.200 F 
ATOM     90  F   UNL A   1      38.028  34.138  39.278  1.00  0.00    -0.200 F 
ENDBRANCH  56  80
BRANCH  68  91
ATOM     91  C   UNL A   1      36.712  31.625  29.323  1.00  0.00     0.064 A 
ATOM     92  C   UNL A   1      35.570  30.895  28.962  1.00  0.00     0.173 A 
ATOM     93  C   UNL A   1      36.728  32.999  29.040  1.00  0.00     0.173 A 
ATOM     94  F   UNL A   1      35.511  29.575  29.195  1.00  0.00    -0.203 F 
ATOM     95  C   UNL A   1      34.501  31.510  28.315  1.00  0.00     0.198 A 
ATOM     96  C   UNL A   1      35.643  33.619  28.426  1.00  0.00     0.198 A 
ATOM     97  F   UNL A   1      37.792  33.747  29.371  1.00  0.00    -0.203 F 
ATOM     98  F   UNL A   1      33.446  30.781  27.927  1.00  0.00    -0.200 F 
ATOM     99  C   UNL A   1      34.536  32.872  28.055  1.00  0.00     0.200 A 
ATOM    100  F   UNL A   1      35.670  34.938  28.192  1.00  0.00    -0.200 F 
ATOM    101  F   UNL A   1      33.503  33.464  27.439  1.00  0.00    -0.200 F 
ENDBRANCH  68  91
ENDBRANCH  42  43
ENDBRANCH  34  37
ENDBRANCH  32  33
ENDBRANCH  31  32
ENDBRANCH  30  31
ENDBRANCH   3  30
TORSDOF 15
ENDMDL
MODEL 3
REMARK VINA RESULT:      -9.4      4.794     12.323
REMARK SMILES C[C@@H](C(=O)NCCCNC(=O)c1ccc(-c2c3nc(c(-c4c(F)c(F)c(F)c(F)c4F)c4ccc([nH]4)c(-c4c(F)c(F)c(F)c(F)c4F)c4nc(c(-c5c(F)c(F)c(F)c(F)c5F)c5ccc2[nH]5)C=C4)C=C3)cc1)N1C(=O)/C(=C\c2ccc(OCc3ccccc3Cl)cc2)SC1=S
REMARK SMILES IDX 3 1 4 2 5 3 2 5 1 6 75 7 76 8 96 9 77 10 78 11 95 12 97 13
REMARK SMILES IDX 79 14 80 15 81 16 94 17 82 18 93 19 83 20 84 21 85 22 86 23
REMARK SMILES IDX 87 24 91 25 88 26 90 27 92 28 89 29 6 30 7 31 8 32 9 33
REMARK SMILES IDX 10 34 11 36 12 37 13 38 74 39 14 40 73 41 15 42 16 43 17 44
REMARK SMILES IDX 67 45 18 46 72 47 66 48 68 49 19 50 71 51 65 52 64 53 20 55
REMARK SMILES IDX 52 56 32 57 51 58 33 59 36 60 50 61 69 62 34 63 35 64 49 66
REMARK SMILES IDX 70 67 37 68 21 69 22 70 30 71 23 72 24 73 28 74 31 75 25 76
REMARK SMILES IDX 26 77 29 78 27 79 53 80 54 81 62 82 55 83 56 84 60 85 63 86
REMARK SMILES IDX 57 87 58 88 61 89 59 90 38 91 39 92 47 93 40 94 41 95 45 96
REMARK SMILES IDX 48 97 42 98 43 99 46 100 44 101
REMARK H PARENT 5 4 9 35 68 54 36 65
REMARK Flexibility Score: inf
ROOT
ATOM      1  C   UNL A   1      49.660  27.847  31.943  1.00  0.00     0.242 C 
ATOM      2  O   UNL A   1      48.991  28.789  32.375  1.00  0.00    -0.273 OA
ATOM      3  N   UNL A   1      49.476  26.630  32.533  1.00  0.00    -0.354 N 
ATOM      4  H   UNL A   1      48.791  26.612  33.240  1.00  0.00     0.163 HD
ENDROOT
BRANCH   1   5
ATOM      5  C   UNL A   1      50.635  28.002  30.754  1.00  0.00     0.178 C 
ATOM      6  C   UNL A   1      51.853  28.853  31.115  1.00  0.00     0.042 C 
BRANCH   5   7
ATOM      7  N   UNL A   1      49.868  28.514  29.594  1.00  0.00    -0.281 N 
ATOM      8  C   UNL A   1      49.262  27.639  28.702  1.00  0.00     0.266 C 
ATOM      9  C   UNL A   1      49.847  29.849  29.232  1.00  0.00     0.149 C 
ATOM     10  O   UNL A   1      49.340  26.421  28.727  1.00  0.00    -0.268 OA
ATOM     11  C   UNL A   1      48.482  28.401  27.680  1.00  0.00     0.081 C 
ATOM     12  S   UNL A   1      48.933  30.062  27.741  1.00  0.00    -0.054 SA
ATOM     13  S   UNL A   1      50.526  31.149  30.033  1.00  0.00    -0.052 S 
ATOM     14  C   UNL A   1      47.508  27.936  26.883  1.00  0.00     0.029 C 
BRANCH  14  15
ATOM     15  C   UNL A   1      46.988  26.569  26.948  1.00  0.00    -0.024 A 
ATOM     16  C   UNL A   1      46.200  26.159  28.023  1.00  0.00     0.012 A 
ATOM     17  C   UNL A   1      47.215  25.687  25.883  1.00  0.00     0.012 A 
ATOM     18  C   UNL A   1      45.563  24.918  27.979  1.00  0.00     0.047 A 
ATOM     19  C   UNL A   1      46.579  24.442  25.845  1.00  0.00     0.047 A 
ATOM     20  C   UNL A   1      45.697  24.087  26.863  1.00  0.00     0.119 A 
BRANCH  20  21
ATOM     21  O   UNL A   1      44.833  23.030  26.844  1.00  0.00    -0.489 OA
BRANCH  21  22
ATOM     22  C   UNL A   1      44.586  22.337  25.612  1.00  0.00     0.267 C 
BRANCH  22  23
ATOM     23  C   UNL A   1      43.940  20.958  25.706  1.00  0.00     0.008 A 
ATOM     24  C   UNL A   1      42.614  20.781  26.140  1.00  0.00     0.009 A 
ATOM     25  C   UNL A   1      44.629  19.807  25.274  1.00  0.00     0.047 A 
ATOM     26  C   UNL A   1      41.999  19.528  26.125  1.00  0.00     0.001 A 
ATOM     27  C   UNL A   1      44.011  18.548  25.272  1.00  0.00     0.021 A 
ATOM     28  Cl  UNL A   1      46.263  19.873  24.710  1.00  0.00    -0.084 Cl
ATOM     29  C   UNL A   1      42.691  18.410  25.686  1.00  0.00     0.002 A 
ENDBRANCH  22  23
ENDBRANCH  21  22
ENDBRANCH  20  21
ENDBRANCH  14  15
ENDBRANCH   5   7
ENDBRANCH   1   5
BRANCH   3  30
ATOM     30  C   UNL A   1      50.130  25.357  32.287  1.00  0.00     0.117 C 
BRANCH  30  31
ATOM     31  C   UNL A   1      49.744  24.318  33.338  1.00  0.00     0.042 C 
BRANCH  31  32
ATOM     32  C   UNL A   1      48.331  24.498  33.893  1.00  0.00     0.118 C 
BRANCH  32  33
ATOM     33  N   UNL A   1      48.327  24.760  35.325  1.00  0.00    -0.352 N 
ATOM     34  C   UNL A   1      47.550  25.605  36.076  1.00  0.00     0.251 C 
ATOM     35  H   UNL A   1      48.991  24.246  35.839  1.00  0.00     0.163 HD
ATOM     36  O   UNL A   1      47.858  25.829  37.244  1.00  0.00    -0.269 OA
BRANCH  34  37
ATOM     37  C   UNL A   1      46.360  26.265  35.496  1.00  0.00     0.039 A 
ATOM     38  C   UNL A   1      46.522  27.508  34.876  1.00  0.00     0.014 A 
ATOM     39  C   UNL A   1      45.087  25.697  35.591  1.00  0.00     0.014 A 
ATOM     40  C   UNL A   1      45.424  28.145  34.294  1.00  0.00     0.010 A 
ATOM     41  C   UNL A   1      44.005  26.297  34.949  1.00  0.00     0.010 A 
ATOM     42  C   UNL A   1      44.164  27.524  34.287  1.00  0.00    -0.014 A 
BRANCH  42  43
ATOM     43  C   UNL A   1      43.019  28.129  33.555  1.00  0.00     0.031 A 
ATOM     44  C   UNL A   1      42.811  27.855  32.092  1.00  0.00     0.074 A 
ATOM     45  C   UNL A   1      42.199  28.977  34.206  1.00  0.00     0.049 A 
ATOM     46  N   UNL A   1      41.903  28.340  31.281  1.00  0.00    -0.248 NA
ATOM     47  C   UNL A   1      43.756  26.931  31.446  1.00  0.00     0.031 C 
ATOM     48  C   UNL A   1      42.323  29.355  35.617  1.00  0.00     0.029 A 
ATOM     49  N   UNL A   1      41.106  29.683  33.770  1.00  0.00    -0.354 N 
ATOM     50  C   UNL A   1      42.172  27.791  30.036  1.00  0.00     0.074 A 
ATOM     51  C   UNL A   1      43.355  26.970  30.183  1.00  0.00     0.031 C 
ATOM     52  C   UNL A   1      41.334  30.206  35.933  1.00  0.00     0.029 A 
ATOM     53  C   UNL A   1      40.536  30.472  34.741  1.00  0.00     0.049 A 
ATOM     54  H   UNL A   1      40.763  29.631  32.849  1.00  0.00     0.167 HD
ATOM     55  C   UNL A   1      41.483  27.943  28.879  1.00  0.00     0.037 A 
ATOM     56  C   UNL A   1      39.496  31.326  34.675  1.00  0.00     0.037 A 
ATOM     57  C   UNL A   1      40.295  28.746  28.741  1.00  0.00     0.049 A 
ATOM     58  C   UNL A   1      38.769  31.494  33.367  1.00  0.00     0.074 A 
ATOM     59  C   UNL A   1      39.492  28.912  27.626  1.00  0.00     0.029 A 
ATOM     60  N   UNL A   1      39.746  29.527  29.748  1.00  0.00    -0.354 N 
ATOM     61  N   UNL A   1      38.985  30.905  32.218  1.00  0.00    -0.248 NA
ATOM     62  C   UNL A   1      37.646  32.443  33.352  1.00  0.00     0.031 C 
ATOM     63  C   UNL A   1      38.493  29.839  27.938  1.00  0.00     0.029 A 
ATOM     64  C   UNL A   1      38.634  30.203  29.267  1.00  0.00     0.049 A 
ATOM     65  H   UNL A   1      40.094  29.592  30.666  1.00  0.00     0.167 HD
ATOM     66  C   UNL A   1      38.011  31.386  31.353  1.00  0.00     0.074 A 
ATOM     67  C   UNL A   1      37.188  32.299  32.118  1.00  0.00     0.031 C 
ATOM     68  C   UNL A   1      37.817  31.101  30.042  1.00  0.00     0.037 A 
BRANCH  55  69
ATOM     69  C   UNL A   1      41.987  27.227  27.659  1.00  0.00     0.064 A 
ATOM     70  C   UNL A   1      42.982  27.779  26.837  1.00  0.00     0.173 A 
ATOM     71  C   UNL A   1      41.527  25.936  27.352  1.00  0.00     0.173 A 
ATOM     72  F   UNL A   1      43.450  29.013  27.081  1.00  0.00    -0.203 F 
ATOM     73  C   UNL A   1      43.483  27.076  25.745  1.00  0.00     0.198 A 
ATOM     74  C   UNL A   1      42.054  25.223  26.278  1.00  0.00     0.198 A 
ATOM     75  F   UNL A   1      40.583  25.357  28.108  1.00  0.00    -0.203 F 
ATOM     76  F   UNL A   1      44.408  27.639  24.954  1.00  0.00    -0.200 F 
ATOM     77  C   UNL A   1      43.028  25.794  25.473  1.00  0.00     0.200 A 
ATOM     78  F   UNL A   1      41.624  23.978  26.027  1.00  0.00    -0.200 F 
ATOM     79  F   UNL A   1      43.526  25.110  24.434  1.00  0.00    -0.200 F 
ENDBRANCH  55  69
BRANCH  56  80
ATOM     80  C   UNL A   1      39.076  32.094  35.879  1.00  0.00     0.064 A 
ATOM     81  C   UNL A   1      39.552  33.393  36.109  1.00  0.00     0.173 A 
ATOM     82  C   UNL A   1      38.222  31.535  36.840  1.00  0.00     0.173 A 
ATOM     83  F   UNL A   1      40.386  33.966  35.230  1.00  0.00    -0.203 F 
ATOM     84  C   UNL A   1      39.219  34.086  37.271  1.00  0.00     0.198 A 
ATOM     85  C   UNL A   1      37.860  32.244  37.984  1.00  0.00     0.198 A 
ATOM     86  F   UNL A   1      37.730  30.299  36.666  1.00  0.00    -0.203 F 
ATOM     87  F   UNL A   1      39.742  35.300  37.496  1.00  0.00    -0.200 F 
ATOM     88  C   UNL A   1      38.370  33.513  38.205  1.00  0.00     0.200 A 
ATOM     89  F   UNL A   1      37.023  31.693  38.874  1.00  0.00    -0.200 F 
ATOM     90  F   UNL A   1      38.053  34.180  39.324  1.00  0.00    -0.200 F 
ENDBRANCH  56  80
BRANCH  68  91
ATOM     91  C   UNL A   1      36.646  31.751  29.360  1.00  0.00     0.064 A 
ATOM     92  C   UNL A   1      36.637  33.119  29.052  1.00  0.00     0.173 A 
ATOM     93  C   UNL A   1      35.531  30.986  28.982  1.00  0.00     0.173 A 
ATOM     94  F   UNL A   1      37.670  33.899  29.406  1.00  0.00    -0.203 F 
ATOM     95  C   UNL A   1      35.542  33.704  28.420  1.00  0.00     0.198 A 
ATOM     96  C   UNL A   1      34.455  31.566  28.318  1.00  0.00     0.198 A 
ATOM     97  F   UNL A   1      35.492  29.671  29.246  1.00  0.00    -0.203 F 
ATOM     98  F   UNL A   1      35.531  35.024  28.189  1.00  0.00    -0.200 F 
ATOM     99  C   UNL A   1      34.457  32.926  28.047  1.00  0.00     0.200 A 
ATOM    100  F   UNL A   1      33.414  30.810  27.942  1.00  0.00    -0.200 F 
ATOM    101  F   UNL A   1      33.407  33.489  27.432  1.00  0.00    -0.200 F 
ENDBRANCH  68  91
ENDBRANCH  42  43
ENDBRANCH  34  37
ENDBRANCH  32  33
ENDBRANCH  31  32
ENDBRANCH  30  31
ENDBRANCH   3  30
TORSDOF 15
ENDMDL
