MODEL 1
REMARK VINA RESULT:     -11.3      0.000      0.000
REMARK SMILES COCC[C@H](NC(=O)c1ccc(Br)nc1)C(=O)NCCCNC(=O)c1ccc(-c2c3nc(c(-c4c(F)c(F)c(F)c(F)c4F)c4ccc([nH]4)c(-c4c(F)c(F)c(F)c(F)c4F)c4nc(c(-c5c(F)c(F)c(F)c(F)c5F)c5ccc2[nH]5)C=C4)C=C3)cc1
REMARK SMILES IDX 19 1 18 2 16 3 17 4 5 6 4 7 3 8 2 9 1 10 6 11 7 12 8 14 9 15
REMARK SMILES IDX 10 16 15 17 11 18 14 19 12 20 13 21 20 22 21 23 22 24 23 25
REMARK SMILES IDX 24 27 25 28 26 29 87 30 27 31 86 32 28 33 29 34 30 35 80 36
REMARK SMILES IDX 31 37 85 38 79 39 81 40 32 41 84 42 78 43 77 44 33 46 65 47
REMARK SMILES IDX 45 48 64 49 46 50 49 51 63 52 82 53 47 54 48 55 62 57 83 58
REMARK SMILES IDX 50 59 34 60 35 61 43 62 36 63 37 64 41 65 44 66 38 67 39 68
REMARK SMILES IDX 42 69 40 70 66 71 67 72 75 73 68 74 69 75 73 76 76 77 70 78
REMARK SMILES IDX 71 79 74 80 72 81 51 82 52 83 60 84 53 85 54 86 58 87 61 88
REMARK SMILES IDX 55 89 56 90 59 91 57 92
REMARK H PARENT 18 5 6 13 22 26 81 45 49 56
REMARK Flexibility Score: inf
ROOT
ATOM      1  C   UNL A   1      31.732  30.508  27.094  1.00  0.00     0.117 C 
ENDROOT
BRANCH   1   2
ATOM      2  N   UNL A   1      33.054  30.050  27.487  1.00  0.00    -0.354 N 
ATOM      3  C   UNL A   1      33.925  29.209  26.868  1.00  0.00     0.242 C 
ATOM      4  O   UNL A   1      35.106  29.273  27.226  1.00  0.00    -0.273 OA
ATOM      5  H   UNL A   1      33.374  30.411  28.346  1.00  0.00     0.163 HD
BRANCH   3   6
ATOM      6  C   UNL A   1      33.522  28.256  25.729  1.00  0.00     0.173 C 
BRANCH   6   7
ATOM      7  C   UNL A   1      33.407  28.868  24.329  1.00  0.00     0.063 C 
BRANCH   7   8
ATOM      8  C   UNL A   1      32.197  28.550  23.459  1.00  0.00     0.162 C 
BRANCH   8   9
ATOM      9  O   UNL A   1      30.893  28.768  23.983  1.00  0.00    -0.385 OA
ATOM     10  C   UNL A   1      29.819  27.986  23.494  1.00  0.00     0.194 C 
ENDBRANCH   8   9
ENDBRANCH   7   8
ENDBRANCH   6   7
BRANCH   6  11
ATOM     11  N   UNL A   1      32.406  27.394  26.112  1.00  0.00    -0.340 N 
ATOM     12  C   UNL A   1      32.327  26.022  26.143  1.00  0.00     0.253 C 
ATOM     13  H   UNL A   1      31.588  27.866  26.389  1.00  0.00     0.164 HD
ATOM     14  O   UNL A   1      31.318  25.496  26.606  1.00  0.00    -0.269 OA
BRANCH  12  15
ATOM     15  C   UNL A   1      33.367  25.166  25.539  1.00  0.00     0.058 A 
ATOM     16  C   UNL A   1      34.327  24.449  26.249  1.00  0.00     0.018 A 
ATOM     17  C   UNL A   1      33.380  25.070  24.153  1.00  0.00     0.126 A 
ATOM     18  C   UNL A   1      35.309  23.744  25.548  1.00  0.00     0.037 A 
ATOM     19  N   UNL A   1      34.315  24.388  23.448  1.00  0.00    -0.249 NA
ATOM     20  C   UNL A   1      35.269  23.751  24.160  1.00  0.00     0.106 A 
ATOM     21  Br  UNL A   1      36.622  22.836  23.197  1.00  0.00    -0.029 Br
ENDBRANCH  12  15
ENDBRANCH   6  11
ENDBRANCH   3   6
ENDBRANCH   1   2
BRANCH   1  22
ATOM     22  C   UNL A   1      31.695  31.971  26.694  1.00  0.00     0.042 C 
BRANCH  22  23
ATOM     23  C   UNL A   1      32.841  32.786  27.278  1.00  0.00     0.118 C 
BRANCH  23  24
ATOM     24  N   UNL A   1      32.470  34.148  27.650  1.00  0.00    -0.352 N 
ATOM     25  C   UNL A   1      32.989  34.986  28.616  1.00  0.00     0.251 C 
ATOM     26  H   UNL A   1      31.731  34.530  27.127  1.00  0.00     0.163 HD
ATOM     27  O   UNL A   1      32.470  36.066  28.844  1.00  0.00    -0.269 OA
BRANCH  25  28
ATOM     28  C   UNL A   1      34.148  34.540  29.420  1.00  0.00     0.039 A 
ATOM     29  C   UNL A   1      33.922  33.951  30.666  1.00  0.00     0.014 A 
ATOM     30  C   UNL A   1      35.444  34.641  28.916  1.00  0.00     0.014 A 
ATOM     31  C   UNL A   1      34.984  33.346  31.343  1.00  0.00     0.010 A 
ATOM     32  C   UNL A   1      36.470  33.935  29.527  1.00  0.00     0.010 A 
ATOM     33  C   UNL A   1      36.250  33.267  30.742  1.00  0.00    -0.014 A 
BRANCH  33  34
ATOM     34  C   UNL A   1      37.358  32.476  31.339  1.00  0.00     0.031 A 
ATOM     35  C   UNL A   1      37.872  32.819  32.710  1.00  0.00     0.074 A 
ATOM     36  C   UNL A   1      37.974  31.527  30.608  1.00  0.00     0.049 A 
ATOM     37  N   UNL A   1      38.917  32.352  33.346  1.00  0.00    -0.248 NA
ATOM     38  C   UNL A   1      37.138  33.860  33.446  1.00  0.00     0.031 C 
ATOM     39  C   UNL A   1      37.612  31.137  29.244  1.00  0.00     0.029 A 
ATOM     40  N   UNL A   1      39.045  30.722  30.907  1.00  0.00    -0.354 N 
ATOM     41  C   UNL A   1      38.984  33.068  34.533  1.00  0.00     0.074 A 
ATOM     42  C   UNL A   1      37.914  34.039  34.504  1.00  0.00     0.031 C 
ATOM     43  C   UNL A   1      38.416  30.140  28.842  1.00  0.00     0.029 A 
ATOM     44  C   UNL A   1      39.381  29.853  29.899  1.00  0.00     0.049 A 
ATOM     45  H   UNL A   1      39.526  30.764  31.765  1.00  0.00     0.167 HD
ATOM     46  C   UNL A   1      39.844  32.912  35.567  1.00  0.00     0.037 A 
ATOM     47  C   UNL A   1      40.360  28.931  29.831  1.00  0.00     0.037 A 
ATOM     48  C   UNL A   1      40.876  31.912  35.616  1.00  0.00     0.049 A 
ATOM     49  C   UNL A   1      41.298  28.770  30.994  1.00  0.00     0.074 A 
ATOM     50  C   UNL A   1      41.742  31.612  36.653  1.00  0.00     0.029 A 
ATOM     51  N   UNL A   1      41.176  31.041  34.578  1.00  0.00    -0.354 N 
ATOM     52  N   UNL A   1      41.315  29.410  32.137  1.00  0.00    -0.248 NA
ATOM     53  C   UNL A   1      42.358  27.762  30.852  1.00  0.00     0.031 C 
ATOM     54  C   UNL A   1      42.591  30.583  36.228  1.00  0.00     0.029 A 
ATOM     55  C   UNL A   1      42.228  30.216  34.942  1.00  0.00     0.049 A 
ATOM     56  H   UNL A   1      40.711  31.013  33.711  1.00  0.00     0.167 HD
ATOM     57  C   UNL A   1      42.367  28.869  32.862  1.00  0.00     0.074 A 
ATOM     58  C   UNL A   1      42.960  27.840  32.031  1.00  0.00     0.031 C 
ATOM     59  C   UNL A   1      42.803  29.194  34.103  1.00  0.00     0.037 A 
BRANCH  46  60
ATOM     60  C   UNL A   1      39.692  33.849  36.731  1.00  0.00     0.064 A 
ATOM     61  C   UNL A   1      40.374  35.076  36.783  1.00  0.00     0.173 A 
ATOM     62  C   UNL A   1      38.864  33.514  37.812  1.00  0.00     0.173 A 
ATOM     63  F   UNL A   1      41.190  35.437  35.780  1.00  0.00    -0.203 F 
ATOM     64  C   UNL A   1      40.270  35.907  37.894  1.00  0.00     0.198 A 
ATOM     65  C   UNL A   1      38.737  34.364  38.908  1.00  0.00     0.198 A 
ATOM     66  F   UNL A   1      38.185  32.358  37.812  1.00  0.00    -0.203 F 
ATOM     67  F   UNL A   1      40.987  37.038  37.951  1.00  0.00    -0.200 F 
ATOM     68  C   UNL A   1      39.450  35.553  38.954  1.00  0.00     0.200 A 
ATOM     69  F   UNL A   1      37.935  34.027  39.927  1.00  0.00    -0.200 F 
ATOM     70  F   UNL A   1      39.356  36.352  40.026  1.00  0.00    -0.200 F 
ENDBRANCH  46  60
BRANCH  47  71
ATOM     71  C   UNL A   1      40.468  28.056  28.637  1.00  0.00     0.064 A 
ATOM     72  C   UNL A   1      41.238  28.455  27.535  1.00  0.00     0.173 A 
ATOM     73  C   UNL A   1      39.831  26.809  28.572  1.00  0.00     0.173 A 
ATOM     74  F   UNL A   1      41.849  29.649  27.544  1.00  0.00    -0.203 F 
ATOM     75  C   UNL A   1      41.362  27.642  26.410  1.00  0.00     0.198 A 
ATOM     76  C   UNL A   1      39.973  25.987  27.456  1.00  0.00     0.198 A 
ATOM     77  F   UNL A   1      39.087  26.382  29.602  1.00  0.00    -0.203 F 
ATOM     78  F   UNL A   1      42.080  28.060  25.360  1.00  0.00    -0.200 F 
ATOM     79  C   UNL A   1      40.735  26.405  26.375  1.00  0.00     0.200 A 
ATOM     80  F   UNL A   1      39.376  24.787  27.429  1.00  0.00    -0.200 F 
ATOM     81  F   UNL A   1      40.861  25.619  25.296  1.00  0.00    -0.200 F 
ENDBRANCH  47  71
BRANCH  59  82
ATOM     82  C   UNL A   1      43.957  28.412  34.651  1.00  0.00     0.064 A 
ATOM     83  C   UNL A   1      43.765  27.204  35.336  1.00  0.00     0.173 A 
ATOM     84  C   UNL A   1      45.274  28.854  34.448  1.00  0.00     0.173 A 
ATOM     85  F   UNL A   1      42.525  26.751  35.569  1.00  0.00    -0.203 F 
ATOM     86  C   UNL A   1      44.850  26.473  35.812  1.00  0.00     0.198 A 
ATOM     87  C   UNL A   1      46.356  28.107  34.903  1.00  0.00     0.198 A 
ATOM     88  F   UNL A   1      45.509  30.001  33.794  1.00  0.00    -0.203 F 
ATOM     89  F   UNL A   1      44.643  25.341  36.497  1.00  0.00    -0.200 F 
ATOM     90  C   UNL A   1      46.144  26.921  35.589  1.00  0.00     0.200 A 
ATOM     91  F   UNL A   1      47.606  28.536  34.678  1.00  0.00    -0.200 F 
ATOM     92  F   UNL A   1      47.187  26.212  36.041  1.00  0.00    -0.200 F 
ENDBRANCH  59  82
ENDBRANCH  33  34
ENDBRANCH  25  28
ENDBRANCH  23  24
ENDBRANCH  22  23
ENDBRANCH   1  22
TORSDOF 15
ENDMDL
MODEL 2
REMARK VINA RESULT:     -11.2      5.664      9.971
REMARK SMILES COCC[C@H](NC(=O)c1ccc(Br)nc1)C(=O)NCCCNC(=O)c1ccc(-c2c3nc(c(-c4c(F)c(F)c(F)c(F)c4F)c4ccc([nH]4)c(-c4c(F)c(F)c(F)c(F)c4F)c4nc(c(-c5c(F)c(F)c(F)c(F)c5F)c5ccc2[nH]5)C=C4)C=C3)cc1
REMARK SMILES IDX 19 1 18 2 16 3 17 4 5 6 4 7 3 8 2 9 1 10 6 11 7 12 8 14 9 15
REMARK SMILES IDX 10 16 15 17 11 18 14 19 12 20 13 21 20 22 21 23 22 24 23 25
REMARK SMILES IDX 24 27 25 28 26 29 87 30 27 31 86 32 28 33 29 34 30 35 80 36
REMARK SMILES IDX 31 37 85 38 79 39 81 40 32 41 84 42 78 43 77 44 33 46 65 47
REMARK SMILES IDX 45 48 64 49 46 50 49 51 63 52 82 53 47 54 48 55 62 57 83 58
REMARK SMILES IDX 50 59 34 60 35 61 43 62 36 63 37 64 41 65 44 66 38 67 39 68
REMARK SMILES IDX 42 69 40 70 66 71 67 72 75 73 68 74 69 75 73 76 76 77 70 78
REMARK SMILES IDX 71 79 74 80 72 81 51 82 52 83 60 84 53 85 54 86 58 87 61 88
REMARK SMILES IDX 55 89 56 90 59 91 57 92
REMARK H PARENT 18 5 6 13 22 26 81 45 49 56
REMARK Flexibility Score: inf
ROOT
ATOM      1  C   UNL A   1      36.726  21.301  25.482  1.00  0.00     0.117 C 
ENDROOT
BRANCH   1   2
ATOM      2  N   UNL A   1      35.647  20.340  25.324  1.00  0.00    -0.354 N 
ATOM      3  C   UNL A   1      34.353  20.510  24.943  1.00  0.00     0.242 C 
ATOM      4  O   UNL A   1      33.757  19.503  24.543  1.00  0.00    -0.273 OA
ATOM      5  H   UNL A   1      35.896  19.409  25.526  1.00  0.00     0.163 HD
BRANCH   3   6
ATOM      6  C   UNL A   1      33.644  21.874  24.928  1.00  0.00     0.173 C 
BRANCH   6   7
ATOM      7  C   UNL A   1      32.350  21.987  25.743  1.00  0.00     0.063 C 
BRANCH   7   8
ATOM      8  C   UNL A   1      32.329  22.817  27.021  1.00  0.00     0.162 C 
BRANCH   8   9
ATOM      9  O   UNL A   1      31.078  23.136  27.617  1.00  0.00    -0.385 OA
ATOM     10  C   UNL A   1      29.935  23.251  26.790  1.00  0.00     0.194 C 
ENDBRANCH   8   9
ENDBRANCH   7   8
ENDBRANCH   6   7
BRANCH   6  11
ATOM     11  N   UNL A   1      33.565  22.431  23.579  1.00  0.00    -0.340 N 
ATOM     12  C   UNL A   1      33.467  23.741  23.174  1.00  0.00     0.253 C 
ATOM     13  H   UNL A   1      33.585  21.769  22.851  1.00  0.00     0.164 HD
ATOM     14  O   UNL A   1      33.525  23.997  21.974  1.00  0.00    -0.269 OA
BRANCH  12  15
ATOM     15  C   UNL A   1      33.186  24.833  24.125  1.00  0.00     0.058 A 
ATOM     16  C   UNL A   1      34.131  25.444  24.947  1.00  0.00     0.018 A 
ATOM     17  C   UNL A   1      31.875  25.287  24.198  1.00  0.00     0.126 A 
ATOM     18  C   UNL A   1      33.714  26.411  25.866  1.00  0.00     0.037 A 
ATOM     19  N   UNL A   1      31.444  26.227  25.075  1.00  0.00    -0.249 NA
ATOM     20  C   UNL A   1      32.371  26.759  25.900  1.00  0.00     0.106 A 
ATOM     21  Br  UNL A   1      31.785  28.036  27.174  1.00  0.00    -0.029 Br
ENDBRANCH  12  15
ENDBRANCH   6  11
ENDBRANCH   3   6
ENDBRANCH   1   2
BRANCH   1  22
ATOM     22  C   UNL A   1      38.059  20.802  24.958  1.00  0.00     0.042 C 
BRANCH  22  23
ATOM     23  C   UNL A   1      39.156  20.786  26.015  1.00  0.00     0.118 C 
BRANCH  23  24
ATOM     24  N   UNL A   1      40.019  19.611  25.954  1.00  0.00    -0.352 N 
ATOM     25  C   UNL A   1      41.380  19.487  26.149  1.00  0.00     0.251 C 
ATOM     26  H   UNL A   1      39.556  18.770  25.741  1.00  0.00     0.163 HD
ATOM     27  O   UNL A   1      41.941  18.421  25.954  1.00  0.00    -0.269 OA
BRANCH  25  28
ATOM     28  C   UNL A   1      42.170  20.675  26.541  1.00  0.00     0.039 A 
ATOM     29  C   UNL A   1      42.698  21.497  25.542  1.00  0.00     0.014 A 
ATOM     30  C   UNL A   1      42.329  21.013  27.883  1.00  0.00     0.014 A 
ATOM     31  C   UNL A   1      43.269  22.723  25.891  1.00  0.00     0.010 A 
ATOM     32  C   UNL A   1      42.782  22.281  28.219  1.00  0.00     0.010 A 
ATOM     33  C   UNL A   1      43.246  23.157  27.226  1.00  0.00    -0.014 A 
BRANCH  33  34
ATOM     34  C   UNL A   1      43.673  24.526  27.616  1.00  0.00     0.031 A 
ATOM     35  C   UNL A   1      42.643  25.558  27.984  1.00  0.00     0.074 A 
ATOM     36  C   UNL A   1      44.972  24.873  27.530  1.00  0.00     0.049 A 
ATOM     37  N   UNL A   1      42.795  26.839  28.210  1.00  0.00    -0.248 NA
ATOM     38  C   UNL A   1      41.249  25.097  28.063  1.00  0.00     0.031 C 
ATOM     39  C   UNL A   1      46.065  23.984  27.129  1.00  0.00     0.029 A 
ATOM     40  N   UNL A   1      45.594  26.073  27.766  1.00  0.00    -0.354 N 
ATOM     41  C   UNL A   1      41.516  27.337  28.419  1.00  0.00     0.074 A 
ATOM     42  C   UNL A   1      40.597  26.236  28.235  1.00  0.00     0.031 C 
ATOM     43  C   UNL A   1      47.224  24.656  27.191  1.00  0.00     0.029 A 
ATOM     44  C   UNL A   1      46.955  26.034  27.586  1.00  0.00     0.049 A 
ATOM     45  H   UNL A   1      45.111  26.886  28.040  1.00  0.00     0.167 HD
ATOM     46  C   UNL A   1      41.143  28.593  28.761  1.00  0.00     0.037 A 
ATOM     47  C   UNL A   1      47.882  27.002  27.720  1.00  0.00     0.037 A 
ATOM     48  C   UNL A   1      42.063  29.673  28.994  1.00  0.00     0.049 A 
ATOM     49  C   UNL A   1      47.445  28.387  28.107  1.00  0.00     0.074 A 
ATOM     50  C   UNL A   1      41.795  30.959  29.430  1.00  0.00     0.029 A 
ATOM     51  N   UNL A   1      43.436  29.589  28.813  1.00  0.00    -0.354 N 
ATOM     52  N   UNL A   1      46.240  28.832  28.364  1.00  0.00    -0.248 NA
ATOM     53  C   UNL A   1      48.500  29.404  28.218  1.00  0.00     0.031 C 
ATOM     54  C   UNL A   1      43.003  31.664  29.478  1.00  0.00     0.029 A 
ATOM     55  C   UNL A   1      44.028  30.807  29.109  1.00  0.00     0.049 A 
ATOM     56  H   UNL A   1      43.919  28.784  28.517  1.00  0.00     0.167 HD
ATOM     57  C   UNL A   1      46.390  30.173  28.689  1.00  0.00     0.074 A 
ATOM     58  C   UNL A   1      47.807  30.466  28.607  1.00  0.00     0.031 C 
ATOM     59  C   UNL A   1      45.440  31.079  29.026  1.00  0.00     0.037 A 
BRANCH  46  60
ATOM     60  C   UNL A   1      39.672  28.853  28.908  1.00  0.00     0.064 A 
ATOM     61  C   UNL A   1      38.891  29.299  27.828  1.00  0.00     0.173 A 
ATOM     62  C   UNL A   1      39.035  28.667  30.143  1.00  0.00     0.173 A 
ATOM     63  F   UNL A   1      39.456  29.507  26.629  1.00  0.00    -0.203 F 
ATOM     64  C   UNL A   1      37.541  29.594  27.994  1.00  0.00     0.198 A 
ATOM     65  C   UNL A   1      37.676  28.931  30.296  1.00  0.00     0.198 A 
ATOM     66  F   UNL A   1      39.730  28.236  31.206  1.00  0.00    -0.203 F 
ATOM     67  F   UNL A   1      36.835  30.086  26.966  1.00  0.00    -0.200 F 
ATOM     68  C   UNL A   1      36.934  29.406  29.225  1.00  0.00     0.200 A 
ATOM     69  F   UNL A   1      37.085  28.738  31.484  1.00  0.00    -0.200 F 
ATOM     70  F   UNL A   1      35.635  29.696  29.384  1.00  0.00    -0.200 F 
ENDBRANCH  46  60
BRANCH  47  71
ATOM     71  C   UNL A   1      49.318  26.679  27.533  1.00  0.00     0.064 A 
ATOM     72  C   UNL A   1      49.881  26.673  26.249  1.00  0.00     0.173 A 
ATOM     73  C   UNL A   1      50.160  26.391  28.617  1.00  0.00     0.173 A 
ATOM     74  F   UNL A   1      49.110  26.922  25.180  1.00  0.00    -0.203 F 
ATOM     75  C   UNL A   1      51.230  26.384  26.055  1.00  0.00     0.198 A 
ATOM     76  C   UNL A   1      51.514  26.124  28.424  1.00  0.00     0.198 A 
ATOM     77  F   UNL A   1      49.669  26.389  29.865  1.00  0.00    -0.203 F 
ATOM     78  F   UNL A   1      51.735  26.357  24.815  1.00  0.00    -0.200 F 
ATOM     79  C   UNL A   1      52.047  26.118  27.144  1.00  0.00     0.200 A 
ATOM     80  F   UNL A   1      52.303  25.878  29.479  1.00  0.00    -0.200 F 
ATOM     81  F   UNL A   1      53.347  25.849  26.958  1.00  0.00    -0.200 F 
ENDBRANCH  47  71
BRANCH  59  82
ATOM     82  C   UNL A   1      45.903  32.465  29.359  1.00  0.00     0.064 A 
ATOM     83  C   UNL A   1      45.970  33.469  28.383  1.00  0.00     0.173 A 
ATOM     84  C   UNL A   1      46.239  32.803  30.679  1.00  0.00     0.173 A 
ATOM     85  F   UNL A   1      45.676  33.189  27.105  1.00  0.00    -0.203 F 
ATOM     86  C   UNL A   1      46.374  34.760  28.714  1.00  0.00     0.198 A 
ATOM     87  C   UNL A   1      46.616  34.101  31.010  1.00  0.00     0.198 A 
ATOM     88  F   UNL A   1      46.185  31.878  31.648  1.00  0.00    -0.203 F 
ATOM     89  F   UNL A   1      46.468  35.696  27.760  1.00  0.00    -0.200 F 
ATOM     90  C   UNL A   1      46.688  35.077  30.028  1.00  0.00     0.200 A 
ATOM     91  F   UNL A   1      46.911  34.408  32.281  1.00  0.00    -0.200 F 
ATOM     92  F   UNL A   1      47.068  36.322  30.346  1.00  0.00    -0.200 F 
ENDBRANCH  59  82
ENDBRANCH  33  34
ENDBRANCH  25  28
ENDBRANCH  23  24
ENDBRANCH  22  23
ENDBRANCH   1  22
TORSDOF 15
ENDMDL
MODEL 3
REMARK VINA RESULT:     -11.2      2.003      7.995
REMARK SMILES COCC[C@H](NC(=O)c1ccc(Br)nc1)C(=O)NCCCNC(=O)c1ccc(-c2c3nc(c(-c4c(F)c(F)c(F)c(F)c4F)c4ccc([nH]4)c(-c4c(F)c(F)c(F)c(F)c4F)c4nc(c(-c5c(F)c(F)c(F)c(F)c5F)c5ccc2[nH]5)C=C4)C=C3)cc1
REMARK SMILES IDX 19 1 18 2 16 3 17 4 5 6 4 7 3 8 2 9 1 10 6 11 7 12 8 14 9 15
REMARK SMILES IDX 10 16 15 17 11 18 14 19 12 20 13 21 20 22 21 23 22 24 23 25
REMARK SMILES IDX 24 27 25 28 26 29 87 30 27 31 86 32 28 33 29 34 30 35 80 36
REMARK SMILES IDX 31 37 85 38 79 39 81 40 32 41 84 42 78 43 77 44 33 46 65 47
REMARK SMILES IDX 45 48 64 49 46 50 49 51 63 52 82 53 47 54 48 55 62 57 83 58
REMARK SMILES IDX 50 59 34 60 35 61 43 62 36 63 37 64 41 65 44 66 38 67 39 68
REMARK SMILES IDX 42 69 40 70 66 71 67 72 75 73 68 74 69 75 73 76 76 77 70 78
REMARK SMILES IDX 71 79 74 80 72 81 51 82 52 83 60 84 53 85 54 86 58 87 61 88
REMARK SMILES IDX 55 89 56 90 59 91 57 92
REMARK H PARENT 18 5 6 13 22 26 81 45 49 56
REMARK Flexibility Score: inf
ROOT
ATOM      1  C   UNL A   1      32.041  26.603  26.416  1.00  0.00     0.117 C 
ENDROOT
BRANCH   1   2
ATOM      2  N   UNL A   1      31.019  25.649  26.815  1.00  0.00    -0.354 N 
ATOM      3  C   UNL A   1      30.683  24.437  26.297  1.00  0.00     0.242 C 
ATOM      4  O   UNL A   1      30.037  23.681  27.032  1.00  0.00    -0.273 OA
ATOM      5  H   UNL A   1      30.481  25.927  27.591  1.00  0.00     0.163 HD
BRANCH   3   6
ATOM      6  C   UNL A   1      31.116  23.959  24.901  1.00  0.00     0.173 C 
BRANCH   6   7
ATOM      7  C   UNL A   1      30.472  24.663  23.702  1.00  0.00     0.063 C 
BRANCH   7   8
ATOM      8  C   UNL A   1      31.306  25.597  22.833  1.00  0.00     0.162 C 
BRANCH   8   9
ATOM      9  O   UNL A   1      30.905  26.954  22.692  1.00  0.00    -0.385 OA
ATOM     10  C   UNL A   1      29.784  27.415  23.423  1.00  0.00     0.194 C 
ENDBRANCH   8   9
ENDBRANCH   7   8
ENDBRANCH   6   7
BRANCH   6  11
ATOM     11  N   UNL A   1      31.143  22.501  24.810  1.00  0.00    -0.340 N 
ATOM     12  C   UNL A   1      32.139  21.618  25.153  1.00  0.00     0.253 C 
ATOM     13  H   UNL A   1      30.325  22.088  24.449  1.00  0.00     0.164 HD
ATOM     14  O   UNL A   1      31.910  20.413  25.096  1.00  0.00    -0.269 OA
BRANCH  12  15
ATOM     15  C   UNL A   1      33.505  22.071  25.480  1.00  0.00     0.058 A 
ATOM     16  C   UNL A   1      33.914  22.554  26.721  1.00  0.00     0.018 A 
ATOM     17  C   UNL A   1      34.454  22.003  24.467  1.00  0.00     0.126 A 
ATOM     18  C   UNL A   1      35.219  23.031  26.872  1.00  0.00     0.037 A 
ATOM     19  N   UNL A   1      35.727  22.452  24.588  1.00  0.00    -0.249 NA
ATOM     20  C   UNL A   1      36.079  22.970  25.784  1.00  0.00     0.106 A 
ATOM     21  Br  UNL A   1      37.837  23.656  25.962  1.00  0.00    -0.029 Br
ENDBRANCH  12  15
ENDBRANCH   6  11
ENDBRANCH   3   6
ENDBRANCH   1   2
BRANCH   1  22
ATOM     22  C   UNL A   1      31.659  28.045  26.690  1.00  0.00     0.042 C 
BRANCH  22  23
ATOM     23  C   UNL A   1      32.638  29.052  26.102  1.00  0.00     0.118 C 
BRANCH  23  24
ATOM     24  N   UNL A   1      32.347  30.438  26.456  1.00  0.00    -0.352 N 
ATOM     25  C   UNL A   1      33.104  31.365  27.141  1.00  0.00     0.251 C 
ATOM     26  H   UNL A   1      31.468  30.763  26.158  1.00  0.00     0.163 HD
ATOM     27  O   UNL A   1      32.640  32.456  27.428  1.00  0.00    -0.269 OA
BRANCH  25  28
ATOM     28  C   UNL A   1      34.471  31.007  27.580  1.00  0.00     0.039 A 
ATOM     29  C   UNL A   1      35.418  32.022  27.741  1.00  0.00     0.014 A 
ATOM     30  C   UNL A   1      34.794  29.690  27.897  1.00  0.00     0.014 A 
ATOM     31  C   UNL A   1      36.644  31.729  28.345  1.00  0.00     0.010 A 
ATOM     32  C   UNL A   1      35.957  29.424  28.607  1.00  0.00     0.010 A 
ATOM     33  C   UNL A   1      36.891  30.443  28.851  1.00  0.00    -0.014 A 
BRANCH  33  34
ATOM     34  C   UNL A   1      38.098  30.134  29.660  1.00  0.00     0.031 A 
ATOM     35  C   UNL A   1      39.141  29.192  29.126  1.00  0.00     0.074 A 
ATOM     36  C   UNL A   1      38.203  30.610  30.917  1.00  0.00     0.049 A 
ATOM     37  N   UNL A   1      40.186  28.682  29.727  1.00  0.00    -0.248 NA
ATOM     38  C   UNL A   1      38.958  28.726  27.743  1.00  0.00     0.031 C 
ATOM     39  C   UNL A   1      37.233  31.486  31.577  1.00  0.00     0.029 A 
ATOM     40  N   UNL A   1      39.171  30.415  31.869  1.00  0.00    -0.354 N 
ATOM     41  C   UNL A   1      40.757  27.810  28.811  1.00  0.00     0.074 A 
ATOM     42  C   UNL A   1      39.913  27.815  27.638  1.00  0.00     0.031 C 
ATOM     43  C   UNL A   1      37.676  31.787  32.807  1.00  0.00     0.029 A 
ATOM     44  C   UNL A   1      38.935  31.088  33.043  1.00  0.00     0.049 A 
ATOM     45  H   UNL A   1      39.962  29.845  31.725  1.00  0.00     0.167 HD
ATOM     46  C   UNL A   1      41.899  27.090  28.926  1.00  0.00     0.037 A 
ATOM     47  C   UNL A   1      39.651  31.132  34.183  1.00  0.00     0.037 A 
ATOM     48  C   UNL A   1      42.764  27.127  30.074  1.00  0.00     0.049 A 
ATOM     49  C   UNL A   1      40.918  30.332  34.285  1.00  0.00     0.074 A 
ATOM     50  C   UNL A   1      43.987  26.506  30.255  1.00  0.00     0.029 A 
ATOM     51  N   UNL A   1      42.495  27.832  31.239  1.00  0.00    -0.354 N 
ATOM     52  N   UNL A   1      41.483  29.559  33.390  1.00  0.00    -0.248 NA
ATOM     53  C   UNL A   1      41.645  30.406  35.560  1.00  0.00     0.031 C 
ATOM     54  C   UNL A   1      44.442  26.807  31.545  1.00  0.00     0.029 A 
ATOM     55  C   UNL A   1      43.521  27.646  32.152  1.00  0.00     0.049 A 
ATOM     56  H   UNL A   1      41.695  28.384  31.394  1.00  0.00     0.167 HD
ATOM     57  C   UNL A   1      42.641  29.074  33.981  1.00  0.00     0.074 A 
ATOM     58  C   UNL A   1      42.703  29.648  35.310  1.00  0.00     0.031 C 
ATOM     59  C   UNL A   1      43.568  28.229  33.469  1.00  0.00     0.037 A 
BRANCH  46  60
ATOM     60  C   UNL A   1      42.272  26.209  27.769  1.00  0.00     0.064 A 
ATOM     61  C   UNL A   1      41.725  24.924  27.616  1.00  0.00     0.173 A 
ATOM     62  C   UNL A   1      43.194  26.647  26.808  1.00  0.00     0.173 A 
ATOM     63  F   UNL A   1      40.849  24.453  28.517  1.00  0.00    -0.203 F 
ATOM     64  C   UNL A   1      42.124  24.095  26.572  1.00  0.00     0.198 A 
ATOM     65  C   UNL A   1      43.565  25.826  25.746  1.00  0.00     0.198 A 
ATOM     66  F   UNL A   1      43.742  27.867  26.901  1.00  0.00    -0.203 F 
ATOM     67  F   UNL A   1      41.641  22.847  26.489  1.00  0.00    -0.200 F 
ATOM     68  C   UNL A   1      43.041  24.547  25.636  1.00  0.00     0.200 A 
ATOM     69  F   UNL A   1      44.443  26.268  24.834  1.00  0.00    -0.200 F 
ATOM     70  F   UNL A   1      43.429  23.745  24.635  1.00  0.00    -0.200 F 
ENDBRANCH  46  60
BRANCH  47  71
ATOM     71  C   UNL A   1      39.208  32.007  35.298  1.00  0.00     0.064 A 
ATOM     72  C   UNL A   1      38.452  31.478  36.354  1.00  0.00     0.173 A 
ATOM     73  C   UNL A   1      39.540  33.368  35.348  1.00  0.00     0.173 A 
ATOM     74  F   UNL A   1      38.093  30.186  36.337  1.00  0.00    -0.203 F 
ATOM     75  C   UNL A   1      38.038  32.280  37.415  1.00  0.00     0.198 A 
ATOM     76  C   UNL A   1      39.144  34.164  36.421  1.00  0.00     0.198 A 
ATOM     77  F   UNL A   1      40.265  33.919  34.364  1.00  0.00    -0.203 F 
ATOM     78  F   UNL A   1      37.292  31.755  38.396  1.00  0.00    -0.200 F 
ATOM     79  C   UNL A   1      38.391  33.621  37.452  1.00  0.00     0.200 A 
ATOM     80  F   UNL A   1      39.496  35.457  36.460  1.00  0.00    -0.200 F 
ATOM     81  F   UNL A   1      38.000  34.390  38.478  1.00  0.00    -0.200 F 
ENDBRANCH  47  71
BRANCH  59  82
ATOM     82  C   UNL A   1      44.744  27.896  34.335  1.00  0.00     0.064 A 
ATOM     83  C   UNL A   1      44.741  26.775  35.177  1.00  0.00     0.173 A 
ATOM     84  C   UNL A   1      45.906  28.683  34.288  1.00  0.00     0.173 A 
ATOM     85  F   UNL A   1      43.648  26.005  35.269  1.00  0.00    -0.203 F 
ATOM     86  C   UNL A   1      45.854  26.462  35.954  1.00  0.00     0.198 A 
ATOM     87  C   UNL A   1      47.025  28.352  35.046  1.00  0.00     0.198 A 
ATOM     88  F   UNL A   1      45.959  29.763  33.494  1.00  0.00    -0.203 F 
ATOM     89  F   UNL A   1      45.816  25.409  36.780  1.00  0.00    -0.200 F 
ATOM     90  C   UNL A   1      46.997  27.246  35.882  1.00  0.00     0.200 A 
ATOM     91  F   UNL A   1      48.132  29.104  34.969  1.00  0.00    -0.200 F 
ATOM     92  F   UNL A   1      48.069  26.938  36.624  1.00  0.00    -0.200 F 
ENDBRANCH  59  82
ENDBRANCH  33  34
ENDBRANCH  25  28
ENDBRANCH  23  24
ENDBRANCH  22  23
ENDBRANCH   1  22
TORSDOF 15
ENDMDL
