MODEL 1
REMARK VINA RESULT:     -13.0      0.000      0.000
REMARK SMILES O=C(NCCCNC(=O)[C@@H]1CCCC[C@@H]1C(=O)Nc1nc(-c2ccc(Cl)c(Cl)c2)cs1)c1ccc(-c2c3nc(c(-c4c(F)c(F)c(F)c(F)c4F)c4ccc([nH]4)c(-c4c(F)c(F)c(F)c(F)c4F)c4nc(c(-c5c(F)c(F)c(F)c(F)c5F)c5ccc2[nH]5)C=C4)C=C3)cc1
REMARK SMILES IDX 5 1 4 2 3 3 1 4 2 5 32 7 33 8 94 9 34 10 93 11 35 12 36 13
REMARK SMILES IDX 37 14 87 15 38 16 92 17 86 18 88 19 39 20 91 21 85 22 84 23
REMARK SMILES IDX 40 25 72 26 52 27 71 28 53 29 56 30 70 31 89 32 54 33 55 34
REMARK SMILES IDX 69 36 90 37 57 38 41 39 42 40 50 41 43 42 44 43 48 44 51 45
REMARK SMILES IDX 45 46 46 47 49 48 47 49 73 50 74 51 82 52 75 53 76 54 80 55
REMARK SMILES IDX 83 56 77 57 78 58 81 59 79 60 58 61 59 62 67 63 60 64 61 65
REMARK SMILES IDX 65 66 68 67 62 68 63 69 66 70 64 71 6 72 7 73 8 74 9 76
REMARK SMILES IDX 10 77 11 78 15 79 12 80 14 81 13 82 16 83 17 84 18 85 19 87
REMARK SMILES IDX 20 88 31 89 21 90 30 91 22 92 23 93 29 94 24 95 27 96 25 97
REMARK SMILES IDX 28 98 26 99
REMARK H PARENT 3 6 88 24 56 35 7 75 18 86
REMARK Flexibility Score: inf
ROOT
ATOM      1  C   UNL A   1      33.221  27.807  24.404  1.00  0.00     0.042 C 
ENDROOT
BRANCH   1   2
ATOM      2  C   UNL A   1      34.034  28.976  24.929  1.00  0.00     0.118 C 
BRANCH   2   3
ATOM      3  N   UNL A   1      33.207  30.068  25.423  1.00  0.00    -0.352 N 
ATOM      4  O   UNL A   1      32.394  31.555  26.909  1.00  0.00    -0.269 OA
ATOM      5  C   UNL A   1      33.283  30.764  26.602  1.00  0.00     0.251 C 
ATOM      6  H   UNL A   1      32.482  30.348  24.819  1.00  0.00     0.163 HD
BRANCH   5   7
ATOM      7  C   UNL A   1      34.422  30.546  27.516  1.00  0.00     0.039 A 
ATOM      8  C   UNL A   1      34.532  29.353  28.233  1.00  0.00     0.014 A 
ATOM      9  C   UNL A   1      35.412  31.527  27.626  1.00  0.00     0.014 A 
ATOM     10  C   UNL A   1      35.558  29.189  29.153  1.00  0.00     0.010 A 
ATOM     11  C   UNL A   1      36.497  31.323  28.482  1.00  0.00     0.010 A 
ATOM     12  C   UNL A   1      36.572  30.154  29.254  1.00  0.00    -0.014 A 
BRANCH  12  13
ATOM     13  C   UNL A   1      37.781  29.831  30.045  1.00  0.00     0.031 A 
ATOM     14  C   UNL A   1      37.982  30.361  31.431  1.00  0.00     0.074 A 
ATOM     15  C   UNL A   1      38.705  29.039  29.466  1.00  0.00     0.049 A 
ATOM     16  N   UNL A   1      38.984  30.155  32.247  1.00  0.00    -0.248 NA
ATOM     17  C   UNL A   1      36.933  31.237  31.975  1.00  0.00     0.031 C 
ATOM     18  C   UNL A   1      38.612  28.497  28.106  1.00  0.00     0.029 A 
ATOM     19  N   UNL A   1      39.893  28.546  29.937  1.00  0.00    -0.354 N 
ATOM     20  C   UNL A   1      38.698  30.885  33.392  1.00  0.00     0.074 A 
ATOM     21  C   UNL A   1      37.434  31.552  33.164  1.00  0.00     0.031 C 
ATOM     22  C   UNL A   1      39.682  27.730  27.863  1.00  0.00     0.029 A 
ATOM     23  C   UNL A   1      40.566  27.776  29.019  1.00  0.00     0.049 A 
ATOM     24  H   UNL A   1      40.233  28.727  30.843  1.00  0.00     0.167 HD
ATOM     25  C   UNL A   1      39.434  30.979  34.525  1.00  0.00     0.037 A 
ATOM     26  C   UNL A   1      41.779  27.199  29.088  1.00  0.00     0.037 A 
ATOM     27  C   UNL A   1      40.683  30.291  34.739  1.00  0.00     0.049 A 
ATOM     28  C   UNL A   1      42.577  27.351  30.348  1.00  0.00     0.074 A 
ATOM     29  C   UNL A   1      41.456  30.248  35.887  1.00  0.00     0.029 A 
ATOM     30  N   UNL A   1      41.350  29.544  33.779  1.00  0.00    -0.354 N 
ATOM     31  N   UNL A   1      42.255  27.970  31.458  1.00  0.00    -0.248 NA
ATOM     32  C   UNL A   1      43.908  26.733  30.367  1.00  0.00     0.031 C 
ATOM     33  C   UNL A   1      42.620  29.526  35.602  1.00  0.00     0.029 A 
ATOM     34  C   UNL A   1      42.549  29.077  34.292  1.00  0.00     0.049 A 
ATOM     35  H   UNL A   1      41.019  29.370  32.868  1.00  0.00     0.167 HD
ATOM     36  C   UNL A   1      43.338  27.813  32.308  1.00  0.00     0.074 A 
ATOM     37  C   UNL A   1      44.315  27.013  31.597  1.00  0.00     0.031 C 
ATOM     38  C   UNL A   1      43.512  28.294  33.563  1.00  0.00     0.037 A 
BRANCH  25  39
ATOM     39  C   UNL A   1      38.934  31.867  35.627  1.00  0.00     0.064 A 
ATOM     40  C   UNL A   1      38.168  31.367  36.689  1.00  0.00     0.173 A 
ATOM     41  C   UNL A   1      39.313  33.218  35.669  1.00  0.00     0.173 A 
ATOM     42  F   UNL A   1      37.776  30.085  36.694  1.00  0.00    -0.203 F 
ATOM     43  C   UNL A   1      37.794  32.189  37.750  1.00  0.00     0.198 A 
ATOM     44  C   UNL A   1      38.957  34.031  36.742  1.00  0.00     0.198 A 
ATOM     45  F   UNL A   1      40.054  33.744  34.681  1.00  0.00    -0.203 F 
ATOM     46  F   UNL A   1      37.046  31.695  38.748  1.00  0.00    -0.200 F 
ATOM     47  C   UNL A   1      38.197  33.516  37.781  1.00  0.00     0.200 A 
ATOM     48  F   UNL A   1      39.360  35.309  36.776  1.00  0.00    -0.200 F 
ATOM     49  F   UNL A   1      37.855  34.299  38.814  1.00  0.00    -0.200 F 
ENDBRANCH  25  39
BRANCH  26  50
ATOM     50  C   UNL A   1      42.314  26.466  27.913  1.00  0.00     0.064 A 
ATOM     51  C   UNL A   1      43.149  27.095  26.981  1.00  0.00     0.173 A 
ATOM     52  C   UNL A   1      42.002  25.113  27.703  1.00  0.00     0.173 A 
ATOM     53  F   UNL A   1      43.462  28.390  27.131  1.00  0.00    -0.203 F 
ATOM     54  C   UNL A   1      43.634  26.406  25.871  1.00  0.00     0.198 A 
ATOM     55  C   UNL A   1      42.514  24.416  26.612  1.00  0.00     0.198 A 
ATOM     56  F   UNL A   1      41.212  24.462  28.570  1.00  0.00    -0.203 F 
ATOM     57  F   UNL A   1      44.391  27.044  24.970  1.00  0.00    -0.200 F 
ATOM     58  C   UNL A   1      43.322  25.066  25.691  1.00  0.00     0.200 A 
ATOM     59  F   UNL A   1      42.225  23.118  26.452  1.00  0.00    -0.200 F 
ATOM     60  F   UNL A   1      43.793  24.403  24.626  1.00  0.00    -0.200 F 
ENDBRANCH  26  50
BRANCH  38  61
ATOM     61  C   UNL A   1      44.809  27.969  34.240  1.00  0.00     0.064 A 
ATOM     62  C   UNL A   1      45.906  28.840  34.168  1.00  0.00     0.173 A 
ATOM     63  C   UNL A   1      44.946  26.797  34.998  1.00  0.00     0.173 A 
ATOM     64  F   UNL A   1      45.830  29.962  33.438  1.00  0.00    -0.203 F 
ATOM     65  C   UNL A   1      47.099  28.540  34.818  1.00  0.00     0.198 A 
ATOM     66  C   UNL A   1      46.130  26.515  35.670  1.00  0.00     0.198 A 
ATOM     67  F   UNL A   1      43.923  25.933  35.097  1.00  0.00    -0.203 F 
ATOM     68  F   UNL A   1      48.148  29.365  34.701  1.00  0.00    -0.200 F 
ATOM     69  C   UNL A   1      47.207  27.383  35.575  1.00  0.00     0.200 A 
ATOM     70  F   UNL A   1      46.230  25.402  36.411  1.00  0.00    -0.200 F 
ATOM     71  F   UNL A   1      48.354  27.101  36.209  1.00  0.00    -0.200 F 
ENDBRANCH  38  61
ENDBRANCH  12  13
ENDBRANCH   5   7
ENDBRANCH   2   3
ENDBRANCH   1   2
BRANCH   1  72
ATOM     72  C   UNL A   1      33.914  26.463  24.535  1.00  0.00     0.117 C 
BRANCH  72  73
ATOM     73  N   UNL A   1      33.736  25.612  23.374  1.00  0.00    -0.356 N 
ATOM     74  C   UNL A   1      34.182  24.353  23.115  1.00  0.00     0.223 C 
ATOM     75  H   UNL A   1      33.202  26.015  22.651  1.00  0.00     0.163 HD
ATOM     76  O   UNL A   1      33.935  23.893  22.000  1.00  0.00    -0.275 OA
BRANCH  74  77
ATOM     77  C   UNL A   1      34.989  23.597  24.167  1.00  0.00     0.091 C 
ATOM     78  C   UNL A   1      36.085  22.752  23.496  1.00  0.00     0.014 C 
ATOM     79  C   UNL A   1      34.105  22.773  25.128  1.00  0.00     0.091 C 
ATOM     80  C   UNL A   1      36.901  21.962  24.510  1.00  0.00     0.001 C 
ATOM     81  C   UNL A   1      34.938  21.905  26.085  1.00  0.00     0.014 C 
ATOM     82  C   UNL A   1      36.010  21.083  25.377  1.00  0.00     0.001 C 
BRANCH  79  83
ATOM     83  C   UNL A   1      33.046  21.906  24.443  1.00  0.00     0.230 C 
ATOM     84  O   UNL A   1      33.340  20.827  23.924  1.00  0.00    -0.274 OA
ATOM     85  N   UNL A   1      31.719  22.213  24.543  1.00  0.00    -0.302 N 
ATOM     86  H   UNL A   1      31.091  21.472  24.383  1.00  0.00     0.172 HD
BRANCH  85  87
ATOM     87  C   UNL A   1      31.161  23.422  24.838  1.00  0.00     0.189 A 
ATOM     88  N   UNL A   1      30.823  24.399  24.036  1.00  0.00    -0.220 NA
ATOM     89  S   UNL A   1      30.793  23.644  26.492  1.00  0.00    -0.105 S 
ATOM     90  C   UNL A   1      30.206  25.398  24.761  1.00  0.00     0.084 A 
ATOM     91  C   UNL A   1      30.150  25.196  26.125  1.00  0.00     0.097 A 
BRANCH  90  92
ATOM     92  C   UNL A   1      29.618  26.546  24.101  1.00  0.00     0.003 A 
ATOM     93  C   UNL A   1      28.227  26.701  24.097  1.00  0.00     0.012 A 
ATOM     94  C   UNL A   1      30.422  27.484  23.446  1.00  0.00     0.032 A 
ATOM     95  C   UNL A   1      27.644  27.793  23.450  1.00  0.00     0.023 A 
ATOM     96  C   UNL A   1      29.834  28.574  22.792  1.00  0.00     0.060 A 
ATOM     97  C   UNL A   1      28.442  28.728  22.791  1.00  0.00     0.059 A 
ATOM     98  Cl  UNL A   1      30.885  29.696  22.002  1.00  0.00    -0.083 Cl
ATOM     99  Cl  UNL A   1      27.651  30.037  21.987  1.00  0.00    -0.083 Cl
ENDBRANCH  90  92
ENDBRANCH  85  87
ENDBRANCH  79  83
ENDBRANCH  74  77
ENDBRANCH  72  73
ENDBRANCH   1  72
TORSDOF 13
ENDMDL
MODEL 2
REMARK VINA RESULT:     -13.0      4.106      8.523
REMARK SMILES O=C(NCCCNC(=O)[C@@H]1CCCC[C@@H]1C(=O)Nc1nc(-c2ccc(Cl)c(Cl)c2)cs1)c1ccc(-c2c3nc(c(-c4c(F)c(F)c(F)c(F)c4F)c4ccc([nH]4)c(-c4c(F)c(F)c(F)c(F)c4F)c4nc(c(-c5c(F)c(F)c(F)c(F)c5F)c5ccc2[nH]5)C=C4)C=C3)cc1
REMARK SMILES IDX 5 1 4 2 3 3 1 4 2 5 32 7 33 8 94 9 34 10 93 11 35 12 36 13
REMARK SMILES IDX 37 14 87 15 38 16 92 17 86 18 88 19 39 20 91 21 85 22 84 23
REMARK SMILES IDX 40 25 72 26 52 27 71 28 53 29 56 30 70 31 89 32 54 33 55 34
REMARK SMILES IDX 69 36 90 37 57 38 41 39 42 40 50 41 43 42 44 43 48 44 51 45
REMARK SMILES IDX 45 46 46 47 49 48 47 49 73 50 74 51 82 52 75 53 76 54 80 55
REMARK SMILES IDX 83 56 77 57 78 58 81 59 79 60 58 61 59 62 67 63 60 64 61 65
REMARK SMILES IDX 65 66 68 67 62 68 63 69 66 70 64 71 6 72 7 73 8 74 9 76
REMARK SMILES IDX 10 77 11 78 15 79 12 80 14 81 13 82 16 83 17 84 18 85 19 87
REMARK SMILES IDX 20 88 31 89 21 90 30 91 22 92 23 93 29 94 24 95 27 96 25 97
REMARK SMILES IDX 28 98 26 99
REMARK H PARENT 3 6 88 24 56 35 7 75 18 86
REMARK Flexibility Score: inf
ROOT
ATOM      1  C   UNL A   1      35.562  23.758  25.848  1.00  0.00     0.042 C 
ENDROOT
BRANCH   1   2
ATOM      2  C   UNL A   1      36.880  23.791  25.095  1.00  0.00     0.118 C 
BRANCH   2   3
ATOM      3  N   UNL A   1      37.805  22.752  25.524  1.00  0.00    -0.352 N 
ATOM      4  O   UNL A   1      39.694  21.875  26.389  1.00  0.00    -0.269 OA
ATOM      5  C   UNL A   1      38.962  22.853  26.255  1.00  0.00     0.251 C 
ATOM      6  H   UNL A   1      37.565  21.838  25.247  1.00  0.00     0.163 HD
BRANCH   5   7
ATOM      7  C   UNL A   1      39.339  24.144  26.864  1.00  0.00     0.039 A 
ATOM      8  C   UNL A   1      38.985  24.430  28.184  1.00  0.00     0.014 A 
ATOM      9  C   UNL A   1      40.088  25.061  26.122  1.00  0.00     0.014 A 
ATOM     10  C   UNL A   1      39.269  25.677  28.723  1.00  0.00     0.010 A 
ATOM     11  C   UNL A   1      40.456  26.281  26.695  1.00  0.00     0.010 A 
ATOM     12  C   UNL A   1      40.042  26.596  27.998  1.00  0.00    -0.014 A 
BRANCH  12  13
ATOM     13  C   UNL A   1      40.547  27.802  28.693  1.00  0.00     0.031 A 
ATOM     14  C   UNL A   1      41.960  27.901  29.176  1.00  0.00     0.074 A 
ATOM     15  C   UNL A   1      39.680  28.816  28.881  1.00  0.00     0.049 A 
ATOM     16  N   UNL A   1      42.546  28.896  29.792  1.00  0.00    -0.248 NA
ATOM     17  C   UNL A   1      42.832  26.738  28.949  1.00  0.00     0.031 C 
ATOM     18  C   UNL A   1      38.271  28.802  28.471  1.00  0.00     0.029 A 
ATOM     19  N   UNL A   1      39.844  30.050  29.453  1.00  0.00    -0.354 N 
ATOM     20  C   UNL A   1      43.846  28.478  30.040  1.00  0.00     0.074 A 
ATOM     21  C   UNL A   1      43.964  27.132  29.521  1.00  0.00     0.031 C 
ATOM     22  C   UNL A   1      37.709  29.977  28.782  1.00  0.00     0.029 A 
ATOM     23  C   UNL A   1      38.694  30.801  29.469  1.00  0.00     0.049 A 
ATOM     24  H   UNL A   1      40.701  30.367  29.819  1.00  0.00     0.167 HD
ATOM     25  C   UNL A   1      44.842  29.168  30.646  1.00  0.00     0.037 A 
ATOM     26  C   UNL A   1      38.448  32.008  30.009  1.00  0.00     0.037 A 
ATOM     27  C   UNL A   1      44.709  30.516  31.139  1.00  0.00     0.049 A 
ATOM     28  C   UNL A   1      39.569  32.729  30.698  1.00  0.00     0.074 A 
ATOM     29  C   UNL A   1      45.685  31.333  31.683  1.00  0.00     0.029 A 
ATOM     30  N   UNL A   1      43.524  31.236  31.166  1.00  0.00    -0.354 N 
ATOM     31  N   UNL A   1      40.818  32.359  30.847  1.00  0.00    -0.248 NA
ATOM     32  C   UNL A   1      39.248  34.027  31.302  1.00  0.00     0.031 C 
ATOM     33  C   UNL A   1      45.077  32.523  32.095  1.00  0.00     0.029 A 
ATOM     34  C   UNL A   1      43.733  32.469  31.763  1.00  0.00     0.049 A 
ATOM     35  H   UNL A   1      42.661  30.918  30.812  1.00  0.00     0.167 HD
ATOM     36  C   UNL A   1      41.434  33.379  31.554  1.00  0.00     0.074 A 
ATOM     37  C   UNL A   1      40.428  34.398  31.779  1.00  0.00     0.031 C 
ATOM     38  C   UNL A   1      42.715  33.462  31.987  1.00  0.00     0.037 A 
BRANCH  25  39
ATOM     39  C   UNL A   1      46.166  28.487  30.836  1.00  0.00     0.064 A 
ATOM     40  C   UNL A   1      46.445  27.719  31.975  1.00  0.00     0.173 A 
ATOM     41  C   UNL A   1      47.129  28.524  29.816  1.00  0.00     0.173 A 
ATOM     42  F   UNL A   1      45.560  27.655  32.980  1.00  0.00    -0.203 F 
ATOM     43  C   UNL A   1      47.644  27.018  32.089  1.00  0.00     0.198 A 
ATOM     44  C   UNL A   1      48.316  27.804  29.923  1.00  0.00     0.198 A 
ATOM     45  F   UNL A   1      46.907  29.237  28.701  1.00  0.00    -0.203 F 
ATOM     46  F   UNL A   1      47.899  26.304  33.194  1.00  0.00    -0.200 F 
ATOM     47  C   UNL A   1      48.573  27.052  31.058  1.00  0.00     0.200 A 
ATOM     48  F   UNL A   1      49.206  27.827  28.920  1.00  0.00    -0.200 F 
ATOM     49  F   UNL A   1      49.716  26.360  31.161  1.00  0.00    -0.200 F 
ENDBRANCH  25  39
BRANCH  26  50
ATOM     50  C   UNL A   1      37.080  32.580  29.948  1.00  0.00     0.064 A 
ATOM     51  C   UNL A   1      36.654  33.331  28.845  1.00  0.00     0.173 A 
ATOM     52  C   UNL A   1      36.166  32.381  30.996  1.00  0.00     0.173 A 
ATOM     53  F   UNL A   1      37.496  33.561  27.827  1.00  0.00    -0.203 F 
ATOM     54  C   UNL A   1      35.374  33.880  28.802  1.00  0.00     0.198 A 
ATOM     55  C   UNL A   1      34.877  32.902  30.936  1.00  0.00     0.198 A 
ATOM     56  F   UNL A   1      36.523  31.663  32.071  1.00  0.00    -0.203 F 
ATOM     57  F   UNL A   1      35.008  34.634  27.757  1.00  0.00    -0.200 F 
ATOM     58  C   UNL A   1      34.484  33.660  29.844  1.00  0.00     0.200 A 
ATOM     59  F   UNL A   1      34.016  32.670  31.936  1.00  0.00    -0.200 F 
ATOM     60  F   UNL A   1      33.252  34.184  29.799  1.00  0.00    -0.200 F 
ENDBRANCH  26  50
BRANCH  38  61
ATOM     61  C   UNL A   1      43.095  34.695  32.749  1.00  0.00     0.064 A 
ATOM     62  C   UNL A   1      43.523  35.856  32.088  1.00  0.00     0.173 A 
ATOM     63  C   UNL A   1      42.995  34.731  34.147  1.00  0.00     0.173 A 
ATOM     64  F   UNL A   1      43.655  35.863  30.753  1.00  0.00    -0.203 F 
ATOM     65  C   UNL A   1      43.853  37.003  32.802  1.00  0.00     0.198 A 
ATOM     66  C   UNL A   1      43.298  35.889  34.856  1.00  0.00     0.198 A 
ATOM     67  F   UNL A   1      42.589  33.646  34.824  1.00  0.00    -0.203 F 
ATOM     68  F   UNL A   1      44.300  38.088  32.155  1.00  0.00    -0.200 F 
ATOM     69  C   UNL A   1      43.732  37.022  34.184  1.00  0.00     0.200 A 
ATOM     70  F   UNL A   1      43.169  35.910  36.190  1.00  0.00    -0.200 F 
ATOM     71  F   UNL A   1      44.040  38.132  34.870  1.00  0.00    -0.200 F 
ENDBRANCH  38  61
ENDBRANCH  12  13
ENDBRANCH   5   7
ENDBRANCH   2   3
ENDBRANCH   1   2
BRANCH   1  72
ATOM     72  C   UNL A   1      34.611  24.882  25.479  1.00  0.00     0.117 C 
BRANCH  72  73
ATOM     73  N   UNL A   1      33.301  24.744  26.085  1.00  0.00    -0.356 N 
ATOM     74  C   UNL A   1      32.337  25.668  26.345  1.00  0.00     0.223 C 
ATOM     75  H   UNL A   1      33.070  23.825  26.355  1.00  0.00     0.163 HD
ATOM     76  O   UNL A   1      31.334  25.276  26.941  1.00  0.00    -0.275 OA
BRANCH  74  77
ATOM     77  C   UNL A   1      32.548  27.126  25.941  1.00  0.00     0.091 C 
ATOM     78  C   UNL A   1      31.939  28.066  26.995  1.00  0.00     0.014 C 
ATOM     79  C   UNL A   1      32.057  27.433  24.511  1.00  0.00     0.091 C 
ATOM     80  C   UNL A   1      32.107  29.532  26.619  1.00  0.00     0.001 C 
ATOM     81  C   UNL A   1      32.142  28.931  24.176  1.00  0.00     0.014 C 
ATOM     82  C   UNL A   1      31.523  29.825  25.244  1.00  0.00     0.001 C 
BRANCH  79  83
ATOM     83  C   UNL A   1      30.653  26.917  24.188  1.00  0.00     0.230 C 
ATOM     84  O   UNL A   1      29.651  27.597  24.422  1.00  0.00    -0.274 OA
ATOM     85  N   UNL A   1      30.478  25.768  23.471  1.00  0.00    -0.302 N 
ATOM     86  H   UNL A   1      29.608  25.669  23.020  1.00  0.00     0.172 HD
BRANCH  85  87
ATOM     87  C   UNL A   1      31.362  24.743  23.305  1.00  0.00     0.189 A 
ATOM     88  N   UNL A   1      31.408  23.580  23.903  1.00  0.00    -0.220 NA
ATOM     89  S   UNL A   1      32.527  25.008  22.084  1.00  0.00    -0.105 S 
ATOM     90  C   UNL A   1      32.420  22.819  23.356  1.00  0.00     0.084 A 
ATOM     91  C   UNL A   1      33.182  23.448  22.391  1.00  0.00     0.097 A 
BRANCH  90  92
ATOM     92  C   UNL A   1      32.613  21.438  23.747  1.00  0.00     0.003 A 
ATOM     93  C   UNL A   1      33.118  21.146  25.020  1.00  0.00     0.012 A 
ATOM     94  C   UNL A   1      32.327  20.397  22.859  1.00  0.00     0.032 A 
ATOM     95  C   UNL A   1      33.325  19.819  25.405  1.00  0.00     0.023 A 
ATOM     96  C   UNL A   1      32.543  19.068  23.245  1.00  0.00     0.060 A 
ATOM     97  C   UNL A   1      33.046  18.778  24.520  1.00  0.00     0.059 A 
ATOM     98  Cl  UNL A   1      32.168  17.830  22.099  1.00  0.00    -0.083 Cl
ATOM     99  Cl  UNL A   1      33.356  17.164  25.053  1.00  0.00    -0.083 Cl
ENDBRANCH  90  92
ENDBRANCH  85  87
ENDBRANCH  79  83
ENDBRANCH  74  77
ENDBRANCH  72  73
ENDBRANCH   1  72
TORSDOF 13
ENDMDL
MODEL 3
REMARK VINA RESULT:     -13.0      2.381      3.633
REMARK SMILES O=C(NCCCNC(=O)[C@@H]1CCCC[C@@H]1C(=O)Nc1nc(-c2ccc(Cl)c(Cl)c2)cs1)c1ccc(-c2c3nc(c(-c4c(F)c(F)c(F)c(F)c4F)c4ccc([nH]4)c(-c4c(F)c(F)c(F)c(F)c4F)c4nc(c(-c5c(F)c(F)c(F)c(F)c5F)c5ccc2[nH]5)C=C4)C=C3)cc1
REMARK SMILES IDX 5 1 4 2 3 3 1 4 2 5 32 7 33 8 94 9 34 10 93 11 35 12 36 13
REMARK SMILES IDX 37 14 87 15 38 16 92 17 86 18 88 19 39 20 91 21 85 22 84 23
REMARK SMILES IDX 40 25 72 26 52 27 71 28 53 29 56 30 70 31 89 32 54 33 55 34
REMARK SMILES IDX 69 36 90 37 57 38 41 39 42 40 50 41 43 42 44 43 48 44 51 45
REMARK SMILES IDX 45 46 46 47 49 48 47 49 73 50 74 51 82 52 75 53 76 54 80 55
REMARK SMILES IDX 83 56 77 57 78 58 81 59 79 60 58 61 59 62 67 63 60 64 61 65
REMARK SMILES IDX 65 66 68 67 62 68 63 69 66 70 64 71 6 72 7 73 8 74 9 76
REMARK SMILES IDX 10 77 11 78 15 79 12 80 14 81 13 82 16 83 17 84 18 85 19 87
REMARK SMILES IDX 20 88 31 89 21 90 30 91 22 92 23 93 29 94 24 95 27 96 25 97
REMARK SMILES IDX 28 98 26 99
REMARK H PARENT 3 6 88 24 56 35 7 75 18 86
REMARK Flexibility Score: inf
ROOT
ATOM      1  C   UNL A   1      33.666  27.739  25.666  1.00  0.00     0.042 C 
ENDROOT
BRANCH   1   2
ATOM      2  C   UNL A   1      33.526  28.280  27.078  1.00  0.00     0.118 C 
BRANCH   2   3
ATOM      3  N   UNL A   1      33.488  29.735  27.128  1.00  0.00    -0.352 N 
ATOM      4  O   UNL A   1      34.129  31.814  27.718  1.00  0.00    -0.269 OA
ATOM      5  C   UNL A   1      34.409  30.621  27.628  1.00  0.00     0.251 C 
ATOM      6  H   UNL A   1      32.680  30.145  26.744  1.00  0.00     0.163 HD
BRANCH   5   7
ATOM      7  C   UNL A   1      35.729  30.138  28.079  1.00  0.00     0.039 A 
ATOM      8  C   UNL A   1      36.824  30.169  27.214  1.00  0.00     0.014 A 
ATOM      9  C   UNL A   1      35.883  29.687  29.393  1.00  0.00     0.014 A 
ATOM     10  C   UNL A   1      38.040  29.636  27.616  1.00  0.00     0.010 A 
ATOM     11  C   UNL A   1      37.131  29.236  29.829  1.00  0.00     0.010 A 
ATOM     12  C   UNL A   1      38.215  29.204  28.939  1.00  0.00    -0.014 A 
BRANCH  12  13
ATOM     13  C   UNL A   1      39.584  28.889  29.407  1.00  0.00     0.031 A 
ATOM     14  C   UNL A   1      40.341  29.813  30.309  1.00  0.00     0.074 A 
ATOM     15  C   UNL A   1      40.130  27.732  28.986  1.00  0.00     0.049 A 
ATOM     16  N   UNL A   1      41.543  29.666  30.808  1.00  0.00    -0.248 NA
ATOM     17  C   UNL A   1      39.677  31.065  30.702  1.00  0.00     0.031 C 
ATOM     18  C   UNL A   1      39.481  26.778  28.080  1.00  0.00     0.029 A 
ATOM     19  N   UNL A   1      41.343  27.154  29.258  1.00  0.00    -0.354 N 
ATOM     20  C   UNL A   1      41.786  30.808  31.558  1.00  0.00     0.074 A 
ATOM     21  C   UNL A   1      40.614  31.648  31.441  1.00  0.00     0.031 C 
ATOM     22  C   UNL A   1      40.288  25.727  27.892  1.00  0.00     0.029 A 
ATOM     23  C   UNL A   1      41.535  25.959  28.608  1.00  0.00     0.049 A 
ATOM     24  H   UNL A   1      42.011  27.556  29.858  1.00  0.00     0.167 HD
ATOM     25  C   UNL A   1      42.893  31.113  32.276  1.00  0.00     0.037 A 
ATOM     26  C   UNL A   1      42.612  25.154  28.565  1.00  0.00     0.037 A 
ATOM     27  C   UNL A   1      44.044  30.252  32.395  1.00  0.00     0.049 A 
ATOM     28  C   UNL A   1      43.830  25.540  29.351  1.00  0.00     0.074 A 
ATOM     29  C   UNL A   1      45.174  30.429  33.174  1.00  0.00     0.029 A 
ATOM     30  N   UNL A   1      44.218  29.063  31.701  1.00  0.00    -0.354 N 
ATOM     31  N   UNL A   1      44.014  26.579  30.128  1.00  0.00    -0.248 NA
ATOM     32  C   UNL A   1      44.993  24.651  29.248  1.00  0.00     0.031 C 
ATOM     33  C   UNL A   1      46.058  29.379  32.904  1.00  0.00     0.029 A 
ATOM     34  C   UNL A   1      45.459  28.521  31.996  1.00  0.00     0.049 A 
ATOM     35  H   UNL A   1      43.557  28.663  31.090  1.00  0.00     0.167 HD
ATOM     36  C   UNL A   1      45.308  26.467  30.612  1.00  0.00     0.074 A 
ATOM     37  C   UNL A   1      45.854  25.242  30.064  1.00  0.00     0.031 C 
ATOM     38  C   UNL A   1      45.987  27.307  31.430  1.00  0.00     0.037 A 
BRANCH  25  39
ATOM     39  C   UNL A   1      42.941  32.435  32.983  1.00  0.00     0.064 A 
ATOM     40  C   UNL A   1      43.403  33.597  32.347  1.00  0.00     0.173 A 
ATOM     41  C   UNL A   1      42.424  32.560  34.281  1.00  0.00     0.173 A 
ATOM     42  F   UNL A   1      43.911  33.532  31.108  1.00  0.00    -0.203 F 
ATOM     43  C   UNL A   1      43.350  34.832  32.988  1.00  0.00     0.198 A 
ATOM     44  C   UNL A   1      42.352  33.800  34.911  1.00  0.00     0.198 A 
ATOM     45  F   UNL A   1      41.962  31.480  34.931  1.00  0.00    -0.203 F 
ATOM     46  F   UNL A   1      43.814  35.928  32.369  1.00  0.00    -0.200 F 
ATOM     47  C   UNL A   1      42.816  34.934  34.265  1.00  0.00     0.200 A 
ATOM     48  F   UNL A   1      41.822  33.898  36.138  1.00  0.00    -0.200 F 
ATOM     49  F   UNL A   1      42.747  36.128  34.871  1.00  0.00    -0.200 F 
ENDBRANCH  25  39
BRANCH  26  50
ATOM     50  C   UNL A   1      42.588  23.934  27.720  1.00  0.00     0.064 A 
ATOM     51  C   UNL A   1      42.233  22.688  28.251  1.00  0.00     0.173 A 
ATOM     52  C   UNL A   1      42.918  23.993  26.356  1.00  0.00     0.173 A 
ATOM     53  F   UNL A   1      41.925  22.578  29.552  1.00  0.00    -0.203 F 
ATOM     54  C   UNL A   1      42.230  21.543  27.457  1.00  0.00     0.198 A 
ATOM     55  C   UNL A   1      42.882  22.855  25.556  1.00  0.00     0.198 A 
ATOM     56  F   UNL A   1      43.258  25.164  25.797  1.00  0.00    -0.203 F 
ATOM     57  F   UNL A   1      41.932  20.356  28.001  1.00  0.00    -0.200 F 
ATOM     58  C   UNL A   1      42.548  21.628  26.109  1.00  0.00     0.200 A 
ATOM     59  F   UNL A   1      43.172  22.946  24.251  1.00  0.00    -0.200 F 
ATOM     60  F   UNL A   1      42.539  20.528  25.345  1.00  0.00    -0.200 F 
ENDBRANCH  26  50
BRANCH  38  61
ATOM     61  C   UNL A   1      47.394  26.927  31.776  1.00  0.00     0.064 A 
ATOM     62  C   UNL A   1      47.670  26.025  32.814  1.00  0.00     0.173 A 
ATOM     63  C   UNL A   1      48.474  27.437  31.041  1.00  0.00     0.173 A 
ATOM     64  F   UNL A   1      46.672  25.527  33.559  1.00  0.00    -0.203 F 
ATOM     65  C   UNL A   1      48.979  25.661  33.113  1.00  0.00     0.198 A 
ATOM     66  C   UNL A   1      49.779  27.048  31.324  1.00  0.00     0.198 A 
ATOM     67  F   UNL A   1      48.259  28.302  30.037  1.00  0.00    -0.203 F 
ATOM     68  F   UNL A   1      49.224  24.831  34.137  1.00  0.00    -0.200 F 
ATOM     69  C   UNL A   1      50.031  26.166  32.363  1.00  0.00     0.200 A 
ATOM     70  F   UNL A   1      50.794  27.527  30.591  1.00  0.00    -0.200 F 
ATOM     71  F   UNL A   1      51.291  25.805  32.646  1.00  0.00    -0.200 F 
ENDBRANCH  38  61
ENDBRANCH  12  13
ENDBRANCH   5   7
ENDBRANCH   2   3
ENDBRANCH   1   2
BRANCH   1  72
ATOM     72  C   UNL A   1      33.653  26.224  25.582  1.00  0.00     0.117 C 
BRANCH  72  73
ATOM     73  N   UNL A   1      33.765  25.727  24.224  1.00  0.00    -0.356 N 
ATOM     74  C   UNL A   1      34.377  24.617  23.728  1.00  0.00     0.223 C 
ATOM     75  H   UNL A   1      33.322  26.288  23.546  1.00  0.00     0.163 HD
ATOM     76  O   UNL A   1      34.373  24.477  22.505  1.00  0.00    -0.275 OA
BRANCH  74  77
ATOM     77  C   UNL A   1      35.067  23.638  24.675  1.00  0.00     0.091 C 
ATOM     78  C   UNL A   1      36.296  23.012  23.994  1.00  0.00     0.014 C 
ATOM     79  C   UNL A   1      34.105  22.583  25.258  1.00  0.00     0.091 C 
ATOM     80  C   UNL A   1      37.002  22.010  24.897  1.00  0.00     0.001 C 
ATOM     81  C   UNL A   1      34.841  21.520  26.091  1.00  0.00     0.014 C 
ATOM     82  C   UNL A   1      36.049  20.924  25.376  1.00  0.00     0.001 C 
BRANCH  79  83
ATOM     83  C   UNL A   1      33.207  21.892  24.229  1.00  0.00     0.230 C 
ATOM     84  O   UNL A   1      33.597  20.908  23.597  1.00  0.00    -0.274 OA
ATOM     85  N   UNL A   1      31.890  22.233  24.109  1.00  0.00    -0.302 N 
ATOM     86  H   UNL A   1      31.305  21.558  23.695  1.00  0.00     0.172 HD
BRANCH  85  87
ATOM     87  C   UNL A   1      31.289  23.394  24.494  1.00  0.00     0.189 A 
ATOM     88  N   UNL A   1      30.943  24.430  23.773  1.00  0.00    -0.220 NA
ATOM     89  S   UNL A   1      30.871  23.458  26.150  1.00  0.00    -0.105 S 
ATOM     90  C   UNL A   1      30.279  25.344  24.565  1.00  0.00     0.084 A 
ATOM     91  C   UNL A   1      30.193  25.019  25.904  1.00  0.00     0.097 A 
BRANCH  90  92
ATOM     92  C   UNL A   1      29.674  26.530  23.993  1.00  0.00     0.003 A 
ATOM     93  C   UNL A   1      28.286  26.697  24.063  1.00  0.00     0.012 A 
ATOM     94  C   UNL A   1      30.458  27.492  23.350  1.00  0.00     0.032 A 
ATOM     95  C   UNL A   1      27.687  27.827  23.501  1.00  0.00     0.023 A 
ATOM     96  C   UNL A   1      29.854  28.620  22.781  1.00  0.00     0.060 A 
ATOM     97  C   UNL A   1      28.465  28.788  22.853  1.00  0.00     0.059 A 
ATOM     98  Cl  UNL A   1      30.880  29.771  22.001  1.00  0.00    -0.083 Cl
ATOM     99  Cl  UNL A   1      27.653  30.143  22.155  1.00  0.00    -0.083 Cl
ENDBRANCH  90  92
ENDBRANCH  85  87
ENDBRANCH  79  83
ENDBRANCH  74  77
ENDBRANCH  72  73
ENDBRANCH   1  72
TORSDOF 13
ENDMDL
