MODEL 1
REMARK VINA RESULT:     -13.0      0.000      0.000
REMARK SMILES O=C(NCCCNC(=O)[C@@]1([NH2+]C2CC2)CCC[C@H]1CCn1ccnc1)c1ccc(-c2c3nc(c(-c4c(F)c(F)c(F)c(F)c4F)c4ccc([nH]4)c(-c4c(F)c(F)c(F)c(F)c4F)c4nc(c(-c5c(F)c(F)c(F)c(F)c5F)c5ccc2[nH]5)C=C4)C=C3)cc1
REMARK SMILES IDX 5 1 4 2 3 3 1 4 2 5 26 7 27 8 88 9 28 10 87 11 29 12 30 13
REMARK SMILES IDX 31 14 81 15 32 16 86 17 80 18 82 19 33 20 85 21 79 22 78 23
REMARK SMILES IDX 34 25 66 26 46 27 65 28 47 29 50 30 64 31 83 32 48 33 49 34
REMARK SMILES IDX 63 36 84 37 51 38 35 39 36 40 44 41 37 42 38 43 42 44 45 45
REMARK SMILES IDX 39 46 40 47 43 48 41 49 67 50 68 51 76 52 69 53 70 54 74 55
REMARK SMILES IDX 77 56 71 57 72 58 75 59 73 60 52 61 53 62 61 63 54 64 55 65
REMARK SMILES IDX 59 66 62 67 56 68 57 69 60 70 58 71 6 72 7 73 8 74 9 76
REMARK SMILES IDX 10 77 15 78 18 79 16 80 17 81 11 82 12 85 13 86 14 87 19 88
REMARK SMILES IDX 20 89 21 90 22 91 25 92 23 93 24 94
REMARK H PARENT 3 6 82 24 50 35 7 75 11 83 11 84
REMARK Flexibility Score: inf
ROOT
ATOM      1  C   UNL A   1      38.816  23.255  26.339  1.00  0.00     0.042 C 
ENDROOT
BRANCH   1   2
ATOM      2  C   UNL A   1      40.190  22.488  26.696  1.00  0.00     0.118 C 
BRANCH   2   3
ATOM      3  N   UNL A   1      41.440  22.567  25.903  1.00  0.00    -0.352 N 
ATOM      4  O   UNL A   1      43.268  23.408  24.838  1.00  0.00    -0.269 OA
ATOM      5  C   UNL A   1      42.321  23.576  25.615  1.00  0.00     0.251 C 
ATOM      6  H   UNL A   1      41.690  21.708  25.493  1.00  0.00     0.163 HD
BRANCH   5   7
ATOM      7  C   UNL A   1      42.131  24.873  26.234  1.00  0.00     0.039 A 
ATOM      8  C   UNL A   1      42.725  25.089  27.471  1.00  0.00     0.014 A 
ATOM      9  C   UNL A   1      41.337  25.837  25.608  1.00  0.00     0.014 A 
ATOM     10  C   UNL A   1      42.330  26.177  28.202  1.00  0.00     0.010 A 
ATOM     11  C   UNL A   1      41.018  26.988  26.305  1.00  0.00     0.010 A 
ATOM     12  C   UNL A   1      41.470  27.119  27.618  1.00  0.00    -0.014 A 
BRANCH  12  13
ATOM     13  C   UNL A   1      41.307  28.346  28.375  1.00  0.00     0.031 A 
ATOM     14  C   UNL A   1      42.411  29.316  28.118  1.00  0.00     0.074 A 
ATOM     15  C   UNL A   1      40.253  28.620  29.161  1.00  0.00     0.049 A 
ATOM     16  N   UNL A   1      43.304  29.741  28.950  1.00  0.00    -0.248 NA
ATOM     17  C   UNL A   1      42.667  29.691  26.716  1.00  0.00     0.031 C 
ATOM     18  C   UNL A   1      38.991  27.895  29.283  1.00  0.00     0.029 A 
ATOM     19  N   UNL A   1      40.068  29.701  29.961  1.00  0.00    -0.354 N 
ATOM     20  C   UNL A   1      44.143  30.572  28.210  1.00  0.00     0.074 A 
ATOM     21  C   UNL A   1      43.805  30.374  26.826  1.00  0.00     0.031 C 
ATOM     22  C   UNL A   1      38.089  28.686  29.911  1.00  0.00     0.029 A 
ATOM     23  C   UNL A   1      38.753  29.906  30.342  1.00  0.00     0.049 A 
ATOM     24  H   UNL A   1      40.805  30.288  30.245  1.00  0.00     0.167 HD
ATOM     25  C   UNL A   1      44.900  31.528  28.812  1.00  0.00     0.037 A 
ATOM     26  C   UNL A   1      38.256  31.047  30.879  1.00  0.00     0.037 A 
ATOM     27  C   UNL A   1      45.061  31.262  30.216  1.00  0.00     0.049 A 
ATOM     28  C   UNL A   1      39.405  31.830  31.410  1.00  0.00     0.074 A 
ATOM     29  C   UNL A   1      45.659  30.259  30.953  1.00  0.00     0.029 A 
ATOM     30  N   UNL A   1      44.243  31.933  31.089  1.00  0.00    -0.354 N 
ATOM     31  N   UNL A   1      40.118  31.465  32.439  1.00  0.00    -0.248 NA
ATOM     32  C   UNL A   1      40.045  32.787  30.517  1.00  0.00     0.031 C 
ATOM     33  C   UNL A   1      44.814  30.084  32.089  1.00  0.00     0.029 A 
ATOM     34  C   UNL A   1      43.786  31.023  32.004  1.00  0.00     0.049 A 
ATOM     35  H   UNL A   1      44.024  32.893  31.062  1.00  0.00     0.167 HD
ATOM     36  C   UNL A   1      41.423  31.795  32.101  1.00  0.00     0.074 A 
ATOM     37  C   UNL A   1      41.306  32.683  30.947  1.00  0.00     0.031 C 
ATOM     38  C   UNL A   1      42.476  31.090  32.607  1.00  0.00     0.037 A 
BRANCH  25  39
ATOM     39  C   UNL A   1      45.144  32.894  28.220  1.00  0.00     0.064 A 
ATOM     40  C   UNL A   1      46.470  33.308  27.984  1.00  0.00     0.173 A 
ATOM     41  C   UNL A   1      44.171  33.917  28.186  1.00  0.00     0.173 A 
ATOM     42  F   UNL A   1      47.477  32.422  28.007  1.00  0.00    -0.203 F 
ATOM     43  C   UNL A   1      46.803  34.655  27.823  1.00  0.00     0.198 A 
ATOM     44  C   UNL A   1      44.501  35.252  27.971  1.00  0.00     0.198 A 
ATOM     45  F   UNL A   1      42.885  33.692  28.474  1.00  0.00    -0.203 F 
ATOM     46  F   UNL A   1      48.091  35.016  27.742  1.00  0.00    -0.200 F 
ATOM     47  C   UNL A   1      45.819  35.627  27.826  1.00  0.00     0.200 A 
ATOM     48  F   UNL A   1      43.534  36.180  27.998  1.00  0.00    -0.200 F 
ATOM     49  F   UNL A   1      46.141  36.924  27.745  1.00  0.00    -0.200 F 
ENDBRANCH  25  39
BRANCH  26  50
ATOM     50  C   UNL A   1      36.926  31.655  30.641  1.00  0.00     0.064 A 
ATOM     51  C   UNL A   1      36.004  31.812  31.689  1.00  0.00     0.173 A 
ATOM     52  C   UNL A   1      36.636  32.342  29.445  1.00  0.00     0.173 A 
ATOM     53  F   UNL A   1      36.231  31.234  32.878  1.00  0.00    -0.203 F 
ATOM     54  C   UNL A   1      34.873  32.624  31.555  1.00  0.00     0.198 A 
ATOM     55  C   UNL A   1      35.503  33.144  29.310  1.00  0.00     0.198 A 
ATOM     56  F   UNL A   1      37.494  32.328  28.416  1.00  0.00    -0.203 F 
ATOM     57  F   UNL A   1      34.049  32.800  32.598  1.00  0.00    -0.200 F 
ATOM     58  C   UNL A   1      34.628  33.296  30.368  1.00  0.00     0.200 A 
ATOM     59  F   UNL A   1      35.298  33.818  28.168  1.00  0.00    -0.200 F 
ATOM     60  F   UNL A   1      33.577  34.120  30.259  1.00  0.00    -0.200 F 
ENDBRANCH  26  50
BRANCH  38  61
ATOM     61  C   UNL A   1      42.201  30.135  33.732  1.00  0.00     0.064 A 
ATOM     62  C   UNL A   1      41.781  28.806  33.550  1.00  0.00     0.173 A 
ATOM     63  C   UNL A   1      42.518  30.539  35.035  1.00  0.00     0.173 A 
ATOM     64  F   UNL A   1      41.564  28.312  32.324  1.00  0.00    -0.203 F 
ATOM     65  C   UNL A   1      41.638  27.940  34.632  1.00  0.00     0.198 A 
ATOM     66  C   UNL A   1      42.413  29.660  36.109  1.00  0.00     0.198 A 
ATOM     67  F   UNL A   1      42.983  31.777  35.259  1.00  0.00    -0.203 F 
ATOM     68  F   UNL A   1      41.226  26.679  34.434  1.00  0.00    -0.200 F 
ATOM     69  C   UNL A   1      41.961  28.366  35.909  1.00  0.00     0.200 A 
ATOM     70  F   UNL A   1      42.779  30.060  37.333  1.00  0.00    -0.200 F 
ATOM     71  F   UNL A   1      41.869  27.520  36.944  1.00  0.00    -0.200 F 
ENDBRANCH  38  61
ENDBRANCH  12  13
ENDBRANCH   5   7
ENDBRANCH   2   3
ENDBRANCH   1   2
BRANCH   1  72
ATOM     72  C   UNL A   1      37.268  22.889  25.803  1.00  0.00     0.118 C 
BRANCH  72  73
ATOM     73  N   UNL A   1      36.030  22.198  26.493  1.00  0.00    -0.351 N 
ATOM     74  C   UNL A   1      34.636  21.922  26.449  1.00  0.00     0.281 C 
ATOM     75  H   UNL A   1      36.371  21.775  27.314  1.00  0.00     0.163 HD
ATOM     76  O   UNL A   1      34.157  21.458  27.494  1.00  0.00    -0.268 OA
BRANCH  74  77
ATOM     77  C   UNL A   1      33.688  22.118  25.168  1.00  0.00     0.178 C 
ATOM     78  C   UNL A   1      33.712  22.230  23.596  1.00  0.00     0.079 C 
ATOM     79  C   UNL A   1      33.294  20.647  25.098  1.00  0.00     0.062 C 
ATOM     80  C   UNL A   1      32.332  21.669  23.170  1.00  0.00     0.008 C 
ATOM     81  C   UNL A   1      32.133  20.513  24.115  1.00  0.00     0.011 C 
BRANCH  77  82
ATOM     82  N   UNL A   1      32.922  23.346  25.520  1.00  0.00    -0.331 N 
ATOM     83  H   UNL A   1      32.801  23.362  26.533  1.00  0.00     0.347 HD
ATOM     84  H   UNL A   1      32.044  23.289  25.006  1.00  0.00     0.347 HD
BRANCH  82  85
ATOM     85  C   UNL A   1      33.575  24.662  25.103  1.00  0.00     0.183 C 
ATOM     86  C   UNL A   1      32.834  25.876  24.562  1.00  0.00     0.071 C 
ATOM     87  C   UNL A   1      33.450  25.933  25.926  1.00  0.00     0.071 C 
ENDBRANCH  82  85
ENDBRANCH  77  82
BRANCH  79  88
ATOM     88  C   UNL A   1      34.678  19.789  24.738  1.00  0.00     0.032 C 
BRANCH  88  89
ATOM     89  C   UNL A   1      34.863  18.072  24.491  1.00  0.00     0.123 C 
BRANCH  89  90
ATOM     90  N   UNL A   1      34.198  16.835  25.011  1.00  0.00    -0.337 N 
ATOM     91  C   UNL A   1      32.890  16.822  25.485  1.00  0.00     0.107 A 
ATOM     92  C   UNL A   1      34.556  15.509  25.131  1.00  0.00     0.199 A 
ATOM     93  C   UNL A   1      32.507  15.501  25.585  1.00  0.00     0.130 A 
ATOM     94  N   UNL A   1      33.561  14.688  25.369  1.00  0.00    -0.245 NA
ENDBRANCH  89  90
ENDBRANCH  88  89
ENDBRANCH  79  88
ENDBRANCH  74  77
ENDBRANCH  72  73
ENDBRANCH   1  72
TORSDOF 15
ENDMDL
MODEL 2
REMARK VINA RESULT:     -12.9      4.137      9.677
REMARK SMILES O=C(NCCCNC(=O)[C@@]1([NH2+]C2CC2)CCC[C@H]1CCn1ccnc1)c1ccc(-c2c3nc(c(-c4c(F)c(F)c(F)c(F)c4F)c4ccc([nH]4)c(-c4c(F)c(F)c(F)c(F)c4F)c4nc(c(-c5c(F)c(F)c(F)c(F)c5F)c5ccc2[nH]5)C=C4)C=C3)cc1
REMARK SMILES IDX 5 1 4 2 3 3 1 4 2 5 26 7 27 8 88 9 28 10 87 11 29 12 30 13
REMARK SMILES IDX 31 14 81 15 32 16 86 17 80 18 82 19 33 20 85 21 79 22 78 23
REMARK SMILES IDX 34 25 66 26 46 27 65 28 47 29 50 30 64 31 83 32 48 33 49 34
REMARK SMILES IDX 63 36 84 37 51 38 35 39 36 40 44 41 37 42 38 43 42 44 45 45
REMARK SMILES IDX 39 46 40 47 43 48 41 49 67 50 68 51 76 52 69 53 70 54 74 55
REMARK SMILES IDX 77 56 71 57 72 58 75 59 73 60 52 61 53 62 61 63 54 64 55 65
REMARK SMILES IDX 59 66 62 67 56 68 57 69 60 70 58 71 6 72 7 73 8 74 9 76
REMARK SMILES IDX 10 77 15 78 18 79 16 80 17 81 11 82 12 85 13 86 14 87 19 88
REMARK SMILES IDX 20 89 21 90 22 91 25 92 23 93 24 94
REMARK H PARENT 3 6 82 24 50 35 7 75 11 83 11 84
REMARK Flexibility Score: inf
ROOT
ATOM      1  C   UNL A   1      34.767  30.510  27.545  1.00  0.00     0.042 C 
ENDROOT
BRANCH   1   2
ATOM      2  C   UNL A   1      34.971  31.987  28.162  1.00  0.00     0.118 C 
BRANCH   2   3
ATOM      3  N   UNL A   1      34.743  32.356  29.580  1.00  0.00    -0.352 N 
ATOM      4  O   UNL A   1      34.909  32.400  31.849  1.00  0.00    -0.269 OA
ATOM      5  C   UNL A   1      35.350  32.018  30.760  1.00  0.00     0.251 C 
ATOM      6  H   UNL A   1      33.990  32.979  29.698  1.00  0.00     0.163 HD
BRANCH   5   7
ATOM      7  C   UNL A   1      36.536  31.185  30.726  1.00  0.00     0.039 A 
ATOM      8  C   UNL A   1      37.770  31.823  30.679  1.00  0.00     0.014 A 
ATOM      9  C   UNL A   1      36.414  29.794  30.698  1.00  0.00     0.014 A 
ATOM     10  C   UNL A   1      38.875  31.082  30.357  1.00  0.00     0.010 A 
ATOM     11  C   UNL A   1      37.546  29.032  30.473  1.00  0.00     0.010 A 
ATOM     12  C   UNL A   1      38.757  29.689  30.247  1.00  0.00    -0.014 A 
BRANCH  12  13
ATOM     13  C   UNL A   1      40.017  28.976  30.146  1.00  0.00     0.031 A 
ATOM     14  C   UNL A   1      40.685  28.826  31.471  1.00  0.00     0.074 A 
ATOM     15  C   UNL A   1      40.501  28.445  29.012  1.00  0.00     0.049 A 
ATOM     16  N   UNL A   1      41.805  29.342  31.859  1.00  0.00    -0.248 NA
ATOM     17  C   UNL A   1      39.906  28.197  32.552  1.00  0.00     0.031 C 
ATOM     18  C   UNL A   1      39.833  28.277  27.723  1.00  0.00     0.029 A 
ATOM     19  N   UNL A   1      41.701  27.842  28.819  1.00  0.00    -0.354 N 
ATOM     20  C   UNL A   1      41.955  28.962  33.191  1.00  0.00     0.074 A 
ATOM     21  C   UNL A   1      40.694  28.407  33.606  1.00  0.00     0.031 C 
ATOM     22  C   UNL A   1      40.543  27.402  26.972  1.00  0.00     0.029 A 
ATOM     23  C   UNL A   1      41.768  27.062  27.678  1.00  0.00     0.049 A 
ATOM     24  H   UNL A   1      42.459  27.950  29.437  1.00  0.00     0.167 HD
ATOM     25  C   UNL A   1      43.177  28.929  33.783  1.00  0.00     0.037 A 
ATOM     26  C   UNL A   1      42.722  26.137  27.408  1.00  0.00     0.037 A 
ATOM     27  C   UNL A   1      44.132  29.724  33.060  1.00  0.00     0.049 A 
ATOM     28  C   UNL A   1      43.892  26.433  28.279  1.00  0.00     0.074 A 
ATOM     29  C   UNL A   1      44.257  31.068  32.771  1.00  0.00     0.029 A 
ATOM     30  N   UNL A   1      44.980  29.074  32.198  1.00  0.00    -0.354 N 
ATOM     31  N   UNL A   1      44.647  27.489  28.145  1.00  0.00    -0.248 NA
ATOM     32  C   UNL A   1      43.946  25.791  29.585  1.00  0.00     0.031 C 
ATOM     33  C   UNL A   1      44.797  31.112  31.451  1.00  0.00     0.029 A 
ATOM     34  C   UNL A   1      45.018  29.798  31.037  1.00  0.00     0.049 A 
ATOM     35  H   UNL A   1      45.470  28.240  32.382  1.00  0.00     0.167 HD
ATOM     36  C   UNL A   1      44.928  27.891  29.443  1.00  0.00     0.074 A 
ATOM     37  C   UNL A   1      44.544  26.760  30.285  1.00  0.00     0.031 C 
ATOM     38  C   UNL A   1      45.172  29.202  29.732  1.00  0.00     0.037 A 
BRANCH  25  39
ATOM     39  C   UNL A   1      43.599  27.867  34.768  1.00  0.00     0.064 A 
ATOM     40  C   UNL A   1      44.082  28.261  36.032  1.00  0.00     0.173 A 
ATOM     41  C   UNL A   1      43.856  26.525  34.409  1.00  0.00     0.173 A 
ATOM     42  F   UNL A   1      43.906  29.517  36.469  1.00  0.00    -0.203 F 
ATOM     43  C   UNL A   1      44.845  27.403  36.828  1.00  0.00     0.198 A 
ATOM     44  C   UNL A   1      44.571  25.658  35.230  1.00  0.00     0.198 A 
ATOM     45  F   UNL A   1      43.535  26.031  33.209  1.00  0.00    -0.203 F 
ATOM     46  F   UNL A   1      45.401  27.864  37.957  1.00  0.00    -0.200 F 
ATOM     47  C   UNL A   1      45.097  26.105  36.423  1.00  0.00     0.200 A 
ATOM     48  F   UNL A   1      44.820  24.410  34.808  1.00  0.00    -0.200 F 
ATOM     49  F   UNL A   1      45.888  25.305  37.148  1.00  0.00    -0.200 F 
ENDBRANCH  25  39
BRANCH  26  50
ATOM     50  C   UNL A   1      42.551  24.832  26.729  1.00  0.00     0.064 A 
ATOM     51  C   UNL A   1      43.205  24.555  25.518  1.00  0.00     0.173 A 
ATOM     52  C   UNL A   1      41.964  23.732  27.388  1.00  0.00     0.173 A 
ATOM     53  F   UNL A   1      43.834  25.536  24.853  1.00  0.00    -0.203 F 
ATOM     54  C   UNL A   1      43.286  23.255  25.008  1.00  0.00     0.198 A 
ATOM     55  C   UNL A   1      42.037  22.438  26.874  1.00  0.00     0.198 A 
ATOM     56  F   UNL A   1      41.392  23.874  28.592  1.00  0.00    -0.203 F 
ATOM     57  F   UNL A   1      43.973  23.021  23.881  1.00  0.00    -0.200 F 
ATOM     58  C   UNL A   1      42.709  22.196  25.691  1.00  0.00     0.200 A 
ATOM     59  F   UNL A   1      41.507  21.418  27.565  1.00  0.00    -0.200 F 
ATOM     60  F   UNL A   1      42.837  20.943  25.234  1.00  0.00    -0.200 F 
ENDBRANCH  26  50
BRANCH  38  61
ATOM     61  C   UNL A   1      45.392  30.140  28.582  1.00  0.00     0.064 A 
ATOM     62  C   UNL A   1      44.356  30.791  27.889  1.00  0.00     0.173 A 
ATOM     63  C   UNL A   1      46.707  30.507  28.269  1.00  0.00     0.173 A 
ATOM     64  F   UNL A   1      43.073  30.575  28.205  1.00  0.00    -0.203 F 
ATOM     65  C   UNL A   1      44.630  31.727  26.894  1.00  0.00     0.198 A 
ATOM     66  C   UNL A   1      46.977  31.472  27.303  1.00  0.00     0.198 A 
ATOM     67  F   UNL A   1      47.734  29.965  28.942  1.00  0.00    -0.203 F 
ATOM     68  F   UNL A   1      43.624  32.327  26.240  1.00  0.00    -0.200 F 
ATOM     69  C   UNL A   1      45.940  32.072  26.608  1.00  0.00     0.200 A 
ATOM     70  F   UNL A   1      48.243  31.842  27.069  1.00  0.00    -0.200 F 
ATOM     71  F   UNL A   1      46.203  33.007  25.685  1.00  0.00    -0.200 F 
ENDBRANCH  38  61
ENDBRANCH  12  13
ENDBRANCH   5   7
ENDBRANCH   2   3
ENDBRANCH   1   2
BRANCH   1  72
ATOM     72  C   UNL A   1      33.659  29.681  26.595  1.00  0.00     0.118 C 
BRANCH  72  73
ATOM     73  N   UNL A   1      33.626  29.308  25.063  1.00  0.00    -0.351 N 
ATOM     74  C   UNL A   1      33.171  28.409  24.060  1.00  0.00     0.281 C 
ATOM     75  H   UNL A   1      34.153  29.999  24.598  1.00  0.00     0.163 HD
ATOM     76  O   UNL A   1      33.702  28.548  22.948  1.00  0.00    -0.268 OA
BRANCH  74  77
ATOM     77  C   UNL A   1      32.026  27.301  24.254  1.00  0.00     0.178 C 
ATOM     78  C   UNL A   1      30.856  26.862  25.214  1.00  0.00     0.079 C 
ATOM     79  C   UNL A   1      31.046  27.991  23.310  1.00  0.00     0.062 C 
ATOM     80  C   UNL A   1      29.849  26.164  24.265  1.00  0.00     0.008 C 
ATOM     81  C   UNL A   1      29.896  27.026  23.032  1.00  0.00     0.011 C 
BRANCH  77  82
ATOM     82  N   UNL A   1      32.791  26.026  24.149  1.00  0.00    -0.331 N 
ATOM     83  H   UNL A   1      33.461  26.123  23.387  1.00  0.00     0.347 HD
ATOM     84  H   UNL A   1      32.099  25.294  23.992  1.00  0.00     0.347 HD
BRANCH  82  85
ATOM     85  C   UNL A   1      33.559  25.625  25.405  1.00  0.00     0.183 C 
ATOM     86  C   UNL A   1      33.624  24.218  25.981  1.00  0.00     0.071 C 
ATOM     87  C   UNL A   1      34.845  24.816  25.353  1.00  0.00     0.071 C 
ENDBRANCH  82  85
ENDBRANCH  77  82
BRANCH  79  88
ATOM     88  C   UNL A   1      30.643  29.450  24.010  1.00  0.00     0.032 C 
BRANCH  88  89
ATOM     89  C   UNL A   1      29.273  30.477  23.676  1.00  0.00     0.123 C 
BRANCH  89  90
ATOM     90  N   UNL A   1      28.880  31.419  22.580  1.00  0.00    -0.337 N 
ATOM     91  C   UNL A   1      28.627  31.001  21.277  1.00  0.00     0.107 A 
ATOM     92  C   UNL A   1      28.621  32.771  22.498  1.00  0.00     0.199 A 
ATOM     93  C   UNL A   1      28.003  32.045  20.629  1.00  0.00     0.130 A 
ATOM     94  N   UNL A   1      28.013  33.151  21.400  1.00  0.00    -0.245 NA
ENDBRANCH  89  90
ENDBRANCH  88  89
ENDBRANCH  79  88
ENDBRANCH  74  77
ENDBRANCH  72  73
ENDBRANCH   1  72
TORSDOF 15
ENDMDL
MODEL 3
REMARK VINA RESULT:     -12.7      3.907      9.257
REMARK SMILES O=C(NCCCNC(=O)[C@@]1([NH2+]C2CC2)CCC[C@H]1CCn1ccnc1)c1ccc(-c2c3nc(c(-c4c(F)c(F)c(F)c(F)c4F)c4ccc([nH]4)c(-c4c(F)c(F)c(F)c(F)c4F)c4nc(c(-c5c(F)c(F)c(F)c(F)c5F)c5ccc2[nH]5)C=C4)C=C3)cc1
REMARK SMILES IDX 5 1 4 2 3 3 1 4 2 5 26 7 27 8 88 9 28 10 87 11 29 12 30 13
REMARK SMILES IDX 31 14 81 15 32 16 86 17 80 18 82 19 33 20 85 21 79 22 78 23
REMARK SMILES IDX 34 25 66 26 46 27 65 28 47 29 50 30 64 31 83 32 48 33 49 34
REMARK SMILES IDX 63 36 84 37 51 38 35 39 36 40 44 41 37 42 38 43 42 44 45 45
REMARK SMILES IDX 39 46 40 47 43 48 41 49 67 50 68 51 76 52 69 53 70 54 74 55
REMARK SMILES IDX 77 56 71 57 72 58 75 59 73 60 52 61 53 62 61 63 54 64 55 65
REMARK SMILES IDX 59 66 62 67 56 68 57 69 60 70 58 71 6 72 7 73 8 74 9 76
REMARK SMILES IDX 10 77 15 78 18 79 16 80 17 81 11 82 12 85 13 86 14 87 19 88
REMARK SMILES IDX 20 89 21 90 22 91 25 92 23 93 24 94
REMARK H PARENT 3 6 82 24 50 35 7 75 11 83 11 84
REMARK Flexibility Score: inf
ROOT
ATOM      1  C   UNL A   1      33.332  29.215  27.215  1.00  0.00     0.042 C 
ENDROOT
BRANCH   1   2
ATOM      2  C   UNL A   1      34.030  30.670  27.263  1.00  0.00     0.118 C 
BRANCH   2   3
ATOM      3  N   UNL A   1      34.020  31.580  28.433  1.00  0.00    -0.352 N 
ATOM      4  O   UNL A   1      34.640  32.620  30.360  1.00  0.00    -0.269 OA
ATOM      5  C   UNL A   1      34.923  31.868  29.422  1.00  0.00     0.251 C 
ATOM      6  H   UNL A   1      33.181  32.087  28.518  1.00  0.00     0.163 HD
BRANCH   5   7
ATOM      7  C   UNL A   1      36.241  31.267  29.365  1.00  0.00     0.039 A 
ATOM      8  C   UNL A   1      36.323  29.882  29.458  1.00  0.00     0.014 A 
ATOM      9  C   UNL A   1      37.376  32.076  29.264  1.00  0.00     0.014 A 
ATOM     10  C   UNL A   1      37.546  29.316  29.697  1.00  0.00     0.010 A 
ATOM     11  C   UNL A   1      38.622  31.492  29.404  1.00  0.00     0.010 A 
ATOM     12  C   UNL A   1      38.691  30.126  29.677  1.00  0.00    -0.014 A 
BRANCH  12  13
ATOM     13  C   UNL A   1      39.949  29.403  29.697  1.00  0.00     0.031 A 
ATOM     14  C   UNL A   1      40.489  29.253  31.079  1.00  0.00     0.074 A 
ATOM     15  C   UNL A   1      40.531  28.861  28.615  1.00  0.00     0.049 A 
ATOM     16  N   UNL A   1      41.573  29.762  31.567  1.00  0.00    -0.248 NA
ATOM     17  C   UNL A   1      39.608  28.636  32.086  1.00  0.00     0.031 C 
ATOM     18  C   UNL A   1      39.985  28.692  27.271  1.00  0.00     0.029 A 
ATOM     19  N   UNL A   1      41.739  28.248  28.537  1.00  0.00    -0.354 N 
ATOM     20  C   UNL A   1      41.594  29.388  32.909  1.00  0.00     0.074 A 
ATOM     21  C   UNL A   1      40.295  28.845  33.207  1.00  0.00     0.031 C 
ATOM     22  C   UNL A   1      40.754  27.808  26.593  1.00  0.00     0.029 A 
ATOM     23  C   UNL A   1      41.905  27.461  27.411  1.00  0.00     0.049 A 
ATOM     24  H   UNL A   1      42.437  28.353  29.223  1.00  0.00     0.167 HD
ATOM     25  C   UNL A   1      42.756  29.348  33.613  1.00  0.00     0.037 A 
ATOM     26  C   UNL A   1      42.872  26.527  27.236  1.00  0.00     0.037 A 
ATOM     27  C   UNL A   1      43.781  30.131  32.978  1.00  0.00     0.049 A 
ATOM     28  C   UNL A   1      43.959  26.818  28.210  1.00  0.00     0.074 A 
ATOM     29  C   UNL A   1      43.944  31.473  32.696  1.00  0.00     0.029 A 
ATOM     30  N   UNL A   1      44.699  29.470  32.202  1.00  0.00    -0.354 N 
ATOM     31  N   UNL A   1      44.732  27.866  28.142  1.00  0.00    -0.248 NA
ATOM     32  C   UNL A   1      43.885  26.182  29.518  1.00  0.00     0.031 C 
ATOM     33  C   UNL A   1      44.604  31.506  31.432  1.00  0.00     0.029 A 
ATOM     34  C   UNL A   1      44.852  30.188  31.046  1.00  0.00     0.049 A 
ATOM     35  H   UNL A   1      45.163  28.633  32.434  1.00  0.00     0.167 HD
ATOM     36  C   UNL A   1      44.894  28.273  29.459  1.00  0.00     0.074 A 
ATOM     37  C   UNL A   1      44.423  27.150  30.267  1.00  0.00     0.031 C 
ATOM     38  C   UNL A   1      45.122  29.583  29.764  1.00  0.00     0.037 A 
BRANCH  25  39
ATOM     39  C   UNL A   1      43.075  28.287  34.638  1.00  0.00     0.064 A 
ATOM     40  C   UNL A   1      43.456  28.684  35.934  1.00  0.00     0.173 A 
ATOM     41  C   UNL A   1      43.339  26.939  34.311  1.00  0.00     0.173 A 
ATOM     42  F   UNL A   1      43.266  29.946  36.346  1.00  0.00    -0.203 F 
ATOM     43  C   UNL A   1      44.135  27.821  36.799  1.00  0.00     0.198 A 
ATOM     44  C   UNL A   1      43.967  26.067  35.196  1.00  0.00     0.198 A 
ATOM     45  F   UNL A   1      43.111  26.440  33.091  1.00  0.00    -0.203 F 
ATOM     46  F   UNL A   1      44.602  28.283  37.967  1.00  0.00    -0.200 F 
ATOM     47  C   UNL A   1      44.398  26.516  36.425  1.00  0.00     0.200 A 
ATOM     48  F   UNL A   1      44.229  24.812  34.805  1.00  0.00    -0.200 F 
ATOM     49  F   UNL A   1      45.111  25.709  37.220  1.00  0.00    -0.200 F 
ENDBRANCH  25  39
BRANCH  26  50
ATOM     50  C   UNL A   1      42.753  25.219  26.549  1.00  0.00     0.064 A 
ATOM     51  C   UNL A   1      43.552  24.912  25.436  1.00  0.00     0.173 A 
ATOM     52  C   UNL A   1      42.054  24.144  27.133  1.00  0.00     0.173 A 
ATOM     53  F   UNL A   1      44.290  25.867  24.852  1.00  0.00    -0.203 F 
ATOM     54  C   UNL A   1      43.661  23.604  24.950  1.00  0.00     0.198 A 
ATOM     55  C   UNL A   1      42.156  22.842  26.642  1.00  0.00     0.198 A 
ATOM     56  F   UNL A   1      41.334  24.315  28.251  1.00  0.00    -0.203 F 
ATOM     57  F   UNL A   1      44.483  23.339  23.925  1.00  0.00    -0.200 F 
ATOM     58  C   UNL A   1      42.970  22.570  25.560  1.00  0.00     0.200 A 
ATOM     59  F   UNL A   1      41.511  21.845  27.265  1.00  0.00    -0.200 F 
ATOM     60  F   UNL A   1      43.120  21.308  25.132  1.00  0.00    -0.200 F 
ENDBRANCH  26  50
BRANCH  38  61
ATOM     61  C   UNL A   1      45.456  30.514  28.635  1.00  0.00     0.064 A 
ATOM     62  C   UNL A   1      44.494  31.166  27.844  1.00  0.00     0.173 A 
ATOM     63  C   UNL A   1      46.797  30.872  28.447  1.00  0.00     0.173 A 
ATOM     64  F   UNL A   1      43.186  30.960  28.037  1.00  0.00    -0.203 F 
ATOM     65  C   UNL A   1      44.867  32.095  26.874  1.00  0.00     0.198 A 
ATOM     66  C   UNL A   1      47.164  31.829  27.506  1.00  0.00     0.198 A 
ATOM     67  F   UNL A   1      47.751  30.327  29.217  1.00  0.00    -0.203 F 
ATOM     68  F   UNL A   1      43.932  32.697  26.125  1.00  0.00    -0.200 F 
ATOM     69  C   UNL A   1      46.201  32.432  26.712  1.00  0.00     0.200 A 
ATOM     70  F   UNL A   1      48.448  32.191  27.392  1.00  0.00    -0.200 F 
ATOM     71  F   UNL A   1      46.556  33.360  25.814  1.00  0.00    -0.200 F 
ENDBRANCH  38  61
ENDBRANCH  12  13
ENDBRANCH   5   7
ENDBRANCH   2   3
ENDBRANCH   1   2
BRANCH   1  72
ATOM     72  C   UNL A   1      31.813  28.536  27.436  1.00  0.00     0.118 C 
BRANCH  72  73
ATOM     73  N   UNL A   1      31.214  27.117  27.097  1.00  0.00    -0.351 N 
ATOM     74  C   UNL A   1      31.220  25.992  26.229  1.00  0.00     0.281 C 
ATOM     75  H   UNL A   1      30.540  26.928  27.791  1.00  0.00     0.163 HD
ATOM     76  O   UNL A   1      30.278  25.200  26.385  1.00  0.00    -0.268 OA
BRANCH  74  77
ATOM     77  C   UNL A   1      32.348  25.668  25.133  1.00  0.00     0.178 C 
ATOM     78  C   UNL A   1      32.616  24.850  23.814  1.00  0.00     0.079 C 
ATOM     79  C   UNL A   1      32.099  26.945  24.339  1.00  0.00     0.062 C 
ATOM     80  C   UNL A   1      33.684  25.694  23.073  1.00  0.00     0.008 C 
ATOM     81  C   UNL A   1      33.235  27.107  23.332  1.00  0.00     0.011 C 
BRANCH  77  82
ATOM     82  N   UNL A   1      33.492  25.217  25.975  1.00  0.00    -0.331 N 
ATOM     83  H   UNL A   1      33.350  25.576  26.918  1.00  0.00     0.347 HD
ATOM     84  H   UNL A   1      34.333  25.576  25.525  1.00  0.00     0.347 HD
BRANCH  82  85
ATOM     85  C   UNL A   1      33.673  23.704  26.068  1.00  0.00     0.183 C 
ATOM     86  C   UNL A   1      34.317  22.968  27.234  1.00  0.00     0.071 C 
ATOM     87  C   UNL A   1      32.843  22.838  27.002  1.00  0.00     0.071 C 
ENDBRANCH  82  85
ENDBRANCH  77  82
BRANCH  79  88
ATOM     88  C   UNL A   1      30.557  26.836  23.713  1.00  0.00     0.032 C 
BRANCH  88  89
ATOM     89  C   UNL A   1      29.650  28.039  22.835  1.00  0.00     0.123 C 
BRANCH  89  90
ATOM     90  N   UNL A   1      28.896  29.285  23.188  1.00  0.00    -0.337 N 
ATOM     91  C   UNL A   1      29.522  30.456  23.601  1.00  0.00     0.107 A 
ATOM     92  C   UNL A   1      27.569  29.661  23.178  1.00  0.00     0.199 A 
ATOM     93  C   UNL A   1      28.583  31.463  23.539  1.00  0.00     0.130 A 
ATOM     94  N   UNL A   1      27.361  30.952  23.282  1.00  0.00    -0.245 NA
ENDBRANCH  89  90
ENDBRANCH  88  89
ENDBRANCH  79  88
ENDBRANCH  74  77
ENDBRANCH  72  73
ENDBRANCH   1  72
TORSDOF 15
ENDMDL
