MODEL 1
REMARK VINA RESULT:     -11.9      0.000      0.000
REMARK SMILES CCC(CC)(NC(=O)c1ccc(NC(C)=O)cc1)C(=O)NCCCNC(=O)c1ccc(-c2c3nc(c(-c4c(F)c(F)c(F)c(F)c4F)c4ccc([nH]4)c(-c4c(F)c(F)c(F)c(F)c4F)c4nc(c(-c5c(F)c(F)c(F)c(F)c5F)c5ccc2[nH]5)C=C4)C=C3)cc1
REMARK SMILES IDX 22 1 21 2 19 3 20 4 3 6 2 7 1 8 4 9 5 10 6 11 7 12 8 14 9 15
REMARK SMILES IDX 10 16 18 17 11 18 17 19 12 20 13 21 14 22 15 24 16 25 23 26
REMARK SMILES IDX 24 27 25 28 26 29 27 31 28 32 29 33 90 34 30 35 89 36 31 37
REMARK SMILES IDX 32 38 33 39 83 40 34 41 88 42 82 43 84 44 35 45 87 46 81 47
REMARK SMILES IDX 80 48 36 50 68 51 48 52 67 53 49 54 52 55 66 56 85 57 50 58
REMARK SMILES IDX 51 59 65 61 86 62 53 63 37 64 38 65 46 66 39 67 40 68 44 69
REMARK SMILES IDX 47 70 41 71 42 72 45 73 43 74 69 75 70 76 78 77 71 78 72 79
REMARK SMILES IDX 76 80 79 81 73 82 74 83 77 84 75 85 54 86 55 87 63 88 56 89
REMARK SMILES IDX 57 90 61 91 64 92 58 93 59 94 62 95 60 96
REMARK H PARENT 21 5 6 13 13 23 25 30 84 49 52 60
REMARK Flexibility Score: inf
ROOT
ATOM      1  C   UNL A   1      31.442  30.488  25.983  1.00  0.00     0.117 C 
ENDROOT
BRANCH   1   2
ATOM      2  N   UNL A   1      31.004  30.221  24.616  1.00  0.00    -0.354 N 
ATOM      3  C   UNL A   1      31.037  29.131  23.777  1.00  0.00     0.245 C 
ATOM      4  O   UNL A   1      30.431  29.282  22.710  1.00  0.00    -0.272 OA
ATOM      5  H   UNL A   1      30.585  31.007  24.196  1.00  0.00     0.163 HD
BRANCH   3   6
ATOM      6  C   UNL A   1      31.733  27.772  24.145  1.00  0.00     0.118 C 
BRANCH   6   7
ATOM      7  C   UNL A   1      33.261  27.909  24.448  1.00  0.00     0.035 C 
ATOM      8  C   UNL A   1      33.760  27.582  25.851  1.00  0.00     0.007 C 
ENDBRANCH   6   7
BRANCH   6   9
ATOM      9  C   UNL A   1      31.516  26.960  22.817  1.00  0.00     0.035 C 
ATOM     10  C   UNL A   1      32.729  26.482  22.043  1.00  0.00     0.007 C 
ENDBRANCH   6   9
BRANCH   6  11
ATOM     11  N   UNL A   1      31.143  27.044  25.335  1.00  0.00    -0.338 N 
ATOM     12  C   UNL A   1      30.768  25.713  25.564  1.00  0.00     0.252 C 
ATOM     13  H   UNL A   1      30.988  27.630  26.112  1.00  0.00     0.164 HD
ATOM     14  O   UNL A   1      29.802  25.530  26.309  1.00  0.00    -0.269 OA
BRANCH  12  15
ATOM     15  C   UNL A   1      31.512  24.498  25.078  1.00  0.00     0.039 A 
ATOM     16  C   UNL A   1      31.092  23.693  24.008  1.00  0.00     0.016 A 
ATOM     17  C   UNL A   1      32.558  23.994  25.812  1.00  0.00     0.016 A 
ATOM     18  C   UNL A   1      31.732  22.448  23.724  1.00  0.00     0.027 A 
ATOM     19  C   UNL A   1      33.239  22.826  25.527  1.00  0.00     0.027 A 
ATOM     20  C   UNL A   1      32.815  22.018  24.495  1.00  0.00     0.041 A 
BRANCH  20  21
ATOM     21  N   UNL A   1      33.533  20.819  24.407  1.00  0.00    -0.326 N 
ATOM     22  C   UNL A   1      33.167  19.544  24.748  1.00  0.00     0.221 C 
ATOM     23  H   UNL A   1      34.444  20.906  24.045  1.00  0.00     0.169 HD
ATOM     24  C   UNL A   1      34.291  18.561  24.498  1.00  0.00     0.114 C 
ATOM     25  O   UNL A   1      32.081  19.195  25.207  1.00  0.00    -0.275 OA
ENDBRANCH  20  21
ENDBRANCH  12  15
ENDBRANCH   6  11
ENDBRANCH   3   6
ENDBRANCH   1   2
BRANCH   1  26
ATOM     26  C   UNL A   1      31.370  31.917  26.526  1.00  0.00     0.042 C 
BRANCH  26  27
ATOM     27  C   UNL A   1      32.657  32.622  26.949  1.00  0.00     0.118 C 
BRANCH  27  28
ATOM     28  N   UNL A   1      32.464  33.877  27.643  1.00  0.00    -0.352 N 
ATOM     29  C   UNL A   1      33.229  34.472  28.615  1.00  0.00     0.251 C 
ATOM     30  H   UNL A   1      31.662  34.383  27.377  1.00  0.00     0.163 HD
ATOM     31  O   UNL A   1      32.870  35.551  29.078  1.00  0.00    -0.269 OA
BRANCH  29  32
ATOM     32  C   UNL A   1      34.457  33.829  29.143  1.00  0.00     0.039 A 
ATOM     33  C   UNL A   1      34.294  32.762  30.035  1.00  0.00     0.014 A 
ATOM     34  C   UNL A   1      35.743  34.290  28.845  1.00  0.00     0.014 A 
ATOM     35  C   UNL A   1      35.411  32.144  30.604  1.00  0.00     0.010 A 
ATOM     36  C   UNL A   1      36.862  33.637  29.377  1.00  0.00     0.010 A 
ATOM     37  C   UNL A   1      36.708  32.566  30.272  1.00  0.00    -0.014 A 
BRANCH  37  38
ATOM     38  C   UNL A   1      37.890  31.902  30.890  1.00  0.00     0.031 A 
ATOM     39  C   UNL A   1      38.321  32.255  32.288  1.00  0.00     0.074 A 
ATOM     40  C   UNL A   1      38.577  30.972  30.198  1.00  0.00     0.049 A 
ATOM     41  N   UNL A   1      39.302  31.762  33.004  1.00  0.00    -0.248 NA
ATOM     42  C   UNL A   1      37.558  33.311  32.969  1.00  0.00     0.031 C 
ATOM     43  C   UNL A   1      38.285  30.557  28.825  1.00  0.00     0.029 A 
ATOM     44  N   UNL A   1      39.662  30.207  30.552  1.00  0.00    -0.354 N 
ATOM     45  C   UNL A   1      39.276  32.448  34.211  1.00  0.00     0.074 A 
ATOM     46  C   UNL A   1      38.215  33.428  34.113  1.00  0.00     0.031 C 
ATOM     47  C   UNL A   1      39.152  29.598  28.463  1.00  0.00     0.029 A 
ATOM     48  C   UNL A   1      40.081  29.351  29.563  1.00  0.00     0.049 A 
ATOM     49  H   UNL A   1      40.098  30.267  31.433  1.00  0.00     0.167 HD
ATOM     50  C   UNL A   1      40.048  32.265  35.310  1.00  0.00     0.037 A 
ATOM     51  C   UNL A   1      41.099  28.469  29.542  1.00  0.00     0.037 A 
ATOM     52  C   UNL A   1      41.099  31.285  35.413  1.00  0.00     0.049 A 
ATOM     53  C   UNL A   1      41.959  28.302  30.767  1.00  0.00     0.074 A 
ATOM     54  C   UNL A   1      41.906  30.995  36.501  1.00  0.00     0.029 A 
ATOM     55  N   UNL A   1      41.497  30.442  34.386  1.00  0.00    -0.354 N 
ATOM     56  N   UNL A   1      41.874  28.904  31.928  1.00  0.00    -0.248 NA
ATOM     57  C   UNL A   1      43.050  27.321  30.682  1.00  0.00     0.031 C 
ATOM     58  C   UNL A   1      42.826  30.014  36.116  1.00  0.00     0.029 A 
ATOM     59  C   UNL A   1      42.553  29.647  34.808  1.00  0.00     0.049 A 
ATOM     60  H   UNL A   1      41.090  30.410  33.491  1.00  0.00     0.167 HD
ATOM     61  C   UNL A   1      42.874  28.354  32.720  1.00  0.00     0.074 A 
ATOM     62  C   UNL A   1      43.545  27.358  31.911  1.00  0.00     0.031 C 
ATOM     63  C   UNL A   1      43.206  28.648  34.001  1.00  0.00     0.037 A 
BRANCH  50  64
ATOM     64  C   UNL A   1      39.789  33.150  36.497  1.00  0.00     0.064 A 
ATOM     65  C   UNL A   1      40.475  34.362  36.675  1.00  0.00     0.173 A 
ATOM     66  C   UNL A   1      38.816  32.804  37.447  1.00  0.00     0.173 A 
ATOM     67  F   UNL A   1      41.420  34.738  35.800  1.00  0.00    -0.203 F 
ATOM     68  C   UNL A   1      40.221  35.177  37.776  1.00  0.00     0.198 A 
ATOM     69  C   UNL A   1      38.541  33.638  38.530  1.00  0.00     0.198 A 
ATOM     70  F   UNL A   1      38.122  31.664  37.321  1.00  0.00    -0.203 F 
ATOM     71  F   UNL A   1      40.926  36.303  37.951  1.00  0.00    -0.200 F 
ATOM     72  C   UNL A   1      39.250  34.817  38.698  1.00  0.00     0.200 A 
ATOM     73  F   UNL A   1      37.590  33.297  39.411  1.00  0.00    -0.200 F 
ATOM     74  F   UNL A   1      39.001  35.606  39.753  1.00  0.00    -0.200 F 
ENDBRANCH  50  64
BRANCH  51  75
ATOM     75  C   UNL A   1      41.352  27.654  28.324  1.00  0.00     0.064 A 
ATOM     76  C   UNL A   1      40.718  26.418  28.136  1.00  0.00     0.173 A 
ATOM     77  C   UNL A   1      42.246  28.084  27.331  1.00  0.00     0.173 A 
ATOM     78  F   UNL A   1      39.872  25.951  29.067  1.00  0.00    -0.203 F 
ATOM     79  C   UNL A   1      40.985  25.632  27.017  1.00  0.00     0.198 A 
ATOM     80  C   UNL A   1      42.489  27.313  26.197  1.00  0.00     0.198 A 
ATOM     81  F   UNL A   1      42.878  29.260  27.460  1.00  0.00    -0.203 F 
ATOM     82  F   UNL A   1      40.405  24.432  26.888  1.00  0.00    -0.200 F 
ATOM     83  C   UNL A   1      41.866  26.083  26.045  1.00  0.00     0.200 A 
ATOM     84  F   UNL A   1      43.329  27.759  25.254  1.00  0.00    -0.200 F 
ATOM     85  F   UNL A   1      42.121  25.330  24.967  1.00  0.00    -0.200 F 
ENDBRANCH  51  75
BRANCH  63  86
ATOM     86  C   UNL A   1      44.314  27.851  34.630  1.00  0.00     0.064 A 
ATOM     87  C   UNL A   1      45.645  28.294  34.618  1.00  0.00     0.173 A 
ATOM     88  C   UNL A   1      44.032  26.644  35.289  1.00  0.00     0.173 A 
ATOM     89  F   UNL A   1      45.972  29.434  33.990  1.00  0.00    -0.203 F 
ATOM     90  C   UNL A   1      46.656  27.542  35.213  1.00  0.00     0.198 A 
ATOM     91  C   UNL A   1      45.039  25.912  35.911  1.00  0.00     0.198 A 
ATOM     92  F   UNL A   1      42.775  26.178  35.337  1.00  0.00    -0.203 F 
ATOM     93  F   UNL A   1      47.928  27.958  35.143  1.00  0.00    -0.200 F 
ATOM     94  C   UNL A   1      46.351  26.357  35.867  1.00  0.00     0.200 A 
ATOM     95  F   UNL A   1      44.739  24.776  36.556  1.00  0.00    -0.200 F 
ATOM     96  F   UNL A   1      47.324  25.640  36.446  1.00  0.00    -0.200 F 
ENDBRANCH  63  86
ENDBRANCH  37  38
ENDBRANCH  29  32
ENDBRANCH  27  28
ENDBRANCH  26  27
ENDBRANCH   1  26
TORSDOF 15
ENDMDL
MODEL 2
REMARK VINA RESULT:     -11.9      0.907      1.614
REMARK SMILES CCC(CC)(NC(=O)c1ccc(NC(C)=O)cc1)C(=O)NCCCNC(=O)c1ccc(-c2c3nc(c(-c4c(F)c(F)c(F)c(F)c4F)c4ccc([nH]4)c(-c4c(F)c(F)c(F)c(F)c4F)c4nc(c(-c5c(F)c(F)c(F)c(F)c5F)c5ccc2[nH]5)C=C4)C=C3)cc1
REMARK SMILES IDX 22 1 21 2 19 3 20 4 3 6 2 7 1 8 4 9 5 10 6 11 7 12 8 14 9 15
REMARK SMILES IDX 10 16 18 17 11 18 17 19 12 20 13 21 14 22 15 24 16 25 23 26
REMARK SMILES IDX 24 27 25 28 26 29 27 31 28 32 29 33 90 34 30 35 89 36 31 37
REMARK SMILES IDX 32 38 33 39 83 40 34 41 88 42 82 43 84 44 35 45 87 46 81 47
REMARK SMILES IDX 80 48 36 50 68 51 48 52 67 53 49 54 52 55 66 56 85 57 50 58
REMARK SMILES IDX 51 59 65 61 86 62 53 63 37 64 38 65 46 66 39 67 40 68 44 69
REMARK SMILES IDX 47 70 41 71 42 72 45 73 43 74 69 75 70 76 78 77 71 78 72 79
REMARK SMILES IDX 76 80 79 81 73 82 74 83 77 84 75 85 54 86 55 87 63 88 56 89
REMARK SMILES IDX 57 90 61 91 64 92 58 93 59 94 62 95 60 96
REMARK H PARENT 21 5 6 13 13 23 25 30 84 49 52 60
REMARK Flexibility Score: inf
ROOT
ATOM      1  C   UNL A   1      31.390  30.496  25.869  1.00  0.00     0.117 C 
ENDROOT
BRANCH   1   2
ATOM      2  N   UNL A   1      30.872  30.290  24.519  1.00  0.00    -0.354 N 
ATOM      3  C   UNL A   1      30.924  29.267  23.601  1.00  0.00     0.245 C 
ATOM      4  O   UNL A   1      30.230  29.441  22.593  1.00  0.00    -0.272 OA
ATOM      5  H   UNL A   1      30.365  31.067  24.189  1.00  0.00     0.163 HD
BRANCH   3   6
ATOM      6  C   UNL A   1      31.746  27.945  23.817  1.00  0.00     0.118 C 
BRANCH   6   7
ATOM      7  C   UNL A   1      32.335  27.348  22.499  1.00  0.00     0.035 C 
ATOM      8  C   UNL A   1      33.708  27.818  22.032  1.00  0.00     0.007 C 
ENDBRANCH   6   7
BRANCH   6   9
ATOM      9  C   UNL A   1      30.634  26.996  24.391  1.00  0.00     0.035 C 
ATOM     10  C   UNL A   1      30.395  25.657  23.722  1.00  0.00     0.007 C 
ENDBRANCH   6   9
BRANCH   6  11
ATOM     11  N   UNL A   1      32.915  28.061  24.774  1.00  0.00    -0.338 N 
ATOM     12  C   UNL A   1      33.515  27.173  25.678  1.00  0.00     0.252 C 
ATOM     13  H   UNL A   1      33.344  28.948  24.758  1.00  0.00     0.164 HD
ATOM     14  O   UNL A   1      33.984  27.663  26.707  1.00  0.00    -0.269 OA
BRANCH  12  15
ATOM     15  C   UNL A   1      33.737  25.702  25.443  1.00  0.00     0.039 A 
ATOM     16  C   UNL A   1      34.488  25.180  24.378  1.00  0.00     0.016 A 
ATOM     17  C   UNL A   1      33.026  24.776  26.165  1.00  0.00     0.016 A 
ATOM     18  C   UNL A   1      34.497  23.780  24.097  1.00  0.00     0.027 A 
ATOM     19  C   UNL A   1      33.062  23.410  25.959  1.00  0.00     0.027 A 
ATOM     20  C   UNL A   1      33.774  22.893  24.900  1.00  0.00     0.041 A 
BRANCH  20  21
ATOM     21  N   UNL A   1      33.619  21.509  24.757  1.00  0.00    -0.326 N 
ATOM     22  C   UNL A   1      34.524  20.496  24.937  1.00  0.00     0.221 C 
ATOM     23  H   UNL A   1      32.719  21.218  24.485  1.00  0.00     0.169 HD
ATOM     24  C   UNL A   1      33.906  19.146  24.640  1.00  0.00     0.114 C 
ATOM     25  O   UNL A   1      35.696  20.619  25.283  1.00  0.00    -0.275 OA
ENDBRANCH  20  21
ENDBRANCH  12  15
ENDBRANCH   6  11
ENDBRANCH   3   6
ENDBRANCH   1   2
BRANCH   1  26
ATOM     26  C   UNL A   1      31.321  31.894  26.491  1.00  0.00     0.042 C 
BRANCH  26  27
ATOM     27  C   UNL A   1      32.610  32.570  26.952  1.00  0.00     0.118 C 
BRANCH  27  28
ATOM     28  N   UNL A   1      32.427  33.849  27.605  1.00  0.00    -0.352 N 
ATOM     29  C   UNL A   1      33.200  34.471  28.553  1.00  0.00     0.251 C 
ATOM     30  H   UNL A   1      31.626  34.348  27.327  1.00  0.00     0.163 HD
ATOM     31  O   UNL A   1      32.848  35.566  28.982  1.00  0.00    -0.269 OA
BRANCH  29  32
ATOM     32  C   UNL A   1      34.428  33.840  29.095  1.00  0.00     0.039 A 
ATOM     33  C   UNL A   1      34.265  32.781  29.996  1.00  0.00     0.014 A 
ATOM     34  C   UNL A   1      35.714  34.306  28.802  1.00  0.00     0.014 A 
ATOM     35  C   UNL A   1      35.381  32.174  30.578  1.00  0.00     0.010 A 
ATOM     36  C   UNL A   1      36.833  33.664  29.347  1.00  0.00     0.010 A 
ATOM     37  C   UNL A   1      36.678  32.601  30.251  1.00  0.00    -0.014 A 
BRANCH  37  38
ATOM     38  C   UNL A   1      37.860  31.949  30.883  1.00  0.00     0.031 A 
ATOM     39  C   UNL A   1      38.282  32.321  32.280  1.00  0.00     0.074 A 
ATOM     40  C   UNL A   1      38.554  31.014  30.206  1.00  0.00     0.049 A 
ATOM     41  N   UNL A   1      39.262  31.841  33.007  1.00  0.00    -0.248 NA
ATOM     42  C   UNL A   1      37.511  33.382  32.943  1.00  0.00     0.031 C 
ATOM     43  C   UNL A   1      38.271  30.581  28.837  1.00  0.00     0.029 A 
ATOM     44  N   UNL A   1      39.641  30.258  30.575  1.00  0.00    -0.354 N 
ATOM     45  C   UNL A   1      39.226  32.542  34.205  1.00  0.00     0.074 A 
ATOM     46  C   UNL A   1      38.161  33.516  34.090  1.00  0.00     0.031 C 
ATOM     47  C   UNL A   1      39.144  29.621  28.491  1.00  0.00     0.029 A 
ATOM     48  C   UNL A   1      40.068  29.392  29.599  1.00  0.00     0.049 A 
ATOM     49  H   UNL A   1      40.072  30.331  31.458  1.00  0.00     0.167 HD
ATOM     50  C   UNL A   1      39.993  32.376  35.310  1.00  0.00     0.037 A 
ATOM     51  C   UNL A   1      41.090  28.514  29.594  1.00  0.00     0.037 A 
ATOM     52  C   UNL A   1      41.047  31.402  35.431  1.00  0.00     0.049 A 
ATOM     53  C   UNL A   1      41.945  28.366  30.826  1.00  0.00     0.074 A 
ATOM     54  C   UNL A   1      41.850  31.128  36.526  1.00  0.00     0.029 A 
ATOM     55  N   UNL A   1      41.455  30.547  34.416  1.00  0.00    -0.354 N 
ATOM     56  N   UNL A   1      41.851  28.982  31.978  1.00  0.00    -0.248 NA
ATOM     57  C   UNL A   1      43.040  27.388  30.758  1.00  0.00     0.031 C 
ATOM     58  C   UNL A   1      42.776  30.147  36.157  1.00  0.00     0.029 A 
ATOM     59  C   UNL A   1      42.511  29.763  34.853  1.00  0.00     0.049 A 
ATOM     60  H   UNL A   1      41.052  30.503  33.519  1.00  0.00     0.167 HD
ATOM     61  C   UNL A   1      42.849  28.446  32.782  1.00  0.00     0.074 A 
ATOM     62  C   UNL A   1      43.528  27.443  31.989  1.00  0.00     0.031 C 
ATOM     63  C   UNL A   1      43.173  28.757  34.061  1.00  0.00     0.037 A 
BRANCH  50  64
ATOM     64  C   UNL A   1      39.724  33.274  36.485  1.00  0.00     0.064 A 
ATOM     65  C   UNL A   1      40.392  34.499  36.643  1.00  0.00     0.173 A 
ATOM     66  C   UNL A   1      38.759  32.928  37.442  1.00  0.00     0.173 A 
ATOM     67  F   UNL A   1      41.330  34.876  35.760  1.00  0.00    -0.203 F 
ATOM     68  C   UNL A   1      40.129  35.325  37.733  1.00  0.00     0.198 A 
ATOM     69  C   UNL A   1      38.475  33.772  38.514  1.00  0.00     0.198 A 
ATOM     70  F   UNL A   1      38.081  31.775  37.335  1.00  0.00    -0.203 F 
ATOM     71  F   UNL A   1      40.818  36.464  37.889  1.00  0.00    -0.200 F 
ATOM     72  C   UNL A   1      39.166  34.964  38.663  1.00  0.00     0.200 A 
ATOM     73  F   UNL A   1      37.531  33.431  39.403  1.00  0.00    -0.200 F 
ATOM     74  F   UNL A   1      38.909  35.765  39.707  1.00  0.00    -0.200 F 
ENDBRANCH  50  64
BRANCH  51  75
ATOM     75  C   UNL A   1      41.354  27.685  28.388  1.00  0.00     0.064 A 
ATOM     76  C   UNL A   1      42.270  28.100  27.411  1.00  0.00     0.173 A 
ATOM     77  C   UNL A   1      40.682  26.471  28.176  1.00  0.00     0.173 A 
ATOM     78  F   UNL A   1      42.922  29.264  27.556  1.00  0.00    -0.203 F 
ATOM     79  C   UNL A   1      42.488  27.346  26.260  1.00  0.00     0.198 A 
ATOM     80  C   UNL A   1      40.923  25.703  27.040  1.00  0.00     0.198 A 
ATOM     81  F   UNL A   1      39.796  26.027  29.080  1.00  0.00    -0.203 F 
ATOM     82  F   UNL A   1      43.332  27.791  25.319  1.00  0.00    -0.200 F 
ATOM     83  C   UNL A   1      41.820  26.145  26.077  1.00  0.00     0.200 A 
ATOM     84  F   UNL A   1      40.286  24.536  26.875  1.00  0.00    -0.200 F 
ATOM     85  F   UNL A   1      42.031  25.418  24.972  1.00  0.00    -0.200 F 
ENDBRANCH  51  75
BRANCH  63  86
ATOM     86  C   UNL A   1      44.281  27.972  34.706  1.00  0.00     0.064 A 
ATOM     87  C   UNL A   1      45.617  28.400  34.659  1.00  0.00     0.173 A 
ATOM     88  C   UNL A   1      43.995  26.794  35.414  1.00  0.00     0.173 A 
ATOM     89  F   UNL A   1      45.947  29.511  33.984  1.00  0.00    -0.203 F 
ATOM     90  C   UNL A   1      46.627  27.660  35.269  1.00  0.00     0.198 A 
ATOM     91  C   UNL A   1      45.003  26.076  36.051  1.00  0.00     0.198 A 
ATOM     92  F   UNL A   1      42.734  26.344  35.497  1.00  0.00    -0.203 F 
ATOM     93  F   UNL A   1      47.903  28.059  35.166  1.00  0.00    -0.200 F 
ATOM     94  C   UNL A   1      46.318  26.504  35.972  1.00  0.00     0.200 A 
ATOM     95  F   UNL A   1      44.700  24.968  36.743  1.00  0.00    -0.200 F 
ATOM     96  F   UNL A   1      47.292  25.799  36.565  1.00  0.00    -0.200 F 
ENDBRANCH  63  86
ENDBRANCH  37  38
ENDBRANCH  29  32
ENDBRANCH  27  28
ENDBRANCH  26  27
ENDBRANCH   1  26
TORSDOF 15
ENDMDL
MODEL 3
REMARK VINA RESULT:     -11.7      3.079      4.573
REMARK SMILES CCC(CC)(NC(=O)c1ccc(NC(C)=O)cc1)C(=O)NCCCNC(=O)c1ccc(-c2c3nc(c(-c4c(F)c(F)c(F)c(F)c4F)c4ccc([nH]4)c(-c4c(F)c(F)c(F)c(F)c4F)c4nc(c(-c5c(F)c(F)c(F)c(F)c5F)c5ccc2[nH]5)C=C4)C=C3)cc1
REMARK SMILES IDX 22 1 21 2 19 3 20 4 3 6 2 7 1 8 4 9 5 10 6 11 7 12 8 14 9 15
REMARK SMILES IDX 10 16 18 17 11 18 17 19 12 20 13 21 14 22 15 24 16 25 23 26
REMARK SMILES IDX 24 27 25 28 26 29 27 31 28 32 29 33 90 34 30 35 89 36 31 37
REMARK SMILES IDX 32 38 33 39 83 40 34 41 88 42 82 43 84 44 35 45 87 46 81 47
REMARK SMILES IDX 80 48 36 50 68 51 48 52 67 53 49 54 52 55 66 56 85 57 50 58
REMARK SMILES IDX 51 59 65 61 86 62 53 63 37 64 38 65 46 66 39 67 40 68 44 69
REMARK SMILES IDX 47 70 41 71 42 72 45 73 43 74 69 75 70 76 78 77 71 78 72 79
REMARK SMILES IDX 76 80 79 81 73 82 74 83 77 84 75 85 54 86 55 87 63 88 56 89
REMARK SMILES IDX 57 90 61 91 64 92 58 93 59 94 62 95 60 96
REMARK H PARENT 21 5 6 13 13 23 25 30 84 49 52 60
REMARK Flexibility Score: inf
ROOT
ATOM      1  C   UNL A   1      33.710  26.413  25.058  1.00  0.00     0.117 C 
ENDROOT
BRANCH   1   2
ATOM      2  N   UNL A   1      33.539  25.364  26.059  1.00  0.00    -0.354 N 
ATOM      3  C   UNL A   1      32.604  24.381  26.291  1.00  0.00     0.245 C 
ATOM      4  O   UNL A   1      32.896  23.593  27.198  1.00  0.00    -0.272 OA
ATOM      5  H   UNL A   1      34.264  25.358  26.726  1.00  0.00     0.163 HD
BRANCH   3   6
ATOM      6  C   UNL A   1      31.289  24.216  25.448  1.00  0.00     0.118 C 
BRANCH   6   7
ATOM      7  C   UNL A   1      30.253  25.367  25.665  1.00  0.00     0.035 C 
ATOM      8  C   UNL A   1      29.971  26.323  24.513  1.00  0.00     0.007 C 
ENDBRANCH   6   7
BRANCH   6   9
ATOM      9  C   UNL A   1      30.730  22.869  26.033  1.00  0.00     0.035 C 
ATOM     10  C   UNL A   1      29.640  22.922  27.085  1.00  0.00     0.007 C 
ENDBRANCH   6   9
BRANCH   6  11
ATOM     11  N   UNL A   1      31.489  24.122  23.950  1.00  0.00    -0.338 N 
ATOM     12  C   UNL A   1      32.384  23.410  23.138  1.00  0.00     0.252 C 
ATOM     13  H   UNL A   1      30.860  24.680  23.437  1.00  0.00     0.164 HD
ATOM     14  O   UNL A   1      32.736  23.957  22.091  1.00  0.00    -0.269 OA
BRANCH  12  15
ATOM     15  C   UNL A   1      32.851  21.999  23.379  1.00  0.00     0.039 A 
ATOM     16  C   UNL A   1      32.129  20.856  23.004  1.00  0.00     0.016 A 
ATOM     17  C   UNL A   1      33.941  21.764  24.181  1.00  0.00     0.016 A 
ATOM     18  C   UNL A   1      32.529  19.555  23.435  1.00  0.00     0.027 A 
ATOM     19  C   UNL A   1      34.391  20.515  24.564  1.00  0.00     0.027 A 
ATOM     20  C   UNL A   1      33.672  19.391  24.222  1.00  0.00     0.041 A 
BRANCH  20  21
ATOM     21  N   UNL A   1      34.192  18.217  24.780  1.00  0.00    -0.326 N 
ATOM     22  C   UNL A   1      34.405  16.989  24.210  1.00  0.00     0.221 C 
ATOM     23  H   UNL A   1      34.443  18.283  25.729  1.00  0.00     0.169 HD
ATOM     24  C   UNL A   1      34.966  16.005  25.215  1.00  0.00     0.114 C 
ATOM     25  O   UNL A   1      34.178  16.677  23.044  1.00  0.00    -0.275 OA
ENDBRANCH  20  21
ENDBRANCH  12  15
ENDBRANCH   6  11
ENDBRANCH   3   6
ENDBRANCH   1   2
BRANCH   1  26
ATOM     26  C   UNL A   1      33.732  27.877  25.505  1.00  0.00     0.042 C 
BRANCH  26  27
ATOM     27  C   UNL A   1      33.815  28.202  26.995  1.00  0.00     0.118 C 
BRANCH  27  28
ATOM     28  N   UNL A   1      33.574  29.589  27.329  1.00  0.00    -0.352 N 
ATOM     29  C   UNL A   1      34.396  30.502  27.941  1.00  0.00     0.251 C 
ATOM     30  H   UNL A   1      32.685  29.931  27.080  1.00  0.00     0.163 HD
ATOM     31  O   UNL A   1      33.978  31.640  28.138  1.00  0.00    -0.269 OA
BRANCH  29  32
ATOM     32  C   UNL A   1      35.758  30.140  28.400  1.00  0.00     0.039 A 
ATOM     33  C   UNL A   1      36.812  30.317  27.496  1.00  0.00     0.014 A 
ATOM     34  C   UNL A   1      36.011  29.570  29.652  1.00  0.00     0.014 A 
ATOM     35  C   UNL A   1      38.113  29.951  27.851  1.00  0.00     0.010 A 
ATOM     36  C   UNL A   1      37.323  29.252  30.025  1.00  0.00     0.010 A 
ATOM     37  C   UNL A   1      38.386  29.426  29.124  1.00  0.00    -0.014 A 
BRANCH  37  38
ATOM     38  C   UNL A   1      39.777  29.035  29.488  1.00  0.00     0.031 A 
ATOM     39  C   UNL A   1      40.594  29.893  30.418  1.00  0.00     0.074 A 
ATOM     40  C   UNL A   1      40.309  27.902  28.990  1.00  0.00     0.049 A 
ATOM     41  N   UNL A   1      41.808  29.700  30.874  1.00  0.00    -0.248 NA
ATOM     42  C   UNL A   1      39.970  31.139  30.887  1.00  0.00     0.031 C 
ATOM     43  C   UNL A   1      39.638  26.996  28.057  1.00  0.00     0.029 A 
ATOM     44  N   UNL A   1      41.536  27.318  29.196  1.00  0.00    -0.354 N 
ATOM     45  C   UNL A   1      42.092  30.798  31.675  1.00  0.00     0.074 A 
ATOM     46  C   UNL A   1      40.945  31.678  31.604  1.00  0.00     0.031 C 
ATOM     47  C   UNL A   1      40.450  25.960  27.792  1.00  0.00     0.029 A 
ATOM     48  C   UNL A   1      41.710  26.143  28.508  1.00  0.00     0.049 A 
ATOM     49  H   UNL A   1      42.225  27.707  29.784  1.00  0.00     0.167 HD
ATOM     50  C   UNL A   1      43.197  31.041  32.422  1.00  0.00     0.037 A 
ATOM     51  C   UNL A   1      42.766  25.307  28.456  1.00  0.00     0.037 A 
ATOM     52  C   UNL A   1      44.335  30.163  32.503  1.00  0.00     0.049 A 
ATOM     53  C   UNL A   1      43.993  25.613  29.276  1.00  0.00     0.074 A 
ATOM     54  C   UNL A   1      45.483  30.302  33.266  1.00  0.00     0.029 A 
ATOM     55  N   UNL A   1      44.477  28.984  31.784  1.00  0.00    -0.354 N 
ATOM     56  N   UNL A   1      44.218  26.616  30.089  1.00  0.00    -0.248 NA
ATOM     57  C   UNL A   1      45.108  24.661  29.180  1.00  0.00     0.031 C 
ATOM     58  C   UNL A   1      46.339  29.237  32.971  1.00  0.00     0.029 A 
ATOM     59  C   UNL A   1      45.702  28.400  32.070  1.00  0.00     0.049 A 
ATOM     60  H   UNL A   1      43.807  28.617  31.163  1.00  0.00     0.167 HD
ATOM     61  C   UNL A   1      45.481  26.400  30.625  1.00  0.00     0.074 A 
ATOM     62  C   UNL A   1      45.967  25.161  30.056  1.00  0.00     0.031 C 
ATOM     63  C   UNL A   1      46.173  27.159  31.509  1.00  0.00     0.037 A 
BRANCH  50  64
ATOM     64  C   UNL A   1      43.233  32.318  33.215  1.00  0.00     0.064 A 
ATOM     65  C   UNL A   1      42.743  32.382  34.529  1.00  0.00     0.173 A 
ATOM     66  C   UNL A   1      43.800  33.481  32.672  1.00  0.00     0.173 A 
ATOM     67  F   UNL A   1      42.184  31.301  35.095  1.00  0.00    -0.203 F 
ATOM     68  C   UNL A   1      42.788  33.569  35.256  1.00  0.00     0.198 A 
ATOM     69  C   UNL A   1      43.873  34.658  33.413  1.00  0.00     0.198 A 
ATOM     70  F   UNL A   1      44.294  33.474  31.425  1.00  0.00    -0.203 F 
ATOM     71  F   UNL A   1      42.266  33.618  36.489  1.00  0.00    -0.200 F 
ATOM     72  C   UNL A   1      43.359  34.704  34.699  1.00  0.00     0.200 A 
ATOM     73  F   UNL A   1      44.441  35.749  32.881  1.00  0.00    -0.200 F 
ATOM     74  F   UNL A   1      43.409  35.844  35.403  1.00  0.00    -0.200 F 
ENDBRANCH  50  64
BRANCH  51  75
ATOM     75  C   UNL A   1      42.707  24.084  27.613  1.00  0.00     0.064 A 
ATOM     76  C   UNL A   1      42.317  22.851  28.155  1.00  0.00     0.173 A 
ATOM     77  C   UNL A   1      43.055  24.117  26.255  1.00  0.00     0.173 A 
ATOM     78  F   UNL A   1      41.995  22.762  29.454  1.00  0.00    -0.203 F 
ATOM     79  C   UNL A   1      42.300  21.695  27.377  1.00  0.00     0.198 A 
ATOM     80  C   UNL A   1      43.008  22.966  25.470  1.00  0.00     0.198 A 
ATOM     81  F   UNL A   1      43.433  25.272  25.686  1.00  0.00    -0.203 F 
ATOM     82  F   UNL A   1      41.973  20.520  27.933  1.00  0.00    -0.200 F 
ATOM     83  C   UNL A   1      42.640  21.754  26.034  1.00  0.00     0.200 A 
ATOM     84  F   UNL A   1      43.323  23.032  24.170  1.00  0.00    -0.200 F 
ATOM     85  F   UNL A   1      42.621  20.643  25.285  1.00  0.00    -0.200 F 
ENDBRANCH  51  75
BRANCH  63  86
ATOM     86  C   UNL A   1      47.516  26.651  31.957  1.00  0.00     0.064 A 
ATOM     87  C   UNL A   1      48.704  27.029  31.314  1.00  0.00     0.173 A 
ATOM     88  C   UNL A   1      47.615  25.802  33.071  1.00  0.00     0.173 A 
ATOM     89  F   UNL A   1      48.664  27.827  30.236  1.00  0.00    -0.203 F 
ATOM     90  C   UNL A   1      49.937  26.551  31.750  1.00  0.00     0.198 A 
ATOM     91  C   UNL A   1      48.852  25.353  33.524  1.00  0.00     0.198 A 
ATOM     92  F   UNL A   1      46.511  25.415  33.727  1.00  0.00    -0.203 F 
ATOM     93  F   UNL A   1      51.055  26.882  31.088  1.00  0.00    -0.200 F 
ATOM     94  C   UNL A   1      50.011  25.721  32.860  1.00  0.00     0.200 A 
ATOM     95  F   UNL A   1      48.922  24.565  34.606  1.00  0.00    -0.200 F 
ATOM     96  F   UNL A   1      51.200  25.269  33.282  1.00  0.00    -0.200 F 
ENDBRANCH  63  86
ENDBRANCH  37  38
ENDBRANCH  29  32
ENDBRANCH  27  28
ENDBRANCH  26  27
ENDBRANCH   1  26
TORSDOF 15
ENDMDL
