MODEL 1
REMARK VINA RESULT:     -13.2      0.000      0.000
REMARK SMILES O=C(NCCCNC(=O)c1cccc(F)c1N1CCN2C(=O)NC[C@@H]2C1)c1ccc(-c2c3nc(c(-c4c(F)c(F)c(F)c(F)c4F)c4ccc([nH]4)c(-c4c(F)c(F)c(F)c(F)c4F)c4nc(c(-c5c(F)c(F)c(F)c(F)c5F)c5ccc2[nH]5)C=C4)C=C3)cc1
REMARK SMILES IDX 4 1 3 2 1 3 2 4 27 6 28 7 89 8 29 9 88 10 30 11 31 12 32 13
REMARK SMILES IDX 82 14 33 15 87 16 81 17 83 18 34 19 86 20 80 21 79 22 35 24
REMARK SMILES IDX 67 25 47 26 66 27 48 28 51 29 65 30 84 31 49 32 50 33 64 35
REMARK SMILES IDX 85 36 52 37 36 38 37 39 45 40 38 41 39 42 43 43 46 44 40 45
REMARK SMILES IDX 41 46 44 47 42 48 68 49 69 50 77 51 70 52 71 53 75 54 78 55
REMARK SMILES IDX 72 56 73 57 76 58 74 59 53 60 54 61 62 62 55 63 56 64 60 65
REMARK SMILES IDX 63 66 57 67 58 68 61 69 59 70 5 71 6 72 7 73 8 74 9 76 10 77
REMARK SMILES IDX 11 78 16 79 12 80 14 81 13 82 15 83 17 84 18 85 26 86 19 87
REMARK SMILES IDX 25 88 20 89 24 90 21 91 23 92 22 93
REMARK H PARENT 3 5 83 23 51 34 7 75 23 94
REMARK Flexibility Score: inf
ROOT
ATOM      1  C   UNL A   1      32.134  30.587  26.848  1.00  0.00     0.118 C 
ENDROOT
BRANCH   1   2
ATOM      2  N   UNL A   1      32.144  32.043  26.944  1.00  0.00    -0.352 N 
ATOM      3  O   UNL A   1      32.768  34.095  27.634  1.00  0.00    -0.269 OA
ATOM      4  C   UNL A   1      33.036  32.900  27.545  1.00  0.00     0.251 C 
ATOM      5  H   UNL A   1      31.383  32.487  26.505  1.00  0.00     0.163 HD
BRANCH   4   6
ATOM      6  C   UNL A   1      34.299  32.387  28.117  1.00  0.00     0.039 A 
ATOM      7  C   UNL A   1      34.386  31.080  28.591  1.00  0.00     0.014 A 
ATOM      8  C   UNL A   1      35.416  33.226  28.183  1.00  0.00     0.014 A 
ATOM      9  C   UNL A   1      35.497  30.685  29.322  1.00  0.00     0.010 A 
ATOM     10  C   UNL A   1      36.588  32.778  28.803  1.00  0.00     0.010 A 
ATOM     11  C   UNL A   1      36.622  31.520  29.421  1.00  0.00    -0.014 A 
BRANCH  11  12
ATOM     12  C   UNL A   1      37.828  31.018  30.129  1.00  0.00     0.031 A 
ATOM     13  C   UNL A   1      38.095  31.364  31.567  1.00  0.00     0.074 A 
ATOM     14  C   UNL A   1      38.661  30.189  29.469  1.00  0.00     0.049 A 
ATOM     15  N   UNL A   1      39.077  30.967  32.339  1.00  0.00    -0.248 NA
ATOM     16  C   UNL A   1      37.150  32.276  32.225  1.00  0.00     0.031 C 
ATOM     17  C   UNL A   1      38.504  29.787  28.069  1.00  0.00     0.029 A 
ATOM     18  N   UNL A   1      39.777  29.511  29.885  1.00  0.00    -0.354 N 
ATOM     19  C   UNL A   1      38.873  31.586  33.565  1.00  0.00     0.074 A 
ATOM     20  C   UNL A   1      37.697  32.419  33.424  1.00  0.00     0.031 C 
ATOM     21  C   UNL A   1      39.442  28.880  27.764  1.00  0.00     0.029 A 
ATOM     22  C   UNL A   1      40.317  28.701  28.917  1.00  0.00     0.049 A 
ATOM     23  H   UNL A   1      40.156  29.598  30.789  1.00  0.00     0.167 HD
ATOM     24  C   UNL A   1      39.593  31.456  34.705  1.00  0.00     0.037 A 
ATOM     25  C   UNL A   1      41.404  27.909  28.941  1.00  0.00     0.037 A 
ATOM     26  C   UNL A   1      40.761  30.621  34.836  1.00  0.00     0.049 A 
ATOM     27  C   UNL A   1      42.213  27.822  30.202  1.00  0.00     0.074 A 
ATOM     28  C   UNL A   1      41.550  30.414  35.954  1.00  0.00     0.029 A 
ATOM     29  N   UNL A   1      41.312  29.860  33.814  1.00  0.00    -0.354 N 
ATOM     30  N   UNL A   1      42.000  28.400  31.358  1.00  0.00    -0.248 NA
ATOM     31  C   UNL A   1      43.413  26.978  30.161  1.00  0.00     0.031 C 
ATOM     32  C   UNL A   1      42.611  29.577  35.593  1.00  0.00     0.029 A 
ATOM     33  C   UNL A   1      42.445  29.202  34.269  1.00  0.00     0.049 A 
ATOM     34  H   UNL A   1      40.950  29.797  32.900  1.00  0.00     0.167 HD
ATOM     35  C   UNL A   1      43.027  27.979  32.189  1.00  0.00     0.074 A 
ATOM     36  C   UNL A   1      43.853  27.080  31.408  1.00  0.00     0.031 C 
ATOM     37  C   UNL A   1      43.262  28.311  33.483  1.00  0.00     0.037 A 
BRANCH  24  38
ATOM     38  C   UNL A   1      39.151  32.244  35.909  1.00  0.00     0.064 A 
ATOM     39  C   UNL A   1      39.649  33.536  36.138  1.00  0.00     0.173 A 
ATOM     40  C   UNL A   1      38.286  31.699  36.870  1.00  0.00     0.173 A 
ATOM     41  F   UNL A   1      40.487  34.105  35.258  1.00  0.00    -0.203 F 
ATOM     42  C   UNL A   1      39.306  34.247  37.286  1.00  0.00     0.198 A 
ATOM     43  C   UNL A   1      37.917  32.426  38.000  1.00  0.00     0.198 A 
ATOM     44  F   UNL A   1      37.772  30.472  36.698  1.00  0.00    -0.203 F 
ATOM     45  F   UNL A   1      39.822  35.466  37.497  1.00  0.00    -0.200 F 
ATOM     46  C   UNL A   1      38.436  33.694  38.213  1.00  0.00     0.200 A 
ATOM     47  F   UNL A   1      37.054  31.900  38.880  1.00  0.00    -0.200 F 
ATOM     48  F   UNL A   1      38.092  34.386  39.308  1.00  0.00    -0.200 F 
ENDBRANCH  24  38
BRANCH  25  49
ATOM     49  C   UNL A   1      41.761  27.133  27.726  1.00  0.00     0.064 A 
ATOM     50  C   UNL A   1      41.265  25.836  27.521  1.00  0.00     0.173 A 
ATOM     51  C   UNL A   1      42.664  27.642  26.785  1.00  0.00     0.173 A 
ATOM     52  F   UNL A   1      40.406  25.298  28.400  1.00  0.00    -0.203 F 
ATOM     53  C   UNL A   1      41.687  25.065  26.441  1.00  0.00     0.198 A 
ATOM     54  C   UNL A   1      43.062  26.883  25.687  1.00  0.00     0.198 A 
ATOM     55  F   UNL A   1      43.154  28.882  26.931  1.00  0.00    -0.203 F 
ATOM     56  F   UNL A   1      41.243  23.809  26.302  1.00  0.00    -0.200 F 
ATOM     57  C   UNL A   1      42.584  25.591  25.523  1.00  0.00     0.200 A 
ATOM     58  F   UNL A   1      43.913  27.400  24.791  1.00  0.00    -0.200 F 
ATOM     59  F   UNL A   1      42.991  24.851  24.483  1.00  0.00    -0.200 F 
ENDBRANCH  25  49
BRANCH  37  60
ATOM     60  C   UNL A   1      44.449  27.681  34.155  1.00  0.00     0.064 A 
ATOM     61  C   UNL A   1      44.318  26.450  34.815  1.00  0.00     0.173 A 
ATOM     62  C   UNL A   1      45.694  28.323  34.205  1.00  0.00     0.173 A 
ATOM     63  F   UNL A   1      43.146  25.797  34.804  1.00  0.00    -0.203 F 
ATOM     64  C   UNL A   1      45.385  25.894  35.515  1.00  0.00     0.198 A 
ATOM     65  C   UNL A   1      46.770  27.747  34.877  1.00  0.00     0.198 A 
ATOM     66  F   UNL A   1      45.877  29.495  33.577  1.00  0.00    -0.203 F 
ATOM     67  F   UNL A   1      45.223  24.736  36.172  1.00  0.00    -0.200 F 
ATOM     68  C   UNL A   1      46.611  26.539  35.541  1.00  0.00     0.200 A 
ATOM     69  F   UNL A   1      47.962  28.358  34.876  1.00  0.00    -0.200 F 
ATOM     70  F   UNL A   1      47.642  25.997  36.202  1.00  0.00    -0.200 F 
ENDBRANCH  37  60
ENDBRANCH  11  12
ENDBRANCH   4   6
ENDBRANCH   1   2
BRANCH   1  71
ATOM     71  C   UNL A   1      32.721  30.063  25.548  1.00  0.00     0.042 C 
BRANCH  71  72
ATOM     72  C   UNL A   1      33.325  28.675  25.657  1.00  0.00     0.118 C 
BRANCH  72  73
ATOM     73  N   UNL A   1      32.487  27.753  26.409  1.00  0.00    -0.352 N 
ATOM     74  C   UNL A   1      32.234  26.413  26.224  1.00  0.00     0.253 C 
ATOM     75  H   UNL A   1      32.024  28.155  27.179  1.00  0.00     0.163 HD
ATOM     76  O   UNL A   1      31.459  25.855  26.995  1.00  0.00    -0.269 OA
BRANCH  74  77
ATOM     77  C   UNL A   1      32.910  25.673  25.131  1.00  0.00     0.066 A 
ATOM     78  C   UNL A   1      34.012  24.872  25.496  1.00  0.00     0.016 A 
ATOM     79  C   UNL A   1      32.421  25.678  23.805  1.00  0.00     0.086 A 
ATOM     80  C   UNL A   1      34.731  24.167  24.538  1.00  0.00     0.004 A 
ATOM     81  C   UNL A   1      33.174  24.940  22.868  1.00  0.00     0.147 A 
ATOM     82  C   UNL A   1      34.318  24.217  23.214  1.00  0.00     0.041 A 
ATOM     83  F   UNL A   1      32.808  24.930  21.575  1.00  0.00    -0.205 F 
BRANCH  79  84
ATOM     84  N   UNL A   1      31.250  26.321  23.429  1.00  0.00    -0.365 N 
ATOM     85  C   UNL A   1      29.951  25.622  23.555  1.00  0.00     0.138 C 
ATOM     86  C   UNL A   1      31.265  27.511  22.564  1.00  0.00     0.143 C 
ATOM     87  C   UNL A   1      28.804  26.597  23.918  1.00  0.00     0.143 C 
ATOM     88  C   UNL A   1      30.207  28.496  23.068  1.00  0.00     0.125 C 
ATOM     89  N   UNL A   1      28.907  27.865  23.219  1.00  0.00    -0.317 N 
ATOM     90  C   UNL A   1      29.887  29.681  22.167  1.00  0.00     0.144 C 
ATOM     91  C   UNL A   1      27.897  28.784  23.004  1.00  0.00     0.317 C 
ATOM     92  N   UNL A   1      28.485  29.906  22.429  1.00  0.00    -0.336 N 
ATOM     93  O   UNL A   1      26.712  28.665  23.261  1.00  0.00    -0.249 OA
ATOM     94  H   UNL A   1      28.008  30.744  22.228  1.00  0.00     0.165 HD
ENDBRANCH  79  84
ENDBRANCH  74  77
ENDBRANCH  72  73
ENDBRANCH  71  72
ENDBRANCH   1  71
TORSDOF 11
ENDMDL
MODEL 2
REMARK VINA RESULT:     -13.0      0.441      1.206
REMARK SMILES O=C(NCCCNC(=O)c1cccc(F)c1N1CCN2C(=O)NC[C@@H]2C1)c1ccc(-c2c3nc(c(-c4c(F)c(F)c(F)c(F)c4F)c4ccc([nH]4)c(-c4c(F)c(F)c(F)c(F)c4F)c4nc(c(-c5c(F)c(F)c(F)c(F)c5F)c5ccc2[nH]5)C=C4)C=C3)cc1
REMARK SMILES IDX 4 1 3 2 1 3 2 4 27 6 28 7 89 8 29 9 88 10 30 11 31 12 32 13
REMARK SMILES IDX 82 14 33 15 87 16 81 17 83 18 34 19 86 20 80 21 79 22 35 24
REMARK SMILES IDX 67 25 47 26 66 27 48 28 51 29 65 30 84 31 49 32 50 33 64 35
REMARK SMILES IDX 85 36 52 37 36 38 37 39 45 40 38 41 39 42 43 43 46 44 40 45
REMARK SMILES IDX 41 46 44 47 42 48 68 49 69 50 77 51 70 52 71 53 75 54 78 55
REMARK SMILES IDX 72 56 73 57 76 58 74 59 53 60 54 61 62 62 55 63 56 64 60 65
REMARK SMILES IDX 63 66 57 67 58 68 61 69 59 70 5 71 6 72 7 73 8 74 9 76 10 77
REMARK SMILES IDX 11 78 16 79 12 80 14 81 13 82 15 83 17 84 18 85 26 86 19 87
REMARK SMILES IDX 25 88 20 89 24 90 21 91 23 92 22 93
REMARK H PARENT 3 5 83 23 51 34 7 75 23 94
REMARK Flexibility Score: inf
ROOT
ATOM      1  C   UNL A   1      32.459  30.357  26.843  1.00  0.00     0.118 C 
ENDROOT
BRANCH   1   2
ATOM      2  N   UNL A   1      32.487  31.813  26.943  1.00  0.00    -0.352 N 
ATOM      3  O   UNL A   1      33.138  33.855  27.637  1.00  0.00    -0.269 OA
ATOM      4  C   UNL A   1      33.390  32.657  27.545  1.00  0.00     0.251 C 
ATOM      5  H   UNL A   1      31.731  32.267  26.506  1.00  0.00     0.163 HD
BRANCH   4   6
ATOM      6  C   UNL A   1      34.648  32.127  28.114  1.00  0.00     0.039 A 
ATOM      7  C   UNL A   1      34.697  30.846  28.661  1.00  0.00     0.014 A 
ATOM      8  C   UNL A   1      35.798  32.922  28.104  1.00  0.00     0.014 A 
ATOM      9  C   UNL A   1      35.811  30.449  29.386  1.00  0.00     0.010 A 
ATOM     10  C   UNL A   1      36.968  32.463  28.718  1.00  0.00     0.010 A 
ATOM     11  C   UNL A   1      36.970  31.242  29.408  1.00  0.00    -0.014 A 
BRANCH  11  12
ATOM     12  C   UNL A   1      38.175  30.733  30.113  1.00  0.00     0.031 A 
ATOM     13  C   UNL A   1      38.477  31.124  31.532  1.00  0.00     0.074 A 
ATOM     14  C   UNL A   1      38.972  29.857  29.470  1.00  0.00     0.049 A 
ATOM     15  N   UNL A   1      39.461  30.728  32.302  1.00  0.00    -0.248 NA
ATOM     16  C   UNL A   1      37.569  32.086  32.172  1.00  0.00     0.031 C 
ATOM     17  C   UNL A   1      38.779  29.408  28.089  1.00  0.00     0.029 A 
ATOM     18  N   UNL A   1      40.076  29.164  29.892  1.00  0.00    -0.354 N 
ATOM     19  C   UNL A   1      39.297  31.397  33.507  1.00  0.00     0.074 A 
ATOM     20  C   UNL A   1      38.142  32.257  33.356  1.00  0.00     0.031 C 
ATOM     21  C   UNL A   1      39.686  28.465  27.803  1.00  0.00     0.029 A 
ATOM     22  C   UNL A   1      40.576  28.304  28.946  1.00  0.00     0.049 A 
ATOM     23  H   UNL A   1      40.474  29.273  30.786  1.00  0.00     0.167 HD
ATOM     24  C   UNL A   1      40.034  31.290  34.639  1.00  0.00     0.037 A 
ATOM     25  C   UNL A   1      41.642  27.483  28.981  1.00  0.00     0.037 A 
ATOM     26  C   UNL A   1      41.181  30.428  34.781  1.00  0.00     0.049 A 
ATOM     27  C   UNL A   1      42.471  27.420  30.230  1.00  0.00     0.074 A 
ATOM     28  C   UNL A   1      41.984  30.240  35.892  1.00  0.00     0.029 A 
ATOM     29  N   UNL A   1      41.691  29.615  33.778  1.00  0.00    -0.354 N 
ATOM     30  N   UNL A   1      42.294  28.046  31.367  1.00  0.00    -0.248 NA
ATOM     31  C   UNL A   1      43.646  26.541  30.200  1.00  0.00     0.031 C 
ATOM     32  C   UNL A   1      43.015  29.360  35.545  1.00  0.00     0.029 A 
ATOM     33  C   UNL A   1      42.815  28.942  34.239  1.00  0.00     0.049 A 
ATOM     34  H   UNL A   1      41.312  29.527  32.874  1.00  0.00     0.167 HD
ATOM     35  C   UNL A   1      43.325  27.627  32.196  1.00  0.00     0.074 A 
ATOM     36  C   UNL A   1      44.112  26.677  31.435  1.00  0.00     0.031 C 
ATOM     37  C   UNL A   1      43.592  28.000  33.472  1.00  0.00     0.037 A 
BRANCH  24  38
ATOM     38  C   UNL A   1      39.635  32.134  35.820  1.00  0.00     0.064 A 
ATOM     39  C   UNL A   1      38.620  31.708  36.691  1.00  0.00     0.173 A 
ATOM     40  C   UNL A   1      40.211  33.392  36.055  1.00  0.00     0.173 A 
ATOM     41  F   UNL A   1      38.027  30.519  36.509  1.00  0.00    -0.203 F 
ATOM     42  C   UNL A   1      38.191  32.513  37.744  1.00  0.00     0.198 A 
ATOM     43  C   UNL A   1      39.804  34.179  37.130  1.00  0.00     0.198 A 
ATOM     44  F   UNL A   1      41.194  33.844  35.261  1.00  0.00    -0.203 F 
ATOM     45  F   UNL A   1      37.196  32.098  38.540  1.00  0.00    -0.200 F 
ATOM     46  C   UNL A   1      38.787  33.744  37.966  1.00  0.00     0.200 A 
ATOM     47  F   UNL A   1      40.401  35.356  37.360  1.00  0.00    -0.200 F 
ATOM     48  F   UNL A   1      38.386  34.510  38.991  1.00  0.00    -0.200 F 
ENDBRANCH  24  38
BRANCH  25  49
ATOM     49  C   UNL A   1      41.955  26.653  27.790  1.00  0.00     0.064 A 
ATOM     50  C   UNL A   1      41.366  25.392  27.609  1.00  0.00     0.173 A 
ATOM     51  C   UNL A   1      42.906  27.070  26.851  1.00  0.00     0.173 A 
ATOM     52  F   UNL A   1      40.457  24.942  28.487  1.00  0.00    -0.203 F 
ATOM     53  C   UNL A   1      41.743  24.565  26.553  1.00  0.00     0.198 A 
ATOM     54  C   UNL A   1      43.260  26.257  25.777  1.00  0.00     0.198 A 
ATOM     55  F   UNL A   1      43.486  28.273  26.975  1.00  0.00    -0.203 F 
ATOM     56  F   UNL A   1      41.208  23.343  26.437  1.00  0.00    -0.200 F 
ATOM     57  C   UNL A   1      42.688  25.000  25.637  1.00  0.00     0.200 A 
ATOM     58  F   UNL A   1      44.159  26.686  24.882  1.00  0.00    -0.200 F 
ATOM     59  F   UNL A   1      43.052  24.206  24.620  1.00  0.00    -0.200 F 
ENDBRANCH  25  49
BRANCH  37  60
ATOM     60  C   UNL A   1      44.773  27.362  34.147  1.00  0.00     0.064 A 
ATOM     61  C   UNL A   1      44.620  26.161  34.857  1.00  0.00     0.173 A 
ATOM     62  C   UNL A   1      46.036  27.970  34.150  1.00  0.00     0.173 A 
ATOM     63  F   UNL A   1      43.430  25.542  34.892  1.00  0.00    -0.203 F 
ATOM     64  C   UNL A   1      45.684  25.602  35.558  1.00  0.00     0.198 A 
ATOM     65  C   UNL A   1      47.108  27.389  34.825  1.00  0.00     0.198 A 
ATOM     66  F   UNL A   1      46.240  29.111  33.475  1.00  0.00    -0.203 F 
ATOM     67  F   UNL A   1      45.502  24.475  36.262  1.00  0.00    -0.200 F 
ATOM     68  C   UNL A   1      46.928  26.212  35.538  1.00  0.00     0.200 A 
ATOM     69  F   UNL A   1      48.317  27.965  34.779  1.00  0.00    -0.200 F 
ATOM     70  F   UNL A   1      47.955  25.666  36.201  1.00  0.00    -0.200 F 
ENDBRANCH  37  60
ENDBRANCH  11  12
ENDBRANCH   4   6
ENDBRANCH   1   2
BRANCH   1  71
ATOM     71  C   UNL A   1      33.033  29.830  25.539  1.00  0.00     0.042 C 
BRANCH  71  72
ATOM     72  C   UNL A   1      33.522  28.395  25.614  1.00  0.00     0.118 C 
BRANCH  72  73
ATOM     73  N   UNL A   1      32.623  27.531  26.366  1.00  0.00    -0.352 N 
ATOM     74  C   UNL A   1      32.274  26.213  26.178  1.00  0.00     0.253 C 
ATOM     75  H   UNL A   1      32.193  27.962  27.139  1.00  0.00     0.163 HD
ATOM     76  O   UNL A   1      31.465  25.709  26.950  1.00  0.00    -0.269 OA
BRANCH  74  77
ATOM     77  C   UNL A   1      32.893  25.431  25.080  1.00  0.00     0.066 A 
ATOM     78  C   UNL A   1      33.960  24.580  25.432  1.00  0.00     0.016 A 
ATOM     79  C   UNL A   1      32.379  25.450  23.763  1.00  0.00     0.086 A 
ATOM     80  C   UNL A   1      34.625  23.832  24.468  1.00  0.00     0.004 A 
ATOM     81  C   UNL A   1      33.077  24.666  22.820  1.00  0.00     0.147 A 
ATOM     82  C   UNL A   1      34.191  23.891  23.152  1.00  0.00     0.041 A 
ATOM     83  F   UNL A   1      32.687  24.664  21.534  1.00  0.00    -0.205 F 
BRANCH  79  84
ATOM     84  N   UNL A   1      31.235  26.146  23.402  1.00  0.00    -0.365 N 
ATOM     85  C   UNL A   1      29.908  25.503  23.532  1.00  0.00     0.138 C 
ATOM     86  C   UNL A   1      31.295  27.344  22.549  1.00  0.00     0.143 C 
ATOM     87  C   UNL A   1      28.807  26.524  23.913  1.00  0.00     0.143 C 
ATOM     88  C   UNL A   1      30.286  28.368  23.071  1.00  0.00     0.125 C 
ATOM     89  N   UNL A   1      28.960  27.793  23.226  1.00  0.00    -0.317 N 
ATOM     90  C   UNL A   1      30.011  29.575  22.185  1.00  0.00     0.144 C 
ATOM     91  C   UNL A   1      27.989  28.757  23.028  1.00  0.00     0.317 C 
ATOM     92  N   UNL A   1      28.622  29.859  22.460  1.00  0.00    -0.336 N 
ATOM     93  O   UNL A   1      26.802  28.687  23.292  1.00  0.00    -0.249 OA
ATOM     94  H   UNL A   1      28.181  30.718  22.271  1.00  0.00     0.165 HD
ENDBRANCH  79  84
ENDBRANCH  74  77
ENDBRANCH  72  73
ENDBRANCH  71  72
ENDBRANCH   1  71
TORSDOF 11
ENDMDL
MODEL 3
REMARK VINA RESULT:     -13.0      1.680      3.202
REMARK SMILES O=C(NCCCNC(=O)c1cccc(F)c1N1CCN2C(=O)NC[C@@H]2C1)c1ccc(-c2c3nc(c(-c4c(F)c(F)c(F)c(F)c4F)c4ccc([nH]4)c(-c4c(F)c(F)c(F)c(F)c4F)c4nc(c(-c5c(F)c(F)c(F)c(F)c5F)c5ccc2[nH]5)C=C4)C=C3)cc1
REMARK SMILES IDX 4 1 3 2 1 3 2 4 27 6 28 7 89 8 29 9 88 10 30 11 31 12 32 13
REMARK SMILES IDX 82 14 33 15 87 16 81 17 83 18 34 19 86 20 80 21 79 22 35 24
REMARK SMILES IDX 67 25 47 26 66 27 48 28 51 29 65 30 84 31 49 32 50 33 64 35
REMARK SMILES IDX 85 36 52 37 36 38 37 39 45 40 38 41 39 42 43 43 46 44 40 45
REMARK SMILES IDX 41 46 44 47 42 48 68 49 69 50 77 51 70 52 71 53 75 54 78 55
REMARK SMILES IDX 72 56 73 57 76 58 74 59 53 60 54 61 62 62 55 63 56 64 60 65
REMARK SMILES IDX 63 66 57 67 58 68 61 69 59 70 5 71 6 72 7 73 8 74 9 76 10 77
REMARK SMILES IDX 11 78 16 79 12 80 14 81 13 82 15 83 17 84 18 85 26 86 19 87
REMARK SMILES IDX 25 88 20 89 24 90 21 91 23 92 22 93
REMARK H PARENT 3 5 83 23 51 34 7 75 23 94
REMARK Flexibility Score: inf
ROOT
ATOM      1  C   UNL A   1      32.575  32.179  27.015  1.00  0.00     0.118 C 
ENDROOT
BRANCH   1   2
ATOM      2  N   UNL A   1      32.376  33.573  27.399  1.00  0.00    -0.352 N 
ATOM      3  O   UNL A   1      32.581  35.465  28.605  1.00  0.00    -0.269 OA
ATOM      4  C   UNL A   1      33.014  34.348  28.339  1.00  0.00     0.251 C 
ATOM      5  H   UNL A   1      31.663  34.036  26.903  1.00  0.00     0.163 HD
BRANCH   4   6
ATOM      6  C   UNL A   1      34.198  33.831  29.059  1.00  0.00     0.039 A 
ATOM      7  C   UNL A   1      35.478  34.271  28.731  1.00  0.00     0.014 A 
ATOM      8  C   UNL A   1      34.028  32.889  30.078  1.00  0.00     0.014 A 
ATOM      9  C   UNL A   1      36.586  33.619  29.253  1.00  0.00     0.010 A 
ATOM     10  C   UNL A   1      35.147  32.329  30.703  1.00  0.00     0.010 A 
ATOM     11  C   UNL A   1      36.438  32.654  30.262  1.00  0.00    -0.014 A 
BRANCH  11  12
ATOM     12  C   UNL A   1      37.656  32.053  30.865  1.00  0.00     0.031 A 
ATOM     13  C   UNL A   1      38.107  32.418  32.251  1.00  0.00     0.074 A 
ATOM     14  C   UNL A   1      38.325  31.118  30.162  1.00  0.00     0.049 A 
ATOM     15  N   UNL A   1      39.120  31.947  32.937  1.00  0.00    -0.248 NA
ATOM     16  C   UNL A   1      37.333  33.447  32.960  1.00  0.00     0.031 C 
ATOM     17  C   UNL A   1      37.982  30.686  28.805  1.00  0.00     0.029 A 
ATOM     18  N   UNL A   1      39.406  30.342  30.493  1.00  0.00    -0.354 N 
ATOM     19  C   UNL A   1      39.110  32.626  34.148  1.00  0.00     0.074 A 
ATOM     20  C   UNL A   1      38.016  33.573  34.090  1.00  0.00     0.031 C 
ATOM     21  C   UNL A   1      38.786  29.677  28.448  1.00  0.00     0.029 A 
ATOM     22  C   UNL A   1      39.755  29.447  29.513  1.00  0.00     0.049 A 
ATOM     23  H   UNL A   1      39.885  30.420  31.349  1.00  0.00     0.167 HD
ATOM     24  C   UNL A   1      39.930  32.462  35.214  1.00  0.00     0.037 A 
ATOM     25  C   UNL A   1      40.754  28.546  29.463  1.00  0.00     0.037 A 
ATOM     26  C   UNL A   1      41.015  31.514  35.263  1.00  0.00     0.049 A 
ATOM     27  C   UNL A   1      41.679  28.418  30.637  1.00  0.00     0.074 A 
ATOM     28  C   UNL A   1      41.893  31.263  36.303  1.00  0.00     0.029 A 
ATOM     29  N   UNL A   1      41.375  30.664  34.225  1.00  0.00    -0.354 N 
ATOM     30  N   UNL A   1      41.649  29.056  31.781  1.00  0.00    -0.248 NA
ATOM     31  C   UNL A   1      42.776  27.452  30.513  1.00  0.00     0.031 C 
ATOM     32  C   UNL A   1      42.820  30.308  35.874  1.00  0.00     0.029 A 
ATOM     33  C   UNL A   1      42.478  29.907  34.593  1.00  0.00     0.049 A 
ATOM     34  H   UNL A   1      40.914  30.607  33.357  1.00  0.00     0.167 HD
ATOM     35  C   UNL A   1      42.710  28.558  32.522  1.00  0.00     0.074 A 
ATOM     36  C   UNL A   1      43.354  27.551  31.702  1.00  0.00     0.031 C 
ATOM     37  C   UNL A   1      43.113  28.908  33.768  1.00  0.00     0.037 A 
BRANCH  24  38
ATOM     38  C   UNL A   1      39.700  33.333  36.419  1.00  0.00     0.064 A 
ATOM     39  C   UNL A   1      38.802  32.938  37.423  1.00  0.00     0.173 A 
ATOM     40  C   UNL A   1      40.316  34.586  36.552  1.00  0.00     0.173 A 
ATOM     41  F   UNL A   1      38.176  31.754  37.345  1.00  0.00    -0.203 F 
ATOM     42  C   UNL A   1      38.524  33.768  38.507  1.00  0.00     0.198 A 
ATOM     43  C   UNL A   1      40.062  35.399  37.654  1.00  0.00     0.198 A 
ATOM     44  F   UNL A   1      41.191  35.010  35.627  1.00  0.00    -0.203 F 
ATOM     45  F   UNL A   1      37.637  33.382  39.435  1.00  0.00    -0.200 F 
ATOM     46  C   UNL A   1      39.158  34.995  38.625  1.00  0.00     0.200 A 
ATOM     47  F   UNL A   1      40.698  36.572  37.780  1.00  0.00    -0.200 F 
ATOM     48  F   UNL A   1      38.904  35.785  39.677  1.00  0.00    -0.200 F 
ENDBRANCH  24  38
BRANCH  25  49
ATOM     49  C   UNL A   1      40.900  27.695  28.254  1.00  0.00     0.064 A 
ATOM     50  C   UNL A   1      40.328  26.415  28.194  1.00  0.00     0.173 A 
ATOM     51  C   UNL A   1      41.678  28.113  27.168  1.00  0.00     0.173 A 
ATOM     52  F   UNL A   1      39.583  25.963  29.214  1.00  0.00    -0.203 F 
ATOM     53  C   UNL A   1      40.558  25.573  27.109  1.00  0.00     0.198 A 
ATOM     54  C   UNL A   1      41.882  27.283  26.068  1.00  0.00     0.198 A 
ATOM     55  F   UNL A   1      42.233  29.334  27.174  1.00  0.00    -0.203 F 
ATOM     56  F   UNL A   1      40.049  24.334  27.104  1.00  0.00    -0.200 F 
ATOM     57  C   UNL A   1      41.334  26.009  26.046  1.00  0.00     0.200 A 
ATOM     58  F   UNL A   1      42.615  27.715  25.033  1.00  0.00    -0.200 F 
ATOM     59  F   UNL A   1      41.556  25.200  25.001  1.00  0.00    -0.200 F 
ENDBRANCH  25  49
BRANCH  37  60
ATOM     60  C   UNL A   1      44.295  28.181  34.344  1.00  0.00     0.064 A 
ATOM     61  C   UNL A   1      44.113  26.984  35.054  1.00  0.00     0.173 A 
ATOM     62  C   UNL A   1      45.594  28.699  34.254  1.00  0.00     0.173 A 
ATOM     63  F   UNL A   1      42.888  26.449  35.176  1.00  0.00    -0.203 F 
ATOM     64  C   UNL A   1      45.185  26.343  35.667  1.00  0.00     0.198 A 
ATOM     65  C   UNL A   1      46.671  28.036  34.839  1.00  0.00     0.198 A 
ATOM     66  F   UNL A   1      45.825  29.833  33.574  1.00  0.00    -0.203 F 
ATOM     67  F   UNL A   1      44.980  25.222  36.373  1.00  0.00    -0.200 F 
ATOM     68  C   UNL A   1      46.464  26.865  35.554  1.00  0.00     0.200 A 
ATOM     69  F   UNL A   1      47.910  28.528  34.704  1.00  0.00    -0.200 F 
ATOM     70  F   UNL A   1      47.499  26.240  36.131  1.00  0.00    -0.200 F 
ENDBRANCH  37  60
ENDBRANCH  11  12
ENDBRANCH   4   6
ENDBRANCH   1   2
BRANCH   1  71
ATOM     71  C   UNL A   1      31.412  31.597  26.230  1.00  0.00     0.042 C 
BRANCH  71  72
ATOM     72  C   UNL A   1      31.489  30.094  26.035  1.00  0.00     0.118 C 
BRANCH  72  73
ATOM     73  N   UNL A   1      32.179  29.717  24.810  1.00  0.00    -0.352 N 
ATOM     74  C   UNL A   1      31.706  29.157  23.646  1.00  0.00     0.253 C 
ATOM     75  H   UNL A   1      33.147  29.894  24.815  1.00  0.00     0.163 HD
ATOM     76  O   UNL A   1      32.507  28.910  22.750  1.00  0.00    -0.269 OA
BRANCH  74  77
ATOM     77  C   UNL A   1      30.255  28.889  23.487  1.00  0.00     0.066 A 
ATOM     78  C   UNL A   1      29.483  29.914  22.902  1.00  0.00     0.016 A 
ATOM     79  C   UNL A   1      29.683  27.636  23.805  1.00  0.00     0.086 A 
ATOM     80  C   UNL A   1      28.110  29.771  22.741  1.00  0.00     0.004 A 
ATOM     81  C   UNL A   1      28.289  27.531  23.615  1.00  0.00     0.147 A 
ATOM     82  C   UNL A   1      27.509  28.578  23.118  1.00  0.00     0.041 A 
ATOM     83  F   UNL A   1      27.656  26.391  23.937  1.00  0.00    -0.205 F 
BRANCH  79  84
ATOM     84  N   UNL A   1      30.427  26.546  24.232  1.00  0.00    -0.365 N 
ATOM     85  C   UNL A   1      30.811  26.428  25.656  1.00  0.00     0.138 C 
ATOM     86  C   UNL A   1      31.173  25.700  23.286  1.00  0.00     0.143 C 
ATOM     87  C   UNL A   1      30.844  24.952  26.124  1.00  0.00     0.143 C 
ATOM     88  C   UNL A   1      31.041  24.241  23.726  1.00  0.00     0.125 C 
ATOM     89  N   UNL A   1      31.399  24.060  25.123  1.00  0.00    -0.317 N 
ATOM     90  C   UNL A   1      31.941  23.229  23.030  1.00  0.00     0.144 C 
ATOM     91  C   UNL A   1      31.923  22.797  25.327  1.00  0.00     0.317 C 
ATOM     92  N   UNL A   1      32.194  22.262  24.072  1.00  0.00    -0.336 N 
ATOM     93  O   UNL A   1      32.118  22.232  26.389  1.00  0.00    -0.249 OA
ATOM     94  H   UNL A   1      32.515  21.345  23.914  1.00  0.00     0.165 HD
ENDBRANCH  79  84
ENDBRANCH  74  77
ENDBRANCH  72  73
ENDBRANCH  71  72
ENDBRANCH   1  71
TORSDOF 11
ENDMDL
