MODEL 1
REMARK VINA RESULT:     -10.2      0.000      0.000
REMARK SMILES CCCC[C@H](C(=O)NCCCNC(=O)c1ccc(-c2c3nc(c(-c4c(F)c(F)c(F)c(F)c4F)c4ccc([nH]4)c(-c4c(F)c(F)c(F)c(F)c4F)c4nc(c(-c5c(F)c(F)c(F)c(F)c5F)c5ccc2[nH]5)C=C4)C=C3)cc1)[C@H](C)O
REMARK SMILES IDX 9 1 8 2 6 3 7 4 5 6 4 7 3 8 2 9 1 10 78 11 79 12 80 13 10 15
REMARK SMILES IDX 11 16 12 17 13 18 14 20 15 21 16 22 77 23 17 24 76 25 18 26
REMARK SMILES IDX 19 27 20 28 70 29 21 30 75 31 69 32 71 33 22 34 74 35 68 36
REMARK SMILES IDX 67 37 23 39 55 40 35 41 54 42 36 43 39 44 53 45 72 46 37 47
REMARK SMILES IDX 38 48 52 50 73 51 40 52 24 53 25 54 33 55 26 56 27 57 31 58
REMARK SMILES IDX 34 59 28 60 29 61 32 62 30 63 56 64 57 65 65 66 58 67 59 68
REMARK SMILES IDX 63 69 66 70 60 71 61 72 64 73 62 74 41 75 42 76 50 77 43 78
REMARK SMILES IDX 44 79 48 80 51 81 45 82 46 83 49 84 47 85
REMARK H PARENT 8 5 80 14 12 19 71 38 39 49
REMARK Flexibility Score: inf
ROOT
ATOM      1  C   UNL A   1      37.167  21.041  24.576  1.00  0.00     0.117 C 
ENDROOT
BRANCH   1   2
ATOM      2  N   UNL A   1      36.119  21.327  25.536  1.00  0.00    -0.356 N 
ATOM      3  C   UNL A   1      34.819  20.971  25.611  1.00  0.00     0.225 C 
ATOM      4  O   UNL A   1      34.218  21.372  26.617  1.00  0.00    -0.275 OA
ATOM      5  H   UNL A   1      36.415  21.893  26.284  1.00  0.00     0.163 HD
BRANCH   3   6
ATOM      6  C   UNL A   1      34.060  20.146  24.575  1.00  0.00     0.107 C 
BRANCH   6   7
ATOM      7  C   UNL A   1      34.311  18.623  24.572  1.00  0.00     0.016 C 
BRANCH   7   8
ATOM      8  C   UNL A   1      33.516  17.756  23.588  1.00  0.00     0.001 C 
BRANCH   8   9
ATOM      9  C   UNL A   1      33.637  16.242  23.785  1.00  0.00    -0.003 C 
ATOM     10  C   UNL A   1      33.795  15.809  25.237  1.00  0.00     0.004 C 
ENDBRANCH   8   9
ENDBRANCH   7   8
ENDBRANCH   6   7
BRANCH   6  11
ATOM     11  C   UNL A   1      32.570  20.498  24.354  1.00  0.00     0.123 C 
ATOM     12  C   UNL A   1      32.327  21.834  23.666  1.00  0.00     0.039 C 
BRANCH  11  13
ATOM     13  O   UNL A   1      31.815  20.454  25.564  1.00  0.00    -0.393 OA
ATOM     14  H   UNL A   1      32.106  21.167  26.153  1.00  0.00     0.210 HD
ENDBRANCH  11  13
ENDBRANCH   6  11
ENDBRANCH   3   6
ENDBRANCH   1   2
BRANCH   1  15
ATOM     15  C   UNL A   1      38.031  19.837  24.946  1.00  0.00     0.042 C 
BRANCH  15  16
ATOM     16  C   UNL A   1      39.059  20.058  26.048  1.00  0.00     0.118 C 
BRANCH  16  17
ATOM     17  N   UNL A   1      40.174  19.132  25.976  1.00  0.00    -0.352 N 
ATOM     18  C   UNL A   1      41.525  19.385  26.028  1.00  0.00     0.251 C 
ATOM     19  H   UNL A   1      39.928  18.184  25.875  1.00  0.00     0.163 HD
ATOM     20  O   UNL A   1      42.323  18.490  25.766  1.00  0.00    -0.269 OA
BRANCH  18  21
ATOM     21  C   UNL A   1      42.032  20.735  26.373  1.00  0.00     0.039 A 
ATOM     22  C   UNL A   1      42.233  21.661  25.344  1.00  0.00     0.014 A 
ATOM     23  C   UNL A   1      42.353  21.083  27.688  1.00  0.00     0.014 A 
ATOM     24  C   UNL A   1      42.704  22.943  25.640  1.00  0.00     0.010 A 
ATOM     25  C   UNL A   1      42.741  22.387  27.993  1.00  0.00     0.010 A 
ATOM     26  C   UNL A   1      42.941  23.327  26.970  1.00  0.00    -0.014 A 
BRANCH  26  27
ATOM     27  C   UNL A   1      43.444  24.686  27.305  1.00  0.00     0.031 A 
ATOM     28  C   UNL A   1      42.510  25.708  27.899  1.00  0.00     0.074 A 
ATOM     29  C   UNL A   1      44.719  25.024  27.034  1.00  0.00     0.049 A 
ATOM     30  N   UNL A   1      42.731  26.965  28.190  1.00  0.00    -0.248 NA
ATOM     31  C   UNL A   1      41.135  25.262  28.176  1.00  0.00     0.031 C 
ATOM     32  C   UNL A   1      45.717  24.146  26.422  1.00  0.00     0.029 A 
ATOM     33  N   UNL A   1      45.392  26.205  27.233  1.00  0.00    -0.354 N 
ATOM     34  C   UNL A   1      41.521  27.463  28.657  1.00  0.00     0.074 A 
ATOM     35  C   UNL A   1      40.558  26.388  28.568  1.00  0.00     0.031 C 
ATOM     36  C   UNL A   1      46.880  24.810  26.318  1.00  0.00     0.029 A 
ATOM     37  C   UNL A   1      46.703  26.168  26.823  1.00  0.00     0.049 A 
ATOM     38  H   UNL A   1      44.975  27.003  27.633  1.00  0.00     0.167 HD
ATOM     39  C   UNL A   1      41.242  28.697  29.140  1.00  0.00     0.037 A 
ATOM     40  C   UNL A   1      47.653  27.123  26.850  1.00  0.00     0.037 A 
ATOM     41  C   UNL A   1      42.208  29.755  29.277  1.00  0.00     0.049 A 
ATOM     42  C   UNL A   1      47.323  28.480  27.411  1.00  0.00     0.074 A 
ATOM     43  C   UNL A   1      42.036  31.018  29.815  1.00  0.00     0.029 A 
ATOM     44  N   UNL A   1      43.533  29.667  28.875  1.00  0.00    -0.354 N 
ATOM     45  N   UNL A   1      46.190  28.921  27.899  1.00  0.00    -0.248 NA
ATOM     46  C   UNL A   1      48.409  29.471  27.430  1.00  0.00     0.031 C 
ATOM     47  C   UNL A   1      43.249  31.706  29.713  1.00  0.00     0.029 A 
ATOM     48  C   UNL A   1      44.186  30.859  29.144  1.00  0.00     0.049 A 
ATOM     49  H   UNL A   1      43.947  28.876  28.462  1.00  0.00     0.167 HD
ATOM     50  C   UNL A   1      46.431  30.226  28.305  1.00  0.00     0.074 A 
ATOM     51  C   UNL A   1      47.822  30.504  28.018  1.00  0.00     0.031 C 
ATOM     52  C   UNL A   1      45.574  31.115  28.865  1.00  0.00     0.037 A 
BRANCH  39  53
ATOM     53  C   UNL A   1      39.830  28.969  29.570  1.00  0.00     0.064 A 
ATOM     54  C   UNL A   1      38.861  29.422  28.662  1.00  0.00     0.173 A 
ATOM     55  C   UNL A   1      39.434  28.744  30.897  1.00  0.00     0.173 A 
ATOM     56  F   UNL A   1      39.193  29.663  27.386  1.00  0.00    -0.203 F 
ATOM     57  C   UNL A   1      37.554  29.668  29.074  1.00  0.00     0.198 A 
ATOM     58  C   UNL A   1      38.119  28.964  31.298  1.00  0.00     0.198 A 
ATOM     59  F   UNL A   1      40.320  28.305  31.803  1.00  0.00    -0.203 F 
ATOM     60  F   UNL A   1      36.656  30.144  28.200  1.00  0.00    -0.200 F 
ATOM     61  C   UNL A   1      37.183  29.432  30.389  1.00  0.00     0.200 A 
ATOM     62  F   UNL A   1      37.758  28.726  32.567  1.00  0.00    -0.200 F 
ATOM     63  F   UNL A   1      35.922  29.663  30.782  1.00  0.00    -0.200 F 
ENDBRANCH  39  53
BRANCH  40  64
ATOM     64  C   UNL A   1      49.020  26.819  26.357  1.00  0.00     0.064 A 
ATOM     65  C   UNL A   1      50.001  26.325  27.228  1.00  0.00     0.173 A 
ATOM     66  C   UNL A   1      49.376  27.019  25.016  1.00  0.00     0.173 A 
ATOM     67  F   UNL A   1      49.714  26.141  28.525  1.00  0.00    -0.203 F 
ATOM     68  C   UNL A   1      51.292  26.056  26.778  1.00  0.00     0.198 A 
ATOM     69  C   UNL A   1      50.661  26.726  24.563  1.00  0.00     0.198 A 
ATOM     70  F   UNL A   1      48.471  27.489  24.145  1.00  0.00    -0.203 F 
ATOM     71  F   UNL A   1      52.223  25.622  27.641  1.00  0.00    -0.200 F 
ATOM     72  C   UNL A   1      51.619  26.252  25.445  1.00  0.00     0.200 A 
ATOM     73  F   UNL A   1      50.971  26.906  23.271  1.00  0.00    -0.200 F 
ATOM     74  F   UNL A   1      52.860  25.990  25.013  1.00  0.00    -0.200 F 
ENDBRANCH  40  64
BRANCH  52  75
ATOM     75  C   UNL A   1      46.125  32.459  29.237  1.00  0.00     0.064 A 
ATOM     76  C   UNL A   1      46.059  33.548  28.355  1.00  0.00     0.173 A 
ATOM     77  C   UNL A   1      46.683  32.671  30.506  1.00  0.00     0.173 A 
ATOM     78  F   UNL A   1      45.548  33.391  27.125  1.00  0.00    -0.203 F 
ATOM     79  C   UNL A   1      46.552  34.796  28.725  1.00  0.00     0.198 A 
ATOM     80  C   UNL A   1      47.153  33.926  30.880  1.00  0.00     0.198 A 
ATOM     81  F   UNL A   1      46.764  31.661  31.386  1.00  0.00    -0.203 F 
ATOM     82  F   UNL A   1      46.515  35.814  27.854  1.00  0.00    -0.200 F 
ATOM     83  C   UNL A   1      47.092  34.986  29.988  1.00  0.00     0.200 A 
ATOM     84  F   UNL A   1      47.666  34.111  32.105  1.00  0.00    -0.200 F 
ATOM     85  F   UNL A   1      47.560  36.190  30.344  1.00  0.00    -0.200 F 
ENDBRANCH  52  75
ENDBRANCH  26  27
ENDBRANCH  18  21
ENDBRANCH  16  17
ENDBRANCH  15  16
ENDBRANCH   1  15
TORSDOF 15
ENDMDL
MODEL 2
REMARK VINA RESULT:     -10.0      6.927     12.940
REMARK SMILES CCCC[C@H](C(=O)NCCCNC(=O)c1ccc(-c2c3nc(c(-c4c(F)c(F)c(F)c(F)c4F)c4ccc([nH]4)c(-c4c(F)c(F)c(F)c(F)c4F)c4nc(c(-c5c(F)c(F)c(F)c(F)c5F)c5ccc2[nH]5)C=C4)C=C3)cc1)[C@H](C)O
REMARK SMILES IDX 9 1 8 2 6 3 7 4 5 6 4 7 3 8 2 9 1 10 78 11 79 12 80 13 10 15
REMARK SMILES IDX 11 16 12 17 13 18 14 20 15 21 16 22 77 23 17 24 76 25 18 26
REMARK SMILES IDX 19 27 20 28 70 29 21 30 75 31 69 32 71 33 22 34 74 35 68 36
REMARK SMILES IDX 67 37 23 39 55 40 35 41 54 42 36 43 39 44 53 45 72 46 37 47
REMARK SMILES IDX 38 48 52 50 73 51 40 52 24 53 25 54 33 55 26 56 27 57 31 58
REMARK SMILES IDX 34 59 28 60 29 61 32 62 30 63 56 64 57 65 65 66 58 67 59 68
REMARK SMILES IDX 63 69 66 70 60 71 61 72 64 73 62 74 41 75 42 76 50 77 43 78
REMARK SMILES IDX 44 79 48 80 51 81 45 82 46 83 49 84 47 85
REMARK H PARENT 8 5 80 14 12 19 71 38 39 49
REMARK Flexibility Score: inf
ROOT
ATOM      1  C   UNL A   1      45.033  24.636  39.235  1.00  0.00     0.117 C 
ENDROOT
BRANCH   1   2
ATOM      2  N   UNL A   1      44.937  23.419  40.019  1.00  0.00    -0.356 N 
ATOM      3  C   UNL A   1      45.524  22.208  39.912  1.00  0.00     0.225 C 
ATOM      4  O   UNL A   1      45.232  21.399  40.803  1.00  0.00    -0.275 OA
ATOM      5  H   UNL A   1      44.321  23.491  40.783  1.00  0.00     0.163 HD
BRANCH   3   6
ATOM      6  C   UNL A   1      46.481  21.777  38.804  1.00  0.00     0.107 C 
BRANCH   6   7
ATOM      7  C   UNL A   1      46.011  21.993  37.349  1.00  0.00     0.016 C 
BRANCH   7   8
ATOM      8  C   UNL A   1      46.299  20.893  36.320  1.00  0.00     0.001 C 
BRANCH   8   9
ATOM      9  C   UNL A   1      46.350  19.464  36.868  1.00  0.00    -0.003 C 
ATOM     10  C   UNL A   1      45.190  18.581  36.425  1.00  0.00     0.004 C 
ENDBRANCH   8   9
ENDBRANCH   7   8
ENDBRANCH   6   7
BRANCH   6  11
ATOM     11  C   UNL A   1      47.977  22.119  38.997  1.00  0.00     0.123 C 
ATOM     12  C   UNL A   1      48.847  20.949  39.433  1.00  0.00     0.039 C 
BRANCH  11  13
ATOM     13  O   UNL A   1      48.174  23.206  39.900  1.00  0.00    -0.393 OA
ATOM     14  H   UNL A   1      49.045  23.603  39.743  1.00  0.00     0.210 HD
ENDBRANCH  11  13
ENDBRANCH   6  11
ENDBRANCH   3   6
ENDBRANCH   1   2
BRANCH   1  15
ATOM     15  C   UNL A   1      45.907  25.713  39.874  1.00  0.00     0.042 C 
BRANCH  15  16
ATOM     16  C   UNL A   1      46.719  26.578  38.919  1.00  0.00     0.118 C 
BRANCH  16  17
ATOM     17  N   UNL A   1      47.524  25.799  37.996  1.00  0.00    -0.352 N 
ATOM     18  C   UNL A   1      47.290  25.491  36.677  1.00  0.00     0.251 C 
ATOM     19  H   UNL A   1      48.361  25.438  38.370  1.00  0.00     0.163 HD
ATOM     20  O   UNL A   1      47.997  24.664  36.109  1.00  0.00    -0.269 OA
BRANCH  18  21
ATOM     21  C   UNL A   1      46.175  26.128  35.935  1.00  0.00     0.039 A 
ATOM     22  C   UNL A   1      46.393  27.367  35.326  1.00  0.00     0.014 A 
ATOM     23  C   UNL A   1      44.907  25.541  35.874  1.00  0.00     0.014 A 
ATOM     24  C   UNL A   1      45.362  27.989  34.615  1.00  0.00     0.010 A 
ATOM     25  C   UNL A   1      43.905  26.120  35.095  1.00  0.00     0.010 A 
ATOM     26  C   UNL A   1      44.114  27.361  34.473  1.00  0.00    -0.014 A 
BRANCH  26  27
ATOM     27  C   UNL A   1      43.004  28.006  33.723  1.00  0.00     0.031 A 
ATOM     28  C   UNL A   1      42.816  27.711  32.258  1.00  0.00     0.074 A 
ATOM     29  C   UNL A   1      42.196  28.892  34.335  1.00  0.00     0.049 A 
ATOM     30  N   UNL A   1      41.961  28.225  31.410  1.00  0.00    -0.248 NA
ATOM     31  C   UNL A   1      43.731  26.725  31.660  1.00  0.00     0.031 C 
ATOM     32  C   UNL A   1      42.293  29.300  35.737  1.00  0.00     0.029 A 
ATOM     33  N   UNL A   1      41.134  29.616  33.851  1.00  0.00    -0.354 N 
ATOM     34  C   UNL A   1      42.253  27.647  30.181  1.00  0.00     0.074 A 
ATOM     35  C   UNL A   1      43.392  26.779  30.381  1.00  0.00     0.031 C 
ATOM     36  C   UNL A   1      41.317  30.182  36.006  1.00  0.00     0.029 A 
ATOM     37  C   UNL A   1      40.546  30.429  34.790  1.00  0.00     0.049 A 
ATOM     38  H   UNL A   1      40.822  29.558  32.918  1.00  0.00     0.167 HD
ATOM     39  C   UNL A   1      41.615  27.806  28.997  1.00  0.00     0.037 A 
ATOM     40  C   UNL A   1      39.506  31.277  34.682  1.00  0.00     0.037 A 
ATOM     41  C   UNL A   1      40.452  28.630  28.803  1.00  0.00     0.049 A 
ATOM     42  C   UNL A   1      38.801  31.420  33.360  1.00  0.00     0.074 A 
ATOM     43  C   UNL A   1      39.698  28.804  27.656  1.00  0.00     0.029 A 
ATOM     44  N   UNL A   1      39.872  29.415  29.788  1.00  0.00    -0.354 N 
ATOM     45  N   UNL A   1      39.054  30.827  32.220  1.00  0.00    -0.248 NA
ATOM     46  C   UNL A   1      37.661  32.347  33.313  1.00  0.00     0.031 C 
ATOM     47  C   UNL A   1      38.676  29.717  27.938  1.00  0.00     0.029 A 
ATOM     48  C   UNL A   1      38.774  30.085  29.271  1.00  0.00     0.049 A 
ATOM     49  H   UNL A   1      40.191  29.486  30.716  1.00  0.00     0.167 HD
ATOM     50  C   UNL A   1      38.093  31.287  31.329  1.00  0.00     0.074 A 
ATOM     51  C   UNL A   1      37.244  32.200  32.064  1.00  0.00     0.031 C 
ATOM     52  C   UNL A   1      37.931  30.980  30.018  1.00  0.00     0.037 A 
BRANCH  39  53
ATOM     53  C   UNL A   1      42.158  27.059  27.813  1.00  0.00     0.064 A 
ATOM     54  C   UNL A   1      41.715  25.768  27.494  1.00  0.00     0.173 A 
ATOM     55  C   UNL A   1      43.109  27.655  26.971  1.00  0.00     0.173 A 
ATOM     56  F   UNL A   1      40.816  25.151  28.275  1.00  0.00    -0.203 F 
ATOM     57  C   UNL A   1      42.225  25.088  26.391  1.00  0.00     0.198 A 
ATOM     58  C   UNL A   1      43.596  26.983  25.853  1.00  0.00     0.198 A 
ATOM     59  F   UNL A   1      43.562  28.892  27.228  1.00  0.00    -0.203 F 
ATOM     60  F   UNL A   1      41.821  23.836  26.132  1.00  0.00    -0.200 F 
ATOM     61  C   UNL A   1      43.160  25.698  25.568  1.00  0.00     0.200 A 
ATOM     62  F   UNL A   1      44.492  27.579  25.052  1.00  0.00    -0.200 F 
ATOM     63  F   UNL A   1      43.645  25.045  24.504  1.00  0.00    -0.200 F 
ENDBRANCH  39  53
BRANCH  40  64
ATOM     64  C   UNL A   1      39.045  32.037  35.871  1.00  0.00     0.064 A 
ATOM     65  C   UNL A   1      39.448  33.364  36.072  1.00  0.00     0.173 A 
ATOM     66  C   UNL A   1      38.200  31.457  36.828  1.00  0.00     0.173 A 
ATOM     67  F   UNL A   1      40.274  33.953  35.196  1.00  0.00    -0.203 F 
ATOM     68  C   UNL A   1      39.036  34.078  37.196  1.00  0.00     0.198 A 
ATOM     69  C   UNL A   1      37.769  32.180  37.938  1.00  0.00     0.198 A 
ATOM     70  F   UNL A   1      37.787  30.190  36.678  1.00  0.00    -0.203 F 
ATOM     71  F   UNL A   1      39.468  35.333  37.385  1.00  0.00    -0.200 F 
ATOM     72  C   UNL A   1      38.193  33.487  38.125  1.00  0.00     0.200 A 
ATOM     73  F   UNL A   1      36.946  31.610  38.829  1.00  0.00    -0.200 F 
ATOM     74  F   UNL A   1      37.794  34.176  39.203  1.00  0.00    -0.200 F 
ENDBRANCH  40  64
BRANCH  52  75
ATOM     75  C   UNL A   1      36.773  31.608  29.303  1.00  0.00     0.064 A 
ATOM     76  C   UNL A   1      35.645  30.860  28.934  1.00  0.00     0.173 A 
ATOM     77  C   UNL A   1      36.773  32.983  29.025  1.00  0.00     0.173 A 
ATOM     78  F   UNL A   1      35.607  29.540  29.165  1.00  0.00    -0.203 F 
ATOM     79  C   UNL A   1      34.568  31.463  28.292  1.00  0.00     0.198 A 
ATOM     80  C   UNL A   1      35.683  33.587  28.404  1.00  0.00     0.198 A 
ATOM     81  F   UNL A   1      37.826  33.741  29.363  1.00  0.00    -0.203 F 
ATOM     82  F   UNL A   1      33.517  30.723  27.912  1.00  0.00    -0.200 F 
ATOM     83  C   UNL A   1      34.584  32.826  28.035  1.00  0.00     0.200 A 
ATOM     84  F   UNL A   1      35.695  34.905  28.165  1.00  0.00    -0.200 F 
ATOM     85  F   UNL A   1      33.542  33.406  27.423  1.00  0.00    -0.200 F 
ENDBRANCH  52  75
ENDBRANCH  26  27
ENDBRANCH  18  21
ENDBRANCH  16  17
ENDBRANCH  15  16
ENDBRANCH   1  15
TORSDOF 15
ENDMDL
MODEL 3
REMARK VINA RESULT:     -10.0      3.493     10.057
REMARK SMILES CCCC[C@H](C(=O)NCCCNC(=O)c1ccc(-c2c3nc(c(-c4c(F)c(F)c(F)c(F)c4F)c4ccc([nH]4)c(-c4c(F)c(F)c(F)c(F)c4F)c4nc(c(-c5c(F)c(F)c(F)c(F)c5F)c5ccc2[nH]5)C=C4)C=C3)cc1)[C@H](C)O
REMARK SMILES IDX 9 1 8 2 6 3 7 4 5 6 4 7 3 8 2 9 1 10 78 11 79 12 80 13 10 15
REMARK SMILES IDX 11 16 12 17 13 18 14 20 15 21 16 22 77 23 17 24 76 25 18 26
REMARK SMILES IDX 19 27 20 28 70 29 21 30 75 31 69 32 71 33 22 34 74 35 68 36
REMARK SMILES IDX 67 37 23 39 55 40 35 41 54 42 36 43 39 44 53 45 72 46 37 47
REMARK SMILES IDX 38 48 52 50 73 51 40 52 24 53 25 54 33 55 26 56 27 57 31 58
REMARK SMILES IDX 34 59 28 60 29 61 32 62 30 63 56 64 57 65 65 66 58 67 59 68
REMARK SMILES IDX 63 69 66 70 60 71 61 72 64 73 62 74 41 75 42 76 50 77 43 78
REMARK SMILES IDX 44 79 48 80 51 81 45 82 46 83 49 84 47 85
REMARK H PARENT 8 5 80 14 12 19 71 38 39 49
REMARK Flexibility Score: inf
ROOT
ATOM      1  C   UNL A   1      42.674  22.031  25.769  1.00  0.00     0.117 C 
ENDROOT
BRANCH   1   2
ATOM      2  N   UNL A   1      44.111  21.914  25.617  1.00  0.00    -0.356 N 
ATOM      3  C   UNL A   1      45.141  22.714  25.964  1.00  0.00     0.225 C 
ATOM      4  O   UNL A   1      46.267  22.266  25.710  1.00  0.00    -0.275 OA
ATOM      5  H   UNL A   1      44.392  21.082  25.173  1.00  0.00     0.163 HD
BRANCH   3   6
ATOM      6  C   UNL A   1      45.020  24.089  26.615  1.00  0.00     0.107 C 
BRANCH   6   7
ATOM      7  C   UNL A   1      45.874  24.344  27.876  1.00  0.00     0.016 C 
BRANCH   7   8
ATOM      8  C   UNL A   1      46.996  25.386  27.797  1.00  0.00     0.001 C 
BRANCH   8   9
ATOM      9  C   UNL A   1      48.421  24.828  27.740  1.00  0.00    -0.003 C 
ATOM     10  C   UNL A   1      49.391  25.668  26.918  1.00  0.00     0.004 C 
ENDBRANCH   8   9
ENDBRANCH   7   8
ENDBRANCH   6   7
BRANCH   6  11
ATOM     11  C   UNL A   1      44.988  25.312  25.668  1.00  0.00     0.123 C 
ATOM     12  C   UNL A   1      43.626  25.605  25.053  1.00  0.00     0.039 C 
BRANCH  11  13
ATOM     13  O   UNL A   1      45.958  25.221  24.627  1.00  0.00    -0.393 OA
ATOM     14  H   UNL A   1      46.801  24.916  24.996  1.00  0.00     0.210 HD
ENDBRANCH  11  13
ENDBRANCH   6  11
ENDBRANCH   3   6
ENDBRANCH   1   2
BRANCH   1  15
ATOM     15  C   UNL A   1      42.076  21.041  26.767  1.00  0.00     0.042 C 
BRANCH  15  16
ATOM     16  C   UNL A   1      40.813  21.490  27.490  1.00  0.00     0.118 C 
BRANCH  16  17
ATOM     17  N   UNL A   1      39.690  21.695  26.593  1.00  0.00    -0.352 N 
ATOM     18  C   UNL A   1      38.962  22.837  26.351  1.00  0.00     0.251 C 
ATOM     19  H   UNL A   1      39.409  20.901  26.083  1.00  0.00     0.163 HD
ATOM     20  O   UNL A   1      37.928  22.771  25.693  1.00  0.00    -0.269 OA
BRANCH  18  21
ATOM     21  C   UNL A   1      39.396  24.144  26.898  1.00  0.00     0.039 A 
ATOM     22  C   UNL A   1      40.010  25.062  26.040  1.00  0.00     0.014 A 
ATOM     23  C   UNL A   1      39.249  24.457  28.253  1.00  0.00     0.014 A 
ATOM     24  C   UNL A   1      40.425  26.306  26.526  1.00  0.00     0.010 A 
ATOM     25  C   UNL A   1      39.585  25.728  28.719  1.00  0.00     0.010 A 
ATOM     26  C   UNL A   1      40.196  26.660  27.865  1.00  0.00    -0.014 A 
BRANCH  26  27
ATOM     27  C   UNL A   1      40.631  27.977  28.403  1.00  0.00     0.031 A 
ATOM     28  C   UNL A   1      42.088  28.225  28.695  1.00  0.00     0.074 A 
ATOM     29  C   UNL A   1      39.723  28.933  28.675  1.00  0.00     0.049 A 
ATOM     30  N   UNL A   1      42.660  29.271  29.235  1.00  0.00    -0.248 NA
ATOM     31  C   UNL A   1      43.022  27.138  28.362  1.00  0.00     0.031 C 
ATOM     32  C   UNL A   1      38.278  28.809  28.479  1.00  0.00     0.029 A 
ATOM     33  N   UNL A   1      39.882  30.198  29.185  1.00  0.00    -0.354 N 
ATOM     34  C   UNL A   1      44.010  28.958  29.329  1.00  0.00     0.074 A 
ATOM     35  C   UNL A   1      44.167  27.608  28.835  1.00  0.00     0.031 C 
ATOM     36  C   UNL A   1      37.686  29.959  28.840  1.00  0.00     0.029 A 
ATOM     37  C   UNL A   1      38.703  30.889  29.325  1.00  0.00     0.049 A 
ATOM     38  H   UNL A   1      40.759  30.575  29.427  1.00  0.00     0.167 HD
ATOM     39  C   UNL A   1      45.032  29.733  29.765  1.00  0.00     0.037 A 
ATOM     40  C   UNL A   1      38.469  32.130  29.794  1.00  0.00     0.037 A 
ATOM     41  C   UNL A   1      44.888  31.093  30.212  1.00  0.00     0.049 A 
ATOM     42  C   UNL A   1      39.624  32.979  30.252  1.00  0.00     0.074 A 
ATOM     43  C   UNL A   1      45.873  31.979  30.610  1.00  0.00     0.029 A 
ATOM     44  N   UNL A   1      43.679  31.765  30.312  1.00  0.00    -0.354 N 
ATOM     45  N   UNL A   1      40.901  32.689  30.285  1.00  0.00    -0.248 NA
ATOM     46  C   UNL A   1      39.303  34.330  30.734  1.00  0.00     0.031 C 
ATOM     47  C   UNL A   1      45.257  33.180  30.980  1.00  0.00     0.029 A 
ATOM     48  C   UNL A   1      43.893  33.052  30.777  1.00  0.00     0.049 A 
ATOM     49  H   UNL A   1      42.801  31.384  30.085  1.00  0.00     0.167 HD
ATOM     50  C   UNL A   1      41.538  33.826  30.765  1.00  0.00     0.074 A 
ATOM     51  C   UNL A   1      40.508  34.816  30.998  1.00  0.00     0.031 C 
ATOM     52  C   UNL A   1      42.859  34.029  30.992  1.00  0.00     0.037 A 
BRANCH  39  53
ATOM     53  C   UNL A   1      46.405  29.128  29.769  1.00  0.00     0.064 A 
ATOM     54  C   UNL A   1      47.306  29.345  28.716  1.00  0.00     0.173 A 
ATOM     55  C   UNL A   1      46.837  28.349  30.854  1.00  0.00     0.173 A 
ATOM     56  F   UNL A   1      46.936  30.072  27.652  1.00  0.00    -0.203 F 
ATOM     57  C   UNL A   1      48.579  28.780  28.734  1.00  0.00     0.198 A 
ATOM     58  C   UNL A   1      48.120  27.810  30.882  1.00  0.00     0.198 A 
ATOM     59  F   UNL A   1      46.017  28.117  31.890  1.00  0.00    -0.203 F 
ATOM     60  F   UNL A   1      49.405  28.962  27.696  1.00  0.00    -0.200 F 
ATOM     61  C   UNL A   1      48.986  28.018  29.820  1.00  0.00     0.200 A 
ATOM     62  F   UNL A   1      48.517  27.083  31.936  1.00  0.00    -0.200 F 
ATOM     63  F   UNL A   1      50.214  27.481  29.838  1.00  0.00    -0.200 F 
ENDBRANCH  39  53
BRANCH  40  64
ATOM     64  C   UNL A   1      37.082  32.660  29.823  1.00  0.00     0.064 A 
ATOM     65  C   UNL A   1      36.272  32.482  30.953  1.00  0.00     0.173 A 
ATOM     66  C   UNL A   1      36.538  33.347  28.729  1.00  0.00     0.173 A 
ATOM     67  F   UNL A   1      36.741  31.810  32.014  1.00  0.00    -0.203 F 
ATOM     68  C   UNL A   1      34.963  32.958  30.981  1.00  0.00     0.198 A 
ATOM     69  C   UNL A   1      35.237  33.845  28.768  1.00  0.00     0.198 A 
ATOM     70  F   UNL A   1      37.275  33.543  27.626  1.00  0.00    -0.203 F 
ATOM     71  F   UNL A   1      34.196  32.740  32.059  1.00  0.00    -0.200 F 
ATOM     72  C   UNL A   1      34.449  33.644  29.891  1.00  0.00     0.200 A 
ATOM     73  F   UNL A   1      34.746  34.516  27.717  1.00  0.00    -0.200 F 
ATOM     74  F   UNL A   1      33.191  34.105  29.920  1.00  0.00    -0.200 F 
ENDBRANCH  40  64
BRANCH  52  75
ATOM     75  C   UNL A   1      43.270  35.384  31.486  1.00  0.00     0.064 A 
ATOM     76  C   UNL A   1      43.259  35.701  32.852  1.00  0.00     0.173 A 
ATOM     77  C   UNL A   1      43.723  36.360  30.586  1.00  0.00     0.173 A 
ATOM     78  F   UNL A   1      42.820  34.806  33.749  1.00  0.00    -0.203 F 
ATOM     79  C   UNL A   1      43.668  36.955  33.297  1.00  0.00     0.198 A 
ATOM     80  C   UNL A   1      44.154  37.604  31.037  1.00  0.00     0.198 A 
ATOM     81  F   UNL A   1      43.757  36.102  29.270  1.00  0.00    -0.203 F 
ATOM     82  F   UNL A   1      43.613  37.252  34.602  1.00  0.00    -0.200 F 
ATOM     83  C   UNL A   1      44.121  37.902  32.390  1.00  0.00     0.200 A 
ATOM     84  F   UNL A   1      44.600  38.515  30.161  1.00  0.00    -0.200 F 
ATOM     85  F   UNL A   1      44.520  39.107  32.822  1.00  0.00    -0.200 F 
ENDBRANCH  52  75
ENDBRANCH  26  27
ENDBRANCH  18  21
ENDBRANCH  16  17
ENDBRANCH  15  16
ENDBRANCH   1  15
TORSDOF 15
ENDMDL
