MODEL 1
REMARK VINA RESULT:     -14.1      0.000      0.000
REMARK SMILES C[C@]1(O)CC[C@@H]2[C@H]3CCC4=C/C(=N\OCC(=O)NCCCNC(=O)c5ccc(-c6c7nc(c(-c8c(F)c(F)c(F)c(F)c8F)c8ccc([nH]8)c(-c8c(F)c(F)c(F)c(F)c8F)c8nc(c(-c9c(F)c(F)c(F)c(F)c9F)c9ccc6[nH]9)C=C8)C=C7)cc5)CC[C@@]4(C)[C@@H]3CC[C@]21C
REMARK SMILES IDX 19 1 18 2 16 3 17 4 15 6 14 7 13 8 1 9 2 10 4 11 95 12 5 13
REMARK SMILES IDX 6 14 94 15 96 16 7 17 93 18 8 19 92 20 9 21 90 22 10 23
REMARK SMILES IDX 89 24 91 25 11 26 88 27 12 28 3 29 20 31 21 32 22 33 23 34
REMARK SMILES IDX 24 36 25 37 26 38 87 39 27 40 86 41 28 42 29 43 30 44 80 45
REMARK SMILES IDX 31 46 85 47 79 48 81 49 32 50 84 51 78 52 77 53 33 55 65 56
REMARK SMILES IDX 45 57 64 58 46 59 49 60 63 61 82 62 47 63 48 64 62 66 83 67
REMARK SMILES IDX 50 68 34 69 35 70 43 71 36 72 37 73 41 74 44 75 38 76 39 77
REMARK SMILES IDX 42 78 40 79 66 80 67 81 75 82 68 83 69 84 73 85 76 86 70 87
REMARK SMILES IDX 71 88 74 89 72 90 51 91 52 92 60 93 53 94 54 95 58 96 61 97
REMARK SMILES IDX 55 98 56 99 59 100 57 101
REMARK H PARENT 18 5 3 30 22 35 81 54 49 65
REMARK Flexibility Score: inf
ROOT
ATOM      1  C   UNL A   1      36.245  19.652  25.232  1.00  0.00     0.117 C 
ENDROOT
BRANCH   1   2
ATOM      2  N   UNL A   1      35.351  18.680  24.627  1.00  0.00    -0.353 N 
ATOM      3  C   UNL A   1      33.981  18.662  24.595  1.00  0.00     0.260 C 
ATOM      4  O   UNL A   1      33.438  17.723  24.007  1.00  0.00    -0.271 OA
ATOM      5  H   UNL A   1      35.794  17.925  24.174  1.00  0.00     0.163 HD
BRANCH   3   6
ATOM      6  C   UNL A   1      33.170  19.817  25.183  1.00  0.00     0.363 C 
BRANCH   6   7
ATOM      7  O   UNL A   1      32.937  20.858  24.250  1.00  0.00    -0.385 OA
BRANCH   7   8
ATOM      8  N   UNL A   1      34.039  21.731  24.203  1.00  0.00    -0.091 NA
ATOM      9  C   UNL A   1      28.962  31.364  22.968  1.00  0.00     0.042 C 
ATOM     10  C   UNL A   1      29.459  30.018  22.416  1.00  0.00     0.068 C 
ATOM     11  C   UNL A   1      28.242  29.061  22.373  1.00  0.00     0.036 C 
ATOM     12  C   UNL A   1      30.555  29.248  23.271  1.00  0.00    -0.001 C 
ATOM     13  C   UNL A   1      28.455  28.139  23.563  1.00  0.00     0.007 C 
ATOM     14  C   UNL A   1      29.921  27.845  23.420  1.00  0.00     0.001 C 
ATOM     15  C   UNL A   1      31.923  28.967  22.610  1.00  0.00     0.010 C 
ATOM     16  C   UNL A   1      30.789  29.965  24.625  1.00  0.00     0.015 C 
ATOM     17  C   UNL A   1      30.619  26.977  24.457  1.00  0.00    -0.003 C 
ATOM     18  C   UNL A   1      32.780  27.964  23.431  1.00  0.00     0.005 C 
ATOM     19  C   UNL A   1      29.855  25.682  24.755  1.00  0.00     0.008 C 
ATOM     20  C   UNL A   1      32.038  26.669  23.895  1.00  0.00     0.002 C 
ATOM     21  C   UNL A   1      30.610  24.849  25.782  1.00  0.00     0.032 C 
ATOM     22  C   UNL A   1      32.871  25.734  24.850  1.00  0.00    -0.008 C 
ATOM     23  C   UNL A   1      32.004  24.542  25.293  1.00  0.00    -0.062 C 
ATOM     24  C   UNL A   1      34.136  25.246  24.080  1.00  0.00     0.018 C 
ATOM     25  C   UNL A   1      33.319  26.473  26.132  1.00  0.00     0.016 C 
ATOM     26  C   UNL A   1      32.402  23.260  25.241  1.00  0.00     0.027 C 
ATOM     27  C   UNL A   1      34.767  23.992  24.677  1.00  0.00     0.061 C 
ATOM     28  C   UNL A   1      33.730  22.896  24.685  1.00  0.00     0.080 C 
BRANCH  10  29
ATOM     29  O   UNL A   1      29.906  30.228  21.080  1.00  0.00    -0.390 OA
ATOM     30  H   UNL A   1      30.724  29.727  20.930  1.00  0.00     0.211 HD
ENDBRANCH  10  29
ENDBRANCH   7   8
ENDBRANCH   6   7
ENDBRANCH   3   6
ENDBRANCH   1   2
BRANCH   1  31
ATOM     31  C   UNL A   1      37.657  19.581  24.645  1.00  0.00     0.042 C 
BRANCH  31  32
ATOM     32  C   UNL A   1      38.765  20.140  25.540  1.00  0.00     0.118 C 
BRANCH  32  33
ATOM     33  N   UNL A   1      39.847  19.188  25.751  1.00  0.00    -0.352 N 
ATOM     34  C   UNL A   1      41.180  19.350  26.037  1.00  0.00     0.251 C 
ATOM     35  H   UNL A   1      39.568  18.246  25.674  1.00  0.00     0.163 HD
ATOM     36  O   UNL A   1      41.910  18.360  25.967  1.00  0.00    -0.269 OA
BRANCH  34  37
ATOM     37  C   UNL A   1      41.784  20.653  26.415  1.00  0.00     0.039 A 
ATOM     38  C   UNL A   1      42.042  21.587  25.400  1.00  0.00     0.014 A 
ATOM     39  C   UNL A   1      42.203  20.946  27.711  1.00  0.00     0.014 A 
ATOM     40  C   UNL A   1      42.644  22.823  25.689  1.00  0.00     0.010 A 
ATOM     41  C   UNL A   1      42.761  22.200  28.002  1.00  0.00     0.010 A 
ATOM     42  C   UNL A   1      42.965  23.177  27.006  1.00  0.00    -0.014 A 
BRANCH  42  43
ATOM     43  C   UNL A   1      43.442  24.560  27.358  1.00  0.00     0.031 A 
ATOM     44  C   UNL A   1      42.484  25.628  27.838  1.00  0.00     0.074 A 
ATOM     45  C   UNL A   1      44.722  24.925  27.113  1.00  0.00     0.049 A 
ATOM     46  N   UNL A   1      42.701  26.906  28.053  1.00  0.00    -0.248 NA
ATOM     47  C   UNL A   1      41.092  25.217  28.067  1.00  0.00     0.031 C 
ATOM     48  C   UNL A   1      45.762  24.066  26.541  1.00  0.00     0.029 A 
ATOM     49  N   UNL A   1      45.353  26.145  27.251  1.00  0.00    -0.354 N 
ATOM     50  C   UNL A   1      41.473  27.449  28.415  1.00  0.00     0.074 A 
ATOM     51  C   UNL A   1      40.504  26.376  28.329  1.00  0.00     0.031 C 
ATOM     52  C   UNL A   1      46.886  24.780  26.367  1.00  0.00     0.029 A 
ATOM     53  C   UNL A   1      46.652  26.155  26.797  1.00  0.00     0.049 A 
ATOM     54  H   UNL A   1      44.915  26.936  27.639  1.00  0.00     0.167 HD
ATOM     55  C   UNL A   1      41.175  28.709  28.818  1.00  0.00     0.037 A 
ATOM     56  C   UNL A   1      47.560  27.149  26.718  1.00  0.00     0.037 A 
ATOM     57  C   UNL A   1      42.128  29.780  28.966  1.00  0.00     0.049 A 
ATOM     58  C   UNL A   1      47.221  28.530  27.209  1.00  0.00     0.074 A 
ATOM     59  C   UNL A   1      41.929  31.044  29.501  1.00  0.00     0.029 A 
ATOM     60  N   UNL A   1      43.454  29.720  28.576  1.00  0.00    -0.354 N 
ATOM     61  N   UNL A   1      46.084  28.989  27.664  1.00  0.00    -0.248 NA
ATOM     62  C   UNL A   1      48.305  29.525  27.193  1.00  0.00     0.031 C 
ATOM     63  C   UNL A   1      43.127  31.760  29.401  1.00  0.00     0.029 A 
ATOM     64  C   UNL A   1      44.082  30.929  28.842  1.00  0.00     0.049 A 
ATOM     65  H   UNL A   1      43.889  28.936  28.169  1.00  0.00     0.167 HD
ATOM     66  C   UNL A   1      46.326  30.308  28.029  1.00  0.00     0.074 A 
ATOM     67  C   UNL A   1      47.716  30.579  27.739  1.00  0.00     0.031 C 
ATOM     68  C   UNL A   1      45.466  31.206  28.566  1.00  0.00     0.037 A 
BRANCH  55  69
ATOM     69  C   UNL A   1      39.747  29.004  29.182  1.00  0.00     0.064 A 
ATOM     70  C   UNL A   1      38.828  29.458  28.223  1.00  0.00     0.173 A 
ATOM     71  C   UNL A   1      39.272  28.763  30.481  1.00  0.00     0.173 A 
ATOM     72  F   UNL A   1      39.231  29.701  26.966  1.00  0.00    -0.203 F 
ATOM     73  C   UNL A   1      37.498  29.693  28.557  1.00  0.00     0.198 A 
ATOM     74  C   UNL A   1      37.934  28.970  30.805  1.00  0.00     0.198 A 
ATOM     75  F   UNL A   1      40.103  28.308  31.432  1.00  0.00    -0.203 F 
ATOM     76  F   UNL A   1      36.653  30.169  27.634  1.00  0.00    -0.200 F 
ATOM     77  C   UNL A   1      37.051  29.442  29.845  1.00  0.00     0.200 A 
ATOM     78  F   UNL A   1      37.496  28.707  32.043  1.00  0.00    -0.200 F 
ATOM     79  F   UNL A   1      35.766  29.656  30.162  1.00  0.00    -0.200 F 
ENDBRANCH  55  69
BRANCH  56  80
ATOM     80  C   UNL A   1      48.919  26.873  26.182  1.00  0.00     0.064 A 
ATOM     81  C   UNL A   1      49.210  27.081  24.828  1.00  0.00     0.173 A 
ATOM     82  C   UNL A   1      49.936  26.363  27.001  1.00  0.00     0.173 A 
ATOM     83  F   UNL A   1      48.257  27.539  24.002  1.00  0.00    -0.203 F 
ATOM     84  C   UNL A   1      50.462  26.766  24.305  1.00  0.00     0.198 A 
ATOM     85  C   UNL A   1      51.195  26.070  26.481  1.00  0.00     0.198 A 
ATOM     86  F   UNL A   1      49.704  26.145  28.303  1.00  0.00    -0.203 F 
ATOM     87  F   UNL A   1      50.697  26.926  22.995  1.00  0.00    -0.200 F 
ATOM     88  C   UNL A   1      51.455  26.263  25.132  1.00  0.00     0.200 A 
ATOM     89  F   UNL A   1      52.154  25.590  27.285  1.00  0.00    -0.200 F 
ATOM     90  F   UNL A   1      52.657  25.955  24.628  1.00  0.00    -0.200 F 
ENDBRANCH  56  80
BRANCH  68  91
ATOM     91  C   UNL A   1      46.010  32.557  28.928  1.00  0.00     0.064 A 
ATOM     92  C   UNL A   1      45.971  33.635  28.032  1.00  0.00     0.173 A 
ATOM     93  C   UNL A   1      46.564  32.781  30.199  1.00  0.00     0.173 A 
ATOM     94  F   UNL A   1      45.471  33.469  26.799  1.00  0.00    -0.203 F 
ATOM     95  C   UNL A   1      46.488  34.880  28.385  1.00  0.00     0.198 A 
ATOM     96  C   UNL A   1      47.056  34.033  30.558  1.00  0.00     0.198 A 
ATOM     97  F   UNL A   1      46.625  31.785  31.095  1.00  0.00    -0.203 F 
ATOM     98  F   UNL A   1      46.483  35.882  27.495  1.00  0.00    -0.200 F 
ATOM     99  C   UNL A   1      47.024  35.080  29.649  1.00  0.00     0.200 A 
ATOM    100  F   UNL A   1      47.566  34.226  31.783  1.00  0.00    -0.200 F 
ATOM    101  F   UNL A   1      47.520  36.278  29.986  1.00  0.00    -0.200 F 
ENDBRANCH  68  91
ENDBRANCH  42  43
ENDBRANCH  34  37
ENDBRANCH  32  33
ENDBRANCH  31  32
ENDBRANCH   1  31
TORSDOF 13
ENDMDL
MODEL 2
REMARK VINA RESULT:     -13.9      4.512      8.706
REMARK SMILES C[C@]1(O)CC[C@@H]2[C@H]3CCC4=C/C(=N\OCC(=O)NCCCNC(=O)c5ccc(-c6c7nc(c(-c8c(F)c(F)c(F)c(F)c8F)c8ccc([nH]8)c(-c8c(F)c(F)c(F)c(F)c8F)c8nc(c(-c9c(F)c(F)c(F)c(F)c9F)c9ccc6[nH]9)C=C8)C=C7)cc5)CC[C@@]4(C)[C@@H]3CC[C@]21C
REMARK SMILES IDX 19 1 18 2 16 3 17 4 15 6 14 7 13 8 1 9 2 10 4 11 95 12 5 13
REMARK SMILES IDX 6 14 94 15 96 16 7 17 93 18 8 19 92 20 9 21 90 22 10 23
REMARK SMILES IDX 89 24 91 25 11 26 88 27 12 28 3 29 20 31 21 32 22 33 23 34
REMARK SMILES IDX 24 36 25 37 26 38 87 39 27 40 86 41 28 42 29 43 30 44 80 45
REMARK SMILES IDX 31 46 85 47 79 48 81 49 32 50 84 51 78 52 77 53 33 55 65 56
REMARK SMILES IDX 45 57 64 58 46 59 49 60 63 61 82 62 47 63 48 64 62 66 83 67
REMARK SMILES IDX 50 68 34 69 35 70 43 71 36 72 37 73 41 74 44 75 38 76 39 77
REMARK SMILES IDX 42 78 40 79 66 80 67 81 75 82 68 83 69 84 73 85 76 86 70 87
REMARK SMILES IDX 71 88 74 89 72 90 51 91 52 92 60 93 53 94 54 95 58 96 61 97
REMARK SMILES IDX 55 98 56 99 59 100 57 101
REMARK H PARENT 18 5 3 30 22 35 81 54 49 65
REMARK Flexibility Score: inf
ROOT
ATOM      1  C   UNL A   1      40.829  19.984  26.224  1.00  0.00     0.117 C 
ENDROOT
BRANCH   1   2
ATOM      2  N   UNL A   1      40.189  21.282  26.343  1.00  0.00    -0.353 N 
ATOM      3  C   UNL A   1      38.966  21.693  25.880  1.00  0.00     0.260 C 
ATOM      4  O   UNL A   1      38.632  22.858  26.112  1.00  0.00    -0.271 OA
ATOM      5  H   UNL A   1      40.709  21.966  26.825  1.00  0.00     0.163 HD
BRANCH   3   6
ATOM      6  C   UNL A   1      38.019  20.709  25.192  1.00  0.00     0.363 C 
BRANCH   6   7
ATOM      7  O   UNL A   1      36.754  21.277  24.896  1.00  0.00    -0.385 OA
BRANCH   7   8
ATOM      8  N   UNL A   1      35.977  21.380  26.064  1.00  0.00    -0.091 NA
ATOM      9  C   UNL A   1      28.961  29.279  23.153  1.00  0.00     0.042 C 
ATOM     10  C   UNL A   1      30.352  28.807  23.606  1.00  0.00     0.068 C 
ATOM     11  C   UNL A   1      31.257  28.770  22.349  1.00  0.00     0.036 C 
ATOM     12  C   UNL A   1      30.452  27.348  24.226  1.00  0.00    -0.001 C 
ATOM     13  C   UNL A   1      31.360  27.291  22.013  1.00  0.00     0.007 C 
ATOM     14  C   UNL A   1      31.585  26.716  23.383  1.00  0.00     0.001 C 
ATOM     15  C   UNL A   1      30.955  27.212  25.680  1.00  0.00     0.010 C 
ATOM     16  C   UNL A   1      29.097  26.607  24.092  1.00  0.00     0.015 C 
ATOM     17  C   UNL A   1      31.693  25.208  23.557  1.00  0.00    -0.003 C 
ATOM     18  C   UNL A   1      31.284  25.740  26.056  1.00  0.00     0.005 C 
ATOM     19  C   UNL A   1      32.663  24.566  22.558  1.00  0.00     0.008 C 
ATOM     20  C   UNL A   1      32.161  24.964  25.021  1.00  0.00     0.002 C 
ATOM     21  C   UNL A   1      32.745  23.064  22.794  1.00  0.00     0.032 C 
ATOM     22  C   UNL A   1      32.362  23.434  25.339  1.00  0.00    -0.008 C 
ATOM     23  C   UNL A   1      33.174  22.773  24.211  1.00  0.00    -0.062 C 
ATOM     24  C   UNL A   1      33.105  23.308  26.705  1.00  0.00     0.018 C 
ATOM     25  C   UNL A   1      31.014  22.683  25.432  1.00  0.00     0.016 C 
ATOM     26  C   UNL A   1      34.244  21.987  24.413  1.00  0.00     0.027 C 
ATOM     27  C   UNL A   1      33.781  21.957  26.909  1.00  0.00     0.061 C 
ATOM     28  C   UNL A   1      34.762  21.741  25.782  1.00  0.00     0.080 C 
BRANCH  10  29
ATOM     29  O   UNL A   1      30.877  29.782  24.502  1.00  0.00    -0.390 OA
ATOM     30  H   UNL A   1      31.808  29.951  24.286  1.00  0.00     0.211 HD
ENDBRANCH  10  29
ENDBRANCH   7   8
ENDBRANCH   6   7
ENDBRANCH   3   6
ENDBRANCH   1   2
BRANCH   1  31
ATOM     31  C   UNL A   1      42.327  20.103  25.934  1.00  0.00     0.042 C 
BRANCH  31  32
ATOM     32  C   UNL A   1      43.003  21.358  26.492  1.00  0.00     0.118 C 
BRANCH  32  33
ATOM     33  N   UNL A   1      43.681  22.133  25.463  1.00  0.00    -0.352 N 
ATOM     34  C   UNL A   1      43.793  23.484  25.245  1.00  0.00     0.251 C 
ATOM     35  H   UNL A   1      44.149  21.582  24.795  1.00  0.00     0.163 HD
ATOM     36  O   UNL A   1      44.268  23.859  24.171  1.00  0.00    -0.269 OA
BRANCH  34  37
ATOM     37  C   UNL A   1      43.364  24.511  26.229  1.00  0.00     0.039 A 
ATOM     38  C   UNL A   1      42.249  24.234  27.036  1.00  0.00     0.014 A 
ATOM     39  C   UNL A   1      43.948  25.773  26.311  1.00  0.00     0.014 A 
ATOM     40  C   UNL A   1      41.774  25.178  27.962  1.00  0.00     0.010 A 
ATOM     41  C   UNL A   1      43.498  26.694  27.269  1.00  0.00     0.010 A 
ATOM     42  C   UNL A   1      42.424  26.407  28.135  1.00  0.00    -0.014 A 
BRANCH  42  43
ATOM     43  C   UNL A   1      42.042  27.354  29.241  1.00  0.00     0.031 A 
ATOM     44  C   UNL A   1      42.701  27.289  30.600  1.00  0.00     0.074 A 
ATOM     45  C   UNL A   1      40.991  28.194  29.089  1.00  0.00     0.049 A 
ATOM     46  N   UNL A   1      42.399  27.934  31.704  1.00  0.00    -0.248 NA
ATOM     47  C   UNL A   1      43.819  26.348  30.752  1.00  0.00     0.031 C 
ATOM     48  C   UNL A   1      40.158  28.313  27.890  1.00  0.00     0.029 A 
ATOM     49  N   UNL A   1      40.396  29.064  29.982  1.00  0.00    -0.354 N 
ATOM     50  C   UNL A   1      43.270  27.458  32.679  1.00  0.00     0.074 A 
ATOM     51  C   UNL A   1      44.068  26.426  32.052  1.00  0.00     0.031 C 
ATOM     52  C   UNL A   1      39.163  29.185  28.121  1.00  0.00     0.029 A 
ATOM     53  C   UNL A   1      39.269  29.682  29.490  1.00  0.00     0.049 A 
ATOM     54  H   UNL A   1      40.747  29.227  30.886  1.00  0.00     0.167 HD
ATOM     55  C   UNL A   1      43.424  27.860  33.965  1.00  0.00     0.037 A 
ATOM     56  C   UNL A   1      38.404  30.541  30.065  1.00  0.00     0.037 A 
ATOM     57  C   UNL A   1      42.683  28.921  34.598  1.00  0.00     0.049 A 
ATOM     58  C   UNL A   1      38.618  31.005  31.479  1.00  0.00     0.074 A 
ATOM     59  C   UNL A   1      42.876  29.480  35.852  1.00  0.00     0.029 A 
ATOM     60  N   UNL A   1      41.606  29.581  34.033  1.00  0.00    -0.354 N 
ATOM     61  N   UNL A   1      39.526  30.631  32.343  1.00  0.00    -0.248 NA
ATOM     62  C   UNL A   1      37.693  32.030  31.989  1.00  0.00     0.031 C 
ATOM     63  C   UNL A   1      41.893  30.454  36.059  1.00  0.00     0.029 A 
ATOM     64  C   UNL A   1      41.113  30.530  34.918  1.00  0.00     0.049 A 
ATOM     65  H   UNL A   1      41.241  29.404  33.135  1.00  0.00     0.167 HD
ATOM     66  C   UNL A   1      39.311  31.402  33.479  1.00  0.00     0.074 A 
ATOM     67  C   UNL A   1      38.185  32.263  33.197  1.00  0.00     0.031 C 
ATOM     68  C   UNL A   1      39.999  31.398  34.645  1.00  0.00     0.037 A 
BRANCH  55  69
ATOM     69  C   UNL A   1      44.482  27.176  34.785  1.00  0.00     0.064 A 
ATOM     70  C   UNL A   1      45.791  27.677  34.853  1.00  0.00     0.173 A 
ATOM     71  C   UNL A   1      44.169  26.053  35.568  1.00  0.00     0.173 A 
ATOM     72  F   UNL A   1      46.140  28.750  34.127  1.00  0.00    -0.203 F 
ATOM     73  C   UNL A   1      46.756  27.061  35.645  1.00  0.00     0.198 A 
ATOM     74  C   UNL A   1      45.128  25.458  36.382  1.00  0.00     0.198 A 
ATOM     75  F   UNL A   1      42.927  25.546  35.557  1.00  0.00    -0.203 F 
ATOM     76  F   UNL A   1      48.009  27.533  35.657  1.00  0.00    -0.200 F 
ATOM     77  C   UNL A   1      46.422  25.957  36.414  1.00  0.00     0.200 A 
ATOM     78  F   UNL A   1      44.801  24.404  37.142  1.00  0.00    -0.200 F 
ATOM     79  F   UNL A   1      47.349  25.373  37.186  1.00  0.00    -0.200 F 
ENDBRANCH  55  69
BRANCH  56  80
ATOM     80  C   UNL A   1      37.254  31.069  29.284  1.00  0.00     0.064 A 
ATOM     81  C   UNL A   1      37.247  32.394  28.828  1.00  0.00     0.173 A 
ATOM     82  C   UNL A   1      36.130  30.276  29.014  1.00  0.00     0.173 A 
ATOM     83  F   UNL A   1      38.288  33.196  29.090  1.00  0.00    -0.203 F 
ATOM     84  C   UNL A   1      36.147  32.914  28.149  1.00  0.00     0.198 A 
ATOM     85  C   UNL A   1      35.040  30.791  28.316  1.00  0.00     0.198 A 
ATOM     86  F   UNL A   1      36.089  29.004  29.433  1.00  0.00    -0.203 F 
ATOM     87  F   UNL A   1      36.145  34.199  27.770  1.00  0.00    -0.200 F 
ATOM     88  C   UNL A   1      35.046  32.112  27.892  1.00  0.00     0.200 A 
ATOM     89  F   UNL A   1      33.980  30.012  28.063  1.00  0.00    -0.200 F 
ATOM     90  F   UNL A   1      33.985  32.616  27.245  1.00  0.00    -0.200 F 
ENDBRANCH  56  80
BRANCH  68  91
ATOM     91  C   UNL A   1      39.592  32.389  35.696  1.00  0.00     0.064 A 
ATOM     92  C   UNL A   1      38.612  32.092  36.653  1.00  0.00     0.173 A 
ATOM     93  C   UNL A   1      40.206  33.651  35.755  1.00  0.00     0.173 A 
ATOM     94  F   UNL A   1      37.982  30.909  36.628  1.00  0.00    -0.203 F 
ATOM     95  C   UNL A   1      38.244  33.030  37.616  1.00  0.00     0.198 A 
ATOM     96  C   UNL A   1      39.853  34.576  36.734  1.00  0.00     0.198 A 
ATOM     97  F   UNL A   1      41.150  33.986  34.863  1.00  0.00    -0.203 F 
ATOM     98  F   UNL A   1      37.270  32.741  38.492  1.00  0.00    -0.200 F 
ATOM     99  C   UNL A   1      38.868  34.267  37.660  1.00  0.00     0.200 A 
ATOM    100  F   UNL A   1      40.464  35.768  36.780  1.00  0.00    -0.200 F 
ATOM    101  F   UNL A   1      38.512  35.167  38.587  1.00  0.00    -0.200 F 
ENDBRANCH  68  91
ENDBRANCH  42  43
ENDBRANCH  34  37
ENDBRANCH  32  33
ENDBRANCH  31  32
ENDBRANCH   1  31
TORSDOF 13
ENDMDL
MODEL 3
REMARK VINA RESULT:     -13.8      4.482      8.611
REMARK SMILES C[C@]1(O)CC[C@@H]2[C@H]3CCC4=C/C(=N\OCC(=O)NCCCNC(=O)c5ccc(-c6c7nc(c(-c8c(F)c(F)c(F)c(F)c8F)c8ccc([nH]8)c(-c8c(F)c(F)c(F)c(F)c8F)c8nc(c(-c9c(F)c(F)c(F)c(F)c9F)c9ccc6[nH]9)C=C8)C=C7)cc5)CC[C@@]4(C)[C@@H]3CC[C@]21C
REMARK SMILES IDX 19 1 18 2 16 3 17 4 15 6 14 7 13 8 1 9 2 10 4 11 95 12 5 13
REMARK SMILES IDX 6 14 94 15 96 16 7 17 93 18 8 19 92 20 9 21 90 22 10 23
REMARK SMILES IDX 89 24 91 25 11 26 88 27 12 28 3 29 20 31 21 32 22 33 23 34
REMARK SMILES IDX 24 36 25 37 26 38 87 39 27 40 86 41 28 42 29 43 30 44 80 45
REMARK SMILES IDX 31 46 85 47 79 48 81 49 32 50 84 51 78 52 77 53 33 55 65 56
REMARK SMILES IDX 45 57 64 58 46 59 49 60 63 61 82 62 47 63 48 64 62 66 83 67
REMARK SMILES IDX 50 68 34 69 35 70 43 71 36 72 37 73 41 74 44 75 38 76 39 77
REMARK SMILES IDX 42 78 40 79 66 80 67 81 75 82 68 83 69 84 73 85 76 86 70 87
REMARK SMILES IDX 71 88 74 89 72 90 51 91 52 92 60 93 53 94 54 95 58 96 61 97
REMARK SMILES IDX 55 98 56 99 59 100 57 101
REMARK H PARENT 18 5 3 30 22 35 81 54 49 65
REMARK Flexibility Score: inf
ROOT
ATOM      1  C   UNL A   1      40.691  19.831  26.237  1.00  0.00     0.117 C 
ENDROOT
BRANCH   1   2
ATOM      2  N   UNL A   1      40.066  21.142  26.298  1.00  0.00    -0.353 N 
ATOM      3  C   UNL A   1      38.872  21.560  25.773  1.00  0.00     0.260 C 
ATOM      4  O   UNL A   1      38.546  22.735  25.964  1.00  0.00    -0.271 OA
ATOM      5  H   UNL A   1      40.576  21.828  26.788  1.00  0.00     0.163 HD
BRANCH   3   6
ATOM      6  C   UNL A   1      37.940  20.575  25.065  1.00  0.00     0.363 C 
BRANCH   6   7
ATOM      7  O   UNL A   1      36.661  21.123  24.797  1.00  0.00    -0.385 OA
BRANCH   7   8
ATOM      8  N   UNL A   1      35.924  21.256  25.988  1.00  0.00    -0.091 NA
ATOM      9  C   UNL A   1      29.024  29.311  23.231  1.00  0.00     0.042 C 
ATOM     10  C   UNL A   1      30.417  28.806  23.643  1.00  0.00     0.068 C 
ATOM     11  C   UNL A   1      31.279  28.735  22.359  1.00  0.00     0.036 C 
ATOM     12  C   UNL A   1      30.499  27.351  24.274  1.00  0.00    -0.001 C 
ATOM     13  C   UNL A   1      31.333  27.251  22.033  1.00  0.00     0.007 C 
ATOM     14  C   UNL A   1      31.587  26.682  23.400  1.00  0.00     0.001 C 
ATOM     15  C   UNL A   1      31.045  27.214  25.712  1.00  0.00     0.010 C 
ATOM     16  C   UNL A   1      29.122  26.644  24.190  1.00  0.00     0.015 C 
ATOM     17  C   UNL A   1      31.662  25.173  23.585  1.00  0.00    -0.003 C 
ATOM     18  C   UNL A   1      31.348  25.737  26.091  1.00  0.00     0.005 C 
ATOM     19  C   UNL A   1      32.582  24.498  22.561  1.00  0.00     0.008 C 
ATOM     20  C   UNL A   1      32.171  24.929  25.036  1.00  0.00     0.002 C 
ATOM     21  C   UNL A   1      32.633  22.996  22.808  1.00  0.00     0.032 C 
ATOM     22  C   UNL A   1      32.342  23.397  25.361  1.00  0.00    -0.008 C 
ATOM     23  C   UNL A   1      33.100  22.706  24.213  1.00  0.00    -0.062 C 
ATOM     24  C   UNL A   1      33.125  23.264  26.703  1.00  0.00     0.018 C 
ATOM     25  C   UNL A   1      30.979  22.683  25.504  1.00  0.00     0.016 C 
ATOM     26  C   UNL A   1      34.155  21.894  24.388  1.00  0.00     0.027 C 
ATOM     27  C   UNL A   1      33.773  21.897  26.898  1.00  0.00     0.061 C 
ATOM     28  C   UNL A   1      34.711  21.646  25.742  1.00  0.00     0.080 C 
BRANCH  10  29
ATOM     29  O   UNL A   1      30.996  29.774  24.514  1.00  0.00    -0.390 OA
ATOM     30  H   UNL A   1      30.423  29.897  25.288  1.00  0.00     0.211 HD
ENDBRANCH  10  29
ENDBRANCH   7   8
ENDBRANCH   6   7
ENDBRANCH   3   6
ENDBRANCH   1   2
BRANCH   1  31
ATOM     31  C   UNL A   1      42.204  19.922  26.031  1.00  0.00     0.042 C 
BRANCH  31  32
ATOM     32  C   UNL A   1      42.854  21.218  26.521  1.00  0.00     0.118 C 
BRANCH  32  33
ATOM     33  N   UNL A   1      43.496  21.963  25.447  1.00  0.00    -0.352 N 
ATOM     34  C   UNL A   1      43.601  23.307  25.187  1.00  0.00     0.251 C 
ATOM     35  H   UNL A   1      43.942  21.392  24.780  1.00  0.00     0.163 HD
ATOM     36  O   UNL A   1      44.039  23.650  24.087  1.00  0.00    -0.269 OA
BRANCH  34  37
ATOM     37  C   UNL A   1      43.206  24.362  26.155  1.00  0.00     0.039 A 
ATOM     38  C   UNL A   1      42.078  24.138  26.959  1.00  0.00     0.014 A 
ATOM     39  C   UNL A   1      43.836  25.602  26.223  1.00  0.00     0.014 A 
ATOM     40  C   UNL A   1      41.633  25.112  27.869  1.00  0.00     0.010 A 
ATOM     41  C   UNL A   1      43.417  26.553  27.166  1.00  0.00     0.010 A 
ATOM     42  C   UNL A   1      42.328  26.317  28.030  1.00  0.00    -0.014 A 
BRANCH  42  43
ATOM     43  C   UNL A   1      41.976  27.293  29.121  1.00  0.00     0.031 A 
ATOM     44  C   UNL A   1      42.673  27.264  30.463  1.00  0.00     0.074 A 
ATOM     45  C   UNL A   1      40.920  28.129  28.976  1.00  0.00     0.049 A 
ATOM     46  N   UNL A   1      42.401  27.937  31.557  1.00  0.00    -0.248 NA
ATOM     47  C   UNL A   1      43.795  26.326  30.608  1.00  0.00     0.031 C 
ATOM     48  C   UNL A   1      40.055  28.217  27.798  1.00  0.00     0.029 A 
ATOM     49  N   UNL A   1      40.350  29.022  29.862  1.00  0.00    -0.354 N 
ATOM     50  C   UNL A   1      43.298  27.486  32.519  1.00  0.00     0.074 A 
ATOM     51  C   UNL A   1      44.080  26.438  31.898  1.00  0.00     0.031 C 
ATOM     52  C   UNL A   1      39.066  29.095  28.034  1.00  0.00     0.029 A 
ATOM     53  C   UNL A   1      39.210  29.627  29.386  1.00  0.00     0.049 A 
ATOM     54  H   UNL A   1      40.726  29.209  30.752  1.00  0.00     0.167 HD
ATOM     55  C   UNL A   1      43.488  27.922  33.790  1.00  0.00     0.037 A 
ATOM     56  C   UNL A   1      38.360  30.501  29.962  1.00  0.00     0.037 A 
ATOM     57  C   UNL A   1      42.764  28.999  34.415  1.00  0.00     0.049 A 
ATOM     58  C   UNL A   1      38.613  31.002  31.357  1.00  0.00     0.074 A 
ATOM     59  C   UNL A   1      42.992  29.590  35.649  1.00  0.00     0.029 A 
ATOM     60  N   UNL A   1      41.671  29.644  33.863  1.00  0.00    -0.354 N 
ATOM     61  N   UNL A   1      39.544  30.650  32.205  1.00  0.00    -0.248 NA
ATOM     62  C   UNL A   1      37.702  32.039  31.866  1.00  0.00     0.031 C 
ATOM     63  C   UNL A   1      42.014  30.569  35.857  1.00  0.00     0.029 A 
ATOM     64  C   UNL A   1      41.203  30.616  34.737  1.00  0.00     0.049 A 
ATOM     65  H   UNL A   1      41.282  29.443  32.981  1.00  0.00     0.167 HD
ATOM     66  C   UNL A   1      39.361  31.451  33.326  1.00  0.00     0.074 A 
ATOM     67  C   UNL A   1      38.227  32.304  33.053  1.00  0.00     0.031 C 
ATOM     68  C   UNL A   1      40.081  31.476  34.472  1.00  0.00     0.037 A 
BRANCH  55  69
ATOM     69  C   UNL A   1      44.568  27.259  34.598  1.00  0.00     0.064 A 
ATOM     70  C   UNL A   1      45.887  27.739  34.587  1.00  0.00     0.173 A 
ATOM     71  C   UNL A   1      44.271  26.182  35.448  1.00  0.00     0.173 A 
ATOM     72  F   UNL A   1      46.223  28.768  33.794  1.00  0.00    -0.203 F 
ATOM     73  C   UNL A   1      46.875  27.145  35.367  1.00  0.00     0.198 A 
ATOM     74  C   UNL A   1      45.254  25.609  36.250  1.00  0.00     0.198 A 
ATOM     75  F   UNL A   1      43.022  25.697  35.515  1.00  0.00    -0.203 F 
ATOM     76  F   UNL A   1      48.135  27.594  35.303  1.00  0.00    -0.200 F 
ATOM     77  C   UNL A   1      46.556  26.086  36.203  1.00  0.00     0.200 A 
ATOM     78  F   UNL A   1      44.943  24.600  37.074  1.00  0.00    -0.200 F 
ATOM     79  F   UNL A   1      47.506  25.523  36.963  1.00  0.00    -0.200 F 
ENDBRANCH  55  69
BRANCH  56  80
ATOM     80  C   UNL A   1      37.188  31.008  29.200  1.00  0.00     0.064 A 
ATOM     81  C   UNL A   1      37.164  32.324  28.718  1.00  0.00     0.173 A 
ATOM     82  C   UNL A   1      36.062  30.206  28.973  1.00  0.00     0.173 A 
ATOM     83  F   UNL A   1      38.207  33.136  28.939  1.00  0.00    -0.203 F 
ATOM     84  C   UNL A   1      36.045  32.827  28.057  1.00  0.00     0.198 A 
ATOM     85  C   UNL A   1      34.953  30.702  28.292  1.00  0.00     0.198 A 
ATOM     86  F   UNL A   1      36.038  28.941  29.417  1.00  0.00    -0.203 F 
ATOM     87  F   UNL A   1      36.027  34.104  27.653  1.00  0.00    -0.200 F 
ATOM     88  C   UNL A   1      34.942  32.015  27.843  1.00  0.00     0.200 A 
ATOM     89  F   UNL A   1      33.891  29.913  28.080  1.00  0.00    -0.200 F 
ATOM     90  F   UNL A   1      33.863  32.501  27.213  1.00  0.00    -0.200 F 
ENDBRANCH  56  80
BRANCH  68  91
ATOM     91  C   UNL A   1      39.703  32.495  35.508  1.00  0.00     0.064 A 
ATOM     92  C   UNL A   1      40.263  33.780  35.521  1.00  0.00     0.173 A 
ATOM     93  C   UNL A   1      38.751  32.184  36.492  1.00  0.00     0.173 A 
ATOM     94  F   UNL A   1      41.191  34.121  34.614  1.00  0.00    -0.203 F 
ATOM     95  C   UNL A   1      39.903  34.709  36.495  1.00  0.00     0.198 A 
ATOM     96  C   UNL A   1      38.375  33.124  37.449  1.00  0.00     0.198 A 
ATOM     97  F   UNL A   1      38.183  30.970  36.525  1.00  0.00    -0.203 F 
ATOM     98  F   UNL A   1      40.488  35.915  36.516  1.00  0.00    -0.200 F 
ATOM     99  C   UNL A   1      38.956  34.382  37.454  1.00  0.00     0.200 A 
ATOM    100  F   UNL A   1      37.453  32.809  38.370  1.00  0.00    -0.200 F 
ATOM    101  F   UNL A   1      38.612  35.277  38.390  1.00  0.00    -0.200 F 
ENDBRANCH  68  91
ENDBRANCH  42  43
ENDBRANCH  34  37
ENDBRANCH  32  33
ENDBRANCH  31  32
ENDBRANCH   1  31
TORSDOF 13
ENDMDL
