MODEL 1
REMARK VINA RESULT:     -14.5      0.000      0.000
REMARK SMILES C[C@H]1N=c2ccc(OC(F)(F)F)cc2=C1CCN1C(=O)c2ccc(C(=O)NCCCNC(=O)c3ccc(-c4c5nc(c(-c6c(F)c(F)c(F)c(F)c6F)c6ccc([nH]6)c(-c6c(F)c(F)c(F)c(F)c6F)c6nc(c(-c7c(F)c(F)c(F)c(F)c7F)c7ccc4[nH]7)C=C6)C=C5)cc3)cc2C1=O
REMARK SMILES IDX 25 1 26 2 27 3 24 5 18 6 19 7 99 8 20 9 21 10 98 11 100 12
REMARK SMILES IDX 22 13 97 14 23 15 17 16 16 17 15 18 1 19 2 20 3 21 4 22
REMARK SMILES IDX 14 23 5 24 13 25 6 26 7 27 8 28 9 29 10 30 11 31 12 32 28 33
REMARK SMILES IDX 29 34 30 35 31 36 32 37 33 39 34 40 35 41 96 42 36 43 95 44
REMARK SMILES IDX 37 45 38 46 39 47 89 48 40 49 94 50 88 51 90 52 41 53 93 54
REMARK SMILES IDX 87 55 86 56 42 58 74 59 54 60 73 61 55 62 58 63 72 64 91 65
REMARK SMILES IDX 56 66 57 67 71 69 92 70 59 71 43 72 44 73 52 74 45 75 46 76
REMARK SMILES IDX 50 77 53 78 47 79 48 80 51 81 49 82 75 83 76 84 84 85 77 86
REMARK SMILES IDX 78 87 82 88 85 89 79 90 80 91 83 92 81 93 60 94 61 95 69 96
REMARK SMILES IDX 62 97 63 98 67 99 70 100 64 101 65 102 68 103 66 104
REMARK H PARENT 27 4 31 38 90 57 58 68
REMARK Flexibility Score: inf
ROOT
ATOM      1  C   UNL A   1      29.797  29.690  23.169  1.00  0.00     0.251 C 
ATOM      2  O   UNL A   1      28.984  30.018  22.307  1.00  0.00    -0.269 OA
ATOM      3  N   UNL A   1      30.211  30.618  24.081  1.00  0.00    -0.352 N 
ATOM      4  H   UNL A   1      29.892  31.532  23.899  1.00  0.00     0.163 HD
ENDROOT
BRANCH   1   5
ATOM      5  C   UNL A   1      30.253  28.288  23.202  1.00  0.00     0.040 A 
ATOM      6  N   UNL A   1      32.682  24.458  22.515  1.00  0.00    -0.274 N 
ATOM      7  C   UNL A   1      31.409  24.270  22.987  1.00  0.00     0.261 C 
ATOM      8  C   UNL A   1      32.895  25.766  22.166  1.00  0.00     0.261 C 
ATOM      9  O   UNL A   1      30.848  23.239  23.303  1.00  0.00    -0.269 OA
ATOM     10  C   UNL A   1      30.813  25.596  23.110  1.00  0.00     0.053 A 
ATOM     11  C   UNL A   1      31.720  26.519  22.615  1.00  0.00     0.054 A 
ATOM     12  O   UNL A   1      33.855  26.274  21.621  1.00  0.00    -0.269 OA
ATOM     13  C   UNL A   1      29.609  25.970  23.670  1.00  0.00     0.015 A 
ATOM     14  C   UNL A   1      31.472  27.883  22.641  1.00  0.00     0.028 A 
ATOM     15  C   UNL A   1      29.328  27.337  23.705  1.00  0.00     0.015 A 
BRANCH   6  16
ATOM     16  C   UNL A   1      33.628  23.366  22.368  1.00  0.00     0.134 C 
BRANCH  16  17
ATOM     17  C   UNL A   1      34.976  23.530  23.098  1.00  0.00     0.056 C 
BRANCH  17  18
ATOM     18  C   UNL A   1      35.218  22.896  24.449  1.00  0.00    -0.035 C 
ATOM     19  C   UNL A   1      37.631  22.550  25.214  1.00  0.00     0.038 C 
ATOM     20  C   UNL A   1      36.336  21.910  24.705  1.00  0.00     0.129 C 
ATOM     21  N   UNL A   1      35.875  21.079  25.844  1.00  0.00    -0.277 NA
ATOM     22  C   UNL A   1      34.860  21.750  26.289  1.00  0.00     0.066 A 
ATOM     23  C   UNL A   1      34.380  22.893  25.492  1.00  0.00     0.005 A 
ATOM     24  C   UNL A   1      34.115  21.431  27.515  1.00  0.00     0.032 A 
ATOM     25  C   UNL A   1      33.168  23.570  25.848  1.00  0.00     0.057 A 
ATOM     26  C   UNL A   1      33.035  22.161  27.834  1.00  0.00     0.049 A 
ATOM     27  C   UNL A   1      32.525  23.238  26.985  1.00  0.00     0.130 A 
BRANCH  27  28
ATOM     28  O   UNL A   1      31.370  23.921  27.308  1.00  0.00    -0.406 OA
BRANCH  28  29
ATOM     29  C   UNL A   1      30.103  23.388  26.956  1.00  0.00     0.573 C 
ATOM     30  F   UNL A   1      30.209  22.547  25.905  1.00  0.00    -0.132 F 
ATOM     31  F   UNL A   1      29.545  22.738  27.998  1.00  0.00    -0.132 F 
ATOM     32  F   UNL A   1      29.285  24.402  26.602  1.00  0.00    -0.132 F 
ENDBRANCH  28  29
ENDBRANCH  27  28
ENDBRANCH  17  18
ENDBRANCH  16  17
ENDBRANCH   6  16
ENDBRANCH   1   5
BRANCH   3  33
ATOM     33  C   UNL A   1      31.034  30.504  25.273  1.00  0.00     0.118 C 
BRANCH  33  34
ATOM     34  C   UNL A   1      31.010  31.782  26.106  1.00  0.00     0.042 C 
BRANCH  34  35
ATOM     35  C   UNL A   1      32.290  32.072  26.893  1.00  0.00     0.118 C 
BRANCH  35  36
ATOM     36  N   UNL A   1      32.407  33.447  27.361  1.00  0.00    -0.352 N 
ATOM     37  C   UNL A   1      33.395  34.047  28.111  1.00  0.00     0.251 C 
ATOM     38  H   UNL A   1      31.663  34.039  27.103  1.00  0.00     0.163 HD
ATOM     39  O   UNL A   1      33.260  35.212  28.477  1.00  0.00    -0.269 OA
BRANCH  37  40
ATOM     40  C   UNL A   1      34.598  33.287  28.527  1.00  0.00     0.039 A 
ATOM     41  C   UNL A   1      34.492  32.022  29.106  1.00  0.00     0.014 A 
ATOM     42  C   UNL A   1      35.860  33.864  28.351  1.00  0.00     0.014 A 
ATOM     43  C   UNL A   1      35.612  31.432  29.687  1.00  0.00     0.010 A 
ATOM     44  C   UNL A   1      37.000  33.225  28.856  1.00  0.00     0.010 A 
ATOM     45  C   UNL A   1      36.879  32.035  29.588  1.00  0.00    -0.014 A 
BRANCH  45  46
ATOM     46  C   UNL A   1      38.042  31.424  30.293  1.00  0.00     0.031 A 
ATOM     47  C   UNL A   1      38.301  31.727  31.748  1.00  0.00     0.074 A 
ATOM     48  C   UNL A   1      38.818  30.529  29.650  1.00  0.00     0.049 A 
ATOM     49  N   UNL A   1      39.236  31.254  32.538  1.00  0.00    -0.248 NA
ATOM     50  C   UNL A   1      37.393  32.678  32.410  1.00  0.00     0.031 C 
ATOM     51  C   UNL A   1      38.660  30.129  28.251  1.00  0.00     0.029 A 
ATOM     52  N   UNL A   1      39.871  29.767  30.095  1.00  0.00    -0.354 N 
ATOM     53  C   UNL A   1      39.028  31.848  33.777  1.00  0.00     0.074 A 
ATOM     54  C   UNL A   1      37.907  32.750  33.629  1.00  0.00     0.031 C 
ATOM     55  C   UNL A   1      39.536  29.152  27.972  1.00  0.00     0.029 A 
ATOM     56  C   UNL A   1      40.361  28.899  29.149  1.00  0.00     0.049 A 
ATOM     57  H   UNL A   1      40.240  29.837  31.005  1.00  0.00     0.167 HD
ATOM     58  C   UNL A   1      39.694  31.642  34.939  1.00  0.00     0.037 A 
ATOM     59  C   UNL A   1      41.366  28.004  29.217  1.00  0.00     0.037 A 
ATOM     60  C   UNL A   1      40.798  30.733  35.097  1.00  0.00     0.049 A 
ATOM     61  C   UNL A   1      42.138  27.860  30.500  1.00  0.00     0.074 A 
ATOM     62  C   UNL A   1      41.541  30.470  36.236  1.00  0.00     0.029 A 
ATOM     63  N   UNL A   1      41.311  29.930  34.091  1.00  0.00    -0.354 N 
ATOM     64  N   UNL A   1      41.932  28.433  31.659  1.00  0.00    -0.248 NA
ATOM     65  C   UNL A   1      43.292  26.949  30.479  1.00  0.00     0.031 C 
ATOM     66  C   UNL A   1      42.527  29.535  35.911  1.00  0.00     0.029 A 
ATOM     67  C   UNL A   1      42.370  29.181  34.581  1.00  0.00     0.049 A 
ATOM     68  H   UNL A   1      40.975  29.896  33.167  1.00  0.00     0.167 HD
ATOM     69  C   UNL A   1      42.911  27.936  32.510  1.00  0.00     0.074 A 
ATOM     70  C   UNL A   1      43.700  27.000  31.740  1.00  0.00     0.031 C 
ATOM     71  C   UNL A   1      43.136  28.236  33.812  1.00  0.00     0.037 A 
BRANCH  58  72
ATOM     72  C   UNL A   1      39.244  32.400  36.155  1.00  0.00     0.064 A 
ATOM     73  C   UNL A   1      38.326  31.845  37.059  1.00  0.00     0.173 A 
ATOM     74  C   UNL A   1      39.813  33.642  36.477  1.00  0.00     0.173 A 
ATOM     75  F   UNL A   1      37.748  30.664  36.794  1.00  0.00    -0.203 F 
ATOM     76  C   UNL A   1      37.993  32.506  38.237  1.00  0.00     0.198 A 
ATOM     77  C   UNL A   1      39.496  34.289  37.668  1.00  0.00     0.198 A 
ATOM     78  F   UNL A   1      40.704  34.211  35.650  1.00  0.00    -0.203 F 
ATOM     79  F   UNL A   1      37.100  31.966  39.078  1.00  0.00    -0.200 F 
ATOM     80  C   UNL A   1      38.587  33.721  38.546  1.00  0.00     0.200 A 
ATOM     81  F   UNL A   1      40.084  35.454  37.974  1.00  0.00    -0.200 F 
ATOM     82  F   UNL A   1      38.284  34.344  39.695  1.00  0.00    -0.200 F 
ENDBRANCH  58  72
BRANCH  59  83
ATOM     83  C   UNL A   1      41.697  27.162  28.037  1.00  0.00     0.064 A 
ATOM     84  C   UNL A   1      42.609  27.607  27.071  1.00  0.00     0.173 A 
ATOM     85  C   UNL A   1      41.101  25.906  27.842  1.00  0.00     0.173 A 
ATOM     86  F   UNL A   1      43.187  28.811  27.200  1.00  0.00    -0.203 F 
ATOM     87  C   UNL A   1      42.902  26.837  25.948  1.00  0.00     0.198 A 
ATOM     88  C   UNL A   1      41.418  25.123  26.734  1.00  0.00     0.198 A 
ATOM     89  F   UNL A   1      40.219  25.435  28.736  1.00  0.00    -0.203 F 
ATOM     90  F   UNL A   1      43.742  27.307  25.016  1.00  0.00    -0.200 F 
ATOM     91  C   UNL A   1      42.312  25.593  25.784  1.00  0.00     0.200 A 
ATOM     92  F   UNL A   1      40.856  23.916  26.588  1.00  0.00    -0.200 F 
ATOM     93  F   UNL A   1      42.597  24.850  24.706  1.00  0.00    -0.200 F 
ENDBRANCH  59  83
BRANCH  71  94
ATOM     94  C   UNL A   1      44.261  27.526  34.506  1.00  0.00     0.064 A 
ATOM     95  C   UNL A   1      45.541  28.091  34.591  1.00  0.00     0.173 A 
ATOM     96  C   UNL A   1      44.034  26.304  35.158  1.00  0.00     0.173 A 
ATOM     97  F   UNL A   1      45.809  29.251  33.974  1.00  0.00    -0.203 F 
ATOM     98  C   UNL A   1      46.559  27.451  35.293  1.00  0.00     0.198 A 
ATOM     99  C   UNL A   1      45.047  25.682  35.883  1.00  0.00     0.198 A 
ATOM    100  F   UNL A   1      42.825  25.727  35.113  1.00  0.00    -0.203 F 
ATOM    101  F   UNL A   1      47.784  27.993  35.335  1.00  0.00    -0.200 F 
ATOM    102  C   UNL A   1      46.309  26.254  35.946  1.00  0.00     0.200 A 
ATOM    103  F   UNL A   1      44.799  24.533  36.527  1.00  0.00    -0.200 F 
ATOM    104  F   UNL A   1      47.285  25.649  36.637  1.00  0.00    -0.200 F 
ENDBRANCH  71  94
ENDBRANCH  45  46
ENDBRANCH  37  40
ENDBRANCH  35  36
ENDBRANCH  34  35
ENDBRANCH  33  34
ENDBRANCH   3  33
TORSDOF 15
ENDMDL
MODEL 2
REMARK VINA RESULT:     -14.4      0.855      1.852
REMARK SMILES C[C@H]1N=c2ccc(OC(F)(F)F)cc2=C1CCN1C(=O)c2ccc(C(=O)NCCCNC(=O)c3ccc(-c4c5nc(c(-c6c(F)c(F)c(F)c(F)c6F)c6ccc([nH]6)c(-c6c(F)c(F)c(F)c(F)c6F)c6nc(c(-c7c(F)c(F)c(F)c(F)c7F)c7ccc4[nH]7)C=C6)C=C5)cc3)cc2C1=O
REMARK SMILES IDX 25 1 26 2 27 3 24 5 18 6 19 7 99 8 20 9 21 10 98 11 100 12
REMARK SMILES IDX 22 13 97 14 23 15 17 16 16 17 15 18 1 19 2 20 3 21 4 22
REMARK SMILES IDX 14 23 5 24 13 25 6 26 7 27 8 28 9 29 10 30 11 31 12 32 28 33
REMARK SMILES IDX 29 34 30 35 31 36 32 37 33 39 34 40 35 41 96 42 36 43 95 44
REMARK SMILES IDX 37 45 38 46 39 47 89 48 40 49 94 50 88 51 90 52 41 53 93 54
REMARK SMILES IDX 87 55 86 56 42 58 74 59 54 60 73 61 55 62 58 63 72 64 91 65
REMARK SMILES IDX 56 66 57 67 71 69 92 70 59 71 43 72 44 73 52 74 45 75 46 76
REMARK SMILES IDX 50 77 53 78 47 79 48 80 51 81 49 82 75 83 76 84 84 85 77 86
REMARK SMILES IDX 78 87 82 88 85 89 79 90 80 91 83 92 81 93 60 94 61 95 69 96
REMARK SMILES IDX 62 97 63 98 67 99 70 100 64 101 65 102 68 103 66 104
REMARK H PARENT 27 4 31 38 90 57 58 68
REMARK Flexibility Score: inf
ROOT
ATOM      1  C   UNL A   1      30.129  29.977  23.694  1.00  0.00     0.251 C 
ATOM      2  O   UNL A   1      29.273  30.426  22.934  1.00  0.00    -0.269 OA
ATOM      3  N   UNL A   1      30.688  30.800  24.629  1.00  0.00    -0.352 N 
ATOM      4  H   UNL A   1      30.427  31.745  24.541  1.00  0.00     0.163 HD
ENDROOT
BRANCH   1   5
ATOM      5  C   UNL A   1      30.476  28.547  23.586  1.00  0.00     0.040 A 
ATOM      6  N   UNL A   1      32.657  24.637  22.587  1.00  0.00    -0.274 N 
ATOM      7  C   UNL A   1      31.345  24.500  22.961  1.00  0.00     0.261 C 
ATOM      8  C   UNL A   1      32.988  25.954  22.409  1.00  0.00     0.261 C 
ATOM      9  O   UNL A   1      30.690  23.489  23.119  1.00  0.00    -0.269 OA
ATOM     10  C   UNL A   1      30.841  25.847  23.207  1.00  0.00     0.053 A 
ATOM     11  C   UNL A   1      31.845  26.745  22.877  1.00  0.00     0.054 A 
ATOM     12  O   UNL A   1      34.017  26.442  21.983  1.00  0.00    -0.269 OA
ATOM     13  C   UNL A   1      29.634  26.251  23.737  1.00  0.00     0.015 A 
ATOM     14  C   UNL A   1      31.697  28.112  23.051  1.00  0.00     0.028 A 
ATOM     15  C   UNL A   1      29.453  27.623  23.919  1.00  0.00     0.015 A 
BRANCH   6  16
ATOM     16  C   UNL A   1      33.528  23.496  22.366  1.00  0.00     0.134 C 
BRANCH  16  17
ATOM     17  C   UNL A   1      34.914  23.557  23.037  1.00  0.00     0.056 C 
BRANCH  17  18
ATOM     18  C   UNL A   1      35.163  22.910  24.380  1.00  0.00    -0.035 C 
ATOM     19  C   UNL A   1      37.579  22.509  25.106  1.00  0.00     0.038 C 
ATOM     20  C   UNL A   1      36.264  21.899  24.614  1.00  0.00     0.129 C 
ATOM     21  N   UNL A   1      35.803  21.071  25.755  1.00  0.00    -0.277 NA
ATOM     22  C   UNL A   1      34.810  21.761  26.219  1.00  0.00     0.066 A 
ATOM     23  C   UNL A   1      34.341  22.919  25.437  1.00  0.00     0.005 A 
ATOM     24  C   UNL A   1      34.077  21.451  27.455  1.00  0.00     0.032 A 
ATOM     25  C   UNL A   1      33.150  23.619  25.815  1.00  0.00     0.057 A 
ATOM     26  C   UNL A   1      33.018  22.202  27.795  1.00  0.00     0.049 A 
ATOM     27  C   UNL A   1      32.517  23.294  26.960  1.00  0.00     0.130 A 
BRANCH  27  28
ATOM     28  O   UNL A   1      31.382  24.000  27.305  1.00  0.00    -0.406 OA
BRANCH  28  29
ATOM     29  C   UNL A   1      30.106  23.552  26.876  1.00  0.00     0.573 C 
ATOM     30  F   UNL A   1      29.442  22.948  27.884  1.00  0.00    -0.132 F 
ATOM     31  F   UNL A   1      29.368  24.577  26.401  1.00  0.00    -0.132 F 
ATOM     32  F   UNL A   1      30.270  22.652  25.882  1.00  0.00    -0.132 F 
ENDBRANCH  28  29
ENDBRANCH  27  28
ENDBRANCH  17  18
ENDBRANCH  16  17
ENDBRANCH   6  16
ENDBRANCH   1   5
BRANCH   3  33
ATOM     33  C   UNL A   1      31.598  30.535  25.730  1.00  0.00     0.118 C 
BRANCH  33  34
ATOM     34  C   UNL A   1      31.419  31.535  26.869  1.00  0.00     0.042 C 
BRANCH  34  35
ATOM     35  C   UNL A   1      32.653  32.377  27.199  1.00  0.00     0.118 C 
BRANCH  35  36
ATOM     36  N   UNL A   1      32.360  33.764  27.533  1.00  0.00    -0.352 N 
ATOM     37  C   UNL A   1      32.986  34.615  28.420  1.00  0.00     0.251 C 
ATOM     38  H   UNL A   1      31.595  34.156  27.052  1.00  0.00     0.163 HD
ATOM     39  O   UNL A   1      32.525  35.735  28.620  1.00  0.00    -0.269 OA
BRANCH  37  40
ATOM     40  C   UNL A   1      34.184  34.173  29.175  1.00  0.00     0.039 A 
ATOM     41  C   UNL A   1      35.472  34.482  28.737  1.00  0.00     0.014 A 
ATOM     42  C   UNL A   1      34.011  33.417  30.339  1.00  0.00     0.014 A 
ATOM     43  C   UNL A   1      36.571  33.870  29.336  1.00  0.00     0.010 A 
ATOM     44  C   UNL A   1      35.124  32.876  30.995  1.00  0.00     0.010 A 
ATOM     45  C   UNL A   1      36.411  33.043  30.462  1.00  0.00    -0.014 A 
BRANCH  45  46
ATOM     46  C   UNL A   1      37.594  32.333  31.027  1.00  0.00     0.031 A 
ATOM     47  C   UNL A   1      38.040  32.597  32.444  1.00  0.00     0.074 A 
ATOM     48  C   UNL A   1      38.217  31.386  30.297  1.00  0.00     0.049 A 
ATOM     49  N   UNL A   1      39.018  32.041  33.121  1.00  0.00    -0.248 NA
ATOM     50  C   UNL A   1      37.293  33.610  33.208  1.00  0.00     0.031 C 
ATOM     51  C   UNL A   1      37.869  31.017  28.925  1.00  0.00     0.029 A 
ATOM     52  N   UNL A   1      39.248  30.538  30.618  1.00  0.00    -0.354 N 
ATOM     53  C   UNL A   1      39.001  32.636  34.376  1.00  0.00     0.074 A 
ATOM     54  C   UNL A   1      37.948  33.626  34.360  1.00  0.00     0.031 C 
ATOM     55  C   UNL A   1      38.625  29.976  28.545  1.00  0.00     0.029 A 
ATOM     56  C   UNL A   1      39.556  29.644  29.619  1.00  0.00     0.049 A 
ATOM     57  H   UNL A   1      39.723  30.566  31.479  1.00  0.00     0.167 HD
ATOM     58  C   UNL A   1      39.776  32.364  35.454  1.00  0.00     0.037 A 
ATOM     59  C   UNL A   1      40.486  28.670  29.570  1.00  0.00     0.037 A 
ATOM     60  C   UNL A   1      40.815  31.367  35.483  1.00  0.00     0.049 A 
ATOM     61  C   UNL A   1      41.385  28.450  30.755  1.00  0.00     0.074 A 
ATOM     62  C   UNL A   1      41.658  31.032  36.528  1.00  0.00     0.029 A 
ATOM     63  N   UNL A   1      41.143  30.537  34.423  1.00  0.00    -0.354 N 
ATOM     64  N   UNL A   1      41.359  29.024  31.932  1.00  0.00    -0.248 NA
ATOM     65  C   UNL A   1      42.452  27.451  30.600  1.00  0.00     0.031 C 
ATOM     66  C   UNL A   1      42.522  30.025  36.090  1.00  0.00     0.029 A 
ATOM     67  C   UNL A   1      42.186  29.701  34.786  1.00  0.00     0.049 A 
ATOM     68  H   UNL A   1      40.702  30.541  33.542  1.00  0.00     0.167 HD
ATOM     69  C   UNL A   1      42.385  28.441  32.663  1.00  0.00     0.074 A 
ATOM     70  C   UNL A   1      43.004  27.454  31.805  1.00  0.00     0.031 C 
ATOM     71  C   UNL A   1      42.781  28.706  33.932  1.00  0.00     0.037 A 
BRANCH  58  72
ATOM     72  C   UNL A   1      39.531  33.141  36.716  1.00  0.00     0.064 A 
ATOM     73  C   UNL A   1      40.194  34.353  36.962  1.00  0.00     0.173 A 
ATOM     74  C   UNL A   1      38.552  32.729  37.633  1.00  0.00     0.173 A 
ATOM     75  F   UNL A   1      41.144  34.786  36.121  1.00  0.00    -0.203 F 
ATOM     76  C   UNL A   1      39.886  35.121  38.082  1.00  0.00     0.198 A 
ATOM     77  C   UNL A   1      38.230  33.513  38.737  1.00  0.00     0.198 A 
ATOM     78  F   UNL A   1      37.883  31.583  37.437  1.00  0.00    -0.203 F 
ATOM     79  F   UNL A   1      40.544  36.267  38.307  1.00  0.00    -0.200 F 
ATOM     80  C   UNL A   1      38.897  34.707  38.961  1.00  0.00     0.200 A 
ATOM     81  F   UNL A   1      37.261  33.120  39.577  1.00  0.00    -0.200 F 
ATOM     82  F   UNL A   1      38.584  35.462  40.024  1.00  0.00    -0.200 F 
ENDBRANCH  58  72
BRANCH  59  83
ATOM     83  C   UNL A   1      40.611  27.819  28.357  1.00  0.00     0.064 A 
ATOM     84  C   UNL A   1      39.967  26.576  28.283  1.00  0.00     0.173 A 
ATOM     85  C   UNL A   1      41.384  28.220  27.257  1.00  0.00     0.173 A 
ATOM     86  F   UNL A   1      39.237  26.138  29.318  1.00  0.00    -0.203 F 
ATOM     87  C   UNL A   1      40.105  25.760  27.162  1.00  0.00     0.198 A 
ATOM     88  C   UNL A   1      41.495  27.417  26.124  1.00  0.00     0.198 A 
ATOM     89  F   UNL A   1      42.023  29.399  27.278  1.00  0.00    -0.203 F 
ATOM     90  F   UNL A   1      39.517  24.556  27.137  1.00  0.00    -0.200 F 
ATOM     91  C   UNL A   1      40.862  26.184  26.081  1.00  0.00     0.200 A 
ATOM     92  F   UNL A   1      42.217  27.837  25.076  1.00  0.00    -0.200 F 
ATOM     93  F   UNL A   1      40.990  25.401  25.002  1.00  0.00    -0.200 F 
ENDBRANCH  59  83
BRANCH  71  94
ATOM     94  C   UNL A   1      43.916  27.901  34.491  1.00  0.00     0.064 A 
ATOM     95  C   UNL A   1      45.235  28.376  34.461  1.00  0.00     0.173 A 
ATOM     96  C   UNL A   1      43.671  26.676  35.131  1.00  0.00     0.173 A 
ATOM     97  F   UNL A   1      45.521  29.534  33.849  1.00  0.00    -0.203 F 
ATOM     98  C   UNL A   1      46.270  27.647  35.040  1.00  0.00     0.198 A 
ATOM     99  C   UNL A   1      44.704  25.965  35.734  1.00  0.00     0.198 A 
ATOM    100  F   UNL A   1      42.426  26.183  35.194  1.00  0.00    -0.203 F 
ATOM    101  F   UNL A   1      47.529  28.104  34.971  1.00  0.00    -0.200 F 
ATOM    102  C   UNL A   1      46.003  26.448  35.684  1.00  0.00     0.200 A 
ATOM    103  F   UNL A   1      44.442  24.815  36.370  1.00  0.00    -0.200 F 
ATOM    104  F   UNL A   1      46.998  25.758  36.258  1.00  0.00    -0.200 F 
ENDBRANCH  71  94
ENDBRANCH  45  46
ENDBRANCH  37  40
ENDBRANCH  35  36
ENDBRANCH  34  35
ENDBRANCH  33  34
ENDBRANCH   3  33
TORSDOF 15
ENDMDL
MODEL 3
REMARK VINA RESULT:     -14.2      2.460      3.556
REMARK SMILES C[C@H]1N=c2ccc(OC(F)(F)F)cc2=C1CCN1C(=O)c2ccc(C(=O)NCCCNC(=O)c3ccc(-c4c5nc(c(-c6c(F)c(F)c(F)c(F)c6F)c6ccc([nH]6)c(-c6c(F)c(F)c(F)c(F)c6F)c6nc(c(-c7c(F)c(F)c(F)c(F)c7F)c7ccc4[nH]7)C=C6)C=C5)cc3)cc2C1=O
REMARK SMILES IDX 25 1 26 2 27 3 24 5 18 6 19 7 99 8 20 9 21 10 98 11 100 12
REMARK SMILES IDX 22 13 97 14 23 15 17 16 16 17 15 18 1 19 2 20 3 21 4 22
REMARK SMILES IDX 14 23 5 24 13 25 6 26 7 27 8 28 9 29 10 30 11 31 12 32 28 33
REMARK SMILES IDX 29 34 30 35 31 36 32 37 33 39 34 40 35 41 96 42 36 43 95 44
REMARK SMILES IDX 37 45 38 46 39 47 89 48 40 49 94 50 88 51 90 52 41 53 93 54
REMARK SMILES IDX 87 55 86 56 42 58 74 59 54 60 73 61 55 62 58 63 72 64 91 65
REMARK SMILES IDX 56 66 57 67 71 69 92 70 59 71 43 72 44 73 52 74 45 75 46 76
REMARK SMILES IDX 50 77 53 78 47 79 48 80 51 81 49 82 75 83 76 84 84 85 77 86
REMARK SMILES IDX 78 87 82 88 85 89 79 90 80 91 83 92 81 93 60 94 61 95 69 96
REMARK SMILES IDX 62 97 63 98 67 99 70 100 64 101 65 102 68 103 66 104
REMARK H PARENT 27 4 31 38 90 57 58 68
REMARK Flexibility Score: inf
ROOT
ATOM      1  C   UNL A   1      31.035  29.077  24.301  1.00  0.00     0.251 C 
ATOM      2  O   UNL A   1      30.257  29.019  23.351  1.00  0.00    -0.269 OA
ATOM      3  N   UNL A   1      31.160  30.249  24.990  1.00  0.00    -0.352 N 
ATOM      4  H   UNL A   1      30.678  31.007  24.587  1.00  0.00     0.163 HD
ENDROOT
BRANCH   1   5
ATOM      5  C   UNL A   1      31.766  27.852  24.680  1.00  0.00     0.040 A 
ATOM      6  N   UNL A   1      32.831  23.780  26.500  1.00  0.00    -0.274 N 
ATOM      7  C   UNL A   1      33.895  24.523  26.060  1.00  0.00     0.261 C 
ATOM      8  C   UNL A   1      31.670  24.506  26.471  1.00  0.00     0.261 C 
ATOM      9  O   UNL A   1      35.077  24.238  26.031  1.00  0.00    -0.269 OA
ATOM     10  C   UNL A   1      33.343  25.773  25.547  1.00  0.00     0.053 A 
ATOM     11  C   UNL A   1      31.979  25.768  25.790  1.00  0.00     0.054 A 
ATOM     12  O   UNL A   1      30.565  24.213  26.880  1.00  0.00    -0.269 OA
ATOM     13  C   UNL A   1      33.969  26.796  24.867  1.00  0.00     0.015 A 
ATOM     14  C   UNL A   1      31.152  26.798  25.371  1.00  0.00     0.028 A 
ATOM     15  C   UNL A   1      33.163  27.852  24.438  1.00  0.00     0.015 A 
BRANCH   6  16
ATOM     16  C   UNL A   1      32.978  22.416  26.979  1.00  0.00     0.134 C 
BRANCH  16  17
ATOM     17  C   UNL A   1      33.823  21.473  26.101  1.00  0.00     0.056 C 
BRANCH  17  18
ATOM     18  C   UNL A   1      33.419  21.154  24.679  1.00  0.00    -0.035 C 
ATOM     19  C   UNL A   1      33.780  22.936  22.886  1.00  0.00     0.038 C 
ATOM     20  C   UNL A   1      32.782  22.171  23.759  1.00  0.00     0.129 C 
ATOM     21  N   UNL A   1      31.988  21.380  22.787  1.00  0.00    -0.277 NA
ATOM     22  C   UNL A   1      32.424  20.176  22.983  1.00  0.00     0.066 A 
ATOM     23  C   UNL A   1      33.316  19.937  24.131  1.00  0.00     0.005 A 
ATOM     24  C   UNL A   1      32.060  19.008  22.167  1.00  0.00     0.032 A 
ATOM     25  C   UNL A   1      33.698  18.604  24.492  1.00  0.00     0.057 A 
ATOM     26  C   UNL A   1      32.522  17.797  22.514  1.00  0.00     0.049 A 
ATOM     27  C   UNL A   1      33.337  17.569  23.707  1.00  0.00     0.130 A 
BRANCH  27  28
ATOM     28  O   UNL A   1      33.736  16.299  24.073  1.00  0.00    -0.406 OA
BRANCH  28  29
ATOM     29  C   UNL A   1      33.246  15.714  25.269  1.00  0.00     0.573 C 
ATOM     30  F   UNL A   1      33.866  16.234  26.349  1.00  0.00    -0.132 F 
ATOM     31  F   UNL A   1      31.914  15.892  25.384  1.00  0.00    -0.132 F 
ATOM     32  F   UNL A   1      33.495  14.387  25.240  1.00  0.00    -0.132 F 
ENDBRANCH  28  29
ENDBRANCH  27  28
ENDBRANCH  17  18
ENDBRANCH  16  17
ENDBRANCH   6  16
ENDBRANCH   1   5
BRANCH   3  33
ATOM     33  C   UNL A   1      31.873  30.582  26.211  1.00  0.00     0.118 C 
BRANCH  33  34
ATOM     34  C   UNL A   1      31.530  31.984  26.706  1.00  0.00     0.042 C 
BRANCH  34  35
ATOM     35  C   UNL A   1      32.696  32.765  27.315  1.00  0.00     0.118 C 
BRANCH  35  36
ATOM     36  N   UNL A   1      32.368  34.134  27.691  1.00  0.00    -0.352 N 
ATOM     37  C   UNL A   1      32.981  34.977  28.594  1.00  0.00     0.251 C 
ATOM     38  H   UNL A   1      31.587  34.517  27.229  1.00  0.00     0.163 HD
ATOM     39  O   UNL A   1      32.491  36.078  28.830  1.00  0.00    -0.269 OA
BRANCH  37  40
ATOM     40  C   UNL A   1      34.198  34.548  29.324  1.00  0.00     0.039 A 
ATOM     41  C   UNL A   1      35.472  34.753  28.794  1.00  0.00     0.014 A 
ATOM     42  C   UNL A   1      34.059  33.909  30.562  1.00  0.00     0.014 A 
ATOM     43  C   UNL A   1      36.575  34.145  29.389  1.00  0.00     0.010 A 
ATOM     44  C   UNL A   1      35.182  33.377  31.207  1.00  0.00     0.010 A 
ATOM     45  C   UNL A   1      36.443  33.432  30.594  1.00  0.00    -0.014 A 
BRANCH  45  46
ATOM     46  C   UNL A   1      37.623  32.721  31.162  1.00  0.00     0.031 A 
ATOM     47  C   UNL A   1      38.115  33.039  32.552  1.00  0.00     0.074 A 
ATOM     48  C   UNL A   1      38.203  31.725  30.461  1.00  0.00     0.049 A 
ATOM     49  N   UNL A   1      39.098  32.492  33.228  1.00  0.00    -0.248 NA
ATOM     50  C   UNL A   1      37.414  34.106  33.286  1.00  0.00     0.031 C 
ATOM     51  C   UNL A   1      37.809  31.300  29.118  1.00  0.00     0.029 A 
ATOM     52  N   UNL A   1      39.223  30.867  30.794  1.00  0.00    -0.354 N 
ATOM     53  C   UNL A   1      39.130  33.145  34.454  1.00  0.00     0.074 A 
ATOM     54  C   UNL A   1      38.100  34.159  34.418  1.00  0.00     0.031 C 
ATOM     55  C   UNL A   1      38.529  30.224  28.768  1.00  0.00     0.029 A 
ATOM     56  C   UNL A   1      39.481  29.920  29.832  1.00  0.00     0.049 A 
ATOM     57  H   UNL A   1      39.721  30.924  31.641  1.00  0.00     0.167 HD
ATOM     58  C   UNL A   1      39.928  32.904  35.523  1.00  0.00     0.037 A 
ATOM     59  C   UNL A   1      40.386  28.921  29.804  1.00  0.00     0.037 A 
ATOM     60  C   UNL A   1      40.942  31.884  35.571  1.00  0.00     0.049 A 
ATOM     61  C   UNL A   1      41.312  28.734  30.975  1.00  0.00     0.074 A 
ATOM     62  C   UNL A   1      41.806  31.578  36.609  1.00  0.00     0.029 A 
ATOM     63  N   UNL A   1      41.221  30.997  34.543  1.00  0.00    -0.354 N 
ATOM     64  N   UNL A   1      41.332  29.364  32.123  1.00  0.00    -0.248 NA
ATOM     65  C   UNL A   1      42.350  27.702  30.839  1.00  0.00     0.031 C 
ATOM     66  C   UNL A   1      42.633  30.530  36.196  1.00  0.00     0.029 A 
ATOM     67  C   UNL A   1      42.254  30.153  34.918  1.00  0.00     0.049 A 
ATOM     68  H   UNL A   1      40.756  30.971  33.676  1.00  0.00     0.167 HD
ATOM     69  C   UNL A   1      42.364  28.790  32.854  1.00  0.00     0.074 A 
ATOM     70  C   UNL A   1      42.935  27.748  32.028  1.00  0.00     0.031 C 
ATOM     71  C   UNL A   1      42.801  29.105  34.097  1.00  0.00     0.037 A 
BRANCH  58  72
ATOM     72  C   UNL A   1      39.736  33.746  36.752  1.00  0.00     0.064 A 
ATOM     73  C   UNL A   1      40.315  35.020  36.856  1.00  0.00     0.173 A 
ATOM     74  C   UNL A   1      38.885  33.324  37.784  1.00  0.00     0.173 A 
ATOM     75  F   UNL A   1      41.143  35.466  35.901  1.00  0.00    -0.203 F 
ATOM     76  C   UNL A   1      40.049  35.838  37.951  1.00  0.00     0.198 A 
ATOM     77  C   UNL A   1      38.602  34.156  38.864  1.00  0.00     0.198 A 
ATOM     78  F   UNL A   1      38.299  32.118  37.726  1.00  0.00    -0.203 F 
ATOM     79  F   UNL A   1      40.626  37.045  38.040  1.00  0.00    -0.200 F 
ATOM     80  C   UNL A   1      39.184  35.411  38.947  1.00  0.00     0.200 A 
ATOM     81  F   UNL A   1      37.752  33.748  39.818  1.00  0.00    -0.200 F 
ATOM     82  F   UNL A   1      38.909  36.211  39.987  1.00  0.00    -0.200 F 
ENDBRANCH  58  72
BRANCH  59  83
ATOM     83  C   UNL A   1      40.457  28.011  28.631  1.00  0.00     0.064 A 
ATOM     84  C   UNL A   1      39.781  26.783  28.633  1.00  0.00     0.173 A 
ATOM     85  C   UNL A   1      41.210  28.339  27.494  1.00  0.00     0.173 A 
ATOM     86  F   UNL A   1      39.067  26.413  29.706  1.00  0.00    -0.203 F 
ATOM     87  C   UNL A   1      39.867  25.912  27.549  1.00  0.00     0.198 A 
ATOM     88  C   UNL A   1      41.270  27.481  26.398  1.00  0.00     0.198 A 
ATOM     89  F   UNL A   1      41.878  29.501  27.442  1.00  0.00    -0.203 F 
ATOM     90  F   UNL A   1      39.249  24.724  27.596  1.00  0.00    -0.200 F 
ATOM     91  C   UNL A   1      40.605  26.265  26.430  1.00  0.00     0.200 A 
ATOM     92  F   UNL A   1      41.974  27.832  25.313  1.00  0.00    -0.200 F 
ATOM     93  F   UNL A   1      40.685  25.429  25.386  1.00  0.00    -0.200 F 
ENDBRANCH  59  83
BRANCH  71  94
ATOM     94  C   UNL A   1      43.932  28.298  34.664  1.00  0.00     0.064 A 
ATOM     95  C   UNL A   1      45.264  28.713  34.532  1.00  0.00     0.173 A 
ATOM     96  C   UNL A   1      43.672  27.139  35.412  1.00  0.00     0.173 A 
ATOM     97  F   UNL A   1      45.563  29.806  33.816  1.00  0.00    -0.203 F 
ATOM     98  C   UNL A   1      46.299  27.988  35.117  1.00  0.00     0.198 A 
ATOM     99  C   UNL A   1      44.707  26.434  36.020  1.00  0.00     0.198 A 
ATOM    100  F   UNL A   1      42.414  26.706  35.574  1.00  0.00    -0.203 F 
ATOM    101  F   UNL A   1      47.569  28.384  34.952  1.00  0.00    -0.200 F 
ATOM    102  C   UNL A   1      46.019  26.856  35.868  1.00  0.00     0.200 A 
ATOM    103  F   UNL A   1      44.434  25.349  36.759  1.00  0.00    -0.200 F 
ATOM    104  F   UNL A   1      47.015  26.171  36.447  1.00  0.00    -0.200 F 
ENDBRANCH  71  94
ENDBRANCH  45  46
ENDBRANCH  37  40
ENDBRANCH  35  36
ENDBRANCH  34  35
ENDBRANCH  33  34
ENDBRANCH   3  33
TORSDOF 15
ENDMDL
