MODEL 1
REMARK VINA RESULT:     -11.5      0.000      0.000
REMARK SMILES CCOC(=O)CN(C)C(=O)N1CC[C@H](C(=O)NCCCNC(=O)c2ccc(-c3c4nc(c(-c5c(F)c(F)c(F)c(F)c5F)c5ccc([nH]5)c(-c5c(F)c(F)c(F)c(F)c5F)c5nc(c(-c6c(F)c(F)c(F)c(F)c6F)c6ccc3[nH]6)C=C5)C=C4)cc2)[C@H]1C
REMARK SMILES IDX 15 1 16 2 17 3 14 5 11 6 12 7 87 8 13 9 88 10 9 11 10 12
REMARK SMILES IDX 7 13 8 14 6 15 4 16 5 17 3 18 2 19 1 20 18 21 19 22 20 23
REMARK SMILES IDX 21 24 22 25 23 27 24 28 25 29 86 30 26 31 85 32 27 33 28 34
REMARK SMILES IDX 29 35 79 36 30 37 84 38 78 39 80 40 31 41 83 42 77 43 76 44
REMARK SMILES IDX 32 46 64 47 44 48 63 49 45 50 48 51 62 52 81 53 46 54 47 55
REMARK SMILES IDX 61 57 82 58 49 59 33 60 34 61 42 62 35 63 36 64 40 65 43 66
REMARK SMILES IDX 37 67 38 68 41 69 39 70 65 71 66 72 74 73 67 74 68 75 72 76
REMARK SMILES IDX 75 77 69 78 70 79 73 80 71 81 50 82 51 83 59 84 52 85 53 86
REMARK SMILES IDX 57 87 60 88 54 89 55 90 58 91 56 92
REMARK H PARENT 17 4 21 26 80 45 48 56
REMARK Flexibility Score: inf
ROOT
ATOM      1  C   UNL A   1      36.112  22.704  23.590  1.00  0.00     0.225 C 
ATOM      2  O   UNL A   1      36.516  23.512  22.757  1.00  0.00    -0.275 OA
ATOM      3  N   UNL A   1      36.991  21.756  24.021  1.00  0.00    -0.356 N 
ATOM      4  H   UNL A   1      37.869  21.777  23.575  1.00  0.00     0.163 HD
ENDROOT
BRANCH   1   5
ATOM      5  C   UNL A   1      34.701  22.731  24.150  1.00  0.00     0.102 C 
ATOM      6  N   UNL A   1      33.546  24.761  23.586  1.00  0.00    -0.321 N 
ATOM      7  C   UNL A   1      34.317  24.985  24.804  1.00  0.00     0.122 C 
ATOM      8  C   UNL A   1      33.689  23.348  23.151  1.00  0.00     0.096 C 
ATOM      9  C   UNL A   1      34.584  23.618  25.385  1.00  0.00     0.037 C 
ATOM     10  C   UNL A   1      32.403  22.520  23.245  1.00  0.00     0.032 C 
BRANCH   6  11
ATOM     11  C   UNL A   1      33.414  25.878  22.785  1.00  0.00     0.320 C 
ATOM     12  O   UNL A   1      33.661  25.814  21.575  1.00  0.00    -0.248 OA
BRANCH  11  13
ATOM     13  N   UNL A   1      33.109  27.100  23.338  1.00  0.00    -0.317 N 
ATOM     14  C   UNL A   1      33.861  28.325  23.188  1.00  0.00     0.149 C 
BRANCH  13  15
ATOM     15  C   UNL A   1      31.747  27.230  23.879  1.00  0.00     0.243 C 
BRANCH  15  16
ATOM     16  C   UNL A   1      30.732  27.922  22.956  1.00  0.00     0.325 C 
ATOM     17  O   UNL A   1      30.644  27.670  21.758  1.00  0.00    -0.250 OA
BRANCH  16  18
ATOM     18  O   UNL A   1      29.911  28.781  23.626  1.00  0.00    -0.465 OA
BRANCH  18  19
ATOM     19  C   UNL A   1      29.136  29.681  22.818  1.00  0.00     0.229 C 
ATOM     20  C   UNL A   1      27.665  29.325  22.926  1.00  0.00     0.049 C 
ENDBRANCH  18  19
ENDBRANCH  16  18
ENDBRANCH  15  16
ENDBRANCH  13  15
ENDBRANCH  11  13
ENDBRANCH   6  11
ENDBRANCH   1   5
BRANCH   3  21
ATOM     21  C   UNL A   1      36.849  20.719  25.029  1.00  0.00     0.117 C 
BRANCH  21  22
ATOM     22  C   UNL A   1      37.994  19.718  24.980  1.00  0.00     0.042 C 
BRANCH  22  23
ATOM     23  C   UNL A   1      39.236  20.143  25.754  1.00  0.00     0.118 C 
BRANCH  23  24
ATOM     24  N   UNL A   1      40.235  19.088  25.858  1.00  0.00    -0.352 N 
ATOM     25  C   UNL A   1      41.586  19.172  26.092  1.00  0.00     0.251 C 
ATOM     26  H   UNL A   1      39.887  18.174  25.744  1.00  0.00     0.163 HD
ATOM     27  O   UNL A   1      42.288  18.169  25.985  1.00  0.00    -0.269 OA
BRANCH  25  28
ATOM     28  C   UNL A   1      42.208  20.467  26.440  1.00  0.00     0.039 A 
ATOM     29  C   UNL A   1      42.739  21.258  25.418  1.00  0.00     0.014 A 
ATOM     30  C   UNL A   1      42.271  20.906  27.765  1.00  0.00     0.014 A 
ATOM     31  C   UNL A   1      43.258  22.521  25.714  1.00  0.00     0.010 A 
ATOM     32  C   UNL A   1      42.709  22.197  28.048  1.00  0.00     0.010 A 
ATOM     33  C   UNL A   1      43.204  23.021  27.025  1.00  0.00    -0.014 A 
BRANCH  33  34
ATOM     34  C   UNL A   1      43.647  24.402  27.348  1.00  0.00     0.031 A 
ATOM     35  C   UNL A   1      42.656  25.415  27.852  1.00  0.00     0.074 A 
ATOM     36  C   UNL A   1      44.921  24.767  27.109  1.00  0.00     0.049 A 
ATOM     37  N   UNL A   1      42.824  26.691  28.091  1.00  0.00    -0.248 NA
ATOM     38  C   UNL A   1      41.286  24.936  28.094  1.00  0.00     0.031 C 
ATOM     39  C   UNL A   1      45.968  23.890  26.581  1.00  0.00     0.029 A 
ATOM     40  N   UNL A   1      45.552  25.978  27.263  1.00  0.00    -0.354 N 
ATOM     41  C   UNL A   1      41.584  27.169  28.491  1.00  0.00     0.074 A 
ATOM     42  C   UNL A   1      40.659  26.059  28.415  1.00  0.00     0.031 C 
ATOM     43  C   UNL A   1      47.110  24.585  26.470  1.00  0.00     0.029 A 
ATOM     44  C   UNL A   1      46.869  25.968  26.871  1.00  0.00     0.049 A 
ATOM     45  H   UNL A   1      45.102  26.778  27.620  1.00  0.00     0.167 HD
ATOM     46  C   UNL A   1      41.250  28.415  28.903  1.00  0.00     0.037 A 
ATOM     47  C   UNL A   1      47.774  26.964  26.822  1.00  0.00     0.037 A 
ATOM     48  C   UNL A   1      42.179  29.511  28.999  1.00  0.00     0.049 A 
ATOM     49  C   UNL A   1      47.372  28.346  27.267  1.00  0.00     0.074 A 
ATOM     50  C   UNL A   1      41.954  30.792  29.471  1.00  0.00     0.029 A 
ATOM     51  N   UNL A   1      43.509  29.457  28.609  1.00  0.00    -0.354 N 
ATOM     52  N   UNL A   1      46.215  28.766  27.715  1.00  0.00    -0.248 NA
ATOM     53  C   UNL A   1      48.403  29.390  27.201  1.00  0.00     0.031 C 
ATOM     54  C   UNL A   1      43.129  31.531  29.308  1.00  0.00     0.029 A 
ATOM     55  C   UNL A   1      44.107  30.693  28.799  1.00  0.00     0.049 A 
ATOM     56  H   UNL A   1      43.961  28.659  28.250  1.00  0.00     0.167 HD
ATOM     57  C   UNL A   1      46.387  30.110  28.016  1.00  0.00     0.074 A 
ATOM     58  C   UNL A   1      47.765  30.434  27.712  1.00  0.00     0.031 C 
ATOM     59  C   UNL A   1      45.485  30.997  28.503  1.00  0.00     0.037 A 
BRANCH  46  60
ATOM     60  C   UNL A   1      39.817  28.668  29.278  1.00  0.00     0.064 A 
ATOM     61  C   UNL A   1      39.354  28.499  30.592  1.00  0.00     0.173 A 
ATOM     62  C   UNL A   1      38.905  29.136  28.319  1.00  0.00     0.173 A 
ATOM     63  F   UNL A   1      40.182  28.046  31.545  1.00  0.00    -0.203 F 
ATOM     64  C   UNL A   1      38.028  28.757  30.924  1.00  0.00     0.198 A 
ATOM     65  C   UNL A   1      37.587  29.426  28.662  1.00  0.00     0.198 A 
ATOM     66  F   UNL A   1      39.295  29.324  27.048  1.00  0.00    -0.203 F 
ATOM     67  F   UNL A   1      37.598  28.539  32.175  1.00  0.00    -0.200 F 
ATOM     68  C   UNL A   1      37.148  29.229  29.962  1.00  0.00     0.200 A 
ATOM     69  F   UNL A   1      36.743  29.898  27.734  1.00  0.00    -0.200 F 
ATOM     70  F   UNL A   1      35.874  29.489  30.287  1.00  0.00    -0.200 F 
ENDBRANCH  46  60
BRANCH  47  71
ATOM     71  C   UNL A   1      49.155  26.694  26.337  1.00  0.00     0.064 A 
ATOM     72  C   UNL A   1      50.141  26.202  27.205  1.00  0.00     0.173 A 
ATOM     73  C   UNL A   1      49.522  26.936  25.005  1.00  0.00     0.173 A 
ATOM     74  F   UNL A   1      49.845  25.973  28.493  1.00  0.00    -0.203 F 
ATOM     75  C   UNL A   1      51.446  25.988  26.766  1.00  0.00     0.198 A 
ATOM     76  C   UNL A   1      50.819  26.689  24.560  1.00  0.00     0.198 A 
ATOM     77  F   UNL A   1      48.617  27.400  24.132  1.00  0.00    -0.203 F 
ATOM     78  F   UNL A   1      52.380  25.569  27.630  1.00  0.00    -0.200 F 
ATOM     79  C   UNL A   1      51.782  26.227  25.442  1.00  0.00     0.200 A 
ATOM     80  F   UNL A   1      51.136  26.903  23.275  1.00  0.00    -0.200 F 
ATOM     81  F   UNL A   1      53.037  26.018  25.020  1.00  0.00    -0.200 F 
ENDBRANCH  47  71
BRANCH  59  82
ATOM     82  C   UNL A   1      45.964  32.394  28.782  1.00  0.00     0.064 A 
ATOM     83  C   UNL A   1      46.646  32.720  29.963  1.00  0.00     0.173 A 
ATOM     84  C   UNL A   1      45.782  33.406  27.827  1.00  0.00     0.173 A 
ATOM     85  F   UNL A   1      46.831  31.793  30.915  1.00  0.00    -0.203 F 
ATOM     86  C   UNL A   1      47.109  34.015  30.187  1.00  0.00     0.198 A 
ATOM     87  C   UNL A   1      46.277  34.690  28.039  1.00  0.00     0.198 A 
ATOM     88  F   UNL A   1      45.142  33.146  26.677  1.00  0.00    -0.203 F 
ATOM     89  F   UNL A   1      47.717  34.316  31.343  1.00  0.00    -0.200 F 
ATOM     90  C   UNL A   1      46.934  34.994  29.221  1.00  0.00     0.200 A 
ATOM     91  F   UNL A   1      46.121  35.630  27.097  1.00  0.00    -0.200 F 
ATOM     92  F   UNL A   1      47.392  36.235  29.433  1.00  0.00    -0.200 F 
ENDBRANCH  59  82
ENDBRANCH  33  34
ENDBRANCH  25  28
ENDBRANCH  23  24
ENDBRANCH  22  23
ENDBRANCH  21  22
ENDBRANCH   3  21
TORSDOF 16
ENDMDL
MODEL 2
REMARK VINA RESULT:     -11.5      5.681     11.309
REMARK SMILES CCOC(=O)CN(C)C(=O)N1CC[C@H](C(=O)NCCCNC(=O)c2ccc(-c3c4nc(c(-c5c(F)c(F)c(F)c(F)c5F)c5ccc([nH]5)c(-c5c(F)c(F)c(F)c(F)c5F)c5nc(c(-c6c(F)c(F)c(F)c(F)c6F)c6ccc3[nH]6)C=C5)C=C4)cc2)[C@H]1C
REMARK SMILES IDX 15 1 16 2 17 3 14 5 11 6 12 7 87 8 13 9 88 10 9 11 10 12
REMARK SMILES IDX 7 13 8 14 6 15 4 16 5 17 3 18 2 19 1 20 18 21 19 22 20 23
REMARK SMILES IDX 21 24 22 25 23 27 24 28 25 29 86 30 26 31 85 32 27 33 28 34
REMARK SMILES IDX 29 35 79 36 30 37 84 38 78 39 80 40 31 41 83 42 77 43 76 44
REMARK SMILES IDX 32 46 64 47 44 48 63 49 45 50 48 51 62 52 81 53 46 54 47 55
REMARK SMILES IDX 61 57 82 58 49 59 33 60 34 61 42 62 35 63 36 64 40 65 43 66
REMARK SMILES IDX 37 67 38 68 41 69 39 70 65 71 66 72 74 73 67 74 68 75 72 76
REMARK SMILES IDX 75 77 69 78 70 79 73 80 71 81 50 82 51 83 59 84 52 85 53 86
REMARK SMILES IDX 57 87 60 88 54 89 55 90 58 91 56 92
REMARK H PARENT 17 4 21 26 80 45 48 56
REMARK Flexibility Score: inf
ROOT
ATOM      1  C   UNL A   1      31.526  28.243  26.926  1.00  0.00     0.225 C 
ATOM      2  O   UNL A   1      31.502  27.533  27.929  1.00  0.00    -0.275 OA
ATOM      3  N   UNL A   1      31.691  29.582  27.112  1.00  0.00    -0.356 N 
ATOM      4  H   UNL A   1      31.724  29.866  28.054  1.00  0.00     0.163 HD
ENDROOT
BRANCH   1   5
ATOM      5  C   UNL A   1      31.391  27.689  25.518  1.00  0.00     0.102 C 
ATOM      6  N   UNL A   1      31.631  25.299  25.463  1.00  0.00    -0.321 N 
ATOM      7  C   UNL A   1      32.956  25.904  25.381  1.00  0.00     0.122 C 
ATOM      8  C   UNL A   1      30.593  26.360  25.490  1.00  0.00     0.096 C 
ATOM      9  C   UNL A   1      32.739  27.320  24.908  1.00  0.00     0.037 C 
ATOM     10  C   UNL A   1      29.695  26.404  24.248  1.00  0.00     0.032 C 
BRANCH   6  11
ATOM     11  C   UNL A   1      31.603  24.079  26.111  1.00  0.00     0.320 C 
ATOM     12  O   UNL A   1      31.418  24.023  27.332  1.00  0.00    -0.248 OA
BRANCH  11  13
ATOM     13  N   UNL A   1      31.886  22.920  25.426  1.00  0.00    -0.317 N 
ATOM     14  C   UNL A   1      31.734  22.700  24.006  1.00  0.00     0.149 C 
BRANCH  13  15
ATOM     15  C   UNL A   1      32.690  21.930  26.159  1.00  0.00     0.243 C 
BRANCH  15  16
ATOM     16  C   UNL A   1      34.154  21.803  25.711  1.00  0.00     0.325 C 
ATOM     17  O   UNL A   1      35.025  22.596  26.057  1.00  0.00    -0.250 OA
BRANCH  16  18
ATOM     18  O   UNL A   1      34.381  20.690  24.956  1.00  0.00    -0.465 OA
BRANCH  18  19
ATOM     19  C   UNL A   1      33.493  19.582  25.172  1.00  0.00     0.229 C 
ATOM     20  C   UNL A   1      34.011  18.360  24.437  1.00  0.00     0.049 C 
ENDBRANCH  18  19
ENDBRANCH  16  18
ENDBRANCH  15  16
ENDBRANCH  13  15
ENDBRANCH  11  13
ENDBRANCH   6  11
ENDBRANCH   1   5
BRANCH   3  21
ATOM     21  C   UNL A   1      31.828  30.663  26.150  1.00  0.00     0.117 C 
BRANCH  21  22
ATOM     22  C   UNL A   1      31.519  32.018  26.770  1.00  0.00     0.042 C 
BRANCH  22  23
ATOM     23  C   UNL A   1      32.744  32.783  27.255  1.00  0.00     0.118 C 
BRANCH  23  24
ATOM     24  N   UNL A   1      32.448  34.158  27.635  1.00  0.00    -0.352 N 
ATOM     25  C   UNL A   1      33.009  34.944  28.611  1.00  0.00     0.251 C 
ATOM     26  H   UNL A   1      31.735  34.589  27.110  1.00  0.00     0.163 HD
ATOM     27  O   UNL A   1      32.507  36.033  28.882  1.00  0.00    -0.269 OA
BRANCH  25  28
ATOM     28  C   UNL A   1      34.194  34.476  29.361  1.00  0.00     0.039 A 
ATOM     29  C   UNL A   1      34.006  33.822  30.581  1.00  0.00     0.014 A 
ATOM     30  C   UNL A   1      35.486  34.679  28.871  1.00  0.00     0.014 A 
ATOM     31  C   UNL A   1      35.105  33.299  31.268  1.00  0.00     0.010 A 
ATOM     32  C   UNL A   1      36.571  34.085  29.511  1.00  0.00     0.010 A 
ATOM     33  C   UNL A   1      36.392  33.385  30.714  1.00  0.00    -0.014 A 
BRANCH  33  34
ATOM     34  C   UNL A   1      37.563  32.743  31.368  1.00  0.00     0.031 A 
ATOM     35  C   UNL A   1      38.263  31.592  30.701  1.00  0.00     0.074 A 
ATOM     36  C   UNL A   1      37.942  33.141  32.597  1.00  0.00     0.049 A 
ATOM     37  N   UNL A   1      39.233  30.837  31.153  1.00  0.00    -0.248 NA
ATOM     38  C   UNL A   1      37.794  31.222  29.356  1.00  0.00     0.031 C 
ATOM     39  C   UNL A   1      37.317  34.217  33.369  1.00  0.00     0.029 A 
ATOM     40  N   UNL A   1      38.935  32.676  33.425  1.00  0.00    -0.354 N 
ATOM     41  C   UNL A   1      39.474  29.896  30.161  1.00  0.00     0.074 A 
ATOM     42  C   UNL A   1      38.518  30.141  29.104  1.00  0.00     0.031 C 
ATOM     43  C   UNL A   1      37.949  34.340  34.546  1.00  0.00     0.029 A 
ATOM     44  C   UNL A   1      38.991  33.322  34.637  1.00  0.00     0.049 A 
ATOM     45  H   UNL A   1      39.548  31.948  33.174  1.00  0.00     0.167 HD
ATOM     46  C   UNL A   1      40.420  28.927  30.127  1.00  0.00     0.037 A 
ATOM     47  C   UNL A   1      39.780  33.105  35.707  1.00  0.00     0.037 A 
ATOM     48  C   UNL A   1      41.385  28.702  31.172  1.00  0.00     0.049 A 
ATOM     49  C   UNL A   1      40.811  32.009  35.651  1.00  0.00     0.074 A 
ATOM     50  C   UNL A   1      42.428  27.792  31.200  1.00  0.00     0.029 A 
ATOM     51  N   UNL A   1      41.421  29.388  32.377  1.00  0.00    -0.354 N 
ATOM     52  N   UNL A   1      41.080  31.175  34.676  1.00  0.00    -0.248 NA
ATOM     53  C   UNL A   1      41.650  31.825  36.843  1.00  0.00     0.031 C 
ATOM     54  C   UNL A   1      43.054  27.884  32.447  1.00  0.00     0.029 A 
ATOM     55  C   UNL A   1      42.447  28.898  33.169  1.00  0.00     0.049 A 
ATOM     56  H   UNL A   1      40.808  30.115  32.632  1.00  0.00     0.167 HD
ATOM     57  C   UNL A   1      42.137  30.394  35.122  1.00  0.00     0.074 A 
ATOM     58  C   UNL A   1      42.470  30.861  36.451  1.00  0.00     0.031 C 
ATOM     59  C   UNL A   1      42.776  29.381  34.486  1.00  0.00     0.037 A 
BRANCH  46  60
ATOM     60  C   UNL A   1      40.460  28.029  28.923  1.00  0.00     0.064 A 
ATOM     61  C   UNL A   1      39.726  26.835  28.866  1.00  0.00     0.173 A 
ATOM     62  C   UNL A   1      41.204  28.395  27.790  1.00  0.00     0.173 A 
ATOM     63  F   UNL A   1      39.004  26.435  29.923  1.00  0.00    -0.203 F 
ATOM     64  C   UNL A   1      39.760  26.026  27.733  1.00  0.00     0.198 A 
ATOM     65  C   UNL A   1      41.208  27.600  26.646  1.00  0.00     0.198 A 
ATOM     66  F   UNL A   1      41.919  29.530  27.787  1.00  0.00    -0.203 F 
ATOM     67  F   UNL A   1      39.090  24.865  27.722  1.00  0.00    -0.200 F 
ATOM     68  C   UNL A   1      40.492  26.413  26.622  1.00  0.00     0.200 A 
ATOM     69  F   UNL A   1      41.904  27.985  25.568  1.00  0.00    -0.200 F 
ATOM     70  F   UNL A   1      40.514  25.639  25.528  1.00  0.00    -0.200 F 
ENDBRANCH  46  60
BRANCH  47  71
ATOM     71  C   UNL A   1      39.632  33.948  36.925  1.00  0.00     0.064 A 
ATOM     72  C   UNL A   1      38.827  33.532  37.995  1.00  0.00     0.173 A 
ATOM     73  C   UNL A   1      40.276  35.189  37.037  1.00  0.00     0.173 A 
ATOM     74  F   UNL A   1      38.174  32.363  37.928  1.00  0.00    -0.203 F 
ATOM     75  C   UNL A   1      38.650  34.338  39.119  1.00  0.00     0.198 A 
ATOM     76  C   UNL A   1      40.125  35.977  38.177  1.00  0.00     0.198 A 
ATOM     77  F   UNL A   1      41.062  35.631  36.046  1.00  0.00    -0.203 F 
ATOM     78  F   UNL A   1      37.833  33.940  40.103  1.00  0.00    -0.200 F 
ATOM     79  C   UNL A   1      39.304  35.557  39.211  1.00  0.00     0.200 A 
ATOM     80  F   UNL A   1      40.774  37.147  38.269  1.00  0.00    -0.200 F 
ATOM     81  F   UNL A   1      39.137  36.329  40.293  1.00  0.00    -0.200 F 
ENDBRANCH  47  71
BRANCH  59  82
ATOM     82  C   UNL A   1      43.931  28.734  35.197  1.00  0.00     0.064 A 
ATOM     83  C   UNL A   1      45.242  29.218  35.072  1.00  0.00     0.173 A 
ATOM     84  C   UNL A   1      43.711  27.646  36.056  1.00  0.00     0.173 A 
ATOM     85  F   UNL A   1      45.508  30.245  34.252  1.00  0.00    -0.203 F 
ATOM     86  C   UNL A   1      46.292  28.622  35.766  1.00  0.00     0.198 A 
ATOM     87  C   UNL A   1      44.759  27.075  36.773  1.00  0.00     0.198 A 
ATOM     88  F   UNL A   1      42.476  27.148  36.216  1.00  0.00    -0.203 F 
ATOM     89  F   UNL A   1      47.544  29.070  35.596  1.00  0.00    -0.200 F 
ATOM     90  C   UNL A   1      46.049  27.559  36.622  1.00  0.00     0.200 A 
ATOM     91  F   UNL A   1      44.518  26.058  37.613  1.00  0.00    -0.200 F 
ATOM     92  F   UNL A   1      47.060  26.996  37.298  1.00  0.00    -0.200 F 
ENDBRANCH  59  82
ENDBRANCH  33  34
ENDBRANCH  25  28
ENDBRANCH  23  24
ENDBRANCH  22  23
ENDBRANCH  21  22
ENDBRANCH   3  21
TORSDOF 16
ENDMDL
MODEL 3
REMARK VINA RESULT:     -11.5      5.732     11.378
REMARK SMILES CCOC(=O)CN(C)C(=O)N1CC[C@H](C(=O)NCCCNC(=O)c2ccc(-c3c4nc(c(-c5c(F)c(F)c(F)c(F)c5F)c5ccc([nH]5)c(-c5c(F)c(F)c(F)c(F)c5F)c5nc(c(-c6c(F)c(F)c(F)c(F)c6F)c6ccc3[nH]6)C=C5)C=C4)cc2)[C@H]1C
REMARK SMILES IDX 15 1 16 2 17 3 14 5 11 6 12 7 87 8 13 9 88 10 9 11 10 12
REMARK SMILES IDX 7 13 8 14 6 15 4 16 5 17 3 18 2 19 1 20 18 21 19 22 20 23
REMARK SMILES IDX 21 24 22 25 23 27 24 28 25 29 86 30 26 31 85 32 27 33 28 34
REMARK SMILES IDX 29 35 79 36 30 37 84 38 78 39 80 40 31 41 83 42 77 43 76 44
REMARK SMILES IDX 32 46 64 47 44 48 63 49 45 50 48 51 62 52 81 53 46 54 47 55
REMARK SMILES IDX 61 57 82 58 49 59 33 60 34 61 42 62 35 63 36 64 40 65 43 66
REMARK SMILES IDX 37 67 38 68 41 69 39 70 65 71 66 72 74 73 67 74 68 75 72 76
REMARK SMILES IDX 75 77 69 78 70 79 73 80 71 81 50 82 51 83 59 84 52 85 53 86
REMARK SMILES IDX 57 87 60 88 54 89 55 90 58 91 56 92
REMARK H PARENT 17 4 21 26 80 45 48 56
REMARK Flexibility Score: inf
ROOT
ATOM      1  C   UNL A   1      31.518  28.294  26.811  1.00  0.00     0.225 C 
ATOM      2  O   UNL A   1      31.519  27.583  27.814  1.00  0.00    -0.275 OA
ATOM      3  N   UNL A   1      31.635  29.638  26.997  1.00  0.00    -0.356 N 
ATOM      4  H   UNL A   1      31.657  29.923  27.939  1.00  0.00     0.163 HD
ENDROOT
BRANCH   1   5
ATOM      5  C   UNL A   1      31.403  27.735  25.404  1.00  0.00     0.102 C 
ATOM      6  N   UNL A   1      31.603  25.341  25.365  1.00  0.00    -0.321 N 
ATOM      7  C   UNL A   1      32.940  25.923  25.308  1.00  0.00     0.122 C 
ATOM      8  C   UNL A   1      30.583  26.420  25.364  1.00  0.00     0.096 C 
ATOM      9  C   UNL A   1      32.758  27.341  24.824  1.00  0.00     0.037 C 
ATOM     10  C   UNL A   1      29.713  26.473  24.103  1.00  0.00     0.032 C 
BRANCH   6  11
ATOM     11  C   UNL A   1      31.541  24.125  26.017  1.00  0.00     0.320 C 
ATOM     12  O   UNL A   1      31.472  24.080  27.251  1.00  0.00    -0.248 OA
BRANCH  11  13
ATOM     13  N   UNL A   1      31.662  22.950  25.312  1.00  0.00    -0.317 N 
ATOM     14  C   UNL A   1      31.648  22.802  23.875  1.00  0.00     0.149 C 
BRANCH  13  15
ATOM     15  C   UNL A   1      32.144  21.794  26.084  1.00  0.00     0.243 C 
BRANCH  15  16
ATOM     16  C   UNL A   1      32.889  20.722  25.275  1.00  0.00     0.325 C 
ATOM     17  O   UNL A   1      34.045  20.865  24.888  1.00  0.00    -0.250 OA
BRANCH  16  18
ATOM     18  O   UNL A   1      32.153  19.586  25.100  1.00  0.00    -0.465 OA
BRANCH  18  19
ATOM     19  C   UNL A   1      32.684  18.618  24.183  1.00  0.00     0.229 C 
ATOM     20  C   UNL A   1      32.154  18.891  22.787  1.00  0.00     0.049 C 
ENDBRANCH  18  19
ENDBRANCH  16  18
ENDBRANCH  15  16
ENDBRANCH  13  15
ENDBRANCH  11  13
ENDBRANCH   6  11
ENDBRANCH   1   5
BRANCH   3  21
ATOM     21  C   UNL A   1      31.733  30.723  26.035  1.00  0.00     0.117 C 
BRANCH  21  22
ATOM     22  C   UNL A   1      31.430  32.073  26.668  1.00  0.00     0.042 C 
BRANCH  22  23
ATOM     23  C   UNL A   1      32.638  32.761  27.294  1.00  0.00     0.118 C 
BRANCH  23  24
ATOM     24  N   UNL A   1      32.394  34.159  27.623  1.00  0.00    -0.352 N 
ATOM     25  C   UNL A   1      32.992  34.962  28.563  1.00  0.00     0.251 C 
ATOM     26  H   UNL A   1      31.692  34.595  27.088  1.00  0.00     0.163 HD
ATOM     27  O   UNL A   1      32.532  36.077  28.796  1.00  0.00    -0.269 OA
BRANCH  25  28
ATOM     28  C   UNL A   1      34.167  34.480  29.321  1.00  0.00     0.039 A 
ATOM     29  C   UNL A   1      33.969  33.904  30.578  1.00  0.00     0.014 A 
ATOM     30  C   UNL A   1      35.459  34.594  28.802  1.00  0.00     0.014 A 
ATOM     31  C   UNL A   1      35.055  33.369  31.277  1.00  0.00     0.010 A 
ATOM     32  C   UNL A   1      36.526  33.986  29.458  1.00  0.00     0.010 A 
ATOM     33  C   UNL A   1      36.336  33.363  30.701  1.00  0.00    -0.014 A 
BRANCH  33  34
ATOM     34  C   UNL A   1      37.486  32.704  31.372  1.00  0.00     0.031 A 
ATOM     35  C   UNL A   1      38.174  31.536  30.720  1.00  0.00     0.074 A 
ATOM     36  C   UNL A   1      37.857  33.102  32.604  1.00  0.00     0.049 A 
ATOM     37  N   UNL A   1      39.124  30.766  31.188  1.00  0.00    -0.248 NA
ATOM     38  C   UNL A   1      37.714  31.167  29.371  1.00  0.00     0.031 C 
ATOM     39  C   UNL A   1      37.242  34.193  33.362  1.00  0.00     0.029 A 
ATOM     40  N   UNL A   1      38.832  32.623  33.446  1.00  0.00    -0.354 N 
ATOM     41  C   UNL A   1      39.360  29.816  30.204  1.00  0.00     0.074 A 
ATOM     42  C   UNL A   1      38.422  30.072  29.134  1.00  0.00     0.031 C 
ATOM     43  C   UNL A   1      37.862  34.311  34.547  1.00  0.00     0.029 A 
ATOM     44  C   UNL A   1      38.885  33.275  34.655  1.00  0.00     0.049 A 
ATOM     45  H   UNL A   1      39.435  31.883  33.207  1.00  0.00     0.167 HD
ATOM     46  C   UNL A   1      40.289  28.830  30.187  1.00  0.00     0.037 A 
ATOM     47  C   UNL A   1      39.656  33.050  35.736  1.00  0.00     0.037 A 
ATOM     48  C   UNL A   1      41.237  28.593  31.245  1.00  0.00     0.049 A 
ATOM     49  C   UNL A   1      40.668  31.935  35.699  1.00  0.00     0.074 A 
ATOM     50  C   UNL A   1      42.262  27.665  31.291  1.00  0.00     0.029 A 
ATOM     51  N   UNL A   1      41.270  29.285  32.447  1.00  0.00    -0.354 N 
ATOM     52  N   UNL A   1      40.933  31.091  34.732  1.00  0.00    -0.248 NA
ATOM     53  C   UNL A   1      41.489  31.743  36.902  1.00  0.00     0.031 C 
ATOM     54  C   UNL A   1      42.875  27.753  32.545  1.00  0.00     0.029 A 
ATOM     55  C   UNL A   1      42.277  28.781  33.255  1.00  0.00     0.049 A 
ATOM     56  H   UNL A   1      40.667  30.025  32.690  1.00  0.00     0.167 HD
ATOM     57  C   UNL A   1      41.971  30.293  35.195  1.00  0.00     0.074 A 
ATOM     58  C   UNL A   1      42.296  30.761  36.526  1.00  0.00     0.031 C 
ATOM     59  C   UNL A   1      42.599  29.266  34.573  1.00  0.00     0.037 A 
BRANCH  46  60
ATOM     60  C   UNL A   1      40.327  27.925  28.988  1.00  0.00     0.064 A 
ATOM     61  C   UNL A   1      41.087  28.235  27.850  1.00  0.00     0.173 A 
ATOM     62  C   UNL A   1      39.633  26.705  28.999  1.00  0.00     0.173 A 
ATOM     63  F   UNL A   1      41.763  29.392  27.786  1.00  0.00    -0.203 F 
ATOM     64  C   UNL A   1      41.125  27.375  26.757  1.00  0.00     0.198 A 
ATOM     65  C   UNL A   1      39.701  25.831  27.916  1.00  0.00     0.198 A 
ATOM     66  F   UNL A   1      38.896  26.354  30.064  1.00  0.00    -0.203 F 
ATOM     67  F   UNL A   1      41.819  27.717  25.662  1.00  0.00    -0.200 F 
ATOM     68  C   UNL A   1      40.441  26.170  26.794  1.00  0.00     0.200 A 
ATOM     69  F   UNL A   1      39.052  24.660  27.962  1.00  0.00    -0.200 F 
ATOM     70  F   UNL A   1      40.489  25.337  25.746  1.00  0.00    -0.200 F 
ENDBRANCH  46  60
BRANCH  47  71
ATOM     71  C   UNL A   1      39.508  33.902  36.948  1.00  0.00     0.064 A 
ATOM     72  C   UNL A   1      40.168  35.135  37.047  1.00  0.00     0.173 A 
ATOM     73  C   UNL A   1      38.720  33.495  38.035  1.00  0.00     0.173 A 
ATOM     74  F   UNL A   1      40.949  35.559  36.044  1.00  0.00    -0.203 F 
ATOM     75  C   UNL A   1      40.068  35.916  38.198  1.00  0.00     0.198 A 
ATOM     76  C   UNL A   1      38.593  34.293  39.170  1.00  0.00     0.198 A 
ATOM     77  F   UNL A   1      38.063  32.328  37.989  1.00  0.00    -0.203 F 
ATOM     78  F   UNL A   1      40.752  37.064  38.287  1.00  0.00    -0.200 F 
ATOM     79  C   UNL A   1      39.275  35.496  39.256  1.00  0.00     0.200 A 
ATOM     80  F   UNL A   1      37.812  33.892  40.183  1.00  0.00    -0.200 F 
ATOM     81  F   UNL A   1      39.176  36.249  40.360  1.00  0.00    -0.200 F 
ENDBRANCH  47  71
BRANCH  59  82
ATOM     82  C   UNL A   1      43.733  28.602  35.301  1.00  0.00     0.064 A 
ATOM     83  C   UNL A   1      43.529  27.495  36.138  1.00  0.00     0.173 A 
ATOM     84  C   UNL A   1      45.051  29.049  35.113  1.00  0.00     0.173 A 
ATOM     85  F   UNL A   1      42.287  27.039  36.363  1.00  0.00    -0.203 F 
ATOM     86  C   UNL A   1      44.599  26.875  36.777  1.00  0.00     0.198 A 
ATOM     87  C   UNL A   1      46.121  28.405  35.727  1.00  0.00     0.198 A 
ATOM     88  F   UNL A   1      45.303  30.100  34.318  1.00  0.00    -0.203 F 
ATOM     89  F   UNL A   1      44.376  25.849  37.609  1.00  0.00    -0.200 F 
ATOM     90  C   UNL A   1      45.894  27.323  36.564  1.00  0.00     0.200 A 
ATOM     91  F   UNL A   1      47.373  28.830  35.506  1.00  0.00    -0.200 F 
ATOM     92  F   UNL A   1      46.924  26.717  37.170  1.00  0.00    -0.200 F 
ENDBRANCH  59  82
ENDBRANCH  33  34
ENDBRANCH  25  28
ENDBRANCH  23  24
ENDBRANCH  22  23
ENDBRANCH  21  22
ENDBRANCH   3  21
TORSDOF 16
ENDMDL
