MODEL 1
REMARK VINA RESULT:     -10.9      0.000      0.000
REMARK SMILES CCCCCC[C@@H](C)N1C[C@H](C(=O)NCCCNC(=O)c2ccc(-c3c4nc(c(-c5c(F)c(F)c(F)c(F)c5F)c5ccc([nH]5)c(-c5c(F)c(F)c(F)c(F)c5F)c5nc(c(-c6c(F)c(F)c(F)c(F)c6F)c6ccc3[nH]6)C=C5)C=C4)cc2)CC1=O
REMARK SMILES IDX 12 1 13 2 14 3 11 5 9 6 10 7 85 8 84 9 86 10 7 11 8 12 6 13
REMARK SMILES IDX 5 14 4 15 3 16 2 17 1 18 15 19 16 20 17 21 18 22 19 23 20 25
REMARK SMILES IDX 21 26 22 27 83 28 23 29 82 30 24 31 25 32 26 33 76 34 27 35
REMARK SMILES IDX 81 36 75 37 77 38 28 39 80 40 74 41 73 42 29 44 61 45 41 46
REMARK SMILES IDX 60 47 42 48 45 49 59 50 78 51 43 52 44 53 58 55 79 56 46 57
REMARK SMILES IDX 30 58 31 59 39 60 32 61 33 62 37 63 40 64 34 65 35 66 38 67
REMARK SMILES IDX 36 68 62 69 63 70 71 71 64 72 65 73 69 74 72 75 66 76 67 77
REMARK SMILES IDX 70 78 68 79 47 80 48 81 56 82 49 83 50 84 54 85 57 86 51 87
REMARK SMILES IDX 52 88 55 89 53 90
REMARK H PARENT 14 4 18 24 77 43 45 54
REMARK Flexibility Score: inf
ROOT
ATOM      1  C   UNL A   1      32.424  29.261  25.119  1.00  0.00     0.225 C 
ATOM      2  O   UNL A   1      32.820  29.046  23.967  1.00  0.00    -0.275 OA
ATOM      3  N   UNL A   1      31.809  30.451  25.321  1.00  0.00    -0.356 N 
ATOM      4  H   UNL A   1      31.770  31.015  24.513  1.00  0.00     0.163 HD
ENDROOT
BRANCH   1   5
ATOM      5  C   UNL A   1      32.727  28.236  26.206  1.00  0.00     0.107 C 
ATOM      6  N   UNL A   1      31.776  26.074  26.065  1.00  0.00    -0.339 N 
ATOM      7  C   UNL A   1      31.511  27.411  26.559  1.00  0.00     0.133 C 
ATOM      8  C   UNL A   1      33.114  25.936  25.692  1.00  0.00     0.223 C 
ATOM      9  C   UNL A   1      33.837  27.240  25.949  1.00  0.00     0.115 C 
ATOM     10  O   UNL A   1      33.652  24.973  25.182  1.00  0.00    -0.275 OA
BRANCH   6  11
ATOM     11  C   UNL A   1      30.674  25.161  25.681  1.00  0.00     0.082 C 
ATOM     12  C   UNL A   1      30.722  23.835  26.459  1.00  0.00     0.031 C 
BRANCH  11  13
ATOM     13  C   UNL A   1      30.533  24.890  24.166  1.00  0.00     0.025 C 
BRANCH  13  14
ATOM     14  C   UNL A   1      30.463  26.154  23.288  1.00  0.00     0.002 C 
BRANCH  14  15
ATOM     15  C   UNL A   1      29.263  27.078  23.556  1.00  0.00     0.000 C 
BRANCH  15  16
ATOM     16  C   UNL A   1      29.430  28.525  23.076  1.00  0.00    -0.000 C 
BRANCH  16  17
ATOM     17  C   UNL A   1      28.125  29.305  22.892  1.00  0.00    -0.003 C 
ATOM     18  C   UNL A   1      28.085  30.126  21.612  1.00  0.00     0.004 C 
ENDBRANCH  16  17
ENDBRANCH  15  16
ENDBRANCH  14  15
ENDBRANCH  13  14
ENDBRANCH  11  13
ENDBRANCH   6  11
ENDBRANCH   1   5
BRANCH   3  19
ATOM     19  C   UNL A   1      31.194  31.068  26.483  1.00  0.00     0.117 C 
BRANCH  19  20
ATOM     20  C   UNL A   1      31.338  32.584  26.483  1.00  0.00     0.042 C 
BRANCH  20  21
ATOM     21  C   UNL A   1      32.606  33.086  27.159  1.00  0.00     0.118 C 
BRANCH  21  22
ATOM     22  N   UNL A   1      32.446  34.428  27.704  1.00  0.00    -0.352 N 
ATOM     23  C   UNL A   1      33.022  35.040  28.787  1.00  0.00     0.251 C 
ATOM     24  H   UNL A   1      31.813  34.994  27.207  1.00  0.00     0.163 HD
ATOM     25  O   UNL A   1      32.554  36.103  29.189  1.00  0.00    -0.269 OA
BRANCH  23  26
ATOM     26  C   UNL A   1      34.187  34.450  29.484  1.00  0.00     0.039 A 
ATOM     27  C   UNL A   1      33.984  33.827  30.721  1.00  0.00     0.014 A 
ATOM     28  C   UNL A   1      35.481  34.555  28.971  1.00  0.00     0.014 A 
ATOM     29  C   UNL A   1      35.064  33.266  31.406  1.00  0.00     0.010 A 
ATOM     30  C   UNL A   1      36.539  33.906  29.603  1.00  0.00     0.010 A 
ATOM     31  C   UNL A   1      36.347  33.266  30.834  1.00  0.00    -0.014 A 
BRANCH  31  32
ATOM     32  C   UNL A   1      37.492  32.605  31.512  1.00  0.00     0.031 A 
ATOM     33  C   UNL A   1      38.206  31.454  30.857  1.00  0.00     0.074 A 
ATOM     34  C   UNL A   1      37.851  33.008  32.747  1.00  0.00     0.049 A 
ATOM     35  N   UNL A   1      39.191  30.720  31.315  1.00  0.00    -0.248 NA
ATOM     36  C   UNL A   1      37.734  31.051  29.523  1.00  0.00     0.031 C 
ATOM     37  C   UNL A   1      37.200  34.074  33.511  1.00  0.00     0.029 A 
ATOM     38  N   UNL A   1      38.848  32.565  33.580  1.00  0.00    -0.354 N 
ATOM     39  C   UNL A   1      39.442  29.767  30.336  1.00  0.00     0.074 A 
ATOM     40  C   UNL A   1      38.468  29.974  29.287  1.00  0.00     0.031 C 
ATOM     41  C   UNL A   1      37.835  34.227  34.684  1.00  0.00     0.029 A 
ATOM     42  C   UNL A   1      38.907  33.240  34.775  1.00  0.00     0.049 A 
ATOM     43  H   UNL A   1      39.462  31.832  33.345  1.00  0.00     0.167 HD
ATOM     44  C   UNL A   1      40.414  28.824  30.302  1.00  0.00     0.037 A 
ATOM     45  C   UNL A   1      39.730  33.080  35.828  1.00  0.00     0.037 A 
ATOM     46  C   UNL A   1      41.397  28.639  31.338  1.00  0.00     0.049 A 
ATOM     47  C   UNL A   1      40.799  32.023  35.765  1.00  0.00     0.074 A 
ATOM     48  C   UNL A   1      42.460  27.754  31.371  1.00  0.00     0.029 A 
ATOM     49  N   UNL A   1      41.433  29.352  32.528  1.00  0.00    -0.354 N 
ATOM     50  N   UNL A   1      41.074  31.178  34.801  1.00  0.00    -0.248 NA
ATOM     51  C   UNL A   1      41.679  31.904  36.935  1.00  0.00     0.031 C 
ATOM     52  C   UNL A   1      43.107  27.894  32.603  1.00  0.00     0.029 A 
ATOM     53  C   UNL A   1      42.484  28.908  33.314  1.00  0.00     0.049 A 
ATOM     54  H   UNL A   1      40.804  30.068  32.776  1.00  0.00     0.167 HD
ATOM     55  C   UNL A   1      42.170  30.446  35.236  1.00  0.00     0.074 A 
ATOM     56  C   UNL A   1      42.525  30.965  36.540  1.00  0.00     0.031 C 
ATOM     57  C   UNL A   1      42.824  29.434  34.612  1.00  0.00     0.037 A 
BRANCH  44  58
ATOM     58  C   UNL A   1      40.466  27.919  29.103  1.00  0.00     0.064 A 
ATOM     59  C   UNL A   1      39.692  26.749  29.026  1.00  0.00     0.173 A 
ATOM     60  C   UNL A   1      41.269  28.242  27.998  1.00  0.00     0.173 A 
ATOM     61  F   UNL A   1      38.913  26.386  30.057  1.00  0.00    -0.203 F 
ATOM     62  C   UNL A   1      39.746  25.924  27.905  1.00  0.00     0.198 A 
ATOM     63  C   UNL A   1      41.295  27.433  26.866  1.00  0.00     0.198 A 
ATOM     64  F   UNL A   1      42.026  29.351  28.013  1.00  0.00    -0.203 F 
ATOM     65  F   UNL A   1      39.039  24.786  27.880  1.00  0.00    -0.200 F 
ATOM     66  C   UNL A   1      40.541  26.270  26.823  1.00  0.00     0.200 A 
ATOM     67  F   UNL A   1      42.052  27.776  25.814  1.00  0.00    -0.200 F 
ATOM     68  F   UNL A   1      40.584  25.479  25.742  1.00  0.00    -0.200 F 
ENDBRANCH  44  58
BRANCH  45  69
ATOM     69  C   UNL A   1      39.592  33.957  37.021  1.00  0.00     0.064 A 
ATOM     70  C   UNL A   1      38.841  33.549  38.133  1.00  0.00     0.173 A 
ATOM     71  C   UNL A   1      40.199  35.220  37.073  1.00  0.00     0.173 A 
ATOM     72  F   UNL A   1      38.224  32.359  38.124  1.00  0.00    -0.203 F 
ATOM     73  C   UNL A   1      38.682  34.381  39.239  1.00  0.00     0.198 A 
ATOM     74  C   UNL A   1      40.067  36.038  38.193  1.00  0.00     0.198 A 
ATOM     75  F   UNL A   1      40.934  35.656  36.039  1.00  0.00    -0.203 F 
ATOM     76  F   UNL A   1      37.917  33.987  40.266  1.00  0.00    -0.200 F 
ATOM     77  C   UNL A   1      39.301  35.622  39.271  1.00  0.00     0.200 A 
ATOM     78  F   UNL A   1      40.681  37.228  38.227  1.00  0.00    -0.200 F 
ATOM     79  F   UNL A   1      39.152  36.420  40.337  1.00  0.00    -0.200 F 
ENDBRANCH  45  69
BRANCH  57  80
ATOM     80  C   UNL A   1      44.006  28.842  35.324  1.00  0.00     0.064 A 
ATOM     81  C   UNL A   1      45.310  29.321  35.115  1.00  0.00     0.173 A 
ATOM     82  C   UNL A   1      43.832  27.797  36.245  1.00  0.00     0.173 A 
ATOM     83  F   UNL A   1      45.532  30.308  34.234  1.00  0.00    -0.203 F 
ATOM     84  C   UNL A   1      46.396  28.750  35.773  1.00  0.00     0.198 A 
ATOM     85  C   UNL A   1      44.916  27.254  36.928  1.00  0.00     0.198 A 
ATOM     86  F   UNL A   1      42.607  27.309  36.489  1.00  0.00    -0.203 F 
ATOM     87  F   UNL A   1      47.636  29.183  35.511  1.00  0.00    -0.200 F 
ATOM     88  C   UNL A   1      46.198  27.723  36.683  1.00  0.00     0.200 A 
ATOM     89  F   UNL A   1      44.721  26.273  37.819  1.00  0.00    -0.200 F 
ATOM     90  F   UNL A   1      47.244  27.178  37.318  1.00  0.00    -0.200 F 
ENDBRANCH  57  80
ENDBRANCH  31  32
ENDBRANCH  23  26
ENDBRANCH  21  22
ENDBRANCH  20  21
ENDBRANCH  19  20
ENDBRANCH   3  19
TORSDOF 16
ENDMDL
MODEL 2
REMARK VINA RESULT:     -10.7      4.089     10.486
REMARK SMILES CCCCCC[C@@H](C)N1C[C@H](C(=O)NCCCNC(=O)c2ccc(-c3c4nc(c(-c5c(F)c(F)c(F)c(F)c5F)c5ccc([nH]5)c(-c5c(F)c(F)c(F)c(F)c5F)c5nc(c(-c6c(F)c(F)c(F)c(F)c6F)c6ccc3[nH]6)C=C5)C=C4)cc2)CC1=O
REMARK SMILES IDX 12 1 13 2 14 3 11 5 9 6 10 7 85 8 84 9 86 10 7 11 8 12 6 13
REMARK SMILES IDX 5 14 4 15 3 16 2 17 1 18 15 19 16 20 17 21 18 22 19 23 20 25
REMARK SMILES IDX 21 26 22 27 83 28 23 29 82 30 24 31 25 32 26 33 76 34 27 35
REMARK SMILES IDX 81 36 75 37 77 38 28 39 80 40 74 41 73 42 29 44 61 45 41 46
REMARK SMILES IDX 60 47 42 48 45 49 59 50 78 51 43 52 44 53 58 55 79 56 46 57
REMARK SMILES IDX 30 58 31 59 39 60 32 61 33 62 37 63 40 64 34 65 35 66 38 67
REMARK SMILES IDX 36 68 62 69 63 70 71 71 64 72 65 73 69 74 72 75 66 76 67 77
REMARK SMILES IDX 70 78 68 79 47 80 48 81 56 82 49 83 50 84 54 85 57 86 51 87
REMARK SMILES IDX 52 88 55 89 53 90
REMARK H PARENT 14 4 18 24 77 43 45 54
REMARK Flexibility Score: inf
ROOT
ATOM      1  C   UNL A   1      34.010  35.158  31.234  1.00  0.00     0.225 C 
ATOM      2  O   UNL A   1      33.541  35.885  32.117  1.00  0.00    -0.275 OA
ATOM      3  N   UNL A   1      33.833  35.584  29.960  1.00  0.00    -0.356 N 
ATOM      4  H   UNL A   1      33.326  36.427  29.896  1.00  0.00     0.163 HD
ENDROOT
BRANCH   1   5
ATOM      5  C   UNL A   1      34.655  33.836  31.633  1.00  0.00     0.107 C 
ATOM      6  N   UNL A   1      36.626  33.851  32.943  1.00  0.00    -0.339 N 
ATOM      7  C   UNL A   1      36.165  33.902  31.570  1.00  0.00     0.133 C 
ATOM      8  C   UNL A   1      35.587  33.497  33.805  1.00  0.00     0.223 C 
ATOM      9  C   UNL A   1      34.328  33.272  32.999  1.00  0.00     0.115 C 
ATOM     10  O   UNL A   1      35.615  33.426  35.018  1.00  0.00    -0.275 OA
BRANCH   6  11
ATOM     11  C   UNL A   1      37.914  34.462  33.348  1.00  0.00     0.082 C 
ATOM     12  C   UNL A   1      38.977  34.359  32.242  1.00  0.00     0.031 C 
BRANCH  11  13
ATOM     13  C   UNL A   1      38.489  33.968  34.695  1.00  0.00     0.025 C 
BRANCH  13  14
ATOM     14  C   UNL A   1      39.649  32.962  34.570  1.00  0.00     0.002 C 
BRANCH  14  15
ATOM     15  C   UNL A   1      39.261  31.483  34.729  1.00  0.00     0.000 C 
BRANCH  15  16
ATOM     16  C   UNL A   1      39.319  30.649  33.443  1.00  0.00    -0.000 C 
BRANCH  16  17
ATOM     17  C   UNL A   1      40.277  29.454  33.484  1.00  0.00    -0.003 C 
ATOM     18  C   UNL A   1      39.720  28.208  32.812  1.00  0.00     0.004 C 
ENDBRANCH  16  17
ENDBRANCH  15  16
ENDBRANCH  14  15
ENDBRANCH  13  14
ENDBRANCH  11  13
ENDBRANCH   6  11
ENDBRANCH   1   5
BRANCH   3  19
ATOM     19  C   UNL A   1      34.235  35.054  28.669  1.00  0.00     0.117 C 
BRANCH  19  20
ATOM     20  C   UNL A   1      33.618  33.692  28.380  1.00  0.00     0.042 C 
BRANCH  20  21
ATOM     21  C   UNL A   1      34.637  32.599  28.093  1.00  0.00     0.118 C 
BRANCH  21  22
ATOM     22  N   UNL A   1      34.018  31.285  27.976  1.00  0.00    -0.352 N 
ATOM     23  C   UNL A   1      34.565  30.030  27.892  1.00  0.00     0.251 C 
ATOM     24  H   UNL A   1      33.034  31.301  27.953  1.00  0.00     0.163 HD
ATOM     25  O   UNL A   1      33.847  29.089  27.563  1.00  0.00    -0.269 OA
BRANCH  23  26
ATOM     26  C   UNL A   1      35.996  29.786  28.183  1.00  0.00     0.039 A 
ATOM     27  C   UNL A   1      36.354  29.349  29.463  1.00  0.00     0.014 A 
ATOM     28  C   UNL A   1      36.991  30.038  27.239  1.00  0.00     0.014 A 
ATOM     29  C   UNL A   1      37.696  29.115  29.771  1.00  0.00     0.010 A 
ATOM     30  C   UNL A   1      38.316  29.707  27.512  1.00  0.00     0.010 A 
ATOM     31  C   UNL A   1      38.687  29.255  28.785  1.00  0.00    -0.014 A 
BRANCH  31  32
ATOM     32  C   UNL A   1      40.109  28.935  29.073  1.00  0.00     0.031 A 
ATOM     33  C   UNL A   1      40.977  29.916  29.815  1.00  0.00     0.074 A 
ATOM     34  C   UNL A   1      40.634  27.782  28.612  1.00  0.00     0.049 A 
ATOM     35  N   UNL A   1      42.251  29.835  30.112  1.00  0.00    -0.248 NA
ATOM     36  C   UNL A   1      40.340  31.166  30.256  1.00  0.00     0.031 C 
ATOM     37  C   UNL A   1      39.911  26.777  27.831  1.00  0.00     0.029 A 
ATOM     38  N   UNL A   1      41.899  27.263  28.729  1.00  0.00    -0.354 N 
ATOM     39  C   UNL A   1      42.566  31.025  30.758  1.00  0.00     0.074 A 
ATOM     40  C   UNL A   1      41.369  31.836  30.754  1.00  0.00     0.031 C 
ATOM     41  C   UNL A   1      40.731  25.748  27.569  1.00  0.00     0.029 A 
ATOM     42  C   UNL A   1      42.050  26.040  28.122  1.00  0.00     0.049 A 
ATOM     43  H   UNL A   1      42.630  27.724  29.202  1.00  0.00     0.167 HD
ATOM     44  C   UNL A   1      43.739  31.395  31.326  1.00  0.00     0.037 A 
ATOM     45  C   UNL A   1      43.131  25.245  28.020  1.00  0.00     0.037 A 
ATOM     46  C   UNL A   1      44.920  30.572  31.348  1.00  0.00     0.049 A 
ATOM     47  C   UNL A   1      44.422  25.681  28.658  1.00  0.00     0.074 A 
ATOM     48  C   UNL A   1      46.140  30.828  31.951  1.00  0.00     0.029 A 
ATOM     49  N   UNL A   1      45.031  29.333  30.734  1.00  0.00    -0.354 N 
ATOM     50  N   UNL A   1      44.686  26.775  29.331  1.00  0.00    -0.248 NA
ATOM     51  C   UNL A   1      45.564  24.766  28.530  1.00  0.00     0.031 C 
ATOM     52  C   UNL A   1      47.004  29.769  31.657  1.00  0.00     0.029 A 
ATOM     53  C   UNL A   1      46.307  28.823  30.921  1.00  0.00     0.049 A 
ATOM     54  H   UNL A   1      44.309  28.881  30.240  1.00  0.00     0.167 HD
ATOM     55  C   UNL A   1      46.013  26.669  29.727  1.00  0.00     0.074 A 
ATOM     56  C   UNL A   1      46.491  25.392  29.239  1.00  0.00     0.031 C 
ATOM     57  C   UNL A   1      46.768  27.551  30.429  1.00  0.00     0.037 A 
BRANCH  44  58
ATOM     58  C   UNL A   1      43.803  32.749  31.975  1.00  0.00     0.064 A 
ATOM     59  C   UNL A   1      43.344  32.963  33.285  1.00  0.00     0.173 A 
ATOM     60  C   UNL A   1      44.364  33.841  31.295  1.00  0.00     0.173 A 
ATOM     61  F   UNL A   1      42.789  31.957  33.978  1.00  0.00    -0.203 F 
ATOM     62  C   UNL A   1      43.416  34.222  33.875  1.00  0.00     0.198 A 
ATOM     63  C   UNL A   1      44.466  35.091  31.900  1.00  0.00     0.198 A 
ATOM     64  F   UNL A   1      44.824  33.694  30.042  1.00  0.00    -0.203 F 
ATOM     65  F   UNL A   1      42.923  34.412  35.107  1.00  0.00    -0.200 F 
ATOM     66  C   UNL A   1      43.984  35.283  33.186  1.00  0.00     0.200 A 
ATOM     67  F   UNL A   1      45.028  36.112  31.238  1.00  0.00    -0.200 F 
ATOM     68  F   UNL A   1      44.061  36.492  33.760  1.00  0.00    -0.200 F 
ENDBRANCH  44  58
BRANCH  45  69
ATOM     69  C   UNL A   1      43.033  23.944  27.306  1.00  0.00     0.064 A 
ATOM     70  C   UNL A   1      42.613  22.785  27.973  1.00  0.00     0.173 A 
ATOM     71  C   UNL A   1      43.362  23.830  25.947  1.00  0.00     0.173 A 
ATOM     72  F   UNL A   1      42.307  22.837  29.277  1.00  0.00    -0.203 F 
ATOM     73  C   UNL A   1      42.551  21.558  27.316  1.00  0.00     0.198 A 
ATOM     74  C   UNL A   1      43.268  22.610  25.282  1.00  0.00     0.198 A 
ATOM     75  F   UNL A   1      43.763  24.911  25.259  1.00  0.00    -0.203 F 
ATOM     76  F   UNL A   1      42.196  20.456  27.991  1.00  0.00    -0.200 F 
ATOM     77  C   UNL A   1      42.872  21.472  25.969  1.00  0.00     0.200 A 
ATOM     78  F   UNL A   1      43.562  22.535  23.977  1.00  0.00    -0.200 F 
ATOM     79  F   UNL A   1      42.807  20.293  25.337  1.00  0.00    -0.200 F 
ENDBRANCH  45  69
BRANCH  57  80
ATOM     80  C   UNL A   1      48.182  27.148  30.734  1.00  0.00     0.064 A 
ATOM     81  C   UNL A   1      49.251  27.512  29.900  1.00  0.00     0.173 A 
ATOM     82  C   UNL A   1      48.476  26.406  31.890  1.00  0.00     0.173 A 
ATOM     83  F   UNL A   1      49.022  28.208  28.776  1.00  0.00    -0.203 F 
ATOM     84  C   UNL A   1      50.553  27.117  30.192  1.00  0.00     0.198 A 
ATOM     85  C   UNL A   1      49.784  26.045  32.197  1.00  0.00     0.198 A 
ATOM     86  F   UNL A   1      47.493  26.040  32.726  1.00  0.00    -0.203 F 
ATOM     87  F   UNL A   1      51.548  27.424  29.348  1.00  0.00    -0.200 F 
ATOM     88  C   UNL A   1      50.820  26.390  31.343  1.00  0.00     0.200 A 
ATOM     89  F   UNL A   1      50.042  25.357  33.318  1.00  0.00    -0.200 F 
ATOM     90  F   UNL A   1      52.075  26.015  31.624  1.00  0.00    -0.200 F 
ENDBRANCH  57  80
ENDBRANCH  31  32
ENDBRANCH  23  26
ENDBRANCH  21  22
ENDBRANCH  20  21
ENDBRANCH  19  20
ENDBRANCH   3  19
TORSDOF 16
ENDMDL
MODEL 3
REMARK VINA RESULT:     -10.7      3.669     10.718
REMARK SMILES CCCCCC[C@@H](C)N1C[C@H](C(=O)NCCCNC(=O)c2ccc(-c3c4nc(c(-c5c(F)c(F)c(F)c(F)c5F)c5ccc([nH]5)c(-c5c(F)c(F)c(F)c(F)c5F)c5nc(c(-c6c(F)c(F)c(F)c(F)c6F)c6ccc3[nH]6)C=C5)C=C4)cc2)CC1=O
REMARK SMILES IDX 12 1 13 2 14 3 11 5 9 6 10 7 85 8 84 9 86 10 7 11 8 12 6 13
REMARK SMILES IDX 5 14 4 15 3 16 2 17 1 18 15 19 16 20 17 21 18 22 19 23 20 25
REMARK SMILES IDX 21 26 22 27 83 28 23 29 82 30 24 31 25 32 26 33 76 34 27 35
REMARK SMILES IDX 81 36 75 37 77 38 28 39 80 40 74 41 73 42 29 44 61 45 41 46
REMARK SMILES IDX 60 47 42 48 45 49 59 50 78 51 43 52 44 53 58 55 79 56 46 57
REMARK SMILES IDX 30 58 31 59 39 60 32 61 33 62 37 63 40 64 34 65 35 66 38 67
REMARK SMILES IDX 36 68 62 69 63 70 71 71 64 72 65 73 69 74 72 75 66 76 67 77
REMARK SMILES IDX 70 78 68 79 47 80 48 81 56 82 49 83 50 84 54 85 57 86 51 87
REMARK SMILES IDX 52 88 55 89 53 90
REMARK H PARENT 14 4 18 24 77 43 45 54
REMARK Flexibility Score: inf
ROOT
ATOM      1  C   UNL A   1      34.304  34.212  31.463  1.00  0.00     0.225 C 
ATOM      2  O   UNL A   1      33.710  34.046  32.536  1.00  0.00    -0.275 OA
ATOM      3  N   UNL A   1      33.544  34.637  30.425  1.00  0.00    -0.356 N 
ATOM      4  H   UNL A   1      32.592  34.745  30.655  1.00  0.00     0.163 HD
ENDROOT
BRANCH   1   5
ATOM      5  C   UNL A   1      35.783  33.853  31.377  1.00  0.00     0.107 C 
ATOM      6  N   UNL A   1      36.891  33.018  33.294  1.00  0.00    -0.339 N 
ATOM      7  C   UNL A   1      36.535  34.254  32.626  1.00  0.00     0.133 C 
ATOM      8  C   UNL A   1      36.672  31.920  32.460  1.00  0.00     0.223 C 
ATOM      9  C   UNL A   1      36.147  32.406  31.128  1.00  0.00     0.115 C 
ATOM     10  O   UNL A   1      36.804  30.742  32.727  1.00  0.00    -0.275 OA
BRANCH   6  11
ATOM     11  C   UNL A   1      37.087  32.962  34.762  1.00  0.00     0.082 C 
ATOM     12  C   UNL A   1      36.184  33.960  35.506  1.00  0.00     0.031 C 
BRANCH  11  13
ATOM     13  C   UNL A   1      38.550  33.100  35.242  1.00  0.00     0.025 C 
BRANCH  13  14
ATOM     14  C   UNL A   1      38.793  34.238  36.252  1.00  0.00     0.002 C 
BRANCH  14  15
ATOM     15  C   UNL A   1      39.546  35.460  35.701  1.00  0.00     0.000 C 
BRANCH  15  16
ATOM     16  C   UNL A   1      40.079  36.433  36.760  1.00  0.00    -0.000 C 
BRANCH  16  17
ATOM     17  C   UNL A   1      39.673  36.113  38.202  1.00  0.00    -0.003 C 
ATOM     18  C   UNL A   1      40.122  37.165  39.205  1.00  0.00     0.004 C 
ENDBRANCH  16  17
ENDBRANCH  15  16
ENDBRANCH  14  15
ENDBRANCH  13  14
ENDBRANCH  11  13
ENDBRANCH   6  11
ENDBRANCH   1   5
BRANCH   3  19
ATOM     19  C   UNL A   1      33.844  34.967  29.043  1.00  0.00     0.117 C 
BRANCH  19  20
ATOM     20  C   UNL A   1      33.458  33.853  28.080  1.00  0.00     0.042 C 
BRANCH  20  21
ATOM     21  C   UNL A   1      34.485  32.734  27.984  1.00  0.00     0.118 C 
BRANCH  21  22
ATOM     22  N   UNL A   1      33.868  31.441  27.720  1.00  0.00    -0.352 N 
ATOM     23  C   UNL A   1      34.405  30.183  27.626  1.00  0.00     0.251 C 
ATOM     24  H   UNL A   1      32.894  31.477  27.585  1.00  0.00     0.163 HD
ATOM     25  O   UNL A   1      33.719  29.275  27.162  1.00  0.00    -0.269 OA
BRANCH  23  26
ATOM     26  C   UNL A   1      35.790  29.895  28.065  1.00  0.00     0.039 A 
ATOM     27  C   UNL A   1      35.989  29.348  29.337  1.00  0.00     0.014 A 
ATOM     28  C   UNL A   1      36.893  30.213  27.273  1.00  0.00     0.014 A 
ATOM     29  C   UNL A   1      37.284  29.071  29.783  1.00  0.00     0.010 A 
ATOM     30  C   UNL A   1      38.174  29.842  27.674  1.00  0.00     0.010 A 
ATOM     31  C   UNL A   1      38.387  29.279  28.940  1.00  0.00    -0.014 A 
BRANCH  31  32
ATOM     32  C   UNL A   1      39.763  28.918  29.367  1.00  0.00     0.031 A 
ATOM     33  C   UNL A   1      40.542  29.826  30.281  1.00  0.00     0.074 A 
ATOM     34  C   UNL A   1      40.332  27.796  28.884  1.00  0.00     0.049 A 
ATOM     35  N   UNL A   1      41.771  29.704  30.719  1.00  0.00    -0.248 NA
ATOM     36  C   UNL A   1      39.864  31.048  30.739  1.00  0.00     0.031 C 
ATOM     37  C   UNL A   1      39.701  26.864  27.948  1.00  0.00     0.029 A 
ATOM     38  N   UNL A   1      41.571  27.251  29.109  1.00  0.00    -0.354 N 
ATOM     39  C   UNL A   1      42.013  30.836  31.488  1.00  0.00     0.074 A 
ATOM     40  C   UNL A   1      40.829  31.663  31.406  1.00  0.00     0.031 C 
ATOM     41  C   UNL A   1      40.541  25.846  27.706  1.00  0.00     0.029 A 
ATOM     42  C   UNL A   1      41.786  26.075  28.432  1.00  0.00     0.049 A 
ATOM     43  H   UNL A   1      42.243  27.663  29.700  1.00  0.00     0.167 HD
ATOM     44  C   UNL A   1      43.112  31.144  32.218  1.00  0.00     0.037 A 
ATOM     45  C   UNL A   1      42.868  25.274  28.397  1.00  0.00     0.037 A 
ATOM     46  C   UNL A   1      44.278  30.305  32.316  1.00  0.00     0.049 A 
ATOM     47  C   UNL A   1      44.076  25.641  29.216  1.00  0.00     0.074 A 
ATOM     48  C   UNL A   1      45.418  30.496  33.077  1.00  0.00     0.029 A 
ATOM     49  N   UNL A   1      44.454  29.114  31.626  1.00  0.00    -0.354 N 
ATOM     50  N   UNL A   1      44.264  26.677  29.998  1.00  0.00    -0.248 NA
ATOM     51  C   UNL A   1      45.219  24.722  29.153  1.00  0.00     0.031 C 
ATOM     52  C   UNL A   1      46.305  29.450  32.806  1.00  0.00     0.029 A 
ATOM     53  C   UNL A   1      45.695  28.573  31.922  1.00  0.00     0.049 A 
ATOM     54  H   UNL A   1      43.794  28.713  31.016  1.00  0.00     0.167 HD
ATOM     55  C   UNL A   1      45.533  26.521  30.538  1.00  0.00     0.074 A 
ATOM     56  C   UNL A   1      46.059  25.278  30.013  1.00  0.00     0.031 C 
ATOM     57  C   UNL A   1      46.204  27.335  31.391  1.00  0.00     0.037 A 
BRANCH  44  58
ATOM     58  C   UNL A   1      43.106  32.444  32.973  1.00  0.00     0.064 A 
ATOM     59  C   UNL A   1      43.500  33.650  32.371  1.00  0.00     0.173 A 
ATOM     60  C   UNL A   1      42.663  32.495  34.304  1.00  0.00     0.173 A 
ATOM     61  F   UNL A   1      43.942  33.659  31.104  1.00  0.00    -0.203 F 
ATOM     62  C   UNL A   1      43.483  34.848  33.082  1.00  0.00     0.198 A 
ATOM     63  C   UNL A   1      42.615  33.699  35.001  1.00  0.00     0.198 A 
ATOM     64  F   UNL A   1      42.268  31.374  34.929  1.00  0.00    -0.203 F 
ATOM     65  F   UNL A   1      43.916  35.975  32.501  1.00  0.00    -0.200 F 
ATOM     66  C   UNL A   1      43.033  34.873  34.393  1.00  0.00     0.200 A 
ATOM     67  F   UNL A   1      42.165  33.724  36.264  1.00  0.00    -0.200 F 
ATOM     68  F   UNL A   1      43.008  36.028  35.072  1.00  0.00    -0.200 F 
ENDBRANCH  44  58
BRANCH  45  69
ATOM     69  C   UNL A   1      42.848  24.033  27.578  1.00  0.00     0.064 A 
ATOM     70  C   UNL A   1      43.246  24.050  26.233  1.00  0.00     0.173 A 
ATOM     71  C   UNL A   1      42.426  22.808  28.116  1.00  0.00     0.173 A 
ATOM     72  F   UNL A   1      43.639  25.200  25.667  1.00  0.00    -0.203 F 
ATOM     73  C   UNL A   1      43.199  22.896  25.454  1.00  0.00     0.198 A 
ATOM     74  C   UNL A   1      42.410  21.649  27.345  1.00  0.00     0.198 A 
ATOM     75  F   UNL A   1      42.040  22.735  29.400  1.00  0.00    -0.203 F 
ATOM     76  F   UNL A   1      43.536  22.953  24.158  1.00  0.00    -0.200 F 
ATOM     77  C   UNL A   1      42.787  21.696  26.011  1.00  0.00     0.200 A 
ATOM     78  F   UNL A   1      42.028  20.487  27.893  1.00  0.00    -0.200 F 
ATOM     79  F   UNL A   1      42.746  20.586  25.262  1.00  0.00    -0.200 F 
ENDBRANCH  45  69
BRANCH  57  80
ATOM     80  C   UNL A   1      47.570  26.889  31.829  1.00  0.00     0.064 A 
ATOM     81  C   UNL A   1      47.750  26.037  32.930  1.00  0.00     0.173 A 
ATOM     82  C   UNL A   1      48.713  27.302  31.126  1.00  0.00     0.173 A 
ATOM     83  F   UNL A   1      46.692  25.625  33.645  1.00  0.00    -0.203 F 
ATOM     84  C   UNL A   1      49.025  25.646  33.331  1.00  0.00     0.198 A 
ATOM     85  C   UNL A   1      49.982  26.880  31.508  1.00  0.00     0.198 A 
ATOM     86  F   UNL A   1      48.596  28.109  30.061  1.00  0.00    -0.203 F 
ATOM     87  F   UNL A   1      49.175  24.882  34.421  1.00  0.00    -0.200 F 
ATOM     88  C   UNL A   1      50.138  26.061  32.616  1.00  0.00     0.200 A 
ATOM     89  F   UNL A   1      51.055  27.268  30.806  1.00  0.00    -0.200 F 
ATOM     90  F   UNL A   1      51.364  25.680  33.001  1.00  0.00    -0.200 F 
ENDBRANCH  57  80
ENDBRANCH  31  32
ENDBRANCH  23  26
ENDBRANCH  21  22
ENDBRANCH  20  21
ENDBRANCH  19  20
ENDBRANCH   3  19
TORSDOF 16
ENDMDL
