MODEL 1
REMARK VINA RESULT:     -13.1      0.000      0.000
REMARK SMILES Cc1ccc(OCCC(=O)N2C[C@H](O)C[C@@H]2C(=O)NCCCNC(=O)c2ccc(-c3c4nc(c(-c5c(F)c(F)c(F)c(F)c5F)c5ccc([nH]5)c(-c5c(F)c(F)c(F)c(F)c5F)c5nc(c(-c6c(F)c(F)c(F)c(F)c6F)c6ccc3[nH]6)C=C5)C=C4)cc2)cc1
REMARK SMILES IDX 17 1 18 2 19 3 16 5 11 6 12 7 13 8 15 9 9 10 10 11 8 12 7 13
REMARK SMILES IDX 6 14 5 15 1 16 2 17 3 18 90 19 4 20 89 21 14 22 20 24 21 25
REMARK SMILES IDX 22 26 23 27 24 28 25 30 26 31 27 32 88 33 28 34 87 35 29 36
REMARK SMILES IDX 30 37 31 38 81 39 32 40 86 41 80 42 82 43 33 44 85 45 79 46
REMARK SMILES IDX 78 47 34 49 66 50 46 51 65 52 47 53 50 54 64 55 83 56 48 57
REMARK SMILES IDX 49 58 63 60 84 61 51 62 35 63 36 64 44 65 37 66 38 67 42 68
REMARK SMILES IDX 45 69 39 70 40 71 43 72 41 73 67 74 68 75 76 76 69 77 70 78
REMARK SMILES IDX 74 79 77 80 71 81 72 82 75 83 73 84 52 85 53 86 61 87 54 88
REMARK SMILES IDX 55 89 59 90 62 91 56 92 57 93 60 94 58 95
REMARK H PARENT 19 4 14 23 23 29 82 48 50 59
REMARK Flexibility Score: inf
ROOT
ATOM      1  C   UNL A   1      35.166  21.667  26.112  1.00  0.00     0.242 C 
ATOM      2  O   UNL A   1      34.589  21.940  27.173  1.00  0.00    -0.273 OA
ATOM      3  N   UNL A   1      36.525  21.766  26.143  1.00  0.00    -0.354 N 
ATOM      4  H   UNL A   1      36.877  22.293  26.895  1.00  0.00     0.163 HD
ENDROOT
BRANCH   1   5
ATOM      5  C   UNL A   1      34.327  21.345  24.842  1.00  0.00     0.177 C 
ATOM      6  N   UNL A   1      32.923  21.756  24.788  1.00  0.00    -0.328 N 
ATOM      7  C   UNL A   1      32.047  20.620  25.064  1.00  0.00     0.152 C 
ATOM      8  C   UNL A   1      32.955  19.437  25.384  1.00  0.00     0.136 C 
ATOM      9  C   UNL A   1      34.265  19.808  24.698  1.00  0.00     0.069 C 
BRANCH   6  10
ATOM     10  C   UNL A   1      32.512  22.910  24.138  1.00  0.00     0.226 C 
ATOM     11  O   UNL A   1      33.219  23.472  23.301  1.00  0.00    -0.275 OA
BRANCH  10  12
ATOM     12  C   UNL A   1      31.221  23.569  24.622  1.00  0.00     0.141 C 
BRANCH  12  13
ATOM     13  C   UNL A   1      31.272  24.432  25.877  1.00  0.00     0.239 C 
BRANCH  13  14
ATOM     14  O   UNL A   1      32.556  25.031  26.106  1.00  0.00    -0.493 OA
BRANCH  14  15
ATOM     15  C   UNL A   1      32.586  26.393  26.225  1.00  0.00     0.119 A 
ATOM     16  C   UNL A   1      33.289  30.453  27.416  1.00  0.00     0.044 C 
ATOM     17  C   UNL A   1      33.020  29.074  26.897  1.00  0.00    -0.051 A 
ATOM     18  C   UNL A   1      34.025  28.341  26.254  1.00  0.00     0.007 A 
ATOM     19  C   UNL A   1      31.761  28.494  27.072  1.00  0.00     0.007 A 
ATOM     20  C   UNL A   1      33.803  27.005  25.905  1.00  0.00     0.046 A 
ATOM     21  C   UNL A   1      31.543  27.164  26.727  1.00  0.00     0.046 A 
ENDBRANCH  14  15
ENDBRANCH  13  14
ENDBRANCH  12  13
ENDBRANCH  10  12
ENDBRANCH   6  10
BRANCH   8  22
ATOM     22  O   UNL A   1      33.099  19.256  26.790  1.00  0.00    -0.391 OA
ATOM     23  H   UNL A   1      32.221  19.203  27.199  1.00  0.00     0.211 HD
ENDBRANCH   8  22
ENDBRANCH   1   5
BRANCH   3  24
ATOM     24  C   UNL A   1      37.543  21.225  25.256  1.00  0.00     0.117 C 
BRANCH  24  25
ATOM     25  C   UNL A   1      38.957  21.507  25.739  1.00  0.00     0.042 C 
BRANCH  25  26
ATOM     26  C   UNL A   1      39.138  22.757  26.572  1.00  0.00     0.118 C 
BRANCH  26  27
ATOM     27  N   UNL A   1      40.527  23.051  26.923  1.00  0.00    -0.352 N 
ATOM     28  C   UNL A   1      41.106  24.292  27.181  1.00  0.00     0.251 C 
ATOM     29  H   UNL A   1      41.129  22.274  26.985  1.00  0.00     0.163 HD
ATOM     30  O   UNL A   1      42.274  24.404  27.470  1.00  0.00    -0.269 OA
BRANCH  28  31
ATOM     31  C   UNL A   1      40.190  25.460  27.232  1.00  0.00     0.039 A 
ATOM     32  C   UNL A   1      40.560  26.549  26.439  1.00  0.00     0.014 A 
ATOM     33  C   UNL A   1      39.381  25.618  28.352  1.00  0.00     0.014 A 
ATOM     34  C   UNL A   1      40.409  27.825  26.958  1.00  0.00     0.010 A 
ATOM     35  C   UNL A   1      39.334  26.877  28.918  1.00  0.00     0.010 A 
ATOM     36  C   UNL A   1      39.946  27.958  28.263  1.00  0.00    -0.014 A 
BRANCH  36  37
ATOM     37  C   UNL A   1      40.209  29.140  29.077  1.00  0.00     0.031 A 
ATOM     38  C   UNL A   1      39.216  30.230  29.106  1.00  0.00     0.074 A 
ATOM     39  C   UNL A   1      41.308  29.191  29.870  1.00  0.00     0.049 A 
ATOM     40  N   UNL A   1      39.442  31.393  29.616  1.00  0.00    -0.248 NA
ATOM     41  C   UNL A   1      37.901  30.132  28.478  1.00  0.00     0.031 C 
ATOM     42  C   UNL A   1      41.558  30.107  30.984  1.00  0.00     0.029 A 
ATOM     43  N   UNL A   1      42.545  28.544  29.678  1.00  0.00    -0.354 N 
ATOM     44  C   UNL A   1      38.248  32.067  29.657  1.00  0.00     0.074 A 
ATOM     45  C   UNL A   1      37.361  31.304  28.823  1.00  0.00     0.031 C 
ATOM     46  C   UNL A   1      42.881  30.207  31.182  1.00  0.00     0.029 A 
ATOM     47  C   UNL A   1      43.523  29.475  30.108  1.00  0.00     0.049 A 
ATOM     48  H   UNL A   1      42.697  27.638  29.324  1.00  0.00     0.167 HD
ATOM     49  C   UNL A   1      38.136  33.117  30.515  1.00  0.00     0.037 A 
ATOM     50  C   UNL A   1      44.443  30.007  29.252  1.00  0.00     0.037 A 
ATOM     51  C   UNL A   1      39.463  33.591  30.915  1.00  0.00     0.049 A 
ATOM     52  C   UNL A   1      44.406  31.515  29.163  1.00  0.00     0.074 A 
ATOM     53  C   UNL A   1      40.203  33.526  32.083  1.00  0.00     0.029 A 
ATOM     54  N   UNL A   1      40.339  34.016  29.917  1.00  0.00    -0.354 N 
ATOM     55  N   UNL A   1      43.392  32.241  29.546  1.00  0.00    -0.248 NA
ATOM     56  C   UNL A   1      45.491  32.320  28.610  1.00  0.00     0.031 C 
ATOM     57  C   UNL A   1      41.555  33.832  31.757  1.00  0.00     0.029 A 
ATOM     58  C   UNL A   1      41.624  34.125  30.405  1.00  0.00     0.049 A 
ATOM     59  H   UNL A   1      40.076  34.212  28.989  1.00  0.00     0.167 HD
ATOM     60  C   UNL A   1      43.646  33.563  29.280  1.00  0.00     0.074 A 
ATOM     61  C   UNL A   1      44.985  33.561  28.718  1.00  0.00     0.031 C 
ATOM     62  C   UNL A   1      42.718  34.536  29.528  1.00  0.00     0.037 A 
BRANCH  49  63
ATOM     63  C   UNL A   1      36.841  33.596  31.141  1.00  0.00     0.064 A 
ATOM     64  C   UNL A   1      36.568  33.323  32.500  1.00  0.00     0.173 A 
ATOM     65  C   UNL A   1      35.766  34.194  30.442  1.00  0.00     0.173 A 
ATOM     66  F   UNL A   1      37.484  32.747  33.290  1.00  0.00    -0.203 F 
ATOM     67  C   UNL A   1      35.329  33.605  33.092  1.00  0.00     0.198 A 
ATOM     68  C   UNL A   1      34.549  34.519  31.047  1.00  0.00     0.198 A 
ATOM     69  F   UNL A   1      35.809  34.440  29.130  1.00  0.00    -0.203 F 
ATOM     70  F   UNL A   1      35.110  33.265  34.371  1.00  0.00    -0.200 F 
ATOM     71  C   UNL A   1      34.323  34.210  32.368  1.00  0.00     0.200 A 
ATOM     72  F   UNL A   1      33.586  35.102  30.319  1.00  0.00    -0.200 F 
ATOM     73  F   UNL A   1      33.138  34.478  32.931  1.00  0.00    -0.200 F 
ENDBRANCH  49  63
BRANCH  50  74
ATOM     74  C   UNL A   1      44.810  29.084  28.147  1.00  0.00     0.064 A 
ATOM     75  C   UNL A   1      45.662  28.001  28.444  1.00  0.00     0.173 A 
ATOM     76  C   UNL A   1      44.049  29.005  26.976  1.00  0.00     0.173 A 
ATOM     77  F   UNL A   1      46.412  28.028  29.558  1.00  0.00    -0.203 F 
ATOM     78  C   UNL A   1      45.651  26.838  27.680  1.00  0.00     0.198 A 
ATOM     79  C   UNL A   1      44.053  27.842  26.202  1.00  0.00     0.198 A 
ATOM     80  F   UNL A   1      43.201  29.991  26.651  1.00  0.00    -0.203 F 
ATOM     81  F   UNL A   1      46.375  25.778  28.066  1.00  0.00    -0.200 F 
ATOM     82  C   UNL A   1      44.822  26.748  26.576  1.00  0.00     0.200 A 
ATOM     83  F   UNL A   1      43.223  27.737  25.154  1.00  0.00    -0.200 F 
ATOM     84  F   UNL A   1      44.721  25.592  25.904  1.00  0.00    -0.200 F 
ENDBRANCH  50  74
BRANCH  62  85
ATOM     85  C   UNL A   1      42.758  35.973  29.041  1.00  0.00     0.064 A 
ATOM     86  C   UNL A   1      42.067  36.454  27.914  1.00  0.00     0.173 A 
ATOM     87  C   UNL A   1      43.404  36.972  29.815  1.00  0.00     0.173 A 
ATOM     88  F   UNL A   1      41.302  35.650  27.165  1.00  0.00    -0.203 F 
ATOM     89  C   UNL A   1      42.080  37.806  27.554  1.00  0.00     0.198 A 
ATOM     90  C   UNL A   1      43.361  38.327  29.488  1.00  0.00     0.198 A 
ATOM     91  F   UNL A   1      44.074  36.667  30.936  1.00  0.00    -0.203 F 
ATOM     92  F   UNL A   1      41.440  38.200  26.443  1.00  0.00    -0.200 F 
ATOM     93  C   UNL A   1      42.714  38.743  28.345  1.00  0.00     0.200 A 
ATOM     94  F   UNL A   1      43.931  39.227  30.302  1.00  0.00    -0.200 F 
ATOM     95  F   UNL A   1      42.679  40.043  28.022  1.00  0.00    -0.200 F 
ENDBRANCH  62  85
ENDBRANCH  36  37
ENDBRANCH  28  31
ENDBRANCH  26  27
ENDBRANCH  25  26
ENDBRANCH  24  25
ENDBRANCH   3  24
TORSDOF 16
ENDMDL
MODEL 2
REMARK VINA RESULT:     -12.9      4.181     10.520
REMARK SMILES Cc1ccc(OCCC(=O)N2C[C@H](O)C[C@@H]2C(=O)NCCCNC(=O)c2ccc(-c3c4nc(c(-c5c(F)c(F)c(F)c(F)c5F)c5ccc([nH]5)c(-c5c(F)c(F)c(F)c(F)c5F)c5nc(c(-c6c(F)c(F)c(F)c(F)c6F)c6ccc3[nH]6)C=C5)C=C4)cc2)cc1
REMARK SMILES IDX 17 1 18 2 19 3 16 5 11 6 12 7 13 8 15 9 9 10 10 11 8 12 7 13
REMARK SMILES IDX 6 14 5 15 1 16 2 17 3 18 90 19 4 20 89 21 14 22 20 24 21 25
REMARK SMILES IDX 22 26 23 27 24 28 25 30 26 31 27 32 88 33 28 34 87 35 29 36
REMARK SMILES IDX 30 37 31 38 81 39 32 40 86 41 80 42 82 43 33 44 85 45 79 46
REMARK SMILES IDX 78 47 34 49 66 50 46 51 65 52 47 53 50 54 64 55 83 56 48 57
REMARK SMILES IDX 49 58 63 60 84 61 51 62 35 63 36 64 44 65 37 66 38 67 42 68
REMARK SMILES IDX 45 69 39 70 40 71 43 72 41 73 67 74 68 75 76 76 69 77 70 78
REMARK SMILES IDX 74 79 77 80 71 81 72 82 75 83 73 84 52 85 53 86 61 87 54 88
REMARK SMILES IDX 55 89 59 90 62 91 56 92 57 93 60 94 58 95
REMARK H PARENT 19 4 14 23 23 29 82 48 50 59
REMARK Flexibility Score: inf
ROOT
ATOM      1  C   UNL A   1      32.693  29.325  24.477  1.00  0.00     0.242 C 
ATOM      2  O   UNL A   1      33.476  29.189  23.527  1.00  0.00    -0.273 OA
ATOM      3  N   UNL A   1      33.158  30.076  25.514  1.00  0.00    -0.354 N 
ATOM      4  H   UNL A   1      34.134  30.197  25.523  1.00  0.00     0.163 HD
ENDROOT
BRANCH   1   5
ATOM      5  C   UNL A   1      31.331  28.573  24.464  1.00  0.00     0.177 C 
ATOM      6  N   UNL A   1      31.192  27.356  23.662  1.00  0.00    -0.328 N 
ATOM      7  C   UNL A   1      30.494  27.645  22.412  1.00  0.00     0.152 C 
ATOM      8  C   UNL A   1      30.242  29.149  22.390  1.00  0.00     0.136 C 
ATOM      9  C   UNL A   1      30.274  29.528  23.866  1.00  0.00     0.069 C 
BRANCH   6  10
ATOM     10  C   UNL A   1      31.301  26.088  24.213  1.00  0.00     0.226 C 
ATOM     11  O   UNL A   1      31.442  25.915  25.424  1.00  0.00    -0.275 OA
BRANCH  10  12
ATOM     12  C   UNL A   1      31.419  24.909  23.249  1.00  0.00     0.141 C 
BRANCH  12  13
ATOM     13  C   UNL A   1      32.565  23.924  23.441  1.00  0.00     0.239 C 
BRANCH  13  14
ATOM     14  O   UNL A   1      33.832  24.561  23.670  1.00  0.00    -0.493 OA
BRANCH  14  15
ATOM     15  C   UNL A   1      34.831  23.776  24.173  1.00  0.00     0.119 A 
ATOM     16  C   UNL A   1      38.471  22.224  25.831  1.00  0.00     0.044 C 
ATOM     17  C   UNL A   1      37.148  22.674  25.290  1.00  0.00    -0.051 A 
ATOM     18  C   UNL A   1      36.240  23.367  26.100  1.00  0.00     0.007 A 
ATOM     19  C   UNL A   1      36.817  22.424  23.957  1.00  0.00     0.007 A 
ATOM     20  C   UNL A   1      35.075  23.905  25.544  1.00  0.00     0.046 A 
ATOM     21  C   UNL A   1      35.658  22.963  23.405  1.00  0.00     0.046 A 
ENDBRANCH  14  15
ENDBRANCH  13  14
ENDBRANCH  12  13
ENDBRANCH  10  12
ENDBRANCH   6  10
BRANCH   8  22
ATOM     22  O   UNL A   1      31.229  29.831  21.623  1.00  0.00    -0.391 OA
ATOM     23  H   UNL A   1      30.927  29.908  20.704  1.00  0.00     0.211 HD
ENDBRANCH   8  22
ENDBRANCH   1   5
BRANCH   3  24
ATOM     24  C   UNL A   1      32.459  30.731  26.609  1.00  0.00     0.117 C 
BRANCH  24  25
ATOM     25  C   UNL A   1      33.397  31.462  27.555  1.00  0.00     0.042 C 
BRANCH  25  26
ATOM     26  C   UNL A   1      34.666  30.729  27.932  1.00  0.00     0.118 C 
BRANCH  26  27
ATOM     27  N   UNL A   1      35.675  31.566  28.580  1.00  0.00    -0.352 N 
ATOM     28  C   UNL A   1      36.943  31.196  29.028  1.00  0.00     0.251 C 
ATOM     29  H   UNL A   1      35.429  32.510  28.718  1.00  0.00     0.163 HD
ATOM     30  O   UNL A   1      37.693  31.989  29.546  1.00  0.00    -0.269 OA
BRANCH  28  31
ATOM     31  C   UNL A   1      37.390  29.818  28.704  1.00  0.00     0.039 A 
ATOM     32  C   UNL A   1      37.454  28.938  29.788  1.00  0.00     0.014 A 
ATOM     33  C   UNL A   1      38.159  29.622  27.562  1.00  0.00     0.014 A 
ATOM     34  C   UNL A   1      38.530  28.067  29.867  1.00  0.00     0.010 A 
ATOM     35  C   UNL A   1      39.289  28.839  27.694  1.00  0.00     0.010 A 
ATOM     36  C   UNL A   1      39.521  28.148  28.894  1.00  0.00    -0.014 A 
BRANCH  36  37
ATOM     37  C   UNL A   1      40.885  27.682  29.117  1.00  0.00     0.031 A 
ATOM     38  C   UNL A   1      41.244  26.300  28.746  1.00  0.00     0.074 A 
ATOM     39  C   UNL A   1      41.833  28.540  29.569  1.00  0.00     0.049 A 
ATOM     40  N   UNL A   1      42.348  25.729  29.091  1.00  0.00    -0.248 NA
ATOM     41  C   UNL A   1      40.342  25.405  28.025  1.00  0.00     0.031 C 
ATOM     42  C   UNL A   1      43.285  28.362  29.526  1.00  0.00     0.029 A 
ATOM     43  N   UNL A   1      41.655  29.681  30.377  1.00  0.00    -0.354 N 
ATOM     44  C   UNL A   1      42.434  24.545  28.404  1.00  0.00     0.074 A 
ATOM     45  C   UNL A   1      41.117  24.328  27.869  1.00  0.00     0.031 C 
ATOM     46  C   UNL A   1      43.849  29.121  30.478  1.00  0.00     0.029 A 
ATOM     47  C   UNL A   1      42.767  29.694  31.255  1.00  0.00     0.049 A 
ATOM     48  H   UNL A   1      40.916  30.330  30.339  1.00  0.00     0.167 HD
ATOM     49  C   UNL A   1      43.660  23.973  28.267  1.00  0.00     0.037 A 
ATOM     50  C   UNL A   1      42.627  29.555  32.605  1.00  0.00     0.037 A 
ATOM     51  C   UNL A   1      44.591  24.521  29.256  1.00  0.00     0.049 A 
ATOM     52  C   UNL A   1      43.377  28.379  33.187  1.00  0.00     0.074 A 
ATOM     53  C   UNL A   1      45.676  25.377  29.195  1.00  0.00     0.029 A 
ATOM     54  N   UNL A   1      44.268  24.391  30.606  1.00  0.00    -0.354 N 
ATOM     55  N   UNL A   1      43.810  27.371  32.481  1.00  0.00    -0.248 NA
ATOM     56  C   UNL A   1      43.671  28.231  34.609  1.00  0.00     0.031 C 
ATOM     57  C   UNL A   1      45.946  25.830  30.518  1.00  0.00     0.029 A 
ATOM     58  C   UNL A   1      45.056  25.214  31.382  1.00  0.00     0.049 A 
ATOM     59  H   UNL A   1      43.572  23.791  30.958  1.00  0.00     0.167 HD
ATOM     60  C   UNL A   1      44.394  26.446  33.309  1.00  0.00     0.074 A 
ATOM     61  C   UNL A   1      44.305  27.045  34.628  1.00  0.00     0.031 C 
ATOM     62  C   UNL A   1      44.879  25.261  32.831  1.00  0.00     0.037 A 
BRANCH  49  63
ATOM     63  C   UNL A   1      44.075  23.064  27.126  1.00  0.00     0.064 A 
ATOM     64  C   UNL A   1      45.065  23.485  26.209  1.00  0.00     0.173 A 
ATOM     65  C   UNL A   1      43.450  21.843  26.784  1.00  0.00     0.173 A 
ATOM     66  F   UNL A   1      45.737  24.629  26.390  1.00  0.00    -0.203 F 
ATOM     67  C   UNL A   1      45.379  22.759  25.052  1.00  0.00     0.198 A 
ATOM     68  C   UNL A   1      43.800  21.095  25.657  1.00  0.00     0.198 A 
ATOM     69  F   UNL A   1      42.430  21.336  27.482  1.00  0.00    -0.203 F 
ATOM     70  F   UNL A   1      46.284  23.242  24.189  1.00  0.00    -0.200 F 
ATOM     71  C   UNL A   1      44.753  21.560  24.781  1.00  0.00     0.200 A 
ATOM     72  F   UNL A   1      43.173  19.935  25.412  1.00  0.00    -0.200 F 
ATOM     73  F   UNL A   1      45.051  20.865  23.675  1.00  0.00    -0.200 F 
ENDBRANCH  49  63
BRANCH  50  74
ATOM     74  C   UNL A   1      41.342  30.100  33.114  1.00  0.00     0.064 A 
ATOM     75  C   UNL A   1      41.186  31.500  33.151  1.00  0.00     0.173 A 
ATOM     76  C   UNL A   1      40.184  29.318  33.163  1.00  0.00     0.173 A 
ATOM     77  F   UNL A   1      42.267  32.295  33.105  1.00  0.00    -0.203 F 
ATOM     78  C   UNL A   1      39.926  32.090  33.100  1.00  0.00     0.198 A 
ATOM     79  C   UNL A   1      38.921  29.914  33.129  1.00  0.00     0.198 A 
ATOM     80  F   UNL A   1      40.265  27.981  33.107  1.00  0.00    -0.203 F 
ATOM     81  F   UNL A   1      39.816  33.423  33.002  1.00  0.00    -0.200 F 
ATOM     82  C   UNL A   1      38.794  31.295  33.058  1.00  0.00     0.200 A 
ATOM     83  F   UNL A   1      37.824  29.147  33.049  1.00  0.00    -0.200 F 
ATOM     84  F   UNL A   1      37.587  31.854  32.893  1.00  0.00    -0.200 F 
ENDBRANCH  50  74
BRANCH  62  85
ATOM     85  C   UNL A   1      45.295  24.054  33.653  1.00  0.00     0.064 A 
ATOM     86  C   UNL A   1      44.509  22.902  33.834  1.00  0.00     0.173 A 
ATOM     87  C   UNL A   1      46.611  23.966  34.178  1.00  0.00     0.173 A 
ATOM     88  F   UNL A   1      43.296  22.786  33.279  1.00  0.00    -0.203 F 
ATOM     89  C   UNL A   1      44.974  21.787  34.540  1.00  0.00     0.198 A 
ATOM     90  C   UNL A   1      47.092  22.828  34.825  1.00  0.00     0.198 A 
ATOM     91  F   UNL A   1      47.486  24.974  34.050  1.00  0.00    -0.203 F 
ATOM     92  F   UNL A   1      44.164  20.733  34.721  1.00  0.00    -0.200 F 
ATOM     93  C   UNL A   1      46.267  21.744  35.024  1.00  0.00     0.200 A 
ATOM     94  F   UNL A   1      48.368  22.784  35.233  1.00  0.00    -0.200 F 
ATOM     95  F   UNL A   1      46.722  20.653  35.654  1.00  0.00    -0.200 F 
ENDBRANCH  62  85
ENDBRANCH  36  37
ENDBRANCH  28  31
ENDBRANCH  26  27
ENDBRANCH  25  26
ENDBRANCH  24  25
ENDBRANCH   3  24
TORSDOF 16
ENDMDL
MODEL 3
REMARK VINA RESULT:     -12.3      4.094     10.372
REMARK SMILES Cc1ccc(OCCC(=O)N2C[C@H](O)C[C@@H]2C(=O)NCCCNC(=O)c2ccc(-c3c4nc(c(-c5c(F)c(F)c(F)c(F)c5F)c5ccc([nH]5)c(-c5c(F)c(F)c(F)c(F)c5F)c5nc(c(-c6c(F)c(F)c(F)c(F)c6F)c6ccc3[nH]6)C=C5)C=C4)cc2)cc1
REMARK SMILES IDX 17 1 18 2 19 3 16 5 11 6 12 7 13 8 15 9 9 10 10 11 8 12 7 13
REMARK SMILES IDX 6 14 5 15 1 16 2 17 3 18 90 19 4 20 89 21 14 22 20 24 21 25
REMARK SMILES IDX 22 26 23 27 24 28 25 30 26 31 27 32 88 33 28 34 87 35 29 36
REMARK SMILES IDX 30 37 31 38 81 39 32 40 86 41 80 42 82 43 33 44 85 45 79 46
REMARK SMILES IDX 78 47 34 49 66 50 46 51 65 52 47 53 50 54 64 55 83 56 48 57
REMARK SMILES IDX 49 58 63 60 84 61 51 62 35 63 36 64 44 65 37 66 38 67 42 68
REMARK SMILES IDX 45 69 39 70 40 71 43 72 41 73 67 74 68 75 76 76 69 77 70 78
REMARK SMILES IDX 74 79 77 80 71 81 72 82 75 83 73 84 52 85 53 86 61 87 54 88
REMARK SMILES IDX 55 89 59 90 62 91 56 92 57 93 60 94 58 95
REMARK H PARENT 19 4 14 23 23 29 82 48 50 59
REMARK Flexibility Score: inf
ROOT
ATOM      1  C   UNL A   1      32.576  28.919  24.006  1.00  0.00     0.242 C 
ATOM      2  O   UNL A   1      33.023  28.562  22.908  1.00  0.00    -0.273 OA
ATOM      3  N   UNL A   1      33.493  29.436  24.870  1.00  0.00    -0.354 N 
ATOM      4  H   UNL A   1      34.428  29.224  24.646  1.00  0.00     0.163 HD
ENDROOT
BRANCH   1   5
ATOM      5  C   UNL A   1      31.079  28.666  24.345  1.00  0.00     0.177 C 
ATOM      6  N   UNL A   1      30.346  27.625  23.622  1.00  0.00    -0.328 N 
ATOM      7  C   UNL A   1      29.509  28.218  22.582  1.00  0.00     0.152 C 
ATOM      8  C   UNL A   1      29.786  29.718  22.601  1.00  0.00     0.136 C 
ATOM      9  C   UNL A   1      30.298  29.958  24.017  1.00  0.00     0.069 C 
BRANCH   6  10
ATOM     10  C   UNL A   1      30.146  26.357  24.147  1.00  0.00     0.226 C 
ATOM     11  O   UNL A   1      29.705  26.186  25.285  1.00  0.00    -0.275 OA
BRANCH  10  12
ATOM     12  C   UNL A   1      30.660  25.169  23.335  1.00  0.00     0.141 C 
BRANCH  12  13
ATOM     13  C   UNL A   1      32.136  24.804  23.434  1.00  0.00     0.239 C 
BRANCH  13  14
ATOM     14  O   UNL A   1      32.543  24.428  24.758  1.00  0.00    -0.493 OA
BRANCH  14  15
ATOM     15  C   UNL A   1      33.786  23.874  24.884  1.00  0.00     0.119 A 
ATOM     16  C   UNL A   1      37.899  23.034  25.770  1.00  0.00     0.044 C 
ATOM     17  C   UNL A   1      36.446  23.217  25.453  1.00  0.00    -0.051 A 
ATOM     18  C   UNL A   1      35.478  23.158  26.463  1.00  0.00     0.007 A 
ATOM     19  C   UNL A   1      36.045  23.472  24.139  1.00  0.00     0.007 A 
ATOM     20  C   UNL A   1      34.147  23.473  26.175  1.00  0.00     0.046 A 
ATOM     21  C   UNL A   1      34.719  23.787  23.856  1.00  0.00     0.046 A 
ENDBRANCH  14  15
ENDBRANCH  13  14
ENDBRANCH  12  13
ENDBRANCH  10  12
ENDBRANCH   6  10
BRANCH   8  22
ATOM     22  O   UNL A   1      30.731  30.086  21.601  1.00  0.00    -0.391 OA
ATOM     23  H   UNL A   1      30.799  31.052  21.562  1.00  0.00     0.211 HD
ENDBRANCH   8  22
ENDBRANCH   1   5
BRANCH   3  24
ATOM     24  C   UNL A   1      33.329  30.248  26.066  1.00  0.00     0.117 C 
BRANCH  24  25
ATOM     25  C   UNL A   1      34.424  30.014  27.094  1.00  0.00     0.042 C 
BRANCH  25  26
ATOM     26  C   UNL A   1      34.284  30.769  28.398  1.00  0.00     0.118 C 
BRANCH  26  27
ATOM     27  N   UNL A   1      35.369  31.712  28.667  1.00  0.00    -0.352 N 
ATOM     28  C   UNL A   1      36.711  31.431  28.922  1.00  0.00     0.251 C 
ATOM     29  H   UNL A   1      35.121  32.665  28.667  1.00  0.00     0.163 HD
ATOM     30  O   UNL A   1      37.518  32.307  29.125  1.00  0.00    -0.269 OA
BRANCH  28  31
ATOM     31  C   UNL A   1      37.135  30.015  28.787  1.00  0.00     0.039 A 
ATOM     32  C   UNL A   1      37.346  29.334  29.989  1.00  0.00     0.014 A 
ATOM     33  C   UNL A   1      37.759  29.620  27.609  1.00  0.00     0.014 A 
ATOM     34  C   UNL A   1      38.436  28.483  30.083  1.00  0.00     0.010 A 
ATOM     35  C   UNL A   1      38.908  28.864  27.732  1.00  0.00     0.010 A 
ATOM     36  C   UNL A   1      39.297  28.389  28.994  1.00  0.00    -0.014 A 
BRANCH  36  37
ATOM     37  C   UNL A   1      40.685  27.959  29.122  1.00  0.00     0.031 A 
ATOM     38  C   UNL A   1      41.059  26.594  28.705  1.00  0.00     0.074 A 
ATOM     39  C   UNL A   1      41.636  28.836  29.530  1.00  0.00     0.049 A 
ATOM     40  N   UNL A   1      42.197  26.049  28.969  1.00  0.00    -0.248 NA
ATOM     41  C   UNL A   1      40.138  25.685  28.025  1.00  0.00     0.031 C 
ATOM     42  C   UNL A   1      43.087  28.701  29.393  1.00  0.00     0.029 A 
ATOM     43  N   UNL A   1      41.477  29.957  30.368  1.00  0.00    -0.354 N 
ATOM     44  C   UNL A   1      42.273  24.879  28.257  1.00  0.00     0.074 A 
ATOM     45  C   UNL A   1      40.932  24.634  27.801  1.00  0.00     0.031 C 
ATOM     46  C   UNL A   1      43.688  29.460  30.321  1.00  0.00     0.029 A 
ATOM     47  C   UNL A   1      42.642  29.988  31.175  1.00  0.00     0.049 A 
ATOM     48  H   UNL A   1      40.719  30.586  30.388  1.00  0.00     0.167 HD
ATOM     49  C   UNL A   1      43.503  24.346  28.032  1.00  0.00     0.037 A 
ATOM     50  C   UNL A   1      42.591  29.823  32.528  1.00  0.00     0.037 A 
ATOM     51  C   UNL A   1      44.479  24.904  28.971  1.00  0.00     0.049 A 
ATOM     52  C   UNL A   1      43.409  28.660  33.040  1.00  0.00     0.074 A 
ATOM     53  C   UNL A   1      45.534  25.792  28.858  1.00  0.00     0.029 A 
ATOM     54  N   UNL A   1      44.246  24.742  30.336  1.00  0.00    -0.354 N 
ATOM     55  N   UNL A   1      43.824  27.677  32.291  1.00  0.00    -0.248 NA
ATOM     56  C   UNL A   1      43.796  28.497  34.439  1.00  0.00     0.031 C 
ATOM     57  C   UNL A   1      45.875  26.231  30.169  1.00  0.00     0.029 A 
ATOM     58  C   UNL A   1      45.058  25.575  31.076  1.00  0.00     0.049 A 
ATOM     59  H   UNL A   1      43.590  24.117  30.720  1.00  0.00     0.167 HD
ATOM     60  C   UNL A   1      44.486  26.756  33.063  1.00  0.00     0.074 A 
ATOM     61  C   UNL A   1      44.463  27.330  34.396  1.00  0.00     0.031 C 
ATOM     62  C   UNL A   1      44.972  25.593  32.533  1.00  0.00     0.037 A 
BRANCH  49  63
ATOM     63  C   UNL A   1      43.870  23.468  26.851  1.00  0.00     0.064 A 
ATOM     64  C   UNL A   1      43.385  22.143  26.777  1.00  0.00     0.173 A 
ATOM     65  C   UNL A   1      44.800  23.803  25.840  1.00  0.00     0.173 A 
ATOM     66  F   UNL A   1      42.507  21.674  27.672  1.00  0.00    -0.203 F 
ATOM     67  C   UNL A   1      43.810  21.238  25.794  1.00  0.00     0.198 A 
ATOM     68  C   UNL A   1      45.185  22.915  24.832  1.00  0.00     0.198 A 
ATOM     69  F   UNL A   1      45.432  24.979  25.804  1.00  0.00    -0.203 F 
ATOM     70  F   UNL A   1      43.360  19.975  25.813  1.00  0.00    -0.200 F 
ATOM     71  C   UNL A   1      44.703  21.627  24.817  1.00  0.00     0.200 A 
ATOM     72  F   UNL A   1      46.058  23.316  23.897  1.00  0.00    -0.200 F 
ATOM     73  F   UNL A   1      45.112  20.763  23.879  1.00  0.00    -0.200 F 
ENDBRANCH  49  63
BRANCH  50  74
ATOM     74  C   UNL A   1      41.327  30.322  33.127  1.00  0.00     0.064 A 
ATOM     75  C   UNL A   1      41.123  31.716  33.177  1.00  0.00     0.173 A 
ATOM     76  C   UNL A   1      40.203  29.499  33.255  1.00  0.00     0.173 A 
ATOM     77  F   UNL A   1      42.170  32.549  33.056  1.00  0.00    -0.203 F 
ATOM     78  C   UNL A   1      39.843  32.260  33.215  1.00  0.00     0.198 A 
ATOM     79  C   UNL A   1      38.920  30.050  33.311  1.00  0.00     0.198 A 
ATOM     80  F   UNL A   1      40.329  28.166  33.192  1.00  0.00    -0.203 F 
ATOM     81  F   UNL A   1      39.678  33.588  33.127  1.00  0.00    -0.200 F 
ATOM     82  C   UNL A   1      38.740  31.425  33.251  1.00  0.00     0.200 A 
ATOM     83  F   UNL A   1      37.849  29.244  33.307  1.00  0.00    -0.200 F 
ATOM     84  F   UNL A   1      37.505  31.940  33.172  1.00  0.00    -0.200 F 
ENDBRANCH  50  74
BRANCH  62  85
ATOM     85  C   UNL A   1      45.473  24.385  33.306  1.00  0.00     0.064 A 
ATOM     86  C   UNL A   1      46.737  24.295  33.915  1.00  0.00     0.173 A 
ATOM     87  C   UNL A   1      44.598  23.303  33.584  1.00  0.00     0.173 A 
ATOM     88  F   UNL A   1      47.619  25.300  33.853  1.00  0.00    -0.203 F 
ATOM     89  C   UNL A   1      47.118  23.186  34.680  1.00  0.00     0.198 A 
ATOM     90  C   UNL A   1      44.959  22.230  34.399  1.00  0.00     0.198 A 
ATOM     91  F   UNL A   1      43.348  23.267  33.099  1.00  0.00    -0.203 F 
ATOM     92  F   UNL A   1      48.352  23.135  35.201  1.00  0.00    -0.200 F 
ATOM     93  C   UNL A   1      46.227  22.162  34.932  1.00  0.00     0.200 A 
ATOM     94  F   UNL A   1      44.060  21.276  34.681  1.00  0.00    -0.200 F 
ATOM     95  F   UNL A   1      46.581  21.128  35.708  1.00  0.00    -0.200 F 
ENDBRANCH  62  85
ENDBRANCH  36  37
ENDBRANCH  28  31
ENDBRANCH  26  27
ENDBRANCH  25  26
ENDBRANCH  24  25
ENDBRANCH   3  24
TORSDOF 16
ENDMDL
