MODEL 1
REMARK VINA RESULT:     -11.4      0.000      0.000
REMARK SMILES CCC[NH+]1CCC([NH2+]CC(C)(C)C(=O)NCCCNC(=O)c2ccc(-c3c4nc(c(-c5c(F)c(F)c(F)c(F)c5F)c5ccc([nH]5)c(-c5c(F)c(F)c(F)c(F)c5F)c5nc(c(-c6c(F)c(F)c(F)c(F)c6F)c6ccc3[nH]6)C=C5)C=C4)cc2)CC1
REMARK SMILES IDX 13 1 14 2 15 3 10 5 11 6 12 7 9 8 8 9 7 12 4 13 5 14 86 15
REMARK SMILES IDX 6 17 85 18 3 19 2 20 1 21 16 22 17 23 18 24 19 25 20 26
REMARK SMILES IDX 21 28 22 29 23 30 84 31 24 32 83 33 25 34 26 35 27 36 77 37
REMARK SMILES IDX 28 38 82 39 76 40 78 41 29 42 81 43 75 44 74 45 30 47 62 48
REMARK SMILES IDX 42 49 61 50 43 51 46 52 60 53 79 54 44 55 45 56 59 58 80 59
REMARK SMILES IDX 47 60 31 61 32 62 40 63 33 64 34 65 38 66 41 67 35 68 36 69
REMARK SMILES IDX 39 70 37 71 63 72 64 73 72 74 65 75 66 76 70 77 73 78 67 79
REMARK SMILES IDX 68 80 71 81 69 82 48 83 49 84 57 85 50 86 51 87 55 88 58 89
REMARK SMILES IDX 52 90 53 91 56 92 54 93
REMARK H PARENT 15 4 8 10 8 11 4 16 19 27 78 46 46 57
REMARK Flexibility Score: inf
ROOT
ATOM      1  C   UNL A   1      31.811  27.994  26.753  1.00  0.00     0.231 C 
ATOM      2  O   UNL A   1      31.113  27.364  27.556  1.00  0.00    -0.274 OA
ATOM      3  N   UNL A   1      31.566  29.322  26.753  1.00  0.00    -0.355 N 
ATOM      4  H   UNL A   1      30.965  29.606  27.479  1.00  0.00     0.163 HD
ENDROOT
BRANCH   1   5
ATOM      5  C   UNL A   1      32.783  27.281  25.794  1.00  0.00     0.092 C 
ATOM      6  C   UNL A   1      33.244  25.847  26.116  1.00  0.00     0.027 C 
ATOM      7  C   UNL A   1      34.031  28.190  25.775  1.00  0.00     0.027 C 
BRANCH   5   8
ATOM      8  C   UNL A   1      32.127  27.261  24.367  1.00  0.00     0.277 C 
BRANCH   8   9
ATOM      9  N   UNL A   1      30.659  27.109  24.254  1.00  0.00    -0.343 N 
ATOM     10  H   UNL A   1      30.469  26.304  23.657  1.00  0.00     0.346 HD
ATOM     11  H   UNL A   1      30.313  27.003  25.208  1.00  0.00     0.346 HD
BRANCH   9  12
ATOM     12  C   UNL A   1      29.946  28.265  23.693  1.00  0.00     0.193 C 
ATOM     13  N   UNL A   1      28.560  29.828  21.637  1.00  0.00    -0.335 N 
ATOM     14  C   UNL A   1      29.972  30.078  21.947  1.00  0.00     0.268 C 
ATOM     15  C   UNL A   1      27.840  29.230  22.760  1.00  0.00     0.268 C 
ATOM     16  H   UNL A   1      28.588  29.141  20.884  1.00  0.00     0.348 HD
ATOM     17  C   UNL A   1      30.701  28.829  22.478  1.00  0.00     0.126 C 
ATOM     18  C   UNL A   1      28.533  27.943  23.190  1.00  0.00     0.126 C 
BRANCH  13  19
ATOM     19  C   UNL A   1      27.837  30.973  21.073  1.00  0.00     0.261 C 
BRANCH  19  20
ATOM     20  C   UNL A   1      28.404  32.391  21.271  1.00  0.00     0.058 C 
ATOM     21  C   UNL A   1      28.401  32.870  22.717  1.00  0.00     0.010 C 
ENDBRANCH  19  20
ENDBRANCH  13  19
ENDBRANCH   9  12
ENDBRANCH   8   9
ENDBRANCH   5   8
ENDBRANCH   1   5
BRANCH   3  22
ATOM     22  C   UNL A   1      31.999  30.415  25.911  1.00  0.00     0.117 C 
BRANCH  22  23
ATOM     23  C   UNL A   1      31.600  31.757  26.507  1.00  0.00     0.042 C 
BRANCH  23  24
ATOM     24  C   UNL A   1      32.717  32.471  27.253  1.00  0.00     0.118 C 
BRANCH  24  25
ATOM     25  N   UNL A   1      32.427  33.874  27.509  1.00  0.00    -0.352 N 
ATOM     26  C   UNL A   1      32.992  34.716  28.438  1.00  0.00     0.251 C 
ATOM     27  H   UNL A   1      31.732  34.275  26.939  1.00  0.00     0.163 HD
ATOM     28  O   UNL A   1      32.524  35.833  28.633  1.00  0.00    -0.269 OA
BRANCH  26  29
ATOM     29  C   UNL A   1      34.149  34.249  29.232  1.00  0.00     0.039 A 
ATOM     30  C   UNL A   1      33.925  33.451  30.355  1.00  0.00     0.014 A 
ATOM     31  C   UNL A   1      35.454  34.561  28.840  1.00  0.00     0.014 A 
ATOM     32  C   UNL A   1      35.011  32.898  31.036  1.00  0.00     0.010 A 
ATOM     33  C   UNL A   1      36.528  33.931  29.457  1.00  0.00     0.010 A 
ATOM     34  C   UNL A   1      36.320  33.096  30.565  1.00  0.00    -0.014 A 
BRANCH  34  35
ATOM     35  C   UNL A   1      37.489  32.457  31.225  1.00  0.00     0.031 A 
ATOM     36  C   UNL A   1      38.223  31.345  30.528  1.00  0.00     0.074 A 
ATOM     37  C   UNL A   1      37.846  32.829  32.470  1.00  0.00     0.049 A 
ATOM     38  N   UNL A   1      39.201  30.593  30.968  1.00  0.00    -0.248 NA
ATOM     39  C   UNL A   1      37.780  31.011  29.164  1.00  0.00     0.031 C 
ATOM     40  C   UNL A   1      37.184  33.860  33.273  1.00  0.00     0.029 A 
ATOM     41  N   UNL A   1      38.851  32.371  33.287  1.00  0.00    -0.354 N 
ATOM     42  C   UNL A   1      39.476  29.696  29.945  1.00  0.00     0.074 A 
ATOM     43  C   UNL A   1      38.525  29.953  28.886  1.00  0.00     0.031 C 
ATOM     44  C   UNL A   1      37.813  33.971  34.454  1.00  0.00     0.029 A 
ATOM     45  C   UNL A   1      38.896  32.996  34.511  1.00  0.00     0.049 A 
ATOM     46  H   UNL A   1      39.481  31.663  33.020  1.00  0.00     0.167 HD
ATOM     47  C   UNL A   1      40.455  28.764  29.878  1.00  0.00     0.037 A 
ATOM     48  C   UNL A   1      39.716  32.795  35.561  1.00  0.00     0.037 A 
ATOM     49  C   UNL A   1      41.422  28.532  30.918  1.00  0.00     0.049 A 
ATOM     50  C   UNL A   1      40.793  31.748  35.460  1.00  0.00     0.074 A 
ATOM     51  C   UNL A   1      42.478  27.637  30.930  1.00  0.00     0.029 A 
ATOM     52  N   UNL A   1      41.456  29.209  32.127  1.00  0.00    -0.354 N 
ATOM     53  N   UNL A   1      41.079  30.946  34.463  1.00  0.00    -0.248 NA
ATOM     54  C   UNL A   1      41.670  31.584  36.629  1.00  0.00     0.031 C 
ATOM     55  C   UNL A   1      43.131  27.749  32.161  1.00  0.00     0.029 A 
ATOM     56  C   UNL A   1      42.510  28.745  32.897  1.00  0.00     0.049 A 
ATOM     57  H   UNL A   1      40.824  29.913  32.399  1.00  0.00     0.167 HD
ATOM     58  C   UNL A   1      42.182  30.210  34.870  1.00  0.00     0.074 A 
ATOM     59  C   UNL A   1      42.527  30.671  36.198  1.00  0.00     0.031 C 
ATOM     60  C   UNL A   1      42.851  29.235  34.207  1.00  0.00     0.037 A 
BRANCH  47  61
ATOM     61  C   UNL A   1      40.546  27.936  28.630  1.00  0.00     0.064 A 
ATOM     62  C   UNL A   1      41.316  28.354  27.534  1.00  0.00     0.173 A 
ATOM     63  C   UNL A   1      39.905  26.692  28.547  1.00  0.00     0.173 A 
ATOM     64  F   UNL A   1      41.938  29.542  27.559  1.00  0.00    -0.203 F 
ATOM     65  C   UNL A   1      41.426  27.564  26.392  1.00  0.00     0.198 A 
ATOM     66  C   UNL A   1      40.040  25.891  27.416  1.00  0.00     0.198 A 
ATOM     67  F   UNL A   1      39.159  26.245  29.569  1.00  0.00    -0.203 F 
ATOM     68  F   UNL A   1      42.135  28.001  25.342  1.00  0.00    -0.200 F 
ATOM     69  C   UNL A   1      40.795  26.330  26.338  1.00  0.00     0.200 A 
ATOM     70  F   UNL A   1      39.441  24.694  27.368  1.00  0.00    -0.200 F 
ATOM     71  F   UNL A   1      40.914  25.564  25.245  1.00  0.00    -0.200 F 
ENDBRANCH  47  61
BRANCH  48  72
ATOM     72  C   UNL A   1      39.568  33.609  36.798  1.00  0.00     0.064 A 
ATOM     73  C   UNL A   1      38.775  33.159  37.865  1.00  0.00     0.173 A 
ATOM     74  C   UNL A   1      40.178  34.865  36.926  1.00  0.00     0.173 A 
ATOM     75  F   UNL A   1      38.153  31.974  37.783  1.00  0.00    -0.203 F 
ATOM     76  C   UNL A   1      38.572  33.949  38.994  1.00  0.00     0.198 A 
ATOM     77  C   UNL A   1      39.999  35.640  38.069  1.00  0.00     0.198 A 
ATOM     78  F   UNL A   1      40.951  35.339  35.938  1.00  0.00    -0.203 F 
ATOM     79  F   UNL A   1      37.759  33.520  39.970  1.00  0.00    -0.200 F 
ATOM     80  C   UNL A   1      39.186  35.187  39.098  1.00  0.00     0.200 A 
ATOM     81  F   UNL A   1      40.607  36.830  38.171  1.00  0.00    -0.200 F 
ATOM     82  F   UNL A   1      38.985  35.949  40.181  1.00  0.00    -0.200 F 
ENDBRANCH  48  72
BRANCH  60  83
ATOM     83  C   UNL A   1      44.051  28.638  34.881  1.00  0.00     0.064 A 
ATOM     84  C   UNL A   1      45.322  29.219  34.770  1.00  0.00     0.173 A 
ATOM     85  C   UNL A   1      43.916  27.495  35.683  1.00  0.00     0.173 A 
ATOM     86  F   UNL A   1      45.504  30.304  34.003  1.00  0.00    -0.203 F 
ATOM     87  C   UNL A   1      46.420  28.661  35.418  1.00  0.00     0.198 A 
ATOM     88  C   UNL A   1      45.010  26.958  36.353  1.00  0.00     0.198 A 
ATOM     89  F   UNL A   1      42.718  26.907  35.827  1.00  0.00    -0.203 F 
ATOM     90  F   UNL A   1      47.636  29.205  35.261  1.00  0.00    -0.200 F 
ATOM     91  C   UNL A   1      46.263  27.536  36.214  1.00  0.00     0.200 A 
ATOM     92  F   UNL A   1      44.853  25.880  37.133  1.00  0.00    -0.200 F 
ATOM     93  F   UNL A   1      47.320  27.006  36.844  1.00  0.00    -0.200 F 
ENDBRANCH  60  83
ENDBRANCH  34  35
ENDBRANCH  26  29
ENDBRANCH  24  25
ENDBRANCH  23  24
ENDBRANCH  22  23
ENDBRANCH   3  22
TORSDOF 15
ENDMDL
MODEL 2
REMARK VINA RESULT:     -11.4      0.423      7.450
REMARK SMILES CCC[NH+]1CCC([NH2+]CC(C)(C)C(=O)NCCCNC(=O)c2ccc(-c3c4nc(c(-c5c(F)c(F)c(F)c(F)c5F)c5ccc([nH]5)c(-c5c(F)c(F)c(F)c(F)c5F)c5nc(c(-c6c(F)c(F)c(F)c(F)c6F)c6ccc3[nH]6)C=C5)C=C4)cc2)CC1
REMARK SMILES IDX 13 1 14 2 15 3 10 5 11 6 12 7 9 8 8 9 7 12 4 13 5 14 86 15
REMARK SMILES IDX 6 17 85 18 3 19 2 20 1 21 16 22 17 23 18 24 19 25 20 26
REMARK SMILES IDX 21 28 22 29 23 30 84 31 24 32 83 33 25 34 26 35 27 36 77 37
REMARK SMILES IDX 28 38 82 39 76 40 78 41 29 42 81 43 75 44 74 45 30 47 62 48
REMARK SMILES IDX 42 49 61 50 43 51 46 52 60 53 79 54 44 55 45 56 59 58 80 59
REMARK SMILES IDX 47 60 31 61 32 62 40 63 33 64 34 65 38 66 41 67 35 68 36 69
REMARK SMILES IDX 39 70 37 71 63 72 64 73 72 74 65 75 66 76 70 77 73 78 67 79
REMARK SMILES IDX 68 80 71 81 69 82 48 83 49 84 57 85 50 86 51 87 55 88 58 89
REMARK SMILES IDX 52 90 53 91 56 92 54 93
REMARK H PARENT 15 4 8 10 8 11 4 16 19 27 78 46 46 57
REMARK Flexibility Score: inf
ROOT
ATOM      1  C   UNL A   1      31.783  28.027  26.755  1.00  0.00     0.231 C 
ATOM      2  O   UNL A   1      31.128  27.382  27.584  1.00  0.00    -0.274 OA
ATOM      3  N   UNL A   1      31.480  29.343  26.736  1.00  0.00    -0.355 N 
ATOM      4  H   UNL A   1      30.880  29.614  27.469  1.00  0.00     0.163 HD
ENDROOT
BRANCH   1   5
ATOM      5  C   UNL A   1      32.767  27.339  25.791  1.00  0.00     0.092 C 
ATOM      6  C   UNL A   1      33.287  25.928  26.123  1.00  0.00     0.027 C 
ATOM      7  C   UNL A   1      33.979  28.294  25.743  1.00  0.00     0.027 C 
BRANCH   5   8
ATOM      8  C   UNL A   1      32.092  27.277  24.374  1.00  0.00     0.277 C 
BRANCH   8   9
ATOM      9  N   UNL A   1      30.620  27.149  24.286  1.00  0.00    -0.343 N 
ATOM     10  H   UNL A   1      30.408  26.333  23.711  1.00  0.00     0.346 HD
ATOM     11  H   UNL A   1      30.286  27.072  25.247  1.00  0.00     0.346 HD
BRANCH   9  12
ATOM     12  C   UNL A   1      29.921  28.304  23.707  1.00  0.00     0.193 C 
ATOM     13  N   UNL A   1      28.530  29.840  21.633  1.00  0.00    -0.335 N 
ATOM     14  C   UNL A   1      29.952  30.070  21.914  1.00  0.00     0.268 C 
ATOM     15  C   UNL A   1      27.818  29.285  22.783  1.00  0.00     0.268 C 
ATOM     16  H   UNL A   1      28.533  29.134  20.898  1.00  0.00     0.348 HD
ATOM     17  C   UNL A   1      30.665  28.822  22.466  1.00  0.00     0.126 C 
ATOM     18  C   UNL A   1      28.494  27.996  23.234  1.00  0.00     0.126 C 
BRANCH  13  19
ATOM     19  C   UNL A   1      27.820  30.985  21.052  1.00  0.00     0.261 C 
BRANCH  19  20
ATOM     20  C   UNL A   1      28.414  32.396  21.209  1.00  0.00     0.058 C 
ATOM     21  C   UNL A   1      28.401  32.925  22.637  1.00  0.00     0.010 C 
ENDBRANCH  19  20
ENDBRANCH  13  19
ENDBRANCH   9  12
ENDBRANCH   8   9
ENDBRANCH   5   8
ENDBRANCH   1   5
BRANCH   3  22
ATOM     22  C   UNL A   1      31.848  30.438  25.866  1.00  0.00     0.117 C 
BRANCH  22  23
ATOM     23  C   UNL A   1      31.542  31.779  26.515  1.00  0.00     0.042 C 
BRANCH  23  24
ATOM     24  C   UNL A   1      32.742  32.451  27.166  1.00  0.00     0.118 C 
BRANCH  24  25
ATOM     25  N   UNL A   1      32.499  33.844  27.512  1.00  0.00    -0.352 N 
ATOM     26  C   UNL A   1      33.104  34.610  28.481  1.00  0.00     0.251 C 
ATOM     27  H   UNL A   1      31.808  34.299  26.980  1.00  0.00     0.163 HD
ATOM     28  O   UNL A   1      32.674  35.726  28.751  1.00  0.00    -0.269 OA
BRANCH  26  29
ATOM     29  C   UNL A   1      34.259  34.061  29.223  1.00  0.00     0.039 A 
ATOM     30  C   UNL A   1      34.029  33.293  30.366  1.00  0.00     0.014 A 
ATOM     31  C   UNL A   1      35.563  34.268  28.765  1.00  0.00     0.014 A 
ATOM     32  C   UNL A   1      35.101  32.664  31.001  1.00  0.00     0.010 A 
ATOM     33  C   UNL A   1      36.614  33.562  29.338  1.00  0.00     0.010 A 
ATOM     34  C   UNL A   1      36.397  32.755  30.465  1.00  0.00    -0.014 A 
BRANCH  34  35
ATOM     35  C   UNL A   1      37.544  32.033  31.076  1.00  0.00     0.031 A 
ATOM     36  C   UNL A   1      38.025  32.421  32.447  1.00  0.00     0.074 A 
ATOM     37  C   UNL A   1      38.190  31.080  30.375  1.00  0.00     0.049 A 
ATOM     38  N   UNL A   1      39.064  31.986  33.116  1.00  0.00    -0.248 NA
ATOM     39  C   UNL A   1      37.254  33.459  33.151  1.00  0.00     0.031 C 
ATOM     40  C   UNL A   1      37.852  30.647  29.018  1.00  0.00     0.029 A 
ATOM     41  N   UNL A   1      39.278  30.309  30.706  1.00  0.00    -0.354 N 
ATOM     42  C   UNL A   1      39.075  32.705  34.303  1.00  0.00     0.074 A 
ATOM     43  C   UNL A   1      37.980  33.647  34.242  1.00  0.00     0.031 C 
ATOM     44  C   UNL A   1      38.699  29.675  28.642  1.00  0.00     0.029 A 
ATOM     45  C   UNL A   1      39.663  29.442  29.712  1.00  0.00     0.049 A 
ATOM     46  H   UNL A   1      39.737  30.371  31.574  1.00  0.00     0.167 HD
ATOM     47  C   UNL A   1      39.904  32.569  35.365  1.00  0.00     0.037 A 
ATOM     48  C   UNL A   1      40.685  28.565  29.669  1.00  0.00     0.037 A 
ATOM     49  C   UNL A   1      40.972  31.608  35.440  1.00  0.00     0.049 A 
ATOM     50  C   UNL A   1      41.593  28.439  30.863  1.00  0.00     0.074 A 
ATOM     51  C   UNL A   1      41.843  31.366  36.488  1.00  0.00     0.029 A 
ATOM     52  N   UNL A   1      41.308  30.724  34.426  1.00  0.00    -0.354 N 
ATOM     53  N   UNL A   1      41.557  29.084  32.004  1.00  0.00    -0.248 NA
ATOM     54  C   UNL A   1      42.680  27.454  30.769  1.00  0.00     0.031 C 
ATOM     55  C   UNL A   1      42.728  30.357  36.095  1.00  0.00     0.029 A 
ATOM     56  C   UNL A   1      42.379  29.940  34.821  1.00  0.00     0.049 A 
ATOM     57  H   UNL A   1      40.853  30.664  33.555  1.00  0.00     0.167 HD
ATOM     58  C   UNL A   1      42.589  28.563  32.770  1.00  0.00     0.074 A 
ATOM     59  C   UNL A   1      43.225  27.535  31.973  1.00  0.00     0.031 C 
ATOM     60  C   UNL A   1      42.981  28.906  34.022  1.00  0.00     0.037 A 
BRANCH  47  61
ATOM     61  C   UNL A   1      39.675  33.466  36.546  1.00  0.00     0.064 A 
ATOM     62  C   UNL A   1      40.288  34.725  36.635  1.00  0.00     0.173 A 
ATOM     63  C   UNL A   1      38.795  33.090  37.571  1.00  0.00     0.173 A 
ATOM     64  F   UNL A   1      41.150  35.125  35.687  1.00  0.00    -0.203 F 
ATOM     65  C   UNL A   1      40.043  35.567  37.716  1.00  0.00     0.198 A 
ATOM     66  C   UNL A   1      38.529  33.947  38.636  1.00  0.00     0.198 A 
ATOM     67  F   UNL A   1      38.180  31.898  37.532  1.00  0.00    -0.203 F 
ATOM     68  F   UNL A   1      40.672  36.748  37.800  1.00  0.00    -0.200 F 
ATOM     69  C   UNL A   1      39.157  35.181  38.711  1.00  0.00     0.200 A 
ATOM     70  F   UNL A   1      37.663  33.579  39.590  1.00  0.00    -0.200 F 
ATOM     71  F   UNL A   1      38.911  35.999  39.744  1.00  0.00    -0.200 F 
ENDBRANCH  47  61
BRANCH  48  72
ATOM     72  C   UNL A   1      40.903  27.721  28.463  1.00  0.00     0.064 A 
ATOM     73  C   UNL A   1      41.755  28.146  27.432  1.00  0.00     0.173 A 
ATOM     74  C   UNL A   1      40.239  26.497  28.296  1.00  0.00     0.173 A 
ATOM     75  F   UNL A   1      42.396  29.319  27.535  1.00  0.00    -0.203 F 
ATOM     76  C   UNL A   1      41.905  27.396  26.267  1.00  0.00     0.198 A 
ATOM     77  C   UNL A   1      40.415  25.734  27.143  1.00  0.00     0.198 A 
ATOM     78  F   UNL A   1      39.418  26.043  29.253  1.00  0.00    -0.203 F 
ATOM     79  F   UNL A   1      42.676  27.857  25.272  1.00  0.00    -0.200 F 
ATOM     80  C   UNL A   1      41.238  26.190  26.124  1.00  0.00     0.200 A 
ATOM     81  F   UNL A   1      39.779  24.561  27.016  1.00  0.00    -0.200 F 
ATOM     82  F   UNL A   1      41.378  25.472  25.002  1.00  0.00    -0.200 F 
ENDBRANCH  48  72
BRANCH  60  83
ATOM     83  C   UNL A   1      44.114  28.131  34.627  1.00  0.00     0.064 A 
ATOM     84  C   UNL A   1      45.443  28.566  34.522  1.00  0.00     0.173 A 
ATOM     85  C   UNL A   1      43.861  26.959  35.356  1.00  0.00     0.173 A 
ATOM     86  F   UNL A   1      45.737  29.672  33.822  1.00  0.00    -0.203 F 
ATOM     87  C   UNL A   1      46.479  27.843  35.105  1.00  0.00     0.198 A 
ATOM     88  C   UNL A   1      44.895  26.256  35.964  1.00  0.00     0.198 A 
ATOM     89  F   UNL A   1      42.604  26.505  35.492  1.00  0.00    -0.203 F 
ATOM     90  F   UNL A   1      47.747  28.251  34.953  1.00  0.00    -0.200 F 
ATOM     91  C   UNL A   1      46.204  26.693  35.831  1.00  0.00     0.200 A 
ATOM     92  F   UNL A   1      44.626  25.153  36.676  1.00  0.00    -0.200 F 
ATOM     93  F   UNL A   1      47.203  26.003  36.399  1.00  0.00    -0.200 F 
ENDBRANCH  60  83
ENDBRANCH  34  35
ENDBRANCH  26  29
ENDBRANCH  24  25
ENDBRANCH  23  24
ENDBRANCH  22  23
ENDBRANCH   3  22
TORSDOF 15
ENDMDL
MODEL 3
REMARK VINA RESULT:     -11.2      5.690      9.666
REMARK SMILES CCC[NH+]1CCC([NH2+]CC(C)(C)C(=O)NCCCNC(=O)c2ccc(-c3c4nc(c(-c5c(F)c(F)c(F)c(F)c5F)c5ccc([nH]5)c(-c5c(F)c(F)c(F)c(F)c5F)c5nc(c(-c6c(F)c(F)c(F)c(F)c6F)c6ccc3[nH]6)C=C5)C=C4)cc2)CC1
REMARK SMILES IDX 13 1 14 2 15 3 10 5 11 6 12 7 9 8 8 9 7 12 4 13 5 14 86 15
REMARK SMILES IDX 6 17 85 18 3 19 2 20 1 21 16 22 17 23 18 24 19 25 20 26
REMARK SMILES IDX 21 28 22 29 23 30 84 31 24 32 83 33 25 34 26 35 27 36 77 37
REMARK SMILES IDX 28 38 82 39 76 40 78 41 29 42 81 43 75 44 74 45 30 47 62 48
REMARK SMILES IDX 42 49 61 50 43 51 46 52 60 53 79 54 44 55 45 56 59 58 80 59
REMARK SMILES IDX 47 60 31 61 32 62 40 63 33 64 34 65 38 66 41 67 35 68 36 69
REMARK SMILES IDX 39 70 37 71 63 72 64 73 72 74 65 75 66 76 70 77 73 78 67 79
REMARK SMILES IDX 68 80 71 81 69 82 48 83 49 84 57 85 50 86 51 87 55 88 58 89
REMARK SMILES IDX 52 90 53 91 56 92 54 93
REMARK H PARENT 15 4 8 10 8 11 4 16 19 27 78 46 46 57
REMARK Flexibility Score: inf
ROOT
ATOM      1  C   UNL A   1      35.727  22.581  23.643  1.00  0.00     0.231 C 
ATOM      2  O   UNL A   1      36.155  23.326  22.752  1.00  0.00    -0.274 OA
ATOM      3  N   UNL A   1      36.680  21.803  24.197  1.00  0.00    -0.355 N 
ATOM      4  H   UNL A   1      37.591  22.036  23.903  1.00  0.00     0.163 HD
ENDROOT
BRANCH   1   5
ATOM      5  C   UNL A   1      34.227  22.510  23.985  1.00  0.00     0.092 C 
ATOM      6  C   UNL A   1      33.592  21.146  24.316  1.00  0.00     0.027 C 
ATOM      7  C   UNL A   1      33.525  23.070  22.729  1.00  0.00     0.027 C 
BRANCH   5   8
ATOM      8  C   UNL A   1      33.963  23.466  25.203  1.00  0.00     0.277 C 
BRANCH   8   9
ATOM      9  N   UNL A   1      34.651  24.776  25.249  1.00  0.00    -0.343 N 
ATOM     10  H   UNL A   1      35.227  24.801  26.091  1.00  0.00     0.346 HD
ATOM     11  H   UNL A   1      35.187  24.843  24.383  1.00  0.00     0.346 HD
BRANCH   9  12
ATOM     12  C   UNL A   1      33.769  25.951  25.270  1.00  0.00     0.193 C 
ATOM     13  N   UNL A   1      31.658  27.744  24.309  1.00  0.00    -0.335 N 
ATOM     14  C   UNL A   1      33.073  28.052  24.071  1.00  0.00     0.268 C 
ATOM     15  C   UNL A   1      31.464  26.888  25.478  1.00  0.00     0.268 C 
ATOM     16  H   UNL A   1      31.377  27.214  23.484  1.00  0.00     0.348 HD
ATOM     17  C   UNL A   1      33.958  26.794  23.998  1.00  0.00     0.126 C 
ATOM     18  C   UNL A   1      32.275  25.608  25.321  1.00  0.00     0.126 C 
BRANCH  13  19
ATOM     19  C   UNL A   1      30.766  28.908  24.329  1.00  0.00     0.261 C 
BRANCH  19  20
ATOM     20  C   UNL A   1      29.629  29.002  23.296  1.00  0.00     0.058 C 
ATOM     21  C   UNL A   1      30.017  29.703  22.001  1.00  0.00     0.010 C 
ENDBRANCH  19  20
ENDBRANCH  13  19
ENDBRANCH   9  12
ENDBRANCH   8   9
ENDBRANCH   5   8
ENDBRANCH   1   5
BRANCH   3  22
ATOM     22  C   UNL A   1      36.648  20.701  25.132  1.00  0.00     0.117 C 
BRANCH  22  23
ATOM     23  C   UNL A   1      37.873  19.812  24.975  1.00  0.00     0.042 C 
BRANCH  23  24
ATOM     24  C   UNL A   1      39.089  20.272  25.765  1.00  0.00     0.118 C 
BRANCH  24  25
ATOM     25  N   UNL A   1      40.103  19.238  25.906  1.00  0.00    -0.352 N 
ATOM     26  C   UNL A   1      41.454  19.378  26.127  1.00  0.00     0.251 C 
ATOM     27  H   UNL A   1      39.778  18.312  25.835  1.00  0.00     0.163 HD
ATOM     28  O   UNL A   1      42.199  18.406  26.065  1.00  0.00    -0.269 OA
BRANCH  26  29
ATOM     29  C   UNL A   1      42.008  20.721  26.402  1.00  0.00     0.039 A 
ATOM     30  C   UNL A   1      42.276  21.577  25.333  1.00  0.00     0.014 A 
ATOM     31  C   UNL A   1      42.220  21.148  27.716  1.00  0.00     0.014 A 
ATOM     32  C   UNL A   1      42.677  22.891  25.585  1.00  0.00     0.010 A 
ATOM     33  C   UNL A   1      42.522  22.481  27.966  1.00  0.00     0.010 A 
ATOM     34  C   UNL A   1      42.759  23.367  26.904  1.00  0.00    -0.014 A 
BRANCH  34  35
ATOM     35  C   UNL A   1      43.108  24.781  27.200  1.00  0.00     0.031 A 
ATOM     36  C   UNL A   1      44.509  25.270  26.958  1.00  0.00     0.074 A 
ATOM     37  C   UNL A   1      42.189  25.603  27.745  1.00  0.00     0.049 A 
ATOM     38  N   UNL A   1      45.043  26.433  27.239  1.00  0.00    -0.248 NA
ATOM     39  C   UNL A   1      45.448  24.316  26.345  1.00  0.00     0.031 C 
ATOM     40  C   UNL A   1      40.810  25.235  28.074  1.00  0.00     0.029 A 
ATOM     41  N   UNL A   1      42.281  26.918  28.131  1.00  0.00    -0.354 N 
ATOM     42  C   UNL A   1      46.373  26.340  26.851  1.00  0.00     0.074 A 
ATOM     43  C   UNL A   1      46.585  24.993  26.373  1.00  0.00     0.031 C 
ATOM     44  C   UNL A   1      40.180  26.304  28.590  1.00  0.00     0.029 A 
ATOM     45  C   UNL A   1      41.117  27.419  28.666  1.00  0.00     0.049 A 
ATOM     46  H   UNL A   1      43.102  27.451  28.033  1.00  0.00     0.167 HD
ATOM     47  C   UNL A   1      47.325  27.303  26.862  1.00  0.00     0.037 A 
ATOM     48  C   UNL A   1      40.845  28.639  29.167  1.00  0.00     0.037 A 
ATOM     49  C   UNL A   1      47.105  28.653  27.306  1.00  0.00     0.049 A 
ATOM     50  C   UNL A   1      41.925  29.689  29.170  1.00  0.00     0.074 A 
ATOM     51  C   UNL A   1      47.995  29.713  27.319  1.00  0.00     0.029 A 
ATOM     52  N   UNL A   1      45.904  29.131  27.808  1.00  0.00    -0.354 N 
ATOM     53  N   UNL A   1      43.163  29.605  28.746  1.00  0.00    -0.248 NA
ATOM     54  C   UNL A   1      41.568  31.008  29.712  1.00  0.00     0.031 C 
ATOM     55  C   UNL A   1      47.341  30.825  27.860  1.00  0.00     0.029 A 
ATOM     56  C   UNL A   1      46.032  30.469  28.141  1.00  0.00     0.049 A 
ATOM     57  H   UNL A   1      45.083  28.598  27.912  1.00  0.00     0.167 HD
ATOM     58  C   UNL A   1      43.718  30.862  28.939  1.00  0.00     0.074 A 
ATOM     59  C   UNL A   1      42.679  31.697  29.503  1.00  0.00     0.031 C 
ATOM     60  C   UNL A   1      44.978  31.288  28.678  1.00  0.00     0.037 A 
BRANCH  47  61
ATOM     61  C   UNL A   1      48.690  26.938  26.355  1.00  0.00     0.064 A 
ATOM     62  C   UNL A   1      49.662  26.396  27.208  1.00  0.00     0.173 A 
ATOM     63  C   UNL A   1      49.011  27.080  24.998  1.00  0.00     0.173 A 
ATOM     64  F   UNL A   1      49.409  26.254  28.518  1.00  0.00    -0.203 F 
ATOM     65  C   UNL A   1      50.915  26.026  26.725  1.00  0.00     0.198 A 
ATOM     66  C   UNL A   1      50.254  26.681  24.511  1.00  0.00     0.198 A 
ATOM     67  F   UNL A   1      48.115  27.589  24.139  1.00  0.00    -0.203 F 
ATOM     68  F   UNL A   1      51.842  25.547  27.566  1.00  0.00    -0.200 F 
ATOM     69  C   UNL A   1      51.206  26.161  25.375  1.00  0.00     0.200 A 
ATOM     70  F   UNL A   1      50.530  26.800  23.206  1.00  0.00    -0.200 F 
ATOM     71  F   UNL A   1      52.406  25.791  24.908  1.00  0.00    -0.200 F 
ENDBRANCH  47  61
BRANCH  48  72
ATOM     72  C   UNL A   1      39.490  28.950  29.697  1.00  0.00     0.064 A 
ATOM     73  C   UNL A   1      38.505  29.511  28.870  1.00  0.00     0.173 A 
ATOM     74  C   UNL A   1      39.163  28.733  31.044  1.00  0.00     0.173 A 
ATOM     75  F   UNL A   1      38.776  29.757  27.580  1.00  0.00    -0.203 F 
ATOM     76  C   UNL A   1      37.259  29.874  29.378  1.00  0.00     0.198 A 
ATOM     77  C   UNL A   1      37.906  29.068  31.542  1.00  0.00     0.198 A 
ATOM     78  F   UNL A   1      40.066  28.195  31.875  1.00  0.00    -0.203 F 
ATOM     79  F   UNL A   1      36.360  30.465  28.579  1.00  0.00    -0.200 F 
ATOM     80  C   UNL A   1      36.959  29.650  30.712  1.00  0.00     0.200 A 
ATOM     81  F   UNL A   1      37.615  28.836  32.830  1.00  0.00    -0.200 F 
ATOM     82  F   UNL A   1      35.763  30.005  31.201  1.00  0.00    -0.200 F 
ENDBRANCH  48  72
BRANCH  60  83
ATOM     83  C   UNL A   1      45.288  32.731  28.948  1.00  0.00     0.064 A 
ATOM     84  C   UNL A   1      45.832  33.151  30.171  1.00  0.00     0.173 A 
ATOM     85  C   UNL A   1      45.077  33.699  27.954  1.00  0.00     0.173 A 
ATOM     86  F   UNL A   1      46.037  32.266  31.157  1.00  0.00    -0.203 F 
ATOM     87  C   UNL A   1      46.129  34.492  30.397  1.00  0.00     0.198 A 
ATOM     88  C   UNL A   1      45.404  35.033  28.172  1.00  0.00     0.198 A 
ATOM     89  F   UNL A   1      44.567  33.345  26.764  1.00  0.00    -0.203 F 
ATOM     90  F   UNL A   1      46.604  34.879  31.589  1.00  0.00    -0.200 F 
ATOM     91  C   UNL A   1      45.923  35.430  29.395  1.00  0.00     0.200 A 
ATOM     92  F   UNL A   1      45.217  35.935  27.200  1.00  0.00    -0.200 F 
ATOM     93  F   UNL A   1      46.218  36.719  29.613  1.00  0.00    -0.200 F 
ENDBRANCH  60  83
ENDBRANCH  34  35
ENDBRANCH  26  29
ENDBRANCH  24  25
ENDBRANCH  23  24
ENDBRANCH  22  23
ENDBRANCH   3  22
TORSDOF 15
ENDMDL
