MODEL 1
REMARK VINA RESULT:     -13.2      0.000      0.000
REMARK SMILES O=C(NCCCNC(=O)[C@@H]1CN(Cc2ccccc2)c2ccccc2O1)c1ccc(-c2c3nc(c(-c4c(F)c(F)c(F)c(F)c4F)c4ccc([nH]4)c(-c4c(F)c(F)c(F)c(F)c4F)c4nc(c(-c5c(F)c(F)c(F)c(F)c5F)c5ccc2[nH]5)C=C4)C=C3)cc1
REMARK SMILES IDX 5 1 4 2 3 3 1 4 2 5 27 7 28 8 89 9 29 10 88 11 30 12 31 13
REMARK SMILES IDX 32 14 82 15 33 16 87 17 81 18 83 19 34 20 86 21 80 22 79 23
REMARK SMILES IDX 35 25 67 26 47 27 66 28 48 29 51 30 65 31 84 32 49 33 50 34
REMARK SMILES IDX 64 36 85 37 52 38 36 39 37 40 45 41 38 42 39 43 43 44 46 45
REMARK SMILES IDX 40 46 41 47 44 48 42 49 68 50 69 51 77 52 70 53 71 54 75 55
REMARK SMILES IDX 78 56 72 57 73 58 76 59 74 60 53 61 54 62 62 63 55 64 56 65
REMARK SMILES IDX 60 66 63 67 57 68 58 69 61 70 59 71 6 72 7 73 8 74 9 76
REMARK SMILES IDX 10 77 11 78 26 79 12 80 25 81 20 82 24 83 21 84 23 85 22 86
REMARK SMILES IDX 13 87 14 88 15 89 19 90 16 91 18 92 17 93
REMARK H PARENT 3 6 83 24 51 35 7 75
REMARK Flexibility Score: inf
ROOT
ATOM      1  C   UNL A   1      32.443  27.797  25.436  1.00  0.00     0.042 C 
ENDROOT
BRANCH   1   2
ATOM      2  C   UNL A   1      33.344  29.012  25.304  1.00  0.00     0.118 C 
BRANCH   2   3
ATOM      3  N   UNL A   1      32.735  30.234  25.815  1.00  0.00    -0.352 N 
ATOM      4  O   UNL A   1      32.385  31.951  27.234  1.00  0.00    -0.269 OA
ATOM      5  C   UNL A   1      33.120  31.048  26.857  1.00  0.00     0.251 C 
ATOM      6  H   UNL A   1      31.922  30.523  25.341  1.00  0.00     0.163 HD
BRANCH   5   7
ATOM      7  C   UNL A   1      34.412  30.814  27.541  1.00  0.00     0.039 A 
ATOM      8  C   UNL A   1      34.734  29.551  28.035  1.00  0.00     0.014 A 
ATOM      9  C   UNL A   1      35.318  31.869  27.685  1.00  0.00     0.014 A 
ATOM     10  C   UNL A   1      35.855  29.389  28.835  1.00  0.00     0.010 A 
ATOM     11  C   UNL A   1      36.513  31.673  28.387  1.00  0.00     0.010 A 
ATOM     12  C   UNL A   1      36.774  30.439  29.000  1.00  0.00    -0.014 A 
BRANCH  12  13
ATOM     13  C   UNL A   1      38.025  30.165  29.753  1.00  0.00     0.031 A 
ATOM     14  C   UNL A   1      38.221  30.646  31.163  1.00  0.00     0.074 A 
ATOM     15  C   UNL A   1      38.962  29.397  29.162  1.00  0.00     0.049 A 
ATOM     16  N   UNL A   1      39.219  30.412  31.979  1.00  0.00    -0.248 NA
ATOM     17  C   UNL A   1      37.172  31.504  31.734  1.00  0.00     0.031 C 
ATOM     18  C   UNL A   1      38.890  28.897  27.786  1.00  0.00     0.029 A 
ATOM     19  N   UNL A   1      40.129  28.864  29.645  1.00  0.00    -0.354 N 
ATOM     20  C   UNL A   1      38.928  31.101  33.148  1.00  0.00     0.074 A 
ATOM     21  C   UNL A   1      37.671  31.786  32.931  1.00  0.00     0.031 C 
ATOM     22  C   UNL A   1      39.922  28.072  27.561  1.00  0.00     0.029 A 
ATOM     23  C   UNL A   1      40.765  28.041  28.749  1.00  0.00     0.049 A 
ATOM     24  H   UNL A   1      40.477  29.055  30.546  1.00  0.00     0.167 HD
ATOM     25  C   UNL A   1      39.643  31.148  34.298  1.00  0.00     0.037 A 
ATOM     26  C   UNL A   1      41.907  27.339  28.865  1.00  0.00     0.037 A 
ATOM     27  C   UNL A   1      40.887  30.452  34.513  1.00  0.00     0.049 A 
ATOM     28  C   UNL A   1      42.666  27.402  30.157  1.00  0.00     0.074 A 
ATOM     29  C   UNL A   1      41.682  30.432  35.647  1.00  0.00     0.029 A 
ATOM     30  N   UNL A   1      41.514  29.647  33.573  1.00  0.00    -0.354 N 
ATOM     31  N   UNL A   1      42.369  28.048  31.258  1.00  0.00    -0.248 NA
ATOM     32  C   UNL A   1      43.921  26.642  30.222  1.00  0.00     0.031 C 
ATOM     33  C   UNL A   1      42.806  29.643  35.381  1.00  0.00     0.029 A 
ATOM     34  C   UNL A   1      42.691  29.136  34.097  1.00  0.00     0.049 A 
ATOM     35  H   UNL A   1      41.174  29.466  32.668  1.00  0.00     0.167 HD
ATOM     36  C   UNL A   1      43.399  27.777  32.145  1.00  0.00     0.074 A 
ATOM     37  C   UNL A   1      44.307  26.873  31.468  1.00  0.00     0.031 C 
ATOM     38  C   UNL A   1      43.586  28.248  33.401  1.00  0.00     0.037 A 
BRANCH  25  39
ATOM     39  C   UNL A   1      39.105  31.984  35.425  1.00  0.00     0.064 A 
ATOM     40  C   UNL A   1      38.338  31.420  36.455  1.00  0.00     0.173 A 
ATOM     41  C   UNL A   1      39.420  33.349  35.511  1.00  0.00     0.173 A 
ATOM     42  F   UNL A   1      38.000  30.123  36.412  1.00  0.00    -0.203 F 
ATOM     43  C   UNL A   1      37.897  32.196  37.525  1.00  0.00     0.198 A 
ATOM     44  C   UNL A   1      38.996  34.114  36.596  1.00  0.00     0.198 A 
ATOM     45  F   UNL A   1      40.155  33.936  34.556  1.00  0.00    -0.203 F 
ATOM     46  F   UNL A   1      37.142  31.642  38.484  1.00  0.00    -0.200 F 
ATOM     47  C   UNL A   1      38.233  33.538  37.600  1.00  0.00     0.200 A 
ATOM     48  F   UNL A   1      39.333  35.410  36.671  1.00  0.00    -0.200 F 
ATOM     49  F   UNL A   1      37.820  34.279  38.638  1.00  0.00    -0.200 F 
ENDBRANCH  25  39
BRANCH  26  50
ATOM     50  C   UNL A   1      42.399  26.535  27.717  1.00  0.00     0.064 A 
ATOM     51  C   UNL A   1      41.922  25.238  27.483  1.00  0.00     0.173 A 
ATOM     52  C   UNL A   1      43.349  27.054  26.825  1.00  0.00     0.173 A 
ATOM     53  F   UNL A   1      41.026  24.693  28.317  1.00  0.00    -0.203 F 
ATOM     54  C   UNL A   1      42.391  24.485  26.409  1.00  0.00     0.198 A 
ATOM     55  C   UNL A   1      43.793  26.312  25.734  1.00  0.00     0.198 A 
ATOM     56  F   UNL A   1      43.830  28.293  27.002  1.00  0.00    -0.203 F 
ATOM     57  F   UNL A   1      41.954  23.230  26.233  1.00  0.00    -0.200 F 
ATOM     58  C   UNL A   1      43.320  25.025  25.531  1.00  0.00     0.200 A 
ATOM     59  F   UNL A   1      44.674  26.846  24.878  1.00  0.00    -0.200 F 
ATOM     60  F   UNL A   1      43.765  24.301  24.494  1.00  0.00    -0.200 F 
ENDBRANCH  26  50
BRANCH  38  61
ATOM     61  C   UNL A   1      44.822  27.785  34.114  1.00  0.00     0.064 A 
ATOM     62  C   UNL A   1      44.826  26.609  34.879  1.00  0.00     0.173 A 
ATOM     63  C   UNL A   1      46.011  28.525  34.036  1.00  0.00     0.173 A 
ATOM     64  F   UNL A   1      43.707  25.878  34.998  1.00  0.00    -0.203 F 
ATOM     65  C   UNL A   1      45.966  26.209  35.568  1.00  0.00     0.198 A 
ATOM     66  C   UNL A   1      47.157  28.106  34.705  1.00  0.00     0.198 A 
ATOM     67  F   UNL A   1      46.058  29.655  33.315  1.00  0.00    -0.203 F 
ATOM     68  F   UNL A   1      45.930  25.113  36.340  1.00  0.00    -0.200 F 
ATOM     69  C   UNL A   1      47.130  26.955  35.478  1.00  0.00     0.200 A 
ATOM     70  F   UNL A   1      48.285  28.825  34.611  1.00  0.00    -0.200 F 
ATOM     71  F   UNL A   1      48.227  26.571  36.147  1.00  0.00    -0.200 F 
ENDBRANCH  38  61
ENDBRANCH  12  13
ENDBRANCH   5   7
ENDBRANCH   2   3
ENDBRANCH   1   2
BRANCH   1  72
ATOM     72  C   UNL A   1      33.200  26.493  25.620  1.00  0.00     0.118 C 
BRANCH  72  73
ATOM     73  N   UNL A   1      32.303  25.370  25.831  1.00  0.00    -0.353 N 
ATOM     74  C   UNL A   1      32.059  24.264  25.069  1.00  0.00     0.262 C 
ATOM     75  H   UNL A   1      31.783  25.414  26.666  1.00  0.00     0.163 HD
ATOM     76  O   UNL A   1      31.180  23.498  25.481  1.00  0.00    -0.271 OA
BRANCH  74  77
ATOM     77  C   UNL A   1      32.770  24.042  23.716  1.00  0.00     0.281 C 
ATOM     78  C   UNL A   1      32.463  22.641  23.169  1.00  0.00     0.172 C 
ATOM     79  O   UNL A   1      34.174  24.274  23.666  1.00  0.00    -0.477 OA
ATOM     80  N   UNL A   1      33.125  21.612  23.985  1.00  0.00    -0.360 N 
ATOM     81  C   UNL A   1      34.900  23.269  24.264  1.00  0.00     0.143 A 
ATOM     82  C   UNL A   1      34.411  21.956  24.417  1.00  0.00     0.080 A 
ATOM     83  C   UNL A   1      36.165  23.652  24.724  1.00  0.00     0.049 A 
ATOM     84  C   UNL A   1      35.282  21.040  25.016  1.00  0.00     0.030 A 
ATOM     85  C   UNL A   1      36.982  22.725  25.362  1.00  0.00     0.004 A 
ATOM     86  C   UNL A   1      36.544  21.414  25.494  1.00  0.00     0.002 A 
BRANCH  80  87
ATOM     87  C   UNL A   1      32.279  20.708  24.777  1.00  0.00     0.152 C 
BRANCH  87  88
ATOM     88  C   UNL A   1      32.569  19.252  24.489  1.00  0.00    -0.029 A 
ATOM     89  C   UNL A   1      32.604  18.776  23.170  1.00  0.00     0.005 A 
ATOM     90  C   UNL A   1      32.828  18.355  25.537  1.00  0.00     0.005 A 
ATOM     91  C   UNL A   1      32.936  17.445  22.908  1.00  0.00     0.000 A 
ATOM     92  C   UNL A   1      33.190  17.035  25.272  1.00  0.00     0.000 A 
ATOM     93  C   UNL A   1      33.246  16.581  23.957  1.00  0.00     0.000 A 
ENDBRANCH  87  88
ENDBRANCH  80  87
ENDBRANCH  74  77
ENDBRANCH  72  73
ENDBRANCH   1  72
TORSDOF 12
ENDMDL
MODEL 2
REMARK VINA RESULT:     -13.2      0.153      1.600
REMARK SMILES O=C(NCCCNC(=O)[C@@H]1CN(Cc2ccccc2)c2ccccc2O1)c1ccc(-c2c3nc(c(-c4c(F)c(F)c(F)c(F)c4F)c4ccc([nH]4)c(-c4c(F)c(F)c(F)c(F)c4F)c4nc(c(-c5c(F)c(F)c(F)c(F)c5F)c5ccc2[nH]5)C=C4)C=C3)cc1
REMARK SMILES IDX 5 1 4 2 3 3 1 4 2 5 27 7 28 8 89 9 29 10 88 11 30 12 31 13
REMARK SMILES IDX 32 14 82 15 33 16 87 17 81 18 83 19 34 20 86 21 80 22 79 23
REMARK SMILES IDX 35 25 67 26 47 27 66 28 48 29 51 30 65 31 84 32 49 33 50 34
REMARK SMILES IDX 64 36 85 37 52 38 36 39 37 40 45 41 38 42 39 43 43 44 46 45
REMARK SMILES IDX 40 46 41 47 44 48 42 49 68 50 69 51 77 52 70 53 71 54 75 55
REMARK SMILES IDX 78 56 72 57 73 58 76 59 74 60 53 61 54 62 62 63 55 64 56 65
REMARK SMILES IDX 60 66 63 67 57 68 58 69 61 70 59 71 6 72 7 73 8 74 9 76
REMARK SMILES IDX 10 77 11 78 26 79 12 80 25 81 20 82 24 83 21 84 23 85 22 86
REMARK SMILES IDX 13 87 14 88 15 89 19 90 16 91 18 92 17 93
REMARK H PARENT 3 6 83 24 51 35 7 75
REMARK Flexibility Score: inf
ROOT
ATOM      1  C   UNL A   1      32.542  27.664  25.965  1.00  0.00     0.042 C 
ENDROOT
BRANCH   1   2
ATOM      2  C   UNL A   1      33.311  28.867  25.447  1.00  0.00     0.118 C 
BRANCH   2   3
ATOM      3  N   UNL A   1      32.747  30.138  25.884  1.00  0.00    -0.352 N 
ATOM      4  O   UNL A   1      32.471  31.957  27.187  1.00  0.00    -0.269 OA
ATOM      5  C   UNL A   1      33.173  31.010  26.861  1.00  0.00     0.251 C 
ATOM      6  H   UNL A   1      31.934  30.418  25.404  1.00  0.00     0.163 HD
BRANCH   5   7
ATOM      7  C   UNL A   1      34.470  30.784  27.540  1.00  0.00     0.039 A 
ATOM      8  C   UNL A   1      34.782  29.536  28.076  1.00  0.00     0.014 A 
ATOM      9  C   UNL A   1      35.390  31.832  27.635  1.00  0.00     0.014 A 
ATOM     10  C   UNL A   1      35.910  29.390  28.869  1.00  0.00     0.010 A 
ATOM     11  C   UNL A   1      36.591  31.646  28.330  1.00  0.00     0.010 A 
ATOM     12  C   UNL A   1      36.844  30.433  28.985  1.00  0.00    -0.014 A 
BRANCH  12  13
ATOM     13  C   UNL A   1      38.099  30.170  29.734  1.00  0.00     0.031 A 
ATOM     14  C   UNL A   1      38.299  30.663  31.140  1.00  0.00     0.074 A 
ATOM     15  C   UNL A   1      39.037  29.403  29.144  1.00  0.00     0.049 A 
ATOM     16  N   UNL A   1      39.302  30.439  31.952  1.00  0.00    -0.248 NA
ATOM     17  C   UNL A   1      37.249  31.519  31.710  1.00  0.00     0.031 C 
ATOM     18  C   UNL A   1      38.961  28.893  27.772  1.00  0.00     0.029 A 
ATOM     19  N   UNL A   1      40.210  28.880  29.626  1.00  0.00    -0.354 N 
ATOM     20  C   UNL A   1      39.013  31.136  33.118  1.00  0.00     0.074 A 
ATOM     21  C   UNL A   1      37.752  31.812  32.902  1.00  0.00     0.031 C 
ATOM     22  C   UNL A   1      39.996  28.072  27.548  1.00  0.00     0.029 A 
ATOM     23  C   UNL A   1      40.845  28.053  28.732  1.00  0.00     0.049 A 
ATOM     24  H   UNL A   1      40.560  29.079  30.524  1.00  0.00     0.167 HD
ATOM     25  C   UNL A   1      39.733  31.194  34.265  1.00  0.00     0.037 A 
ATOM     26  C   UNL A   1      41.992  27.359  28.847  1.00  0.00     0.037 A 
ATOM     27  C   UNL A   1      40.982  30.506  34.478  1.00  0.00     0.049 A 
ATOM     28  C   UNL A   1      42.756  27.434  30.136  1.00  0.00     0.074 A 
ATOM     29  C   UNL A   1      41.783  30.498  35.609  1.00  0.00     0.029 A 
ATOM     30  N   UNL A   1      41.609  29.698  33.541  1.00  0.00    -0.354 N 
ATOM     31  N   UNL A   1      42.462  28.086  31.233  1.00  0.00    -0.248 NA
ATOM     32  C   UNL A   1      44.015  26.682  30.200  1.00  0.00     0.031 C 
ATOM     33  C   UNL A   1      42.909  29.713  35.343  1.00  0.00     0.029 A 
ATOM     34  C   UNL A   1      42.791  29.196  34.063  1.00  0.00     0.049 A 
ATOM     35  H   UNL A   1      41.266  29.509  32.639  1.00  0.00     0.167 HD
ATOM     36  C   UNL A   1      43.497  27.828  32.117  1.00  0.00     0.074 A 
ATOM     37  C   UNL A   1      44.406  26.923  31.442  1.00  0.00     0.031 C 
ATOM     38  C   UNL A   1      43.688  28.308  33.369  1.00  0.00     0.037 A 
BRANCH  25  39
ATOM     39  C   UNL A   1      39.196  32.035  35.387  1.00  0.00     0.064 A 
ATOM     40  C   UNL A   1      38.404  31.482  36.404  1.00  0.00     0.173 A 
ATOM     41  C   UNL A   1      39.538  33.393  35.486  1.00  0.00     0.173 A 
ATOM     42  F   UNL A   1      38.040  30.193  36.350  1.00  0.00    -0.203 F 
ATOM     43  C   UNL A   1      37.963  32.261  37.471  1.00  0.00     0.198 A 
ATOM     44  C   UNL A   1      39.114  34.162  36.568  1.00  0.00     0.198 A 
ATOM     45  F   UNL A   1      40.298  33.969  34.544  1.00  0.00    -0.203 F 
ATOM     46  F   UNL A   1      37.184  31.718  38.417  1.00  0.00    -0.200 F 
ATOM     47  C   UNL A   1      38.326  33.596  37.558  1.00  0.00     0.200 A 
ATOM     48  F   UNL A   1      39.476  35.450  36.655  1.00  0.00    -0.200 F 
ATOM     49  F   UNL A   1      37.913  34.340  38.594  1.00  0.00    -0.200 F 
ENDBRANCH  25  39
BRANCH  26  50
ATOM     50  C   UNL A   1      42.482  26.549  27.703  1.00  0.00     0.064 A 
ATOM     51  C   UNL A   1      43.434  27.058  26.809  1.00  0.00     0.173 A 
ATOM     52  C   UNL A   1      42.015  25.243  27.488  1.00  0.00     0.173 A 
ATOM     53  F   UNL A   1      43.897  28.306  26.963  1.00  0.00    -0.203 F 
ATOM     54  C   UNL A   1      43.886  26.297  25.734  1.00  0.00     0.198 A 
ATOM     55  C   UNL A   1      42.493  24.472  26.433  1.00  0.00     0.198 A 
ATOM     56  F   UNL A   1      41.110  24.708  28.321  1.00  0.00    -0.203 F 
ATOM     57  F   UNL A   1      44.763  26.823  24.867  1.00  0.00    -0.200 F 
ATOM     58  C   UNL A   1      43.422  25.003  25.551  1.00  0.00     0.200 A 
ATOM     59  F   UNL A   1      42.056  23.216  26.272  1.00  0.00    -0.200 F 
ATOM     60  F   UNL A   1      43.864  24.269  24.520  1.00  0.00    -0.200 F 
ENDBRANCH  26  50
BRANCH  38  61
ATOM     61  C   UNL A   1      44.929  27.857  34.080  1.00  0.00     0.064 A 
ATOM     62  C   UNL A   1      46.126  28.583  33.987  1.00  0.00     0.173 A 
ATOM     63  C   UNL A   1      44.924  26.689  34.855  1.00  0.00     0.173 A 
ATOM     64  F   UNL A   1      46.184  29.697  33.241  1.00  0.00    -0.203 F 
ATOM     65  C   UNL A   1      47.283  28.136  34.618  1.00  0.00     0.198 A 
ATOM     66  C   UNL A   1      46.076  26.260  35.507  1.00  0.00     0.198 A 
ATOM     67  F   UNL A   1      43.803  25.962  34.976  1.00  0.00    -0.203 F 
ATOM     68  F   UNL A   1      48.430  28.814  34.468  1.00  0.00    -0.200 F 
ATOM     69  C   UNL A   1      47.256  26.978  35.379  1.00  0.00     0.200 A 
ATOM     70  F   UNL A   1      46.048  25.145  36.249  1.00  0.00    -0.200 F 
ATOM     71  F   UNL A   1      48.373  26.546  35.982  1.00  0.00    -0.200 F 
ENDBRANCH  38  61
ENDBRANCH  12  13
ENDBRANCH   5   7
ENDBRANCH   2   3
ENDBRANCH   1   2
BRANCH   1  72
ATOM     72  C   UNL A   1      33.258  26.342  25.748  1.00  0.00     0.118 C 
BRANCH  72  73
ATOM     73  N   UNL A   1      32.393  25.206  26.018  1.00  0.00    -0.353 N 
ATOM     74  C   UNL A   1      32.106  24.102  25.269  1.00  0.00     0.262 C 
ATOM     75  H   UNL A   1      31.937  25.238  26.889  1.00  0.00     0.163 HD
ATOM     76  O   UNL A   1      31.271  23.322  25.740  1.00  0.00    -0.271 OA
BRANCH  74  77
ATOM     77  C   UNL A   1      32.716  23.898  23.864  1.00  0.00     0.281 C 
ATOM     78  C   UNL A   1      32.398  22.492  23.338  1.00  0.00     0.172 C 
ATOM     79  O   UNL A   1      34.107  24.159  23.708  1.00  0.00    -0.477 OA
ATOM     80  N   UNL A   1      33.141  21.475  24.097  1.00  0.00    -0.360 N 
ATOM     81  C   UNL A   1      34.898  23.169  24.245  1.00  0.00     0.143 A 
ATOM     82  C   UNL A   1      34.449  21.846  24.431  1.00  0.00     0.080 A 
ATOM     83  C   UNL A   1      36.186  23.577  24.609  1.00  0.00     0.049 A 
ATOM     84  C   UNL A   1      35.382  20.947  24.958  1.00  0.00     0.030 A 
ATOM     85  C   UNL A   1      37.068  22.667  25.179  1.00  0.00     0.004 A 
ATOM     86  C   UNL A   1      36.670  21.347  25.339  1.00  0.00     0.002 A 
BRANCH  80  87
ATOM     87  C   UNL A   1      32.377  20.552  24.948  1.00  0.00     0.152 C 
BRANCH  87  88
ATOM     88  C   UNL A   1      32.649  19.103  24.611  1.00  0.00    -0.029 A 
ATOM     89  C   UNL A   1      32.738  18.683  23.276  1.00  0.00     0.005 A 
ATOM     90  C   UNL A   1      32.837  18.156  25.630  1.00  0.00     0.005 A 
ATOM     91  C   UNL A   1      33.053  17.357  22.972  1.00  0.00     0.000 A 
ATOM     92  C   UNL A   1      33.184  16.840  25.325  1.00  0.00     0.000 A 
ATOM     93  C   UNL A   1      33.294  16.442  23.996  1.00  0.00     0.000 A 
ENDBRANCH  87  88
ENDBRANCH  80  87
ENDBRANCH  74  77
ENDBRANCH  72  73
ENDBRANCH   1  72
TORSDOF 12
ENDMDL
MODEL 3
REMARK VINA RESULT:     -13.1      0.995      3.018
REMARK SMILES O=C(NCCCNC(=O)[C@@H]1CN(Cc2ccccc2)c2ccccc2O1)c1ccc(-c2c3nc(c(-c4c(F)c(F)c(F)c(F)c4F)c4ccc([nH]4)c(-c4c(F)c(F)c(F)c(F)c4F)c4nc(c(-c5c(F)c(F)c(F)c(F)c5F)c5ccc2[nH]5)C=C4)C=C3)cc1
REMARK SMILES IDX 5 1 4 2 3 3 1 4 2 5 27 7 28 8 89 9 29 10 88 11 30 12 31 13
REMARK SMILES IDX 32 14 82 15 33 16 87 17 81 18 83 19 34 20 86 21 80 22 79 23
REMARK SMILES IDX 35 25 67 26 47 27 66 28 48 29 51 30 65 31 84 32 49 33 50 34
REMARK SMILES IDX 64 36 85 37 52 38 36 39 37 40 45 41 38 42 39 43 43 44 46 45
REMARK SMILES IDX 40 46 41 47 44 48 42 49 68 50 69 51 77 52 70 53 71 54 75 55
REMARK SMILES IDX 78 56 72 57 73 58 76 59 74 60 53 61 54 62 62 63 55 64 56 65
REMARK SMILES IDX 60 66 63 67 57 68 58 69 61 70 59 71 6 72 7 73 8 74 9 76
REMARK SMILES IDX 10 77 11 78 26 79 12 80 25 81 20 82 24 83 21 84 23 85 22 86
REMARK SMILES IDX 13 87 14 88 15 89 19 90 16 91 18 92 17 93
REMARK H PARENT 3 6 83 24 51 35 7 75
REMARK Flexibility Score: inf
ROOT
ATOM      1  C   UNL A   1      33.085  27.617  25.205  1.00  0.00     0.042 C 
ENDROOT
BRANCH   1   2
ATOM      2  C   UNL A   1      33.859  28.923  25.148  1.00  0.00     0.118 C 
BRANCH   2   3
ATOM      3  N   UNL A   1      33.130  30.045  25.726  1.00  0.00    -0.352 N 
ATOM      4  O   UNL A   1      32.592  31.616  27.252  1.00  0.00    -0.269 OA
ATOM      5  C   UNL A   1      33.414  30.811  26.834  1.00  0.00     0.251 C 
ATOM      6  H   UNL A   1      32.306  30.295  25.248  1.00  0.00     0.163 HD
BRANCH   5   7
ATOM      7  C   UNL A   1      34.705  30.642  27.540  1.00  0.00     0.039 A 
ATOM      8  C   UNL A   1      35.059  29.409  28.084  1.00  0.00     0.014 A 
ATOM      9  C   UNL A   1      35.577  31.729  27.652  1.00  0.00     0.014 A 
ATOM     10  C   UNL A   1      36.176  29.312  28.901  1.00  0.00     0.010 A 
ATOM     11  C   UNL A   1      36.770  31.595  28.373  1.00  0.00     0.010 A 
ATOM     12  C   UNL A   1      37.061  30.394  29.035  1.00  0.00    -0.014 A 
BRANCH  12  13
ATOM     13  C   UNL A   1      38.311  30.186  29.810  1.00  0.00     0.031 A 
ATOM     14  C   UNL A   1      38.448  30.658  31.230  1.00  0.00     0.074 A 
ATOM     15  C   UNL A   1      39.305  29.485  29.229  1.00  0.00     0.049 A 
ATOM     16  N   UNL A   1      39.442  30.474  32.063  1.00  0.00    -0.248 NA
ATOM     17  C   UNL A   1      37.338  31.442  31.790  1.00  0.00     0.031 C 
ATOM     18  C   UNL A   1      39.291  29.001  27.845  1.00  0.00     0.029 A 
ATOM     19  N   UNL A   1      40.493  29.019  29.730  1.00  0.00    -0.354 N 
ATOM     20  C   UNL A   1      39.086  31.128  33.235  1.00  0.00     0.074 A 
ATOM     21  C   UNL A   1      37.795  31.738  33.001  1.00  0.00     0.031 C 
ATOM     22  C   UNL A   1      40.376  28.244  27.631  1.00  0.00     0.029 A 
ATOM     23  C   UNL A   1      41.196  28.248  28.836  1.00  0.00     0.049 A 
ATOM     24  H   UNL A   1      40.810  29.217  30.640  1.00  0.00     0.167 HD
ATOM     25  C   UNL A   1      39.774  31.202  34.401  1.00  0.00     0.037 A 
ATOM     26  C   UNL A   1      42.376  27.616  28.966  1.00  0.00     0.037 A 
ATOM     27  C   UNL A   1      41.054  30.580  34.632  1.00  0.00     0.049 A 
ATOM     28  C   UNL A   1      43.104  27.707  30.275  1.00  0.00     0.074 A 
ATOM     29  C   UNL A   1      41.826  30.593  35.782  1.00  0.00     0.029 A 
ATOM     30  N   UNL A   1      41.749  29.829  33.695  1.00  0.00    -0.354 N 
ATOM     31  N   UNL A   1      42.746  28.318  31.378  1.00  0.00    -0.248 NA
ATOM     32  C   UNL A   1      44.401  27.025  30.356  1.00  0.00     0.031 C 
ATOM     33  C   UNL A   1      43.002  29.878  35.529  1.00  0.00     0.029 A 
ATOM     34  C   UNL A   1      42.944  29.383  34.237  1.00  0.00     0.049 A 
ATOM     35  H   UNL A   1      41.438  29.640  32.781  1.00  0.00     0.167 HD
ATOM     36  C   UNL A   1      43.773  28.098  32.282  1.00  0.00     0.074 A 
ATOM     37  C   UNL A   1      44.748  27.261  31.613  1.00  0.00     0.031 C 
ATOM     38  C   UNL A   1      43.905  28.561  33.549  1.00  0.00     0.037 A 
BRANCH  25  39
ATOM     39  C   UNL A   1      39.163  31.987  35.526  1.00  0.00     0.064 A 
ATOM     40  C   UNL A   1      38.348  31.376  36.489  1.00  0.00     0.173 A 
ATOM     41  C   UNL A   1      39.455  33.351  35.683  1.00  0.00     0.173 A 
ATOM     42  F   UNL A   1      38.030  30.077  36.379  1.00  0.00    -0.203 F 
ATOM     43  C   UNL A   1      37.838  32.104  37.562  1.00  0.00     0.198 A 
ATOM     44  C   UNL A   1      38.961  34.069  36.770  1.00  0.00     0.198 A 
ATOM     45  F   UNL A   1      40.234  33.983  34.793  1.00  0.00    -0.203 F 
ATOM     46  F   UNL A   1      37.038  31.505  38.455  1.00  0.00    -0.200 F 
ATOM     47  C   UNL A   1      38.152  33.446  37.707  1.00  0.00     0.200 A 
ATOM     48  F   UNL A   1      39.276  35.364  36.914  1.00  0.00    -0.200 F 
ATOM     49  F   UNL A   1      37.672  34.141  38.748  1.00  0.00    -0.200 F 
ENDBRANCH  25  39
BRANCH  26  50
ATOM     50  C   UNL A   1      42.940  26.860  27.819  1.00  0.00     0.064 A 
ATOM     51  C   UNL A   1      43.620  27.514  26.783  1.00  0.00     0.173 A 
ATOM     52  C   UNL A   1      42.817  25.464  27.743  1.00  0.00     0.173 A 
ATOM     53  F   UNL A   1      43.748  28.848  26.803  1.00  0.00    -0.203 F 
ATOM     54  C   UNL A   1      44.141  26.801  25.706  1.00  0.00     0.198 A 
ATOM     55  C   UNL A   1      43.367  24.750  26.682  1.00  0.00     0.198 A 
ATOM     56  F   UNL A   1      42.181  24.792  28.714  1.00  0.00    -0.203 F 
ATOM     57  F   UNL A   1      44.748  27.454  24.705  1.00  0.00    -0.200 F 
ATOM     58  C   UNL A   1      44.021  25.420  25.660  1.00  0.00     0.200 A 
ATOM     59  F   UNL A   1      43.266  23.415  26.653  1.00  0.00    -0.200 F 
ATOM     60  F   UNL A   1      44.530  24.734  24.626  1.00  0.00    -0.200 F 
ENDBRANCH  26  50
BRANCH  38  61
ATOM     61  C   UNL A   1      45.153  28.166  34.281  1.00  0.00     0.064 A 
ATOM     62  C   UNL A   1      46.310  28.958  34.231  1.00  0.00     0.173 A 
ATOM     63  C   UNL A   1      45.194  26.984  35.035  1.00  0.00     0.173 A 
ATOM     64  F   UNL A   1      46.324  30.087  33.507  1.00  0.00    -0.203 F 
ATOM     65  C   UNL A   1      47.474  28.562  34.882  1.00  0.00     0.198 A 
ATOM     66  C   UNL A   1      46.352  26.607  35.708  1.00  0.00     0.198 A 
ATOM     67  F   UNL A   1      44.112  26.195  35.115  1.00  0.00    -0.203 F 
ATOM     68  F   UNL A   1      48.585  29.304  34.773  1.00  0.00    -0.200 F 
ATOM     69  C   UNL A   1      47.493  27.390  35.622  1.00  0.00     0.200 A 
ATOM     70  F   UNL A   1      46.368  25.477  36.428  1.00  0.00    -0.200 F 
ATOM     71  F   UNL A   1      48.618  27.008  36.244  1.00  0.00    -0.200 F 
ENDBRANCH  38  61
ENDBRANCH  12  13
ENDBRANCH   5   7
ENDBRANCH   2   3
ENDBRANCH   1   2
BRANCH   1  72
ATOM     72  C   UNL A   1      33.968  26.382  25.164  1.00  0.00     0.118 C 
BRANCH  72  73
ATOM     73  N   UNL A   1      33.455  25.378  24.247  1.00  0.00    -0.353 N 
ATOM     74  C   UNL A   1      32.989  24.116  24.471  1.00  0.00     0.262 C 
ATOM     75  H   UNL A   1      33.443  25.657  23.302  1.00  0.00     0.163 HD
ATOM     76  O   UNL A   1      32.675  23.462  23.469  1.00  0.00    -0.271 OA
BRANCH  74  77
ATOM     77  C   UNL A   1      32.958  23.506  25.890  1.00  0.00     0.281 C 
ATOM     78  C   UNL A   1      34.366  23.489  26.500  1.00  0.00     0.172 C 
ATOM     79  O   UNL A   1      32.360  22.224  26.040  1.00  0.00    -0.477 OA
ATOM     80  N   UNL A   1      35.216  22.505  25.810  1.00  0.00    -0.360 N 
ATOM     81  C   UNL A   1      33.159  21.206  25.573  1.00  0.00     0.143 A 
ATOM     82  C   UNL A   1      34.560  21.318  25.465  1.00  0.00     0.080 A 
ATOM     83  C   UNL A   1      32.473  20.045  25.194  1.00  0.00     0.049 A 
ATOM     84  C   UNL A   1      35.235  20.184  25.001  1.00  0.00     0.030 A 
ATOM     85  C   UNL A   1      33.174  18.958  24.688  1.00  0.00     0.004 A 
ATOM     86  C   UNL A   1      34.559  19.023  24.607  1.00  0.00     0.002 A 
BRANCH  80  87
ATOM     87  C   UNL A   1      36.344  23.005  25.012  1.00  0.00     0.152 C 
BRANCH  87  88
ATOM     88  C   UNL A   1      37.650  22.961  25.773  1.00  0.00    -0.029 A 
ATOM     89  C   UNL A   1      38.453  21.812  25.751  1.00  0.00     0.005 A 
ATOM     90  C   UNL A   1      38.090  24.078  26.501  1.00  0.00     0.005 A 
ATOM     91  C   UNL A   1      39.688  21.800  26.403  1.00  0.00     0.000 A 
ATOM     92  C   UNL A   1      39.337  24.075  27.124  1.00  0.00     0.000 A 
ATOM     93  C   UNL A   1      40.136  22.937  27.073  1.00  0.00     0.000 A 
ENDBRANCH  87  88
ENDBRANCH  80  87
ENDBRANCH  74  77
ENDBRANCH  72  73
ENDBRANCH   1  72
TORSDOF 12
ENDMDL
