MODEL 1
REMARK VINA RESULT:     -15.7      0.000      0.000
REMARK SMILES C[C@]1(C(=O)NCCCNC(=O)c2ccc(-c3c4nc(c(-c5c(F)c(F)c(F)c(F)c5F)c5ccc([nH]5)c(-c5c(F)c(F)c(F)c(F)c5F)c5nc(c(-c6c(F)c(F)c(F)c(F)c6F)c6ccc3[nH]6)C=C5)C=C4)cc2)[NH2+]C2(C(=O)c3ccccc3C2=O)[C@@H]2C(=O)N(c3ccccc3)C(=O)[C@H]21
REMARK SMILES IDX 7 1 6 2 5 3 3 4 4 5 2 7 1 8 75 9 99 10 76 11 87 14 97 15
REMARK SMILES IDX 77 16 85 17 88 18 90 19 98 20 78 21 79 22 84 23 86 24 89 25
REMARK SMILES IDX 80 26 83 27 81 28 82 29 91 30 92 31 96 32 93 33 95 34 94 35
REMARK SMILES IDX 8 36 9 37 10 38 11 40 12 41 13 42 74 43 14 44 73 45 15 46
REMARK SMILES IDX 16 47 17 48 67 49 18 50 72 51 66 52 68 53 19 54 71 55 65 56
REMARK SMILES IDX 64 57 20 59 52 60 32 61 51 62 33 63 36 64 50 65 69 66 34 67
REMARK SMILES IDX 35 68 49 70 70 71 37 72 21 73 22 74 30 75 23 76 24 77 28 78
REMARK SMILES IDX 31 79 25 80 26 81 29 82 27 83 53 84 54 85 62 86 55 87 56 88
REMARK SMILES IDX 60 89 63 90 57 91 58 92 61 93 59 94 38 95 39 96 47 97 40 98
REMARK SMILES IDX 41 99 45 100 48 101 42 102 43 103 46 104 44 105
REMARK H PARENT 5 6 75 12 75 13 9 39 68 58 36 69
REMARK Flexibility Score: inf
ROOT
ATOM      1  C   UNL A   1      33.554  32.119  27.852  1.00  0.00     0.042 C 
ENDROOT
BRANCH   1   2
ATOM      2  C   UNL A   1      33.730  30.723  27.281  1.00  0.00     0.118 C 
BRANCH   2   3
ATOM      3  N   UNL A   1      32.922  29.675  27.836  1.00  0.00    -0.351 N 
ATOM      4  C   UNL A   1      32.646  28.419  27.383  1.00  0.00     0.281 C 
ATOM      5  O   UNL A   1      31.833  27.813  28.098  1.00  0.00    -0.268 OA
ATOM      6  H   UNL A   1      32.494  29.902  28.693  1.00  0.00     0.163 HD
BRANCH   4   7
ATOM      7  C   UNL A   1      33.245  27.716  26.085  1.00  0.00     0.186 C 
ATOM      8  C   UNL A   1      34.645  28.360  25.885  1.00  0.00     0.091 C 
ATOM      9  N   UNL A   1      33.438  26.219  26.236  1.00  0.00    -0.314 N 
ATOM     10  C   UNL A   1      32.518  27.794  24.771  1.00  0.00     0.170 C 
ATOM     11  C   UNL A   1      32.536  25.489  25.244  1.00  0.00     0.236 C 
ATOM     12  H   UNL A   1      33.195  25.939  27.186  1.00  0.00     0.348 HD
ATOM     13  H   UNL A   1      34.412  25.980  26.050  1.00  0.00     0.348 HD
ATOM     14  C   UNL A   1      31.636  26.564  24.705  1.00  0.00     0.177 C 
ATOM     15  C   UNL A   1      31.560  28.848  24.358  1.00  0.00     0.244 C 
ATOM     16  C   UNL A   1      33.306  24.693  24.189  1.00  0.00     0.232 C 
ATOM     17  C   UNL A   1      31.831  24.366  26.035  1.00  0.00     0.232 C 
ATOM     18  C   UNL A   1      30.963  26.822  23.395  1.00  0.00     0.245 C 
ATOM     19  N   UNL A   1      30.773  28.211  23.395  1.00  0.00    -0.250 N 
ATOM     20  O   UNL A   1      31.523  29.983  24.782  1.00  0.00    -0.273 OA
ATOM     21  O   UNL A   1      34.093  25.142  23.376  1.00  0.00    -0.286 OA
ATOM     22  C   UNL A   1      32.978  23.263  24.342  1.00  0.00     0.036 A 
ATOM     23  C   UNL A   1      32.140  23.089  25.430  1.00  0.00     0.036 A 
ATOM     24  O   UNL A   1      31.144  24.418  27.037  1.00  0.00    -0.286 OA
ATOM     25  O   UNL A   1      30.527  25.960  22.654  1.00  0.00    -0.273 OA
ATOM     26  C   UNL A   1      33.392  22.166  23.609  1.00  0.00     0.013 A 
ATOM     27  C   UNL A   1      31.697  21.850  25.862  1.00  0.00     0.013 A 
ATOM     28  C   UNL A   1      32.942  20.897  24.014  1.00  0.00     0.001 A 
ATOM     29  C   UNL A   1      32.108  20.739  25.137  1.00  0.00     0.001 A 
BRANCH  19  30
ATOM     30  C   UNL A   1      29.721  28.897  22.766  1.00  0.00     0.052 A 
ATOM     31  C   UNL A   1      30.005  29.901  21.831  1.00  0.00     0.027 A 
ATOM     32  C   UNL A   1      28.405  28.717  23.206  1.00  0.00     0.027 A 
ATOM     33  C   UNL A   1      28.984  30.706  21.329  1.00  0.00     0.002 A 
ATOM     34  C   UNL A   1      27.393  29.562  22.741  1.00  0.00     0.002 A 
ATOM     35  C   UNL A   1      27.681  30.548  21.798  1.00  0.00     0.000 A 
ENDBRANCH  19  30
ENDBRANCH   4   7
ENDBRANCH   2   3
ENDBRANCH   1   2
BRANCH   1  36
ATOM     36  C   UNL A   1      32.424  32.891  27.207  1.00  0.00     0.118 C 
BRANCH  36  37
ATOM     37  N   UNL A   1      32.314  34.265  27.703  1.00  0.00    -0.352 N 
ATOM     38  C   UNL A   1      32.999  34.997  28.650  1.00  0.00     0.251 C 
ATOM     39  H   UNL A   1      31.596  34.776  27.266  1.00  0.00     0.163 HD
ATOM     40  O   UNL A   1      32.566  36.112  28.942  1.00  0.00    -0.269 OA
BRANCH  38  41
ATOM     41  C   UNL A   1      34.196  34.484  29.369  1.00  0.00     0.039 A 
ATOM     42  C   UNL A   1      35.482  34.626  28.869  1.00  0.00     0.014 A 
ATOM     43  C   UNL A   1      34.037  33.866  30.619  1.00  0.00     0.014 A 
ATOM     44  C   UNL A   1      36.548  33.951  29.454  1.00  0.00     0.010 A 
ATOM     45  C   UNL A   1      35.142  33.323  31.297  1.00  0.00     0.010 A 
ATOM     46  C   UNL A   1      36.403  33.302  30.687  1.00  0.00    -0.014 A 
BRANCH  46  47
ATOM     47  C   UNL A   1      37.591  32.636  31.297  1.00  0.00     0.031 A 
ATOM     48  C   UNL A   1      38.033  32.966  32.699  1.00  0.00     0.074 A 
ATOM     49  C   UNL A   1      38.232  31.665  30.613  1.00  0.00     0.049 A 
ATOM     50  N   UNL A   1      39.030  32.468  33.391  1.00  0.00    -0.248 NA
ATOM     51  C   UNL A   1      37.270  33.997  33.418  1.00  0.00     0.031 C 
ATOM     52  C   UNL A   1      37.905  31.244  29.249  1.00  0.00     0.029 A 
ATOM     53  N   UNL A   1      39.258  30.827  30.976  1.00  0.00    -0.354 N 
ATOM     54  C   UNL A   1      39.034  33.149  34.601  1.00  0.00     0.074 A 
ATOM     55  C   UNL A   1      37.961  34.117  34.543  1.00  0.00     0.031 C 
ATOM     56  C   UNL A   1      38.645  30.175  28.926  1.00  0.00     0.029 A 
ATOM     57  C   UNL A   1      39.572  29.895  30.017  1.00  0.00     0.049 A 
ATOM     58  H   UNL A   1      39.724  30.889  31.842  1.00  0.00     0.167 HD
ATOM     59  C   UNL A   1      39.851  32.974  35.669  1.00  0.00     0.037 A 
ATOM     60  C   UNL A   1      40.513  28.932  29.997  1.00  0.00     0.037 A 
ATOM     61  C   UNL A   1      40.892  31.979  35.741  1.00  0.00     0.049 A 
ATOM     62  C   UNL A   1      41.423  28.776  31.179  1.00  0.00     0.074 A 
ATOM     63  C   UNL A   1      41.741  31.698  36.796  1.00  0.00     0.029 A 
ATOM     64  N   UNL A   1      41.223  31.103  34.717  1.00  0.00    -0.354 N 
ATOM     65  N   UNL A   1      41.415  29.428  32.315  1.00  0.00    -0.248 NA
ATOM     66  C   UNL A   1      42.485  27.768  31.069  1.00  0.00     0.031 C 
ATOM     67  C   UNL A   1      42.622  30.689  36.394  1.00  0.00     0.029 A 
ATOM     68  C   UNL A   1      42.285  30.301  35.106  1.00  0.00     0.049 A 
ATOM     69  H   UNL A   1      40.770  31.057  33.844  1.00  0.00     0.167 HD
ATOM     70  C   UNL A   1      42.469  28.915  33.057  1.00  0.00     0.074 A 
ATOM     71  C   UNL A   1      43.078  27.875  32.251  1.00  0.00     0.031 C 
ATOM     72  C   UNL A   1      42.894  29.280  34.290  1.00  0.00     0.037 A 
BRANCH  59  73
ATOM     73  C   UNL A   1      39.670  33.893  36.845  1.00  0.00     0.064 A 
ATOM     74  C   UNL A   1      40.263  35.163  36.895  1.00  0.00     0.173 A 
ATOM     75  C   UNL A   1      38.855  33.509  37.924  1.00  0.00     0.173 A 
ATOM     76  F   UNL A   1      41.062  35.575  35.900  1.00  0.00    -0.203 F 
ATOM     77  C   UNL A   1      40.072  36.002  37.991  1.00  0.00     0.198 A 
ATOM     78  C   UNL A   1      38.639  34.363  39.001  1.00  0.00     0.198 A 
ATOM     79  F   UNL A   1      38.257  32.308  37.926  1.00  0.00    -0.203 F 
ATOM     80  F   UNL A   1      40.695  37.188  38.041  1.00  0.00    -0.200 F 
ATOM     81  C   UNL A   1      39.254  35.605  39.039  1.00  0.00     0.200 A 
ATOM     82  F   UNL A   1      37.838  33.983  40.006  1.00  0.00    -0.200 F 
ATOM     83  F   UNL A   1      39.066  36.417  40.088  1.00  0.00    -0.200 F 
ENDBRANCH  59  73
BRANCH  60  84
ATOM     84  C   UNL A   1      40.629  28.059  28.800  1.00  0.00     0.064 A 
ATOM     85  C   UNL A   1      39.905  26.863  28.707  1.00  0.00     0.173 A 
ATOM     86  C   UNL A   1      41.402  28.443  27.694  1.00  0.00     0.173 A 
ATOM     87  F   UNL A   1      39.169  26.442  29.746  1.00  0.00    -0.203 F 
ATOM     88  C   UNL A   1      39.940  26.092  27.547  1.00  0.00     0.198 A 
ATOM     89  C   UNL A   1      41.411  27.689  26.524  1.00  0.00     0.198 A 
ATOM     90  F   UNL A   1      42.109  29.583  27.733  1.00  0.00    -0.203 F 
ATOM     91  F   UNL A   1      39.249  24.945  27.486  1.00  0.00    -0.200 F 
ATOM     92  C   UNL A   1      40.681  26.513  26.451  1.00  0.00     0.200 A 
ATOM     93  F   UNL A   1      42.110  28.112  25.462  1.00  0.00    -0.200 F 
ATOM     94  F   UNL A   1      40.687  25.788  25.325  1.00  0.00    -0.200 F 
ENDBRANCH  60  84
BRANCH  72  95
ATOM     95  C   UNL A   1      44.082  28.557  34.852  1.00  0.00     0.064 A 
ATOM     96  C   UNL A   1      45.382  29.063  34.704  1.00  0.00     0.173 A 
ATOM     97  C   UNL A   1      43.914  27.385  35.605  1.00  0.00     0.173 A 
ATOM     98  F   UNL A   1      45.596  30.172  33.980  1.00  0.00    -0.203 F 
ATOM     99  C   UNL A   1      46.471  28.414  35.278  1.00  0.00     0.198 A 
ATOM    100  C   UNL A   1      45.003  26.755  36.202  1.00  0.00     0.198 A 
ATOM    101  F   UNL A   1      42.690  26.864  35.781  1.00  0.00    -0.203 F 
ATOM    102  F   UNL A   1      47.708  28.897  35.096  1.00  0.00    -0.200 F 
ATOM    103  C   UNL A   1      46.280  27.269  36.035  1.00  0.00     0.200 A 
ATOM    104  F   UNL A   1      44.814  25.656  36.945  1.00  0.00    -0.200 F 
ATOM    105  F   UNL A   1      47.328  26.656  36.602  1.00  0.00    -0.200 F 
ENDBRANCH  72  95
ENDBRANCH  46  47
ENDBRANCH  38  41
ENDBRANCH  36  37
ENDBRANCH   1  36
TORSDOF 11
ENDMDL
MODEL 2
REMARK VINA RESULT:     -15.6      0.076      1.512
REMARK SMILES C[C@]1(C(=O)NCCCNC(=O)c2ccc(-c3c4nc(c(-c5c(F)c(F)c(F)c(F)c5F)c5ccc([nH]5)c(-c5c(F)c(F)c(F)c(F)c5F)c5nc(c(-c6c(F)c(F)c(F)c(F)c6F)c6ccc3[nH]6)C=C5)C=C4)cc2)[NH2+]C2(C(=O)c3ccccc3C2=O)[C@@H]2C(=O)N(c3ccccc3)C(=O)[C@H]21
REMARK SMILES IDX 7 1 6 2 5 3 3 4 4 5 2 7 1 8 75 9 99 10 76 11 87 14 97 15
REMARK SMILES IDX 77 16 85 17 88 18 90 19 98 20 78 21 79 22 84 23 86 24 89 25
REMARK SMILES IDX 80 26 83 27 81 28 82 29 91 30 92 31 96 32 93 33 95 34 94 35
REMARK SMILES IDX 8 36 9 37 10 38 11 40 12 41 13 42 74 43 14 44 73 45 15 46
REMARK SMILES IDX 16 47 17 48 67 49 18 50 72 51 66 52 68 53 19 54 71 55 65 56
REMARK SMILES IDX 64 57 20 59 52 60 32 61 51 62 33 63 36 64 50 65 69 66 34 67
REMARK SMILES IDX 35 68 49 70 70 71 37 72 21 73 22 74 30 75 23 76 24 77 28 78
REMARK SMILES IDX 31 79 25 80 26 81 29 82 27 83 53 84 54 85 62 86 55 87 56 88
REMARK SMILES IDX 60 89 63 90 57 91 58 92 61 93 59 94 38 95 39 96 47 97 40 98
REMARK SMILES IDX 41 99 45 100 48 101 42 102 43 103 46 104 44 105
REMARK H PARENT 5 6 75 12 75 13 9 39 68 58 36 69
REMARK Flexibility Score: inf
ROOT
ATOM      1  C   UNL A   1      33.561  32.114  27.848  1.00  0.00     0.042 C 
ENDROOT
BRANCH   1   2
ATOM      2  C   UNL A   1      33.739  30.718  27.278  1.00  0.00     0.118 C 
BRANCH   2   3
ATOM      3  N   UNL A   1      32.928  29.671  27.831  1.00  0.00    -0.351 N 
ATOM      4  C   UNL A   1      32.648  28.417  27.376  1.00  0.00     0.281 C 
ATOM      5  O   UNL A   1      31.833  27.811  28.090  1.00  0.00    -0.268 OA
ATOM      6  H   UNL A   1      32.500  29.898  28.688  1.00  0.00     0.163 HD
BRANCH   4   7
ATOM      7  C   UNL A   1      33.246  27.714  26.077  1.00  0.00     0.186 C 
ATOM      8  C   UNL A   1      34.647  28.356  25.878  1.00  0.00     0.091 C 
ATOM      9  N   UNL A   1      33.437  26.217  26.227  1.00  0.00    -0.314 N 
ATOM     10  C   UNL A   1      32.519  27.794  24.764  1.00  0.00     0.170 C 
ATOM     11  C   UNL A   1      32.534  25.489  25.235  1.00  0.00     0.236 C 
ATOM     12  H   UNL A   1      33.193  25.936  27.176  1.00  0.00     0.348 HD
ATOM     13  H   UNL A   1      34.410  25.977  26.040  1.00  0.00     0.348 HD
ATOM     14  C   UNL A   1      31.635  26.565  24.696  1.00  0.00     0.177 C 
ATOM     15  C   UNL A   1      31.563  28.850  24.352  1.00  0.00     0.244 C 
ATOM     16  C   UNL A   1      33.303  24.693  24.178  1.00  0.00     0.232 C 
ATOM     17  C   UNL A   1      31.827  24.366  26.024  1.00  0.00     0.232 C 
ATOM     18  C   UNL A   1      30.963  26.825  23.387  1.00  0.00     0.245 C 
ATOM     19  N   UNL A   1      30.775  28.215  23.389  1.00  0.00    -0.250 N 
ATOM     20  O   UNL A   1      31.527  29.985  24.777  1.00  0.00    -0.273 OA
ATOM     21  O   UNL A   1      34.090  25.142  23.366  1.00  0.00    -0.286 OA
ATOM     22  C   UNL A   1      32.973  23.263  24.331  1.00  0.00     0.036 A 
ATOM     23  C   UNL A   1      32.134  23.089  25.418  1.00  0.00     0.036 A 
ATOM     24  O   UNL A   1      31.141  24.418  27.027  1.00  0.00    -0.286 OA
ATOM     25  O   UNL A   1      30.526  25.966  22.645  1.00  0.00    -0.273 OA
ATOM     26  C   UNL A   1      33.384  22.167  23.596  1.00  0.00     0.013 A 
ATOM     27  C   UNL A   1      31.690  21.850  25.849  1.00  0.00     0.013 A 
ATOM     28  C   UNL A   1      32.934  20.897  24.000  1.00  0.00     0.001 A 
ATOM     29  C   UNL A   1      32.099  20.739  25.123  1.00  0.00     0.001 A 
BRANCH  19  30
ATOM     30  C   UNL A   1      29.723  28.904  22.760  1.00  0.00     0.052 A 
ATOM     31  C   UNL A   1      30.009  29.908  21.827  1.00  0.00     0.027 A 
ATOM     32  C   UNL A   1      28.407  28.724  23.199  1.00  0.00     0.027 A 
ATOM     33  C   UNL A   1      28.988  30.715  21.325  1.00  0.00     0.002 A 
ATOM     34  C   UNL A   1      27.396  29.570  22.735  1.00  0.00     0.002 A 
ATOM     35  C   UNL A   1      27.685  30.558  21.794  1.00  0.00     0.000 A 
ENDBRANCH  19  30
ENDBRANCH   4   7
ENDBRANCH   2   3
ENDBRANCH   1   2
BRANCH   1  36
ATOM     36  C   UNL A   1      32.433  32.886  27.199  1.00  0.00     0.118 C 
BRANCH  36  37
ATOM     37  N   UNL A   1      32.318  34.258  27.698  1.00  0.00    -0.352 N 
ATOM     38  C   UNL A   1      32.997  34.989  28.649  1.00  0.00     0.251 C 
ATOM     39  H   UNL A   1      31.600  34.768  27.259  1.00  0.00     0.163 HD
ATOM     40  O   UNL A   1      32.561  36.103  28.941  1.00  0.00    -0.269 OA
BRANCH  38  41
ATOM     41  C   UNL A   1      34.193  34.478  29.372  1.00  0.00     0.039 A 
ATOM     42  C   UNL A   1      35.480  34.616  28.874  1.00  0.00     0.014 A 
ATOM     43  C   UNL A   1      34.031  33.863  30.624  1.00  0.00     0.014 A 
ATOM     44  C   UNL A   1      36.543  33.943  29.463  1.00  0.00     0.010 A 
ATOM     45  C   UNL A   1      35.133  33.321  31.306  1.00  0.00     0.010 A 
ATOM     46  C   UNL A   1      36.396  33.297  30.698  1.00  0.00    -0.014 A 
BRANCH  46  47
ATOM     47  C   UNL A   1      37.582  32.631  31.312  1.00  0.00     0.031 A 
ATOM     48  C   UNL A   1      38.019  32.963  32.716  1.00  0.00     0.074 A 
ATOM     49  C   UNL A   1      38.225  31.661  30.630  1.00  0.00     0.049 A 
ATOM     50  N   UNL A   1      39.013  32.465  33.411  1.00  0.00    -0.248 NA
ATOM     51  C   UNL A   1      37.252  33.993  33.432  1.00  0.00     0.031 C 
ATOM     52  C   UNL A   1      37.903  31.239  29.266  1.00  0.00     0.029 A 
ATOM     53  N   UNL A   1      39.250  30.824  30.998  1.00  0.00    -0.354 N 
ATOM     54  C   UNL A   1      39.013  33.146  34.621  1.00  0.00     0.074 A 
ATOM     55  C   UNL A   1      37.939  34.114  34.559  1.00  0.00     0.031 C 
ATOM     56  C   UNL A   1      38.645  30.171  28.946  1.00  0.00     0.029 A 
ATOM     57  C   UNL A   1      39.568  29.891  30.040  1.00  0.00     0.049 A 
ATOM     58  H   UNL A   1      39.713  30.886  31.865  1.00  0.00     0.167 HD
ATOM     59  C   UNL A   1      39.825  32.971  35.692  1.00  0.00     0.037 A 
ATOM     60  C   UNL A   1      40.509  28.928  30.024  1.00  0.00     0.037 A 
ATOM     61  C   UNL A   1      40.866  31.977  35.768  1.00  0.00     0.049 A 
ATOM     62  C   UNL A   1      41.416  28.773  31.208  1.00  0.00     0.074 A 
ATOM     63  C   UNL A   1      41.712  31.697  36.827  1.00  0.00     0.029 A 
ATOM     64  N   UNL A   1      41.201  31.101  34.746  1.00  0.00    -0.354 N 
ATOM     65  N   UNL A   1      41.403  29.425  32.344  1.00  0.00    -0.248 NA
ATOM     66  C   UNL A   1      42.478  27.766  31.102  1.00  0.00     0.031 C 
ATOM     67  C   UNL A   1      42.594  30.688  36.427  1.00  0.00     0.029 A 
ATOM     68  C   UNL A   1      42.263  30.300  35.139  1.00  0.00     0.049 A 
ATOM     69  H   UNL A   1      40.752  31.054  33.871  1.00  0.00     0.167 HD
ATOM     70  C   UNL A   1      42.454  28.913  33.090  1.00  0.00     0.074 A 
ATOM     71  C   UNL A   1      43.067  27.873  32.286  1.00  0.00     0.031 C 
ATOM     72  C   UNL A   1      42.875  29.279  34.325  1.00  0.00     0.037 A 
BRANCH  59  73
ATOM     73  C   UNL A   1      39.640  33.891  36.868  1.00  0.00     0.064 A 
ATOM     74  C   UNL A   1      38.852  33.536  37.972  1.00  0.00     0.173 A 
ATOM     75  C   UNL A   1      40.297  35.132  36.905  1.00  0.00     0.173 A 
ATOM     76  F   UNL A   1      38.191  32.369  37.984  1.00  0.00    -0.203 F 
ATOM     77  C   UNL A   1      38.705  34.399  39.056  1.00  0.00     0.198 A 
ATOM     78  C   UNL A   1      40.174  35.977  38.004  1.00  0.00     0.198 A 
ATOM     79  F   UNL A   1      41.069  35.520  35.879  1.00  0.00    -0.203 F 
ATOM     80  F   UNL A   1      37.901  34.061  40.074  1.00  0.00    -0.200 F 
ATOM     81  C   UNL A   1      39.371  35.615  39.075  1.00  0.00     0.200 A 
ATOM     82  F   UNL A   1      40.830  37.146  38.026  1.00  0.00    -0.200 F 
ATOM     83  F   UNL A   1      39.234  36.440  40.122  1.00  0.00    -0.200 F 
ENDBRANCH  59  73
BRANCH  60  84
ATOM     84  C   UNL A   1      40.630  28.055  28.827  1.00  0.00     0.064 A 
ATOM     85  C   UNL A   1      39.897  26.866  28.726  1.00  0.00     0.173 A 
ATOM     86  C   UNL A   1      41.418  28.434  27.729  1.00  0.00     0.173 A 
ATOM     87  F   UNL A   1      39.146  26.451  29.756  1.00  0.00    -0.203 F 
ATOM     88  C   UNL A   1      39.937  26.095  27.565  1.00  0.00     0.198 A 
ATOM     89  C   UNL A   1      41.433  27.680  26.559  1.00  0.00     0.198 A 
ATOM     90  F   UNL A   1      42.135  29.566  27.777  1.00  0.00    -0.203 F 
ATOM     91  F   UNL A   1      39.236  24.955  27.496  1.00  0.00    -0.200 F 
ATOM     92  C   UNL A   1      40.693  26.510  26.478  1.00  0.00     0.200 A 
ATOM     93  F   UNL A   1      42.147  28.097  25.505  1.00  0.00    -0.200 F 
ATOM     94  F   UNL A   1      40.704  25.786  25.351  1.00  0.00    -0.200 F 
ENDBRANCH  60  84
BRANCH  72  95
ATOM     95  C   UNL A   1      44.061  28.556  34.892  1.00  0.00     0.064 A 
ATOM     96  C   UNL A   1      43.912  27.359  35.607  1.00  0.00     0.173 A 
ATOM     97  C   UNL A   1      45.362  29.028  34.660  1.00  0.00     0.173 A 
ATOM     98  F   UNL A   1      42.689  26.876  35.869  1.00  0.00    -0.203 F 
ATOM     99  C   UNL A   1      45.024  26.667  36.080  1.00  0.00     0.198 A 
ATOM    100  C   UNL A   1      46.472  28.317  35.109  1.00  0.00     0.198 A 
ATOM    101  F   UNL A   1      45.557  30.165  33.976  1.00  0.00    -0.203 F 
ATOM    102  F   UNL A   1      44.858  25.542  36.790  1.00  0.00    -0.200 F 
ATOM    103  C   UNL A   1      46.301  27.140  35.822  1.00  0.00     0.200 A 
ATOM    104  F   UNL A   1      47.706  28.769  34.846  1.00  0.00    -0.200 F 
ATOM    105  F   UNL A   1      47.370  26.462  36.263  1.00  0.00    -0.200 F 
ENDBRANCH  72  95
ENDBRANCH  46  47
ENDBRANCH  38  41
ENDBRANCH  36  37
ENDBRANCH   1  36
TORSDOF 11
ENDMDL
MODEL 3
REMARK VINA RESULT:     -15.6      0.385      6.938
REMARK SMILES C[C@]1(C(=O)NCCCNC(=O)c2ccc(-c3c4nc(c(-c5c(F)c(F)c(F)c(F)c5F)c5ccc([nH]5)c(-c5c(F)c(F)c(F)c(F)c5F)c5nc(c(-c6c(F)c(F)c(F)c(F)c6F)c6ccc3[nH]6)C=C5)C=C4)cc2)[NH2+]C2(C(=O)c3ccccc3C2=O)[C@@H]2C(=O)N(c3ccccc3)C(=O)[C@H]21
REMARK SMILES IDX 7 1 6 2 5 3 3 4 4 5 2 7 1 8 75 9 99 10 76 11 87 14 97 15
REMARK SMILES IDX 77 16 85 17 88 18 90 19 98 20 78 21 79 22 84 23 86 24 89 25
REMARK SMILES IDX 80 26 83 27 81 28 82 29 91 30 92 31 96 32 93 33 95 34 94 35
REMARK SMILES IDX 8 36 9 37 10 38 11 40 12 41 13 42 74 43 14 44 73 45 15 46
REMARK SMILES IDX 16 47 17 48 67 49 18 50 72 51 66 52 68 53 19 54 71 55 65 56
REMARK SMILES IDX 64 57 20 59 52 60 32 61 51 62 33 63 36 64 50 65 69 66 34 67
REMARK SMILES IDX 35 68 49 70 70 71 37 72 21 73 22 74 30 75 23 76 24 77 28 78
REMARK SMILES IDX 31 79 25 80 26 81 29 82 27 83 53 84 54 85 62 86 55 87 56 88
REMARK SMILES IDX 60 89 63 90 57 91 58 92 61 93 59 94 38 95 39 96 47 97 40 98
REMARK SMILES IDX 41 99 45 100 48 101 42 102 43 103 46 104 44 105
REMARK H PARENT 5 6 75 12 75 13 9 39 68 58 36 69
REMARK Flexibility Score: inf
ROOT
ATOM      1  C   UNL A   1      33.481  32.159  27.826  1.00  0.00     0.042 C 
ENDROOT
BRANCH   1   2
ATOM      2  C   UNL A   1      33.639  30.773  27.226  1.00  0.00     0.118 C 
BRANCH   2   3
ATOM      3  N   UNL A   1      32.871  29.710  27.808  1.00  0.00    -0.351 N 
ATOM      4  C   UNL A   1      32.628  28.439  27.378  1.00  0.00     0.281 C 
ATOM      5  O   UNL A   1      31.843  27.819  28.113  1.00  0.00    -0.268 OA
ATOM      6  H   UNL A   1      32.448  29.936  28.667  1.00  0.00     0.163 HD
BRANCH   4   7
ATOM      7  C   UNL A   1      33.232  27.734  26.083  1.00  0.00     0.186 C 
ATOM      8  C   UNL A   1      34.632  28.379  25.886  1.00  0.00     0.091 C 
ATOM      9  N   UNL A   1      33.427  26.238  26.238  1.00  0.00    -0.314 N 
ATOM     10  C   UNL A   1      32.509  27.807  24.768  1.00  0.00     0.170 C 
ATOM     11  C   UNL A   1      32.529  25.504  25.246  1.00  0.00     0.236 C 
ATOM     12  H   UNL A   1      33.181  25.959  27.188  1.00  0.00     0.348 HD
ATOM     13  H   UNL A   1      34.402  26.000  26.055  1.00  0.00     0.348 HD
ATOM     14  C   UNL A   1      31.629  26.576  24.701  1.00  0.00     0.177 C 
ATOM     15  C   UNL A   1      31.551  28.859  24.349  1.00  0.00     0.244 C 
ATOM     16  C   UNL A   1      33.303  24.707  24.194  1.00  0.00     0.232 C 
ATOM     17  C   UNL A   1      31.824  24.381  26.036  1.00  0.00     0.232 C 
ATOM     18  C   UNL A   1      30.960  26.830  23.389  1.00  0.00     0.245 C 
ATOM     19  N   UNL A   1      30.767  28.219  23.386  1.00  0.00    -0.250 N 
ATOM     20  O   UNL A   1      31.511  29.996  24.771  1.00  0.00    -0.273 OA
ATOM     21  O   UNL A   1      34.092  25.155  23.383  1.00  0.00    -0.286 OA
ATOM     22  C   UNL A   1      32.977  23.276  24.350  1.00  0.00     0.036 A 
ATOM     23  C   UNL A   1      32.136  23.103  25.436  1.00  0.00     0.036 A 
ATOM     24  O   UNL A   1      31.134  24.434  27.037  1.00  0.00    -0.286 OA
ATOM     25  O   UNL A   1      30.527  25.967  22.648  1.00  0.00    -0.273 OA
ATOM     26  C   UNL A   1      33.394  22.179  23.620  1.00  0.00     0.013 A 
ATOM     27  C   UNL A   1      31.694  21.864  25.869  1.00  0.00     0.013 A 
ATOM     28  C   UNL A   1      32.946  20.910  24.026  1.00  0.00     0.001 A 
ATOM     29  C   UNL A   1      32.109  20.752  25.147  1.00  0.00     0.001 A 
BRANCH  19  30
ATOM     30  C   UNL A   1      29.716  28.903  22.752  1.00  0.00     0.052 A 
ATOM     31  C   UNL A   1      30.002  29.904  21.816  1.00  0.00     0.027 A 
ATOM     32  C   UNL A   1      28.399  28.721  23.189  1.00  0.00     0.027 A 
ATOM     33  C   UNL A   1      28.980  30.707  21.309  1.00  0.00     0.002 A 
ATOM     34  C   UNL A   1      27.387  29.563  22.719  1.00  0.00     0.002 A 
ATOM     35  C   UNL A   1      27.676  30.548  21.774  1.00  0.00     0.000 A 
ENDBRANCH  19  30
ENDBRANCH   4   7
ENDBRANCH   2   3
ENDBRANCH   1   2
BRANCH   1  36
ATOM     36  C   UNL A   1      32.301  32.922  27.265  1.00  0.00     0.118 C 
BRANCH  36  37
ATOM     37  N   UNL A   1      32.278  34.326  27.682  1.00  0.00    -0.352 N 
ATOM     38  C   UNL A   1      32.977  35.056  28.619  1.00  0.00     0.251 C 
ATOM     39  H   UNL A   1      31.619  34.864  27.186  1.00  0.00     0.163 HD
ATOM     40  O   UNL A   1      32.621  36.215  28.831  1.00  0.00    -0.269 OA
BRANCH  38  41
ATOM     41  C   UNL A   1      34.101  34.497  29.417  1.00  0.00     0.039 A 
ATOM     42  C   UNL A   1      35.420  34.554  28.990  1.00  0.00     0.014 A 
ATOM     43  C   UNL A   1      33.837  33.919  30.669  1.00  0.00     0.014 A 
ATOM     44  C   UNL A   1      36.410  33.837  29.650  1.00  0.00     0.010 A 
ATOM     45  C   UNL A   1      34.869  33.333  31.421  1.00  0.00     0.010 A 
ATOM     46  C   UNL A   1      36.160  33.227  30.887  1.00  0.00    -0.014 A 
BRANCH  46  47
ATOM     47  C   UNL A   1      37.272  32.512  31.578  1.00  0.00     0.031 A 
ATOM     48  C   UNL A   1      38.040  31.416  30.885  1.00  0.00     0.074 A 
ATOM     49  C   UNL A   1      37.647  32.904  32.813  1.00  0.00     0.049 A 
ATOM     50  N   UNL A   1      39.048  30.705  31.331  1.00  0.00    -0.248 NA
ATOM     51  C   UNL A   1      37.620  31.061  29.522  1.00  0.00     0.031 C 
ATOM     52  C   UNL A   1      36.992  33.954  33.595  1.00  0.00     0.029 A 
ATOM     53  N   UNL A   1      38.691  32.506  33.611  1.00  0.00    -0.354 N 
ATOM     54  C   UNL A   1      39.353  29.800  30.322  1.00  0.00     0.074 A 
ATOM     55  C   UNL A   1      38.407  30.028  29.252  1.00  0.00     0.031 C 
ATOM     56  C   UNL A   1      37.696  34.179  34.712  1.00  0.00     0.029 A 
ATOM     57  C   UNL A   1      38.796  33.223  34.778  1.00  0.00     0.049 A 
ATOM     58  H   UNL A   1      39.305  31.774  33.371  1.00  0.00     0.167 HD
ATOM     59  C   UNL A   1      40.340  28.871  30.287  1.00  0.00     0.037 A 
ATOM     60  C   UNL A   1      39.661  33.118  35.805  1.00  0.00     0.037 A 
ATOM     61  C   UNL A   1      41.308  28.674  31.337  1.00  0.00     0.049 A 
ATOM     62  C   UNL A   1      40.727  32.064  35.756  1.00  0.00     0.074 A 
ATOM     63  C   UNL A   1      42.370  27.788  31.372  1.00  0.00     0.029 A 
ATOM     64  N   UNL A   1      41.332  29.376  32.534  1.00  0.00    -0.354 N 
ATOM     65  N   UNL A   1      41.001  31.216  34.797  1.00  0.00    -0.248 NA
ATOM     66  C   UNL A   1      41.589  31.938  36.938  1.00  0.00     0.031 C 
ATOM     67  C   UNL A   1      43.005  27.915  32.612  1.00  0.00     0.029 A 
ATOM     68  C   UNL A   1      42.373  28.919  33.328  1.00  0.00     0.049 A 
ATOM     69  H   UNL A   1      40.704  30.091  32.782  1.00  0.00     0.167 HD
ATOM     70  C   UNL A   1      42.064  30.451  35.255  1.00  0.00     0.074 A 
ATOM     71  C   UNL A   1      42.403  30.957  36.571  1.00  0.00     0.031 C 
ATOM     72  C   UNL A   1      42.693  29.420  34.642  1.00  0.00     0.037 A 
BRANCH  59  73
ATOM     73  C   UNL A   1      40.414  27.975  29.082  1.00  0.00     0.064 A 
ATOM     74  C   UNL A   1      39.698  26.771  29.005  1.00  0.00     0.173 A 
ATOM     75  C   UNL A   1      41.184  28.349  27.968  1.00  0.00     0.173 A 
ATOM     76  F   UNL A   1      38.958  26.357  30.044  1.00  0.00    -0.203 F 
ATOM     77  C   UNL A   1      39.773  25.962  27.873  1.00  0.00     0.198 A 
ATOM     78  C   UNL A   1      41.229  27.555  26.826  1.00  0.00     0.198 A 
ATOM     79  F   UNL A   1      41.883  29.494  27.984  1.00  0.00    -0.203 F 
ATOM     80  F   UNL A   1      39.125  24.789  27.847  1.00  0.00    -0.200 F 
ATOM     81  C   UNL A   1      40.532  26.358  26.782  1.00  0.00     0.200 A 
ATOM     82  F   UNL A   1      41.953  27.947  25.767  1.00  0.00    -0.200 F 
ATOM     83  F   UNL A   1      40.596  25.582  25.691  1.00  0.00    -0.200 F 
ENDBRANCH  59  73
BRANCH  60  84
ATOM     84  C   UNL A   1      39.527  34.043  36.961  1.00  0.00     0.064 A 
ATOM     85  C   UNL A   1      38.788  33.678  38.093  1.00  0.00     0.173 A 
ATOM     86  C   UNL A   1      40.201  35.274  36.987  1.00  0.00     0.173 A 
ATOM     87  F   UNL A   1      38.109  32.522  38.107  1.00  0.00    -0.203 F 
ATOM     88  C   UNL A   1      38.740  34.504  39.215  1.00  0.00     0.198 A 
ATOM     89  C   UNL A   1      40.178  36.083  38.120  1.00  0.00     0.198 A 
ATOM     90  F   UNL A   1      40.926  35.665  35.928  1.00  0.00    -0.203 F 
ATOM     91  F   UNL A   1      38.017  34.140  40.282  1.00  0.00    -0.200 F 
ATOM     92  C   UNL A   1      39.447  35.699  39.233  1.00  0.00     0.200 A 
ATOM     93  F   UNL A   1      40.881  37.224  38.139  1.00  0.00    -0.200 F 
ATOM     94  F   UNL A   1      39.427  36.475  40.324  1.00  0.00    -0.200 F 
ENDBRANCH  60  84
BRANCH  72  95
ATOM     95  C   UNL A   1      43.815  28.757  35.385  1.00  0.00     0.064 A 
ATOM     96  C   UNL A   1      45.144  29.173  35.221  1.00  0.00     0.173 A 
ATOM     97  C   UNL A   1      43.552  27.742  36.318  1.00  0.00     0.173 A 
ATOM     98  F   UNL A   1      45.448  30.128  34.330  1.00  0.00    -0.203 F 
ATOM     99  C   UNL A   1      46.171  28.589  35.957  1.00  0.00     0.198 A 
ATOM    100  C   UNL A   1      44.579  27.182  37.073  1.00  0.00     0.198 A 
ATOM    101  F   UNL A   1      42.297  27.312  36.515  1.00  0.00    -0.203 F 
ATOM    102  F   UNL A   1      47.438  28.980  35.762  1.00  0.00    -0.200 F 
ATOM    103  C   UNL A   1      45.887  27.603  36.889  1.00  0.00     0.200 A 
ATOM    104  F   UNL A   1      44.300  26.238  37.983  1.00  0.00    -0.200 F 
ATOM    105  F   UNL A   1      46.875  27.055  37.610  1.00  0.00    -0.200 F 
ENDBRANCH  72  95
ENDBRANCH  46  47
ENDBRANCH  38  41
ENDBRANCH  36  37
ENDBRANCH   1  36
TORSDOF 11
ENDMDL
