MODEL 1
REMARK VINA RESULT:     -12.6      0.000      0.000
REMARK SMILES O=C(NCCCNC(=O)[C@H]1C=C[C@H](N2C(=O)[C@H]3C[C@H]3C2=O)C1)c1ccc(-c2c3nc(c(-c4c(F)c(F)c(F)c(F)c4F)c4ccc([nH]4)c(-c4c(F)c(F)c(F)c(F)c4F)c4nc(c(-c5c(F)c(F)c(F)c(F)c5F)c5ccc2[nH]5)C=C4)C=C3)cc1
REMARK SMILES IDX 4 1 3 2 1 3 2 4 23 6 24 7 85 8 25 9 84 10 26 11 27 12 28 13
REMARK SMILES IDX 78 14 29 15 83 16 77 17 79 18 30 19 82 20 76 21 75 22 31 24
REMARK SMILES IDX 63 25 43 26 62 27 44 28 47 29 61 30 80 31 45 32 46 33 60 35
REMARK SMILES IDX 81 36 48 37 32 38 33 39 41 40 34 41 35 42 39 43 42 44 36 45
REMARK SMILES IDX 37 46 40 47 38 48 64 49 65 50 73 51 66 52 67 53 71 54 74 55
REMARK SMILES IDX 68 56 69 57 72 58 70 59 49 60 50 61 58 62 51 63 52 64 56 65
REMARK SMILES IDX 59 66 53 67 54 68 57 69 55 70 5 71 6 72 7 73 8 74 9 76 10 77
REMARK SMILES IDX 11 78 22 79 12 80 13 81 14 82 15 83 20 84 16 85 17 86 19 87
REMARK SMILES IDX 21 88 18 89
REMARK H PARENT 3 5 79 23 47 34 7 75
REMARK Flexibility Score: inf
ROOT
ATOM      1  C   UNL A   1      39.104  20.137  25.751  1.00  0.00     0.118 C 
ENDROOT
BRANCH   1   2
ATOM      2  N   UNL A   1      40.168  19.166  25.963  1.00  0.00    -0.352 N 
ATOM      3  O   UNL A   1      42.263  18.370  26.064  1.00  0.00    -0.269 OA
ATOM      4  C   UNL A   1      41.517  19.343  26.126  1.00  0.00     0.251 C 
ATOM      5  H   UNL A   1      39.868  18.228  25.994  1.00  0.00     0.163 HD
BRANCH   4   6
ATOM      6  C   UNL A   1      42.089  20.683  26.379  1.00  0.00     0.039 A 
ATOM      7  C   UNL A   1      42.348  21.573  25.333  1.00  0.00     0.014 A 
ATOM      8  C   UNL A   1      42.278  21.094  27.704  1.00  0.00     0.014 A 
ATOM      9  C   UNL A   1      42.883  22.831  25.604  1.00  0.00     0.010 A 
ATOM     10  C   UNL A   1      42.749  22.380  27.979  1.00  0.00     0.010 A 
ATOM     11  C   UNL A   1      43.067  23.255  26.929  1.00  0.00    -0.014 A 
BRANCH  11  12
ATOM     12  C   UNL A   1      43.503  24.647  27.204  1.00  0.00     0.031 A 
ATOM     13  C   UNL A   1      42.547  25.664  27.753  1.00  0.00     0.074 A 
ATOM     14  C   UNL A   1      44.780  24.988  26.937  1.00  0.00     0.049 A 
ATOM     15  N   UNL A   1      42.758  26.926  28.034  1.00  0.00    -0.248 NA
ATOM     16  C   UNL A   1      41.173  25.213  28.014  1.00  0.00     0.031 C 
ATOM     17  C   UNL A   1      45.791  24.089  26.378  1.00  0.00     0.029 A 
ATOM     18  N   UNL A   1      45.445  26.177  27.098  1.00  0.00    -0.354 N 
ATOM     19  C   UNL A   1      41.544  27.423  28.488  1.00  0.00     0.074 A 
ATOM     20  C   UNL A   1      40.593  26.333  28.426  1.00  0.00     0.031 C 
ATOM     21  C   UNL A   1      46.952  24.750  26.262  1.00  0.00     0.029 A 
ATOM     22  C   UNL A   1      46.755  26.131  26.687  1.00  0.00     0.049 A 
ATOM     23  H   UNL A   1      45.025  26.985  27.471  1.00  0.00     0.167 HD
ATOM     24  C   UNL A   1      41.258  28.673  28.922  1.00  0.00     0.037 A 
ATOM     25  C   UNL A   1      47.687  27.100  26.634  1.00  0.00     0.037 A 
ATOM     26  C   UNL A   1      42.216  29.746  29.001  1.00  0.00     0.049 A 
ATOM     27  C   UNL A   1      47.331  28.483  27.099  1.00  0.00     0.074 A 
ATOM     28  C   UNL A   1      42.041  31.025  29.501  1.00  0.00     0.029 A 
ATOM     29  N   UNL A   1      43.528  29.668  28.557  1.00  0.00    -0.354 N 
ATOM     30  N   UNL A   1      46.199  28.922  27.591  1.00  0.00    -0.248 NA
ATOM     31  C   UNL A   1      48.380  29.507  26.997  1.00  0.00     0.031 C 
ATOM     32  C   UNL A   1      43.229  31.737  29.311  1.00  0.00     0.029 A 
ATOM     33  C   UNL A   1      44.161  30.888  28.737  1.00  0.00     0.049 A 
ATOM     34  H   UNL A   1      43.948  28.865  28.171  1.00  0.00     0.167 HD
ATOM     35  C   UNL A   1      46.399  30.266  27.868  1.00  0.00     0.074 A 
ATOM     36  C   UNL A   1      47.771  30.567  27.510  1.00  0.00     0.031 C 
ATOM     37  C   UNL A   1      45.525  31.171  28.369  1.00  0.00     0.037 A 
BRANCH  24  38
ATOM     38  C   UNL A   1      39.846  28.967  29.337  1.00  0.00     0.064 A 
ATOM     39  C   UNL A   1      38.890  29.435  28.424  1.00  0.00     0.173 A 
ATOM     40  C   UNL A   1      39.427  28.711  30.652  1.00  0.00     0.173 A 
ATOM     41  F   UNL A   1      39.241  29.703  27.158  1.00  0.00    -0.203 F 
ATOM     42  C   UNL A   1      37.570  29.648  28.815  1.00  0.00     0.198 A 
ATOM     43  C   UNL A   1      38.102  28.903  31.034  1.00  0.00     0.198 A 
ATOM     44  F   UNL A   1      40.301  28.256  31.563  1.00  0.00    -0.203 F 
ATOM     45  F   UNL A   1      36.680  30.124  27.933  1.00  0.00    -0.200 F 
ATOM     46  C   UNL A   1      37.175  29.375  30.117  1.00  0.00     0.200 A 
ATOM     47  F   UNL A   1      37.720  28.626  32.289  1.00  0.00    -0.200 F 
ATOM     48  F   UNL A   1      35.903  29.570  30.488  1.00  0.00    -0.200 F 
ENDBRANCH  24  38
BRANCH  25  49
ATOM     49  C   UNL A   1      49.039  26.793  26.101  1.00  0.00     0.064 A 
ATOM     50  C   UNL A   1      49.349  26.999  24.751  1.00  0.00     0.173 A 
ATOM     51  C   UNL A   1      50.052  26.296  26.935  1.00  0.00     0.173 A 
ATOM     52  F   UNL A   1      48.409  27.453  23.909  1.00  0.00    -0.203 F 
ATOM     53  C   UNL A   1      50.616  26.703  24.251  1.00  0.00     0.198 A 
ATOM     54  C   UNL A   1      51.326  26.031  26.442  1.00  0.00     0.198 A 
ATOM     55  F   UNL A   1      49.806  26.086  28.238  1.00  0.00    -0.203 F 
ATOM     56  F   UNL A   1      50.876  26.870  22.947  1.00  0.00    -0.200 F 
ATOM     57  C   UNL A   1      51.606  26.227  25.099  1.00  0.00     0.200 A 
ATOM     58  F   UNL A   1      52.283  25.584  27.268  1.00  0.00    -0.200 F 
ATOM     59  F   UNL A   1      52.826  25.951  24.619  1.00  0.00    -0.200 F 
ENDBRANCH  25  49
BRANCH  37  60
ATOM     60  C   UNL A   1      46.028  32.569  28.569  1.00  0.00     0.064 A 
ATOM     61  C   UNL A   1      46.662  32.954  29.759  1.00  0.00     0.173 A 
ATOM     62  C   UNL A   1      45.911  33.523  27.546  1.00  0.00     0.173 A 
ATOM     63  F   UNL A   1      46.782  32.083  30.772  1.00  0.00    -0.203 F 
ATOM     64  C   UNL A   1      47.146  34.250  29.925  1.00  0.00     0.198 A 
ATOM     65  C   UNL A   1      46.419  34.809  27.705  1.00  0.00     0.198 A 
ATOM     66  F   UNL A   1      45.316  33.201  26.388  1.00  0.00    -0.203 F 
ATOM     67  F   UNL A   1      47.710  34.608  31.086  1.00  0.00    -0.200 F 
ATOM     68  C   UNL A   1      47.029  35.172  28.896  1.00  0.00     0.200 A 
ATOM     69  F   UNL A   1      46.317  35.696  26.707  1.00  0.00    -0.200 F 
ATOM     70  F   UNL A   1      47.502  36.416  29.055  1.00  0.00    -0.200 F 
ENDBRANCH  37  60
ENDBRANCH  11  12
ENDBRANCH   4   6
ENDBRANCH   1   2
BRANCH   1  71
ATOM     71  C   UNL A   1      37.974  19.578  24.891  1.00  0.00     0.042 C 
BRANCH  71  72
ATOM     72  C   UNL A   1      36.669  20.366  25.001  1.00  0.00     0.117 C 
BRANCH  72  73
ATOM     73  N   UNL A   1      35.504  19.504  24.944  1.00  0.00    -0.356 N 
ATOM     74  C   UNL A   1      34.173  19.749  25.001  1.00  0.00     0.227 C 
ATOM     75  H   UNL A   1      35.726  18.550  24.844  1.00  0.00     0.163 HD
ATOM     76  O   UNL A   1      33.441  18.753  24.935  1.00  0.00    -0.274 OA
BRANCH  74  77
ATOM     77  C   UNL A   1      33.539  21.142  25.117  1.00  0.00     0.103 C 
ATOM     78  C   UNL A   1      32.089  21.390  24.836  1.00  0.00    -0.016 C 
ATOM     79  C   UNL A   1      33.636  21.627  26.580  1.00  0.00     0.047 C 
ATOM     80  C   UNL A   1      31.542  22.199  25.751  1.00  0.00    -0.005 C 
ATOM     81  C   UNL A   1      32.571  22.725  26.722  1.00  0.00     0.117 C 
BRANCH  81  82
ATOM     82  N   UNL A   1      32.908  24.068  26.263  1.00  0.00    -0.275 N 
ATOM     83  C   UNL A   1      31.970  25.074  26.267  1.00  0.00     0.233 C 
ATOM     84  C   UNL A   1      34.113  24.495  25.778  1.00  0.00     0.233 C 
ATOM     85  O   UNL A   1      30.848  25.071  26.741  1.00  0.00    -0.274 OA
ATOM     86  C   UNL A   1      32.516  26.242  25.532  1.00  0.00     0.092 C 
ATOM     87  C   UNL A   1      33.951  25.861  25.214  1.00  0.00     0.092 C 
ATOM     88  O   UNL A   1      35.193  23.931  25.751  1.00  0.00    -0.274 OA
ATOM     89  C   UNL A   1      33.653  27.068  26.059  1.00  0.00     0.028 C 
ENDBRANCH  81  82
ENDBRANCH  74  77
ENDBRANCH  72  73
ENDBRANCH  71  72
ENDBRANCH   1  71
TORSDOF 11
ENDMDL
MODEL 2
REMARK VINA RESULT:     -12.6      0.050      1.154
REMARK SMILES O=C(NCCCNC(=O)[C@H]1C=C[C@H](N2C(=O)[C@H]3C[C@H]3C2=O)C1)c1ccc(-c2c3nc(c(-c4c(F)c(F)c(F)c(F)c4F)c4ccc([nH]4)c(-c4c(F)c(F)c(F)c(F)c4F)c4nc(c(-c5c(F)c(F)c(F)c(F)c5F)c5ccc2[nH]5)C=C4)C=C3)cc1
REMARK SMILES IDX 4 1 3 2 1 3 2 4 23 6 24 7 85 8 25 9 84 10 26 11 27 12 28 13
REMARK SMILES IDX 78 14 29 15 83 16 77 17 79 18 30 19 82 20 76 21 75 22 31 24
REMARK SMILES IDX 63 25 43 26 62 27 44 28 47 29 61 30 80 31 45 32 46 33 60 35
REMARK SMILES IDX 81 36 48 37 32 38 33 39 41 40 34 41 35 42 39 43 42 44 36 45
REMARK SMILES IDX 37 46 40 47 38 48 64 49 65 50 73 51 66 52 67 53 71 54 74 55
REMARK SMILES IDX 68 56 69 57 72 58 70 59 49 60 50 61 58 62 51 63 52 64 56 65
REMARK SMILES IDX 59 66 53 67 54 68 57 69 55 70 5 71 6 72 7 73 8 74 9 76 10 77
REMARK SMILES IDX 11 78 22 79 12 80 13 81 14 82 15 83 20 84 16 85 17 86 19 87
REMARK SMILES IDX 21 88 18 89
REMARK H PARENT 3 5 79 23 47 34 7 75
REMARK Flexibility Score: inf
ROOT
ATOM      1  C   UNL A   1      39.084  20.140  25.751  1.00  0.00     0.118 C 
ENDROOT
BRANCH   1   2
ATOM      2  N   UNL A   1      40.146  19.169  25.967  1.00  0.00    -0.352 N 
ATOM      3  O   UNL A   1      42.241  18.371  26.072  1.00  0.00    -0.269 OA
ATOM      4  C   UNL A   1      41.495  19.345  26.131  1.00  0.00     0.251 C 
ATOM      5  H   UNL A   1      39.846  18.231  26.000  1.00  0.00     0.163 HD
BRANCH   4   6
ATOM      6  C   UNL A   1      42.068  20.686  26.382  1.00  0.00     0.039 A 
ATOM      7  C   UNL A   1      42.309  21.581  25.336  1.00  0.00     0.014 A 
ATOM      8  C   UNL A   1      42.278  21.090  27.705  1.00  0.00     0.014 A 
ATOM      9  C   UNL A   1      42.845  22.839  25.604  1.00  0.00     0.010 A 
ATOM     10  C   UNL A   1      42.751  22.376  27.978  1.00  0.00     0.010 A 
ATOM     11  C   UNL A   1      43.049  23.257  26.927  1.00  0.00    -0.014 A 
BRANCH  11  12
ATOM     12  C   UNL A   1      43.487  24.649  27.202  1.00  0.00     0.031 A 
ATOM     13  C   UNL A   1      42.532  25.667  27.752  1.00  0.00     0.074 A 
ATOM     14  C   UNL A   1      44.763  24.990  26.934  1.00  0.00     0.049 A 
ATOM     15  N   UNL A   1      42.744  26.928  28.033  1.00  0.00    -0.248 NA
ATOM     16  C   UNL A   1      41.157  25.217  28.014  1.00  0.00     0.031 C 
ATOM     17  C   UNL A   1      45.773  24.090  26.374  1.00  0.00     0.029 A 
ATOM     18  N   UNL A   1      45.429  26.177  27.094  1.00  0.00    -0.354 N 
ATOM     19  C   UNL A   1      41.530  27.426  28.488  1.00  0.00     0.074 A 
ATOM     20  C   UNL A   1      40.579  26.337  28.427  1.00  0.00     0.031 C 
ATOM     21  C   UNL A   1      46.934  24.750  26.256  1.00  0.00     0.029 A 
ATOM     22  C   UNL A   1      46.739  26.131  26.681  1.00  0.00     0.049 A 
ATOM     23  H   UNL A   1      45.010  26.986  27.468  1.00  0.00     0.167 HD
ATOM     24  C   UNL A   1      41.245  28.676  28.922  1.00  0.00     0.037 A 
ATOM     25  C   UNL A   1      47.672  27.099  26.627  1.00  0.00     0.037 A 
ATOM     26  C   UNL A   1      42.204  29.749  29.000  1.00  0.00     0.049 A 
ATOM     27  C   UNL A   1      47.317  28.483  27.093  1.00  0.00     0.074 A 
ATOM     28  C   UNL A   1      42.031  31.028  29.501  1.00  0.00     0.029 A 
ATOM     29  N   UNL A   1      43.516  29.670  28.555  1.00  0.00    -0.354 N 
ATOM     30  N   UNL A   1      46.186  28.922  27.586  1.00  0.00    -0.248 NA
ATOM     31  C   UNL A   1      48.366  29.505  26.990  1.00  0.00     0.031 C 
ATOM     32  C   UNL A   1      43.219  31.739  29.309  1.00  0.00     0.029 A 
ATOM     33  C   UNL A   1      44.150  30.890  28.734  1.00  0.00     0.049 A 
ATOM     34  H   UNL A   1      43.935  28.867  28.169  1.00  0.00     0.167 HD
ATOM     35  C   UNL A   1      46.387  30.266  27.863  1.00  0.00     0.074 A 
ATOM     36  C   UNL A   1      47.758  30.566  27.504  1.00  0.00     0.031 C 
ATOM     37  C   UNL A   1      45.514  31.172  28.365  1.00  0.00     0.037 A 
BRANCH  24  38
ATOM     38  C   UNL A   1      39.835  28.971  29.339  1.00  0.00     0.064 A 
ATOM     39  C   UNL A   1      38.877  29.437  28.426  1.00  0.00     0.173 A 
ATOM     40  C   UNL A   1      39.417  28.717  30.655  1.00  0.00     0.173 A 
ATOM     41  F   UNL A   1      39.226  29.703  27.159  1.00  0.00    -0.203 F 
ATOM     42  C   UNL A   1      37.558  29.651  28.819  1.00  0.00     0.198 A 
ATOM     43  C   UNL A   1      38.093  28.910  31.039  1.00  0.00     0.198 A 
ATOM     44  F   UNL A   1      40.292  28.264  31.566  1.00  0.00    -0.203 F 
ATOM     45  F   UNL A   1      36.667  30.126  27.937  1.00  0.00    -0.200 F 
ATOM     46  C   UNL A   1      37.165  29.381  30.122  1.00  0.00     0.200 A 
ATOM     47  F   UNL A   1      37.713  28.636  32.294  1.00  0.00    -0.200 F 
ATOM     48  F   UNL A   1      35.893  29.577  30.494  1.00  0.00    -0.200 F 
ENDBRANCH  24  38
BRANCH  25  49
ATOM     49  C   UNL A   1      49.023  26.791  26.094  1.00  0.00     0.064 A 
ATOM     50  C   UNL A   1      49.332  26.999  24.743  1.00  0.00     0.173 A 
ATOM     51  C   UNL A   1      50.035  26.292  26.926  1.00  0.00     0.173 A 
ATOM     52  F   UNL A   1      48.392  27.456  23.903  1.00  0.00    -0.203 F 
ATOM     53  C   UNL A   1      50.599  26.703  24.242  1.00  0.00     0.198 A 
ATOM     54  C   UNL A   1      51.309  26.025  26.432  1.00  0.00     0.198 A 
ATOM     55  F   UNL A   1      49.790  26.079  28.228  1.00  0.00    -0.203 F 
ATOM     56  F   UNL A   1      50.857  26.872  22.938  1.00  0.00    -0.200 F 
ATOM     57  C   UNL A   1      51.589  26.224  25.088  1.00  0.00     0.200 A 
ATOM     58  F   UNL A   1      52.266  25.576  27.256  1.00  0.00    -0.200 F 
ATOM     59  F   UNL A   1      52.808  25.947  24.607  1.00  0.00    -0.200 F 
ENDBRANCH  25  49
BRANCH  37  60
ATOM     60  C   UNL A   1      46.018  32.569  28.564  1.00  0.00     0.064 A 
ATOM     61  C   UNL A   1      45.878  33.546  27.567  1.00  0.00     0.173 A 
ATOM     62  C   UNL A   1      46.612  32.947  29.778  1.00  0.00     0.173 A 
ATOM     63  F   UNL A   1      45.333  33.228  26.384  1.00  0.00    -0.203 F 
ATOM     64  C   UNL A   1      46.330  34.847  27.772  1.00  0.00     0.198 A 
ATOM     65  C   UNL A   1      47.039  34.255  29.989  1.00  0.00     0.198 A 
ATOM     66  F   UNL A   1      46.766  32.050  30.763  1.00  0.00    -0.203 F 
ATOM     67  F   UNL A   1      46.224  35.753  26.791  1.00  0.00    -0.200 F 
ATOM     68  C   UNL A   1      46.904  35.201  28.985  1.00  0.00     0.200 A 
ATOM     69  F   UNL A   1      47.582  34.600  31.164  1.00  0.00    -0.200 F 
ATOM     70  F   UNL A   1      47.332  36.455  29.183  1.00  0.00    -0.200 F 
ENDBRANCH  37  60
ENDBRANCH  11  12
ENDBRANCH   4   6
ENDBRANCH   1   2
BRANCH   1  71
ATOM     71  C   UNL A   1      37.953  19.579  24.893  1.00  0.00     0.042 C 
BRANCH  71  72
ATOM     72  C   UNL A   1      36.649  20.369  25.001  1.00  0.00     0.117 C 
BRANCH  72  73
ATOM     73  N   UNL A   1      35.484  19.507  24.966  1.00  0.00    -0.356 N 
ATOM     74  C   UNL A   1      34.153  19.751  25.038  1.00  0.00     0.227 C 
ATOM     75  H   UNL A   1      35.705  18.552  24.872  1.00  0.00     0.163 HD
ATOM     76  O   UNL A   1      33.421  18.755  24.990  1.00  0.00    -0.274 OA
BRANCH  74  77
ATOM     77  C   UNL A   1      33.520  21.145  25.149  1.00  0.00     0.103 C 
ATOM     78  C   UNL A   1      32.076  21.398  24.842  1.00  0.00    -0.016 C 
ATOM     79  C   UNL A   1      33.590  21.622  26.617  1.00  0.00     0.047 C 
ATOM     80  C   UNL A   1      31.514  22.203  25.751  1.00  0.00    -0.005 C 
ATOM     81  C   UNL A   1      32.525  22.722  26.744  1.00  0.00     0.117 C 
BRANCH  81  82
ATOM     82  N   UNL A   1      32.874  24.067  26.299  1.00  0.00    -0.275 N 
ATOM     83  C   UNL A   1      31.948  25.083  26.327  1.00  0.00     0.233 C 
ATOM     84  C   UNL A   1      34.079  24.485  25.807  1.00  0.00     0.233 C 
ATOM     85  O   UNL A   1      30.832  25.088  26.812  1.00  0.00    -0.274 OA
ATOM     86  C   UNL A   1      32.500  26.254  25.600  1.00  0.00     0.092 C 
ATOM     87  C   UNL A   1      33.927  25.860  25.263  1.00  0.00     0.092 C 
ATOM     88  O   UNL A   1      35.151  23.908  25.760  1.00  0.00    -0.274 OA
ATOM     89  C   UNL A   1      33.653  27.059  26.126  1.00  0.00     0.028 C 
ENDBRANCH  81  82
ENDBRANCH  74  77
ENDBRANCH  72  73
ENDBRANCH  71  72
ENDBRANCH   1  71
TORSDOF 11
ENDMDL
MODEL 3
REMARK VINA RESULT:     -12.6      5.834     11.375
REMARK SMILES O=C(NCCCNC(=O)[C@H]1C=C[C@H](N2C(=O)[C@H]3C[C@H]3C2=O)C1)c1ccc(-c2c3nc(c(-c4c(F)c(F)c(F)c(F)c4F)c4ccc([nH]4)c(-c4c(F)c(F)c(F)c(F)c4F)c4nc(c(-c5c(F)c(F)c(F)c(F)c5F)c5ccc2[nH]5)C=C4)C=C3)cc1
REMARK SMILES IDX 4 1 3 2 1 3 2 4 23 6 24 7 85 8 25 9 84 10 26 11 27 12 28 13
REMARK SMILES IDX 78 14 29 15 83 16 77 17 79 18 30 19 82 20 76 21 75 22 31 24
REMARK SMILES IDX 63 25 43 26 62 27 44 28 47 29 61 30 80 31 45 32 46 33 60 35
REMARK SMILES IDX 81 36 48 37 32 38 33 39 41 40 34 41 35 42 39 43 42 44 36 45
REMARK SMILES IDX 37 46 40 47 38 48 64 49 65 50 73 51 66 52 67 53 71 54 74 55
REMARK SMILES IDX 68 56 69 57 72 58 70 59 49 60 50 61 58 62 51 63 52 64 56 65
REMARK SMILES IDX 59 66 53 67 54 68 57 69 55 70 5 71 6 72 7 73 8 74 9 76 10 77
REMARK SMILES IDX 11 78 22 79 12 80 13 81 14 82 15 83 20 84 16 85 17 86 19 87
REMARK SMILES IDX 21 88 18 89
REMARK H PARENT 3 5 79 23 47 34 7 75
REMARK Flexibility Score: inf
ROOT
ATOM      1  C   UNL A   1      32.486  32.628  27.221  1.00  0.00     0.118 C 
ENDROOT
BRANCH   1   2
ATOM      2  N   UNL A   1      32.419  34.046  27.541  1.00  0.00    -0.352 N 
ATOM      3  O   UNL A   1      32.684  35.916  28.751  1.00  0.00    -0.269 OA
ATOM      4  C   UNL A   1      33.059  34.772  28.511  1.00  0.00     0.251 C 
ATOM      5  H   UNL A   1      31.815  34.569  26.966  1.00  0.00     0.163 HD
BRANCH   4   6
ATOM      6  C   UNL A   1      34.194  34.203  29.271  1.00  0.00     0.039 A 
ATOM      7  C   UNL A   1      33.987  33.390  30.388  1.00  0.00     0.014 A 
ATOM      8  C   UNL A   1      35.493  34.411  28.794  1.00  0.00     0.014 A 
ATOM      9  C   UNL A   1      35.076  32.865  31.081  1.00  0.00     0.010 A 
ATOM     10  C   UNL A   1      36.582  33.829  29.447  1.00  0.00     0.010 A 
ATOM     11  C   UNL A   1      36.382  33.060  30.604  1.00  0.00    -0.014 A 
BRANCH  11  12
ATOM     12  C   UNL A   1      37.519  32.378  31.271  1.00  0.00     0.031 A 
ATOM     13  C   UNL A   1      38.223  31.226  30.616  1.00  0.00     0.074 A 
ATOM     14  C   UNL A   1      37.905  32.806  32.490  1.00  0.00     0.049 A 
ATOM     15  N   UNL A   1      39.222  30.508  31.066  1.00  0.00    -0.248 NA
ATOM     16  C   UNL A   1      37.741  30.818  29.289  1.00  0.00     0.031 C 
ATOM     17  C   UNL A   1      37.278  33.901  33.233  1.00  0.00     0.029 A 
ATOM     18  N   UNL A   1      38.910  32.376  33.317  1.00  0.00    -0.354 N 
ATOM     19  C   UNL A   1      39.476  29.556  30.088  1.00  0.00     0.074 A 
ATOM     20  C   UNL A   1      38.515  29.773  29.028  1.00  0.00     0.031 C 
ATOM     21  C   UNL A   1      37.924  34.071  34.395  1.00  0.00     0.029 A 
ATOM     22  C   UNL A   1      38.975  33.065  34.504  1.00  0.00     0.049 A 
ATOM     23  H   UNL A   1      39.525  31.643  33.085  1.00  0.00     0.167 HD
ATOM     24  C   UNL A   1      40.431  28.596  30.078  1.00  0.00     0.037 A 
ATOM     25  C   UNL A   1      39.774  32.890  35.572  1.00  0.00     0.037 A 
ATOM     26  C   UNL A   1      41.399  28.401  31.128  1.00  0.00     0.049 A 
ATOM     27  C   UNL A   1      40.807  31.800  35.542  1.00  0.00     0.074 A 
ATOM     28  C   UNL A   1      42.455  27.507  31.174  1.00  0.00     0.029 A 
ATOM     29  N   UNL A   1      41.421  29.105  32.323  1.00  0.00    -0.354 N 
ATOM     30  N   UNL A   1      41.083  30.952  34.581  1.00  0.00    -0.248 NA
ATOM     31  C   UNL A   1      41.637  31.639  36.743  1.00  0.00     0.031 C 
ATOM     32  C   UNL A   1      43.082  27.632  32.417  1.00  0.00     0.029 A 
ATOM     33  C   UNL A   1      42.449  28.637  33.128  1.00  0.00     0.049 A 
ATOM     34  H   UNL A   1      40.799  29.829  32.565  1.00  0.00     0.167 HD
ATOM     35  C   UNL A   1      42.122  30.165  35.055  1.00  0.00     0.074 A 
ATOM     36  C   UNL A   1      42.444  30.651  36.381  1.00  0.00     0.031 C 
ATOM     37  C   UNL A   1      42.750  29.129  34.449  1.00  0.00     0.037 A 
BRANCH  24  38
ATOM     38  C   UNL A   1      40.480  27.664  28.904  1.00  0.00     0.064 A 
ATOM     39  C   UNL A   1      39.689  26.508  28.845  1.00  0.00     0.173 A 
ATOM     40  C   UNL A   1      41.277  27.970  27.790  1.00  0.00     0.173 A 
ATOM     41  F   UNL A   1      38.915  26.166  29.886  1.00  0.00    -0.203 F 
ATOM     42  C   UNL A   1      39.706  25.685  27.721  1.00  0.00     0.198 A 
ATOM     43  C   UNL A   1      41.275  27.159  26.659  1.00  0.00     0.198 A 
ATOM     44  F   UNL A   1      42.048  29.069  27.792  1.00  0.00    -0.203 F 
ATOM     45  F   UNL A   1      38.965  24.568  27.699  1.00  0.00    -0.200 F 
ATOM     46  C   UNL A   1      40.492  26.014  26.627  1.00  0.00     0.200 A 
ATOM     47  F   UNL A   1      42.025  27.486  25.598  1.00  0.00    -0.200 F 
ATOM     48  F   UNL A   1      40.498  25.227  25.543  1.00  0.00    -0.200 F 
ENDBRANCH  24  38
BRANCH  25  49
ATOM     49  C   UNL A   1      39.610  33.759  36.766  1.00  0.00     0.064 A 
ATOM     50  C   UNL A   1      40.276  34.988  36.863  1.00  0.00     0.173 A 
ATOM     51  C   UNL A   1      38.777  33.382  37.829  1.00  0.00     0.173 A 
ATOM     52  F   UNL A   1      41.100  35.383  35.880  1.00  0.00    -0.203 F 
ATOM     53  C   UNL A   1      40.127  35.799  37.986  1.00  0.00     0.198 A 
ATOM     54  C   UNL A   1      38.605  34.207  38.937  1.00  0.00     0.198 A 
ATOM     55  F   UNL A   1      38.115  32.215  37.782  1.00  0.00    -0.203 F 
ATOM     56  F   UNL A   1      40.807  36.951  38.073  1.00  0.00    -0.200 F 
ATOM     57  C   UNL A   1      39.286  35.412  39.019  1.00  0.00     0.200 A 
ATOM     58  F   UNL A   1      37.780  33.834  39.926  1.00  0.00    -0.200 F 
ATOM     59  F   UNL A   1      39.137  36.196  40.095  1.00  0.00    -0.200 F 
ENDBRANCH  25  49
BRANCH  37  60
ATOM     60  C   UNL A   1      43.855  28.460  35.209  1.00  0.00     0.064 A 
ATOM     61  C   UNL A   1      45.178  28.920  35.134  1.00  0.00     0.173 A 
ATOM     62  C   UNL A   1      43.582  27.372  36.053  1.00  0.00     0.173 A 
ATOM     63  F   UNL A   1      45.490  29.945  34.327  1.00  0.00    -0.203 F 
ATOM     64  C   UNL A   1      46.191  28.303  35.862  1.00  0.00     0.198 A 
ATOM     65  C   UNL A   1      44.594  26.775  36.800  1.00  0.00     0.198 A 
ATOM     66  F   UNL A   1      42.332  26.898  36.162  1.00  0.00    -0.203 F 
ATOM     67  F   UNL A   1      47.455  28.733  35.743  1.00  0.00    -0.200 F 
ATOM     68  C   UNL A   1      45.897  27.237  36.699  1.00  0.00     0.200 A 
ATOM     69  F   UNL A   1      44.307  25.753  37.617  1.00  0.00    -0.200 F 
ATOM     70  F   UNL A   1      46.873  26.650  37.406  1.00  0.00    -0.200 F 
ENDBRANCH  37  60
ENDBRANCH  11  12
ENDBRANCH   4   6
ENDBRANCH   1   2
BRANCH   1  71
ATOM     71  C   UNL A   1      31.211  32.125  26.550  1.00  0.00     0.042 C 
BRANCH  71  72
ATOM     72  C   UNL A   1      31.403  30.834  25.753  1.00  0.00     0.117 C 
BRANCH  72  73
ATOM     73  N   UNL A   1      30.497  30.751  24.624  1.00  0.00    -0.356 N 
ATOM     74  C   UNL A   1      30.278  29.798  23.685  1.00  0.00     0.227 C 
ATOM     75  H   UNL A   1      29.925  31.546  24.519  1.00  0.00     0.163 HD
ATOM     76  O   UNL A   1      29.418  30.068  22.838  1.00  0.00    -0.274 OA
BRANCH  74  77
ATOM     77  C   UNL A   1      30.995  28.442  23.626  1.00  0.00     0.103 C 
ATOM     78  C   UNL A   1      30.507  27.313  22.772  1.00  0.00    -0.016 C 
ATOM     79  C   UNL A   1      32.417  28.640  23.057  1.00  0.00     0.047 C 
ATOM     80  C   UNL A   1      31.515  26.709  22.132  1.00  0.00    -0.005 C 
ATOM     81  C   UNL A   1      32.857  27.257  22.555  1.00  0.00     0.117 C 
BRANCH  81  82
ATOM     82  N   UNL A   1      33.389  26.312  23.531  1.00  0.00    -0.275 N 
ATOM     83  C   UNL A   1      33.662  25.011  23.180  1.00  0.00     0.233 C 
ATOM     84  C   UNL A   1      33.659  26.554  24.849  1.00  0.00     0.233 C 
ATOM     85  O   UNL A   1      33.653  24.499  22.075  1.00  0.00    -0.274 OA
ATOM     86  C   UNL A   1      33.953  24.234  24.410  1.00  0.00     0.092 C 
ATOM     87  C   UNL A   1      33.962  25.265  25.525  1.00  0.00     0.092 C 
ATOM     88  O   UNL A   1      33.665  27.602  25.470  1.00  0.00    -0.274 OA
ATOM     89  C   UNL A   1      35.191  24.453  25.230  1.00  0.00     0.028 C 
ENDBRANCH  81  82
ENDBRANCH  74  77
ENDBRANCH  72  73
ENDBRANCH  71  72
ENDBRANCH   1  71
TORSDOF 11
ENDMDL
