MODEL 1
REMARK VINA RESULT:     -13.5      0.000      0.000
REMARK SMILES COc1ccc2c(c1)CC[C@@](C)(CCC(=O)NCCCNC(=O)c1ccc(-c3c4nc(c(-c5c(F)c(F)c(F)c(F)c5F)c5ccc([nH]5)c(-c5c(F)c(F)c(F)c(F)c5F)c5nc(c(-c6c(F)c(F)c(F)c(F)c6F)c6ccc3[nH]6)C=C5)C=C4)cc1)C2=O
REMARK SMILES IDX 18 1 17 2 15 3 16 4 14 6 13 7 11 8 3 9 4 10 8 11 5 12 7 13
REMARK SMILES IDX 6 14 9 15 87 16 10 17 88 18 12 19 2 20 1 21 19 22 20 23
REMARK SMILES IDX 21 24 22 25 23 27 24 28 25 29 86 30 26 31 85 32 27 33 28 34
REMARK SMILES IDX 29 35 79 36 30 37 84 38 78 39 80 40 31 41 83 42 77 43 76 44
REMARK SMILES IDX 32 46 64 47 44 48 63 49 45 50 48 51 62 52 81 53 46 54 47 55
REMARK SMILES IDX 61 57 82 58 49 59 33 60 34 61 42 62 35 63 36 64 40 65 43 66
REMARK SMILES IDX 37 67 38 68 41 69 39 70 65 71 66 72 74 73 67 74 68 75 72 76
REMARK SMILES IDX 75 77 69 78 70 79 73 80 71 81 50 82 51 83 59 84 52 85 53 86
REMARK SMILES IDX 57 87 60 88 54 89 55 90 58 91 56 92
REMARK H PARENT 17 5 21 26 80 45 48 56
REMARK Flexibility Score: inf
ROOT
ATOM      1  C   UNL A   1      33.730  27.684  24.393  1.00  0.00     0.117 C 
ENDROOT
BRANCH   1   2
ATOM      2  N   UNL A   1      33.416  27.231  23.048  1.00  0.00    -0.356 N 
ATOM      3  C   UNL A   1      33.626  26.017  22.465  1.00  0.00     0.220 C 
ATOM      4  O   UNL A   1      33.451  25.910  21.251  1.00  0.00    -0.275 OA
ATOM      5  H   UNL A   1      32.987  27.904  22.471  1.00  0.00     0.163 HD
BRANCH   3   6
ATOM      6  C   UNL A   1      33.976  24.812  23.318  1.00  0.00     0.101 C 
BRANCH   6   7
ATOM      7  C   UNL A   1      33.498  23.446  22.792  1.00  0.00     0.025 C 
BRANCH   7   8
ATOM      8  C   UNL A   1      33.165  22.296  23.816  1.00  0.00     0.032 C 
ATOM      9  C   UNL A   1      33.889  17.141  23.956  1.00  0.00     0.119 A 
ATOM     10  C   UNL A   1      32.857  17.340  23.048  1.00  0.00     0.047 A 
ATOM     11  C   UNL A   1      34.338  18.198  24.743  1.00  0.00     0.050 A 
ATOM     12  C   UNL A   1      32.384  18.625  22.804  1.00  0.00     0.016 A 
ATOM     13  C   UNL A   1      33.837  19.493  24.536  1.00  0.00    -0.033 A 
ATOM     14  C   UNL A   1      32.919  19.712  23.503  1.00  0.00     0.022 A 
ATOM     15  C   UNL A   1      34.206  20.611  25.464  1.00  0.00     0.037 C 
ATOM     16  C   UNL A   1      32.543  21.092  23.089  1.00  0.00     0.169 C 
ATOM     17  C   UNL A   1      34.381  21.905  24.684  1.00  0.00     0.020 C 
ATOM     18  O   UNL A   1      31.721  21.234  22.184  1.00  0.00    -0.294 OA
ATOM     19  C   UNL A   1      32.015  22.792  24.730  1.00  0.00     0.020 C 
BRANCH   9  20
ATOM     20  O   UNL A   1      34.406  15.893  24.168  1.00  0.00    -0.497 OA
ATOM     21  C   UNL A   1      35.174  15.836  25.376  1.00  0.00     0.278 C 
ENDBRANCH   9  20
ENDBRANCH   7   8
ENDBRANCH   6   7
ENDBRANCH   3   6
ENDBRANCH   1   2
BRANCH   1  22
ATOM     22  C   UNL A   1      33.095  29.053  24.664  1.00  0.00     0.042 C 
BRANCH  22  23
ATOM     23  C   UNL A   1      32.381  29.150  26.009  1.00  0.00     0.118 C 
BRANCH  23  24
ATOM     24  N   UNL A   1      32.188  30.520  26.455  1.00  0.00    -0.352 N 
ATOM     25  C   UNL A   1      32.939  31.464  27.115  1.00  0.00     0.251 C 
ATOM     26  H   UNL A   1      31.293  30.859  26.225  1.00  0.00     0.163 HD
ATOM     27  O   UNL A   1      32.411  32.565  27.240  1.00  0.00    -0.269 OA
BRANCH  25  28
ATOM     28  C   UNL A   1      34.300  31.263  27.714  1.00  0.00     0.039 A 
ATOM     29  C   UNL A   1      35.251  32.252  27.951  1.00  0.00     0.014 A 
ATOM     30  C   UNL A   1      34.649  29.933  28.050  1.00  0.00     0.014 A 
ATOM     31  C   UNL A   1      36.509  31.926  28.487  1.00  0.00     0.010 A 
ATOM     32  C   UNL A   1      35.904  29.599  28.586  1.00  0.00     0.010 A 
ATOM     33  C   UNL A   1      36.845  30.602  28.816  1.00  0.00    -0.014 A 
BRANCH  33  34
ATOM     34  C   UNL A   1      38.077  30.350  29.606  1.00  0.00     0.031 A 
ATOM     35  C   UNL A   1      38.249  30.812  31.020  1.00  0.00     0.074 A 
ATOM     36  C   UNL A   1      39.031  29.605  29.017  1.00  0.00     0.049 A 
ATOM     37  N   UNL A   1      39.160  30.453  31.892  1.00  0.00    -0.248 NA
ATOM     38  C   UNL A   1      37.296  31.809  31.523  1.00  0.00     0.031 C 
ATOM     39  C   UNL A   1      38.982  29.148  27.627  1.00  0.00     0.029 A 
ATOM     40  N   UNL A   1      40.192  29.064  29.507  1.00  0.00    -0.354 N 
ATOM     41  C   UNL A   1      38.878  31.157  33.055  1.00  0.00     0.074 A 
ATOM     42  C   UNL A   1      37.736  32.000  32.763  1.00  0.00     0.031 C 
ATOM     43  C   UNL A   1      40.023  28.338  27.396  1.00  0.00     0.029 A 
ATOM     44  C   UNL A   1      40.822  28.233  28.612  1.00  0.00     0.049 A 
ATOM     45  H   UNL A   1      40.539  29.252  30.409  1.00  0.00     0.167 HD
ATOM     46  C   UNL A   1      39.511  31.084  34.251  1.00  0.00     0.037 A 
ATOM     47  C   UNL A   1      41.903  27.444  28.761  1.00  0.00     0.037 A 
ATOM     48  C   UNL A   1      40.655  30.242  34.516  1.00  0.00     0.049 A 
ATOM     49  C   UNL A   1      42.579  27.376  30.099  1.00  0.00     0.074 A 
ATOM     50  C   UNL A   1      41.333  30.059  35.710  1.00  0.00     0.029 A 
ATOM     51  N   UNL A   1      41.296  29.453  33.571  1.00  0.00    -0.354 N 
ATOM     52  N   UNL A   1      42.246  27.969  31.219  1.00  0.00    -0.248 NA
ATOM     53  C   UNL A   1      43.774  26.528  30.199  1.00  0.00     0.031 C 
ATOM     54  C   UNL A   1      42.415  29.206  35.476  1.00  0.00     0.029 A 
ATOM     55  C   UNL A   1      42.381  28.809  34.149  1.00  0.00     0.049 A 
ATOM     56  H   UNL A   1      41.022  29.363  32.630  1.00  0.00     0.167 HD
ATOM     57  C   UNL A   1      43.180  27.559  32.159  1.00  0.00     0.074 A 
ATOM     58  C   UNL A   1      44.083  26.651  31.483  1.00  0.00     0.031 C 
ATOM     59  C   UNL A   1      43.276  27.911  33.464  1.00  0.00     0.037 A 
BRANCH  46  60
ATOM     60  C   UNL A   1      38.991  31.914  35.393  1.00  0.00     0.064 A 
ATOM     61  C   UNL A   1      38.195  31.349  36.399  1.00  0.00     0.173 A 
ATOM     62  C   UNL A   1      39.403  33.247  35.555  1.00  0.00     0.173 A 
ATOM     63  F   UNL A   1      37.778  30.079  36.298  1.00  0.00    -0.203 F 
ATOM     64  C   UNL A   1      37.827  32.088  37.523  1.00  0.00     0.198 A 
ATOM     65  C   UNL A   1      39.055  33.973  36.692  1.00  0.00     0.198 A 
ATOM     66  F   UNL A   1      40.182  33.831  34.633  1.00  0.00    -0.203 F 
ATOM     67  F   UNL A   1      37.055  31.529  38.466  1.00  0.00    -0.200 F 
ATOM     68  C   UNL A   1      38.266  33.395  37.674  1.00  0.00     0.200 A 
ATOM     69  F   UNL A   1      39.498  35.230  36.846  1.00  0.00    -0.200 F 
ATOM     70  F   UNL A   1      37.935  34.092  38.769  1.00  0.00    -0.200 F 
ENDBRANCH  46  60
BRANCH  47  71
ATOM     71  C   UNL A   1      42.346  26.610  27.615  1.00  0.00     0.064 A 
ATOM     72  C   UNL A   1      43.367  27.046  26.760  1.00  0.00     0.173 A 
ATOM     73  C   UNL A   1      41.819  25.327  27.405  1.00  0.00     0.173 A 
ATOM     74  F   UNL A   1      43.895  28.268  26.915  1.00  0.00    -0.203 F 
ATOM     75  C   UNL A   1      43.847  26.226  25.740  1.00  0.00     0.198 A 
ATOM     76  C   UNL A   1      42.319  24.499  26.405  1.00  0.00     0.198 A 
ATOM     77  F   UNL A   1      40.849  24.861  28.206  1.00  0.00    -0.203 F 
ATOM     78  F   UNL A   1      44.814  26.672  24.927  1.00  0.00    -0.200 F 
ATOM     79  C   UNL A   1      43.333  24.950  25.572  1.00  0.00     0.200 A 
ATOM     80  F   UNL A   1      41.836  23.258  26.261  1.00  0.00    -0.200 F 
ATOM     81  F   UNL A   1      43.816  24.152  24.610  1.00  0.00    -0.200 F 
ENDBRANCH  47  71
BRANCH  59  82
ATOM     82  C   UNL A   1      44.401  27.320  34.259  1.00  0.00     0.064 A 
ATOM     83  C   UNL A   1      44.260  26.089  34.918  1.00  0.00     0.173 A 
ATOM     84  C   UNL A   1      45.660  27.939  34.285  1.00  0.00     0.173 A 
ATOM     85  F   UNL A   1      43.073  25.465  34.932  1.00  0.00    -0.203 F 
ATOM     86  C   UNL A   1      45.337  25.504  35.576  1.00  0.00     0.198 A 
ATOM     87  C   UNL A   1      46.741  27.339  34.924  1.00  0.00     0.198 A 
ATOM     88  F   UNL A   1      45.847  29.114  33.664  1.00  0.00    -0.203 F 
ATOM     89  F   UNL A   1      45.174  24.339  36.218  1.00  0.00    -0.200 F 
ATOM     90  C   UNL A   1      46.578  26.122  35.570  1.00  0.00     0.200 A 
ATOM     91  F   UNL A   1      47.943  27.931  34.903  1.00  0.00    -0.200 F 
ATOM     92  F   UNL A   1      47.620  25.546  36.185  1.00  0.00    -0.200 F 
ENDBRANCH  59  82
ENDBRANCH  33  34
ENDBRANCH  25  28
ENDBRANCH  23  24
ENDBRANCH  22  23
ENDBRANCH   1  22
TORSDOF 13
ENDMDL
MODEL 2
REMARK VINA RESULT:     -13.5      2.806      4.607
REMARK SMILES COc1ccc2c(c1)CC[C@@](C)(CCC(=O)NCCCNC(=O)c1ccc(-c3c4nc(c(-c5c(F)c(F)c(F)c(F)c5F)c5ccc([nH]5)c(-c5c(F)c(F)c(F)c(F)c5F)c5nc(c(-c6c(F)c(F)c(F)c(F)c6F)c6ccc3[nH]6)C=C5)C=C4)cc1)C2=O
REMARK SMILES IDX 18 1 17 2 15 3 16 4 14 6 13 7 11 8 3 9 4 10 8 11 5 12 7 13
REMARK SMILES IDX 6 14 9 15 87 16 10 17 88 18 12 19 2 20 1 21 19 22 20 23
REMARK SMILES IDX 21 24 22 25 23 27 24 28 25 29 86 30 26 31 85 32 27 33 28 34
REMARK SMILES IDX 29 35 79 36 30 37 84 38 78 39 80 40 31 41 83 42 77 43 76 44
REMARK SMILES IDX 32 46 64 47 44 48 63 49 45 50 48 51 62 52 81 53 46 54 47 55
REMARK SMILES IDX 61 57 82 58 49 59 33 60 34 61 42 62 35 63 36 64 40 65 43 66
REMARK SMILES IDX 37 67 38 68 41 69 39 70 65 71 66 72 74 73 67 74 68 75 72 76
REMARK SMILES IDX 75 77 69 78 70 79 73 80 71 81 50 82 51 83 59 84 52 85 53 86
REMARK SMILES IDX 57 87 60 88 54 89 55 90 58 91 56 92
REMARK H PARENT 17 5 21 26 80 45 48 56
REMARK Flexibility Score: inf
ROOT
ATOM      1  C   UNL A   1      32.025  28.335  27.420  1.00  0.00     0.117 C 
ENDROOT
BRANCH   1   2
ATOM      2  N   UNL A   1      31.390  27.029  27.370  1.00  0.00    -0.356 N 
ATOM      3  C   UNL A   1      31.611  25.983  26.523  1.00  0.00     0.220 C 
ATOM      4  O   UNL A   1      30.826  25.035  26.543  1.00  0.00    -0.275 OA
ATOM      5  H   UNL A   1      30.694  26.877  28.049  1.00  0.00     0.163 HD
BRANCH   3   6
ATOM      6  C   UNL A   1      32.852  25.957  25.651  1.00  0.00     0.101 C 
BRANCH   6   7
ATOM      7  C   UNL A   1      32.659  25.449  24.211  1.00  0.00     0.025 C 
BRANCH   7   8
ATOM      8  C   UNL A   1      32.037  26.411  23.128  1.00  0.00     0.032 C 
ATOM      9  C   UNL A   1      28.358  30.097  23.129  1.00  0.00     0.119 A 
ATOM     10  C   UNL A   1      27.670  28.894  23.209  1.00  0.00     0.047 A 
ATOM     11  C   UNL A   1      29.725  30.101  22.864  1.00  0.00     0.050 A 
ATOM     12  C   UNL A   1      28.367  27.691  23.190  1.00  0.00     0.016 A 
ATOM     13  C   UNL A   1      30.434  28.891  22.799  1.00  0.00    -0.033 A 
ATOM     14  C   UNL A   1      29.759  27.690  23.049  1.00  0.00     0.022 A 
ATOM     15  C   UNL A   1      31.873  28.870  22.378  1.00  0.00     0.037 C 
ATOM     16  C   UNL A   1      30.503  26.413  23.229  1.00  0.00     0.169 C 
ATOM     17  C   UNL A   1      32.640  27.831  23.181  1.00  0.00     0.020 C 
ATOM     18  O   UNL A   1      29.864  25.381  23.433  1.00  0.00    -0.294 OA
ATOM     19  C   UNL A   1      32.301  25.789  21.732  1.00  0.00     0.020 C 
BRANCH   9  20
ATOM     20  O   UNL A   1      27.697  31.291  23.203  1.00  0.00    -0.497 OA
ATOM     21  C   UNL A   1      28.149  32.211  22.203  1.00  0.00     0.278 C 
ENDBRANCH   9  20
ENDBRANCH   7   8
ENDBRANCH   6   7
ENDBRANCH   3   6
ENDBRANCH   1   2
BRANCH   1  22
ATOM     22  C   UNL A   1      31.430  29.266  26.357  1.00  0.00     0.042 C 
BRANCH  22  23
ATOM     23  C   UNL A   1      32.400  30.331  25.853  1.00  0.00     0.118 C 
BRANCH  23  24
ATOM     24  N   UNL A   1      32.239  31.612  26.522  1.00  0.00    -0.352 N 
ATOM     25  C   UNL A   1      33.007  32.406  27.340  1.00  0.00     0.251 C 
ATOM     26  H   UNL A   1      31.358  32.012  26.344  1.00  0.00     0.163 HD
ATOM     27  O   UNL A   1      32.509  33.487  27.644  1.00  0.00    -0.269 OA
BRANCH  25  28
ATOM     28  C   UNL A   1      34.353  32.065  27.910  1.00  0.00     0.039 A 
ATOM     29  C   UNL A   1      35.449  32.919  28.003  1.00  0.00     0.014 A 
ATOM     30  C   UNL A   1      34.518  30.741  28.380  1.00  0.00     0.014 A 
ATOM     31  C   UNL A   1      36.671  32.463  28.528  1.00  0.00     0.010 A 
ATOM     32  C   UNL A   1      35.736  30.279  28.906  1.00  0.00     0.010 A 
ATOM     33  C   UNL A   1      36.825  31.145  28.991  1.00  0.00    -0.014 A 
BRANCH  33  34
ATOM     34  C   UNL A   1      38.045  30.794  29.761  1.00  0.00     0.031 A 
ATOM     35  C   UNL A   1      38.260  31.206  31.184  1.00  0.00     0.074 A 
ATOM     36  C   UNL A   1      38.944  30.005  29.143  1.00  0.00     0.049 A 
ATOM     37  N   UNL A   1      39.153  30.767  32.037  1.00  0.00    -0.248 NA
ATOM     38  C   UNL A   1      37.378  32.250  31.723  1.00  0.00     0.031 C 
ATOM     39  C   UNL A   1      38.853  29.588  27.743  1.00  0.00     0.029 A 
ATOM     40  N   UNL A   1      40.072  29.377  29.607  1.00  0.00    -0.354 N 
ATOM     41  C   UNL A   1      38.927  31.457  33.221  1.00  0.00     0.074 A 
ATOM     42  C   UNL A   1      37.840  32.379  32.963  1.00  0.00     0.031 C 
ATOM     43  C   UNL A   1      39.837  28.719  27.480  1.00  0.00     0.029 A 
ATOM     44  C   UNL A   1      40.638  28.531  28.685  1.00  0.00     0.049 A 
ATOM     45  H   UNL A   1      40.438  29.518  30.509  1.00  0.00     0.167 HD
ATOM     46  C   UNL A   1      39.565  31.312  34.408  1.00  0.00     0.037 A 
ATOM     47  C   UNL A   1      41.667  27.670  28.802  1.00  0.00     0.037 A 
ATOM     48  C   UNL A   1      40.654  30.391  34.639  1.00  0.00     0.049 A 
ATOM     49  C   UNL A   1      42.348  27.523  30.130  1.00  0.00     0.074 A 
ATOM     50  C   UNL A   1      41.330  30.134  35.821  1.00  0.00     0.029 A 
ATOM     51  N   UNL A   1      41.235  29.588  33.668  1.00  0.00    -0.354 N 
ATOM     52  N   UNL A   1      42.065  28.107  31.268  1.00  0.00    -0.248 NA
ATOM     53  C   UNL A   1      43.487  26.597  30.196  1.00  0.00     0.031 C 
ATOM     54  C   UNL A   1      42.352  29.219  35.553  1.00  0.00     0.029 A 
ATOM     55  C   UNL A   1      42.280  28.860  34.217  1.00  0.00     0.049 A 
ATOM     56  H   UNL A   1      40.946  29.540  32.727  1.00  0.00     0.167 HD
ATOM     57  C   UNL A   1      42.978  27.613  32.188  1.00  0.00     0.074 A 
ATOM     58  C   UNL A   1      43.814  26.667  31.479  1.00  0.00     0.031 C 
ATOM     59  C   UNL A   1      43.109  27.924  33.500  1.00  0.00     0.037 A 
BRANCH  46  60
ATOM     60  C   UNL A   1      39.110  32.144  35.575  1.00  0.00     0.064 A 
ATOM     61  C   UNL A   1      38.311  31.598  36.590  1.00  0.00     0.173 A 
ATOM     62  C   UNL A   1      39.589  33.453  35.753  1.00  0.00     0.173 A 
ATOM     63  F   UNL A   1      37.832  30.351  36.475  1.00  0.00    -0.203 F 
ATOM     64  C   UNL A   1      38.003  32.332  37.735  1.00  0.00     0.198 A 
ATOM     65  C   UNL A   1      39.300  34.173  36.910  1.00  0.00     0.198 A 
ATOM     66  F   UNL A   1      40.374  34.017  34.823  1.00  0.00    -0.203 F 
ATOM     67  F   UNL A   1      37.226  31.793  38.685  1.00  0.00    -0.200 F 
ATOM     68  C   UNL A   1      38.507  33.614  37.899  1.00  0.00     0.200 A 
ATOM     69  F   UNL A   1      39.806  35.404  37.076  1.00  0.00    -0.200 F 
ATOM     70  F   UNL A   1      38.233  34.305  39.013  1.00  0.00    -0.200 F 
ENDBRANCH  46  60
BRANCH  47  71
ATOM     71  C   UNL A   1      42.044  26.839  27.631  1.00  0.00     0.064 A 
ATOM     72  C   UNL A   1      43.042  27.260  26.742  1.00  0.00     0.173 A 
ATOM     73  C   UNL A   1      41.478  25.572  27.426  1.00  0.00     0.173 A 
ATOM     74  F   UNL A   1      43.607  28.467  26.890  1.00  0.00    -0.203 F 
ATOM     75  C   UNL A   1      43.463  26.441  25.695  1.00  0.00     0.198 A 
ATOM     76  C   UNL A   1      41.918  24.744  26.398  1.00  0.00     0.198 A 
ATOM     77  F   UNL A   1      40.527  25.121  28.259  1.00  0.00    -0.203 F 
ATOM     78  F   UNL A   1      44.409  26.872  24.849  1.00  0.00    -0.200 F 
ATOM     79  C   UNL A   1      42.910  25.180  25.532  1.00  0.00     0.200 A 
ATOM     80  F   UNL A   1      41.399  23.517  26.259  1.00  0.00    -0.200 F 
ATOM     81  F   UNL A   1      43.336  24.382  24.543  1.00  0.00    -0.200 F 
ENDBRANCH  47  71
BRANCH  59  82
ATOM     82  C   UNL A   1      44.201  27.240  34.268  1.00  0.00     0.064 A 
ATOM     83  C   UNL A   1      45.458  27.839  34.437  1.00  0.00     0.173 A 
ATOM     84  C   UNL A   1      43.959  26.022  34.920  1.00  0.00     0.173 A 
ATOM     85  F   UNL A   1      45.741  28.997  33.822  1.00  0.00    -0.203 F 
ATOM     86  C   UNL A   1      46.434  27.240  35.227  1.00  0.00     0.198 A 
ATOM     87  C   UNL A   1      44.929  25.438  35.730  1.00  0.00     0.198 A 
ATOM     88  F   UNL A   1      42.770  25.413  34.796  1.00  0.00    -0.203 F 
ATOM     89  F   UNL A   1      47.636  27.819  35.357  1.00  0.00    -0.200 F 
ATOM     90  C   UNL A   1      46.166  26.047  35.882  1.00  0.00     0.200 A 
ATOM     91  F   UNL A   1      44.663  24.294  36.373  1.00  0.00    -0.200 F 
ATOM     92  F   UNL A   1      47.099  25.483  36.661  1.00  0.00    -0.200 F 
ENDBRANCH  59  82
ENDBRANCH  33  34
ENDBRANCH  25  28
ENDBRANCH  23  24
ENDBRANCH  22  23
ENDBRANCH   1  22
TORSDOF 13
ENDMDL
MODEL 3
REMARK VINA RESULT:     -13.4      2.978      7.547
REMARK SMILES COc1ccc2c(c1)CC[C@@](C)(CCC(=O)NCCCNC(=O)c1ccc(-c3c4nc(c(-c5c(F)c(F)c(F)c(F)c5F)c5ccc([nH]5)c(-c5c(F)c(F)c(F)c(F)c5F)c5nc(c(-c6c(F)c(F)c(F)c(F)c6F)c6ccc3[nH]6)C=C5)C=C4)cc1)C2=O
REMARK SMILES IDX 18 1 17 2 15 3 16 4 14 6 13 7 11 8 3 9 4 10 8 11 5 12 7 13
REMARK SMILES IDX 6 14 9 15 87 16 10 17 88 18 12 19 2 20 1 21 19 22 20 23
REMARK SMILES IDX 21 24 22 25 23 27 24 28 25 29 86 30 26 31 85 32 27 33 28 34
REMARK SMILES IDX 29 35 79 36 30 37 84 38 78 39 80 40 31 41 83 42 77 43 76 44
REMARK SMILES IDX 32 46 64 47 44 48 63 49 45 50 48 51 62 52 81 53 46 54 47 55
REMARK SMILES IDX 61 57 82 58 49 59 33 60 34 61 42 62 35 63 36 64 40 65 43 66
REMARK SMILES IDX 37 67 38 68 41 69 39 70 65 71 66 72 74 73 67 74 68 75 72 76
REMARK SMILES IDX 75 77 69 78 70 79 73 80 71 81 50 82 51 83 59 84 52 85 53 86
REMARK SMILES IDX 57 87 60 88 54 89 55 90 58 91 56 92
REMARK H PARENT 17 5 21 26 80 45 48 56
REMARK Flexibility Score: inf
ROOT
ATOM      1  C   UNL A   1      38.350  22.324  25.871  1.00  0.00     0.117 C 
ENDROOT
BRANCH   1   2
ATOM      2  N   UNL A   1      37.757  22.620  24.577  1.00  0.00    -0.356 N 
ATOM      3  C   UNL A   1      36.631  23.327  24.275  1.00  0.00     0.220 C 
ATOM      4  O   UNL A   1      36.211  23.296  23.118  1.00  0.00    -0.275 OA
ATOM      5  H   UNL A   1      38.242  22.255  23.802  1.00  0.00     0.163 HD
BRANCH   3   6
ATOM      6  C   UNL A   1      35.975  24.202  25.325  1.00  0.00     0.101 C 
BRANCH   6   7
ATOM      7  C   UNL A   1      34.458  24.421  25.176  1.00  0.00     0.025 C 
BRANCH   7   8
ATOM      8  C   UNL A   1      33.467  23.263  25.576  1.00  0.00     0.032 C 
ATOM      9  C   UNL A   1      32.830  18.288  24.173  1.00  0.00     0.119 A 
ATOM     10  C   UNL A   1      32.350  19.034  23.104  1.00  0.00     0.047 A 
ATOM     11  C   UNL A   1      33.144  18.917  25.375  1.00  0.00     0.050 A 
ATOM     12  C   UNL A   1      32.339  20.423  23.174  1.00  0.00     0.016 A 
ATOM     13  C   UNL A   1      33.096  20.317  25.472  1.00  0.00    -0.033 A 
ATOM     14  C   UNL A   1      32.773  21.068  24.336  1.00  0.00     0.022 A 
ATOM     15  C   UNL A   1      33.295  20.998  26.793  1.00  0.00     0.037 C 
ATOM     16  C   UNL A   1      32.941  22.548  24.321  1.00  0.00     0.169 C 
ATOM     17  C   UNL A   1      34.080  22.287  26.605  1.00  0.00     0.020 C 
ATOM     18  O   UNL A   1      32.631  23.167  23.303  1.00  0.00    -0.294 OA
ATOM     19  C   UNL A   1      32.193  23.913  26.175  1.00  0.00     0.020 C 
BRANCH   9  20
ATOM     20  O   UNL A   1      32.901  16.925  24.103  1.00  0.00    -0.497 OA
ATOM     21  C   UNL A   1      32.992  16.331  25.403  1.00  0.00     0.278 C 
ENDBRANCH   9  20
ENDBRANCH   7   8
ENDBRANCH   6   7
ENDBRANCH   3   6
ENDBRANCH   1   2
BRANCH   1  22
ATOM     22  C   UNL A   1      39.362  21.179  25.752  1.00  0.00     0.042 C 
BRANCH  22  23
ATOM     23  C   UNL A   1      40.670  21.428  26.496  1.00  0.00     0.118 C 
BRANCH  23  24
ATOM     24  N   UNL A   1      41.633  22.191  25.717  1.00  0.00    -0.352 N 
ATOM     25  C   UNL A   1      42.150  23.464  25.751  1.00  0.00     0.251 C 
ATOM     26  H   UNL A   1      42.012  21.660  24.980  1.00  0.00     0.163 HD
ATOM     27  O   UNL A   1      43.028  23.699  24.925  1.00  0.00    -0.269 OA
BRANCH  25  28
ATOM     28  C   UNL A   1      41.723  24.578  26.661  1.00  0.00     0.039 A 
ATOM     29  C   UNL A   1      40.697  24.527  27.601  1.00  0.00     0.014 A 
ATOM     30  C   UNL A   1      42.426  25.799  26.531  1.00  0.00     0.014 A 
ATOM     31  C   UNL A   1      40.372  25.658  28.371  1.00  0.00     0.010 A 
ATOM     32  C   UNL A   1      42.107  26.933  27.297  1.00  0.00     0.010 A 
ATOM     33  C   UNL A   1      41.076  26.866  28.233  1.00  0.00    -0.014 A 
BRANCH  33  34
ATOM     34  C   UNL A   1      40.862  27.939  29.237  1.00  0.00     0.031 A 
ATOM     35  C   UNL A   1      39.743  28.930  29.146  1.00  0.00     0.074 A 
ATOM     36  C   UNL A   1      41.686  27.945  30.302  1.00  0.00     0.049 A 
ATOM     37  N   UNL A   1      39.302  29.752  30.068  1.00  0.00    -0.248 NA
ATOM     38  C   UNL A   1      39.034  29.030  27.865  1.00  0.00     0.031 C 
ATOM     39  C   UNL A   1      42.836  27.055  30.461  1.00  0.00     0.029 A 
ATOM     40  N   UNL A   1      41.665  28.677  31.461  1.00  0.00    -0.354 N 
ATOM     41  C   UNL A   1      38.248  30.448  29.491  1.00  0.00     0.074 A 
ATOM     42  C   UNL A   1      38.144  29.984  28.122  1.00  0.00     0.031 C 
ATOM     43  C   UNL A   1      43.368  27.240  31.676  1.00  0.00     0.029 A 
ATOM     44  C   UNL A   1      42.610  28.273  32.374  1.00  0.00     0.049 A 
ATOM     45  H   UNL A   1      41.037  29.417  31.624  1.00  0.00     0.167 HD
ATOM     46  C   UNL A   1      37.441  31.373  30.066  1.00  0.00     0.037 A 
ATOM     47  C   UNL A   1      42.823  28.662  33.645  1.00  0.00     0.037 A 
ATOM     48  C   UNL A   1      37.570  31.827  31.432  1.00  0.00     0.049 A 
ATOM     49  C   UNL A   1      41.909  29.681  34.260  1.00  0.00     0.074 A 
ATOM     50  C   UNL A   1      36.769  32.722  32.122  1.00  0.00     0.029 A 
ATOM     51  N   UNL A   1      38.571  31.433  32.309  1.00  0.00    -0.354 N 
ATOM     52  N   UNL A   1      40.855  30.260  33.739  1.00  0.00    -0.248 NA
ATOM     53  C   UNL A   1      42.206  30.097  35.637  1.00  0.00     0.031 C 
ATOM     54  C   UNL A   1      37.314  32.911  33.395  1.00  0.00     0.029 A 
ATOM     55  C   UNL A   1      38.424  32.091  33.522  1.00  0.00     0.049 A 
ATOM     56  H   UNL A   1      39.279  30.781  32.103  1.00  0.00     0.167 HD
ATOM     57  C   UNL A   1      40.356  31.099  34.724  1.00  0.00     0.074 A 
ATOM     58  C   UNL A   1      41.211  30.939  35.881  1.00  0.00     0.031 C 
ATOM     59  C   UNL A   1      39.286  31.928  34.665  1.00  0.00     0.037 A 
BRANCH  46  60
ATOM     60  C   UNL A   1      36.324  31.961  29.250  1.00  0.00     0.064 A 
ATOM     61  C   UNL A   1      35.220  31.187  28.864  1.00  0.00     0.173 A 
ATOM     62  C   UNL A   1      36.289  33.337  28.969  1.00  0.00     0.173 A 
ATOM     63  F   UNL A   1      35.198  29.871  29.112  1.00  0.00    -0.203 F 
ATOM     64  C   UNL A   1      34.126  31.768  28.223  1.00  0.00     0.198 A 
ATOM     65  C   UNL A   1      35.183  33.917  28.352  1.00  0.00     0.198 A 
ATOM     66  F   UNL A   1      37.310  34.127  29.333  1.00  0.00    -0.203 F 
ATOM     67  F   UNL A   1      33.087  31.005  27.853  1.00  0.00    -0.200 F 
ATOM     68  C   UNL A   1      34.103  33.132  27.978  1.00  0.00     0.200 A 
ATOM     69  F   UNL A   1      35.154  35.240  28.135  1.00  0.00    -0.200 F 
ATOM     70  F   UNL A   1      33.037  33.691  27.389  1.00  0.00    -0.200 F 
ENDBRANCH  46  60
BRANCH  47  71
ATOM     71  C   UNL A   1      43.910  28.015  34.421  1.00  0.00     0.064 A 
ATOM     72  C   UNL A   1      45.180  28.601  34.507  1.00  0.00     0.173 A 
ATOM     73  C   UNL A   1      43.678  26.846  35.161  1.00  0.00     0.173 A 
ATOM     74  F   UNL A   1      45.453  29.714  33.810  1.00  0.00    -0.203 F 
ATOM     75  C   UNL A   1      46.175  28.044  35.308  1.00  0.00     0.198 A 
ATOM     76  C   UNL A   1      44.663  26.307  35.983  1.00  0.00     0.198 A 
ATOM     77  F   UNL A   1      42.474  26.255  35.120  1.00  0.00    -0.203 F 
ATOM     78  F   UNL A   1      47.386  28.616  35.363  1.00  0.00    -0.200 F 
ATOM     79  C   UNL A   1      45.912  26.906  36.055  1.00  0.00     0.200 A 
ATOM     80  F   UNL A   1      44.397  25.221  36.722  1.00  0.00    -0.200 F 
ATOM     81  F   UNL A   1      46.860  26.389  36.849  1.00  0.00    -0.200 F 
ENDBRANCH  47  71
BRANCH  59  82
ATOM     82  C   UNL A   1      38.970  32.738  35.887  1.00  0.00     0.064 A 
ATOM     83  C   UNL A   1      38.271  32.184  36.969  1.00  0.00     0.173 A 
ATOM     84  C   UNL A   1      39.454  34.049  36.018  1.00  0.00     0.173 A 
ATOM     85  F   UNL A   1      37.777  30.939  36.886  1.00  0.00    -0.203 F 
ATOM     86  C   UNL A   1      38.062  32.914  38.135  1.00  0.00     0.198 A 
ATOM     87  C   UNL A   1      39.265  34.767  37.195  1.00  0.00     0.198 A 
ATOM     88  F   UNL A   1      40.135  34.621  35.014  1.00  0.00    -0.203 F 
ATOM     89  F   UNL A   1      37.372  32.372  39.148  1.00  0.00    -0.200 F 
ATOM     90  C   UNL A   1      38.569  34.200  38.252  1.00  0.00     0.200 A 
ATOM     91  F   UNL A   1      39.768  36.004  37.312  1.00  0.00    -0.200 F 
ATOM     92  F   UNL A   1      38.387  34.893  39.385  1.00  0.00    -0.200 F 
ENDBRANCH  59  82
ENDBRANCH  33  34
ENDBRANCH  25  28
ENDBRANCH  23  24
ENDBRANCH  22  23
ENDBRANCH   1  22
TORSDOF 13
ENDMDL
