MODEL 1
REMARK VINA RESULT:     -11.7      0.000      0.000
REMARK SMILES CCCc1n[nH]c(C(=O)NC2(CC(=O)NCCCNC(=O)c3ccc(-c4c5nc(c(-c6c(F)c(F)c(F)c(F)c6F)c6ccc([nH]6)c(-c6c(F)c(F)c(F)c(F)c6F)c6nc(c(-c7c(F)c(F)c(F)c(F)c7F)c7ccc4[nH]7)C=C6)C=C5)cc3)CCC2)n1
REMARK SMILES IDX 13 1 14 2 15 3 12 5 11 6 85 7 87 8 86 9 10 10 8 11 9 12 7 14
REMARK SMILES IDX 4 15 5 16 88 17 6 18 3 20 2 21 1 22 16 23 17 24 18 25 19 26
REMARK SMILES IDX 20 27 21 29 22 30 23 31 84 32 24 33 83 34 25 35 26 36 27 37
REMARK SMILES IDX 77 38 28 39 82 40 76 41 78 42 29 43 81 44 75 45 74 46 30 48
REMARK SMILES IDX 62 49 42 50 61 51 43 52 46 53 60 54 79 55 44 56 45 57 59 59
REMARK SMILES IDX 80 60 47 61 31 62 32 63 40 64 33 65 34 66 38 67 41 68 35 69
REMARK SMILES IDX 36 70 39 71 37 72 63 73 64 74 72 75 65 76 66 77 70 78 73 79
REMARK SMILES IDX 67 80 68 81 71 82 69 83 48 84 49 85 57 86 50 87 51 88 55 89
REMARK SMILES IDX 58 90 52 91 53 92 56 93 54 94
REMARK H PARENT 15 4 10 13 6 19 19 28 78 47 46 58
REMARK Flexibility Score: inf
ROOT
ATOM      1  C   UNL A   1      32.601  29.283  25.334  1.00  0.00     0.222 C 
ATOM      2  O   UNL A   1      33.762  28.876  25.386  1.00  0.00    -0.275 OA
ATOM      3  N   UNL A   1      32.351  30.540  25.791  1.00  0.00    -0.356 N 
ATOM      4  H   UNL A   1      33.144  31.116  25.889  1.00  0.00     0.163 HD
ENDROOT
BRANCH   1   5
ATOM      5  C   UNL A   1      31.490  28.412  24.786  1.00  0.00     0.128 C 
BRANCH   5   6
ATOM      6  C   UNL A   1      31.200  28.542  23.276  1.00  0.00     0.049 C 
ATOM      7  C   UNL A   1      30.029  29.535  22.982  1.00  0.00     0.029 C 
ATOM      8  C   UNL A   1      30.228  27.500  22.606  1.00  0.00     0.029 C 
ATOM      9  C   UNL A   1      29.055  28.358  23.107  1.00  0.00     0.005 C 
BRANCH   6  10
ATOM     10  N   UNL A   1      32.497  28.623  22.546  1.00  0.00    -0.343 N 
ATOM     11  C   UNL A   1      33.490  27.742  22.156  1.00  0.00     0.289 C 
ATOM     12  O   UNL A   1      34.476  28.230  21.613  1.00  0.00    -0.266 OA
ATOM     13  H   UNL A   1      32.701  29.544  22.268  1.00  0.00     0.164 HD
BRANCH  11  14
ATOM     14  C   UNL A   1      33.427  26.337  22.454  1.00  0.00     0.214 A 
ATOM     15  C   UNL A   1      33.897  24.422  23.186  1.00  0.00     0.151 A 
ATOM     16  N   UNL A   1      33.450  24.157  21.952  1.00  0.00    -0.158 NA
ATOM     17  N   UNL A   1      33.729  25.725  23.575  1.00  0.00    -0.207 NA
ATOM     18  N   UNL A   1      33.094  25.387  21.531  1.00  0.00    -0.255 N 
ATOM     19  H   UNL A   1      32.651  25.576  20.671  1.00  0.00     0.192 HD
BRANCH  15  20
ATOM     20  C   UNL A   1      34.731  23.518  24.027  1.00  0.00     0.079 C 
BRANCH  20  21
ATOM     21  C   UNL A   1      35.500  24.145  25.184  1.00  0.00     0.005 C 
ATOM     22  C   UNL A   1      36.969  23.743  25.241  1.00  0.00     0.004 C 
ENDBRANCH  20  21
ENDBRANCH  15  20
ENDBRANCH  11  14
ENDBRANCH   6  10
ENDBRANCH   5   6
ENDBRANCH   1   5
BRANCH   3  23
ATOM     23  C   UNL A   1      31.089  31.160  26.153  1.00  0.00     0.117 C 
BRANCH  23  24
ATOM     24  C   UNL A   1      31.274  32.664  26.348  1.00  0.00     0.042 C 
BRANCH  24  25
ATOM     25  C   UNL A   1      32.485  33.046  27.179  1.00  0.00     0.118 C 
BRANCH  25  26
ATOM     26  N   UNL A   1      32.401  34.407  27.675  1.00  0.00    -0.352 N 
ATOM     27  C   UNL A   1      33.025  35.024  28.731  1.00  0.00     0.251 C 
ATOM     28  H   UNL A   1      31.792  34.989  27.166  1.00  0.00     0.163 HD
ATOM     29  O   UNL A   1      32.611  36.123  29.095  1.00  0.00    -0.269 OA
BRANCH  27  30
ATOM     30  C   UNL A   1      34.164  34.403  29.452  1.00  0.00     0.039 A 
ATOM     31  C   UNL A   1      35.450  34.549  28.915  1.00  0.00     0.014 A 
ATOM     32  C   UNL A   1      33.992  33.612  30.590  1.00  0.00     0.014 A 
ATOM     33  C   UNL A   1      36.550  33.944  29.535  1.00  0.00     0.010 A 
ATOM     34  C   UNL A   1      35.098  33.093  31.265  1.00  0.00     0.010 A 
ATOM     35  C   UNL A   1      36.387  33.232  30.733  1.00  0.00    -0.014 A 
BRANCH  35  36
ATOM     36  C   UNL A   1      37.540  32.588  31.416  1.00  0.00     0.031 A 
ATOM     37  C   UNL A   1      38.261  31.437  30.765  1.00  0.00     0.074 A 
ATOM     38  C   UNL A   1      37.908  32.996  32.647  1.00  0.00     0.049 A 
ATOM     39  N   UNL A   1      39.232  30.692  31.234  1.00  0.00    -0.248 NA
ATOM     40  C   UNL A   1      37.813  31.051  29.417  1.00  0.00     0.031 C 
ATOM     41  C   UNL A   1      37.267  34.070  33.407  1.00  0.00     0.029 A 
ATOM     42  N   UNL A   1      38.904  32.550  33.480  1.00  0.00    -0.354 N 
ATOM     43  C   UNL A   1      39.485  29.737  30.256  1.00  0.00     0.074 A 
ATOM     44  C   UNL A   1      38.537  29.966  29.187  1.00  0.00     0.031 C 
ATOM     45  C   UNL A   1      37.900  34.215  34.582  1.00  0.00     0.029 A 
ATOM     46  C   UNL A   1      38.965  33.221  34.675  1.00  0.00     0.049 A 
ATOM     47  H   UNL A   1      39.517  31.817  33.241  1.00  0.00     0.167 HD
ATOM     48  C   UNL A   1      40.434  28.772  30.239  1.00  0.00     0.037 A 
ATOM     49  C   UNL A   1      39.783  33.052  35.731  1.00  0.00     0.037 A 
ATOM     50  C   UNL A   1      41.408  28.575  31.280  1.00  0.00     0.049 A 
ATOM     51  C   UNL A   1      40.842  31.985  35.681  1.00  0.00     0.074 A 
ATOM     52  C   UNL A   1      42.459  27.676  31.320  1.00  0.00     0.029 A 
ATOM     53  N   UNL A   1      41.453  29.294  32.465  1.00  0.00    -0.354 N 
ATOM     54  N   UNL A   1      41.110  31.130  34.724  1.00  0.00    -0.248 NA
ATOM     55  C   UNL A   1      41.717  31.864  36.855  1.00  0.00     0.031 C 
ATOM     56  C   UNL A   1      43.115  27.822  32.547  1.00  0.00     0.029 A 
ATOM     57  C   UNL A   1      42.502  28.844  33.251  1.00  0.00     0.049 A 
ATOM     58  H   UNL A   1      40.831  30.017  32.711  1.00  0.00     0.167 HD
ATOM     59  C   UNL A   1      42.196  30.389  35.167  1.00  0.00     0.074 A 
ATOM     60  C   UNL A   1      42.548  30.904  36.474  1.00  0.00     0.031 C 
ATOM     61  C   UNL A   1      42.844  29.373  34.547  1.00  0.00     0.037 A 
BRANCH  48  62
ATOM     62  C   UNL A   1      40.474  27.852  29.052  1.00  0.00     0.064 A 
ATOM     63  C   UNL A   1      39.685  26.693  28.992  1.00  0.00     0.173 A 
ATOM     64  C   UNL A   1      41.279  28.155  27.944  1.00  0.00     0.173 A 
ATOM     65  F   UNL A   1      38.906  26.352  30.028  1.00  0.00    -0.203 F 
ATOM     66  C   UNL A   1      39.724  25.856  27.879  1.00  0.00     0.198 A 
ATOM     67  C   UNL A   1      41.293  27.332  26.821  1.00  0.00     0.198 A 
ATOM     68  F   UNL A   1      42.048  29.255  27.947  1.00  0.00    -0.203 F 
ATOM     69  F   UNL A   1      39.001  24.729  27.865  1.00  0.00    -0.200 F 
ATOM     70  C   UNL A   1      40.523  26.180  26.793  1.00  0.00     0.200 A 
ATOM     71  F   UNL A   1      42.056  27.654  25.766  1.00  0.00    -0.200 F 
ATOM     72  F   UNL A   1      40.554  25.378  25.720  1.00  0.00    -0.200 F 
ENDBRANCH  48  62
BRANCH  49  73
ATOM     73  C   UNL A   1      39.651  33.936  36.918  1.00  0.00     0.064 A 
ATOM     74  C   UNL A   1      40.284  35.187  36.955  1.00  0.00     0.173 A 
ATOM     75  C   UNL A   1      38.888  33.558  38.032  1.00  0.00     0.173 A 
ATOM     76  F   UNL A   1      41.042  35.584  35.922  1.00  0.00    -0.203 F 
ATOM     77  C   UNL A   1      40.172  36.018  38.066  1.00  0.00     0.198 A 
ATOM     78  C   UNL A   1      38.754  34.402  39.133  1.00  0.00     0.198 A 
ATOM     79  F   UNL A   1      38.258  32.373  38.044  1.00  0.00    -0.203 F 
ATOM     80  F   UNL A   1      40.820  37.191  38.091  1.00  0.00    -0.200 F 
ATOM     81  C   UNL A   1      39.402  35.628  39.152  1.00  0.00     0.200 A 
ATOM     82  F   UNL A   1      37.998  34.027  40.173  1.00  0.00    -0.200 F 
ATOM     83  F   UNL A   1      39.288  36.431  40.219  1.00  0.00    -0.200 F 
ENDBRANCH  49  73
BRANCH  61  84
ATOM     84  C   UNL A   1      44.020  28.769  35.258  1.00  0.00     0.064 A 
ATOM     85  C   UNL A   1      43.872  27.684  36.133  1.00  0.00     0.173 A 
ATOM     86  C   UNL A   1      45.315  29.258  35.026  1.00  0.00     0.173 A 
ATOM     87  F   UNL A   1      42.653  27.192  36.398  1.00  0.00    -0.203 F 
ATOM     88  C   UNL A   1      44.977  27.123  36.768  1.00  0.00     0.198 A 
ATOM     89  C   UNL A   1      46.419  28.677  35.641  1.00  0.00     0.198 A 
ATOM     90  F   UNL A   1      45.509  30.290  34.192  1.00  0.00    -0.203 F 
ATOM     91  F   UNL A   1      44.809  26.115  37.634  1.00  0.00    -0.200 F 
ATOM     92  C   UNL A   1      46.250  27.615  36.516  1.00  0.00     0.200 A 
ATOM     93  F   UNL A   1      47.649  29.145  35.387  1.00  0.00    -0.200 F 
ATOM     94  F   UNL A   1      47.312  27.068  37.123  1.00  0.00    -0.200 F 
ENDBRANCH  61  84
ENDBRANCH  35  36
ENDBRANCH  27  30
ENDBRANCH  25  26
ENDBRANCH  24  25
ENDBRANCH  23  24
ENDBRANCH   3  23
TORSDOF 15
ENDMDL
MODEL 2
REMARK VINA RESULT:     -11.6      1.550      2.282
REMARK SMILES CCCc1n[nH]c(C(=O)NC2(CC(=O)NCCCNC(=O)c3ccc(-c4c5nc(c(-c6c(F)c(F)c(F)c(F)c6F)c6ccc([nH]6)c(-c6c(F)c(F)c(F)c(F)c6F)c6nc(c(-c7c(F)c(F)c(F)c(F)c7F)c7ccc4[nH]7)C=C6)C=C5)cc3)CCC2)n1
REMARK SMILES IDX 13 1 14 2 15 3 12 5 11 6 85 7 87 8 86 9 10 10 8 11 9 12 7 14
REMARK SMILES IDX 4 15 5 16 88 17 6 18 3 20 2 21 1 22 16 23 17 24 18 25 19 26
REMARK SMILES IDX 20 27 21 29 22 30 23 31 84 32 24 33 83 34 25 35 26 36 27 37
REMARK SMILES IDX 77 38 28 39 82 40 76 41 78 42 29 43 81 44 75 45 74 46 30 48
REMARK SMILES IDX 62 49 42 50 61 51 43 52 46 53 60 54 79 55 44 56 45 57 59 59
REMARK SMILES IDX 80 60 47 61 31 62 32 63 40 64 33 65 34 66 38 67 41 68 35 69
REMARK SMILES IDX 36 70 39 71 37 72 63 73 64 74 72 75 65 76 66 77 70 78 73 79
REMARK SMILES IDX 67 80 68 81 71 82 69 83 48 84 49 85 57 86 50 87 51 88 55 89
REMARK SMILES IDX 58 90 52 91 53 92 56 93 54 94
REMARK H PARENT 15 4 10 13 6 19 19 28 78 47 46 58
REMARK Flexibility Score: inf
ROOT
ATOM      1  C   UNL A   1      31.604  28.411  27.007  1.00  0.00     0.222 C 
ATOM      2  O   UNL A   1      31.525  27.772  28.057  1.00  0.00    -0.275 OA
ATOM      3  N   UNL A   1      31.781  29.757  27.099  1.00  0.00    -0.356 N 
ATOM      4  H   UNL A   1      32.083  30.082  27.978  1.00  0.00     0.163 HD
ENDROOT
BRANCH   1   5
ATOM      5  C   UNL A   1      31.503  27.722  25.662  1.00  0.00     0.128 C 
BRANCH   5   6
ATOM      6  C   UNL A   1      32.122  26.312  25.568  1.00  0.00     0.049 C 
ATOM      7  C   UNL A   1      33.680  26.340  25.690  1.00  0.00     0.029 C 
ATOM      8  C   UNL A   1      32.437  25.724  24.141  1.00  0.00     0.029 C 
ATOM      9  C   UNL A   1      33.754  26.517  24.169  1.00  0.00     0.005 C 
BRANCH   6  10
ATOM     10  N   UNL A   1      31.290  25.371  26.372  1.00  0.00    -0.343 N 
ATOM     11  C   UNL A   1      31.346  24.039  26.739  1.00  0.00     0.289 C 
ATOM     12  O   UNL A   1      30.391  23.602  27.374  1.00  0.00    -0.266 OA
ATOM     13  H   UNL A   1      30.492  25.815  26.737  1.00  0.00     0.164 HD
BRANCH  11  14
ATOM     14  C   UNL A   1      32.415  23.174  26.319  1.00  0.00     0.214 A 
ATOM     15  C   UNL A   1      34.318  22.458  25.780  1.00  0.00     0.151 A 
ATOM     16  N   UNL A   1      33.526  21.886  24.866  1.00  0.00    -0.158 NA
ATOM     17  N   UNL A   1      33.642  23.108  26.779  1.00  0.00    -0.207 NA
ATOM     18  N   UNL A   1      32.310  22.304  25.271  1.00  0.00    -0.255 N 
ATOM     19  H   UNL A   1      31.459  22.019  24.866  1.00  0.00     0.192 HD
BRANCH  15  20
ATOM     20  C   UNL A   1      35.793  22.638  25.670  1.00  0.00     0.079 C 
BRANCH  20  21
ATOM     21  C   UNL A   1      36.306  23.605  24.609  1.00  0.00     0.005 C 
ATOM     22  C   UNL A   1      36.634  22.945  23.275  1.00  0.00     0.004 C 
ENDBRANCH  20  21
ENDBRANCH  15  20
ENDBRANCH  11  14
ENDBRANCH   6  10
ENDBRANCH   5   6
ENDBRANCH   1   5
BRANCH   3  23
ATOM     23  C   UNL A   1      31.590  30.786  26.093  1.00  0.00     0.117 C 
BRANCH  23  24
ATOM     24  C   UNL A   1      31.465  32.158  26.755  1.00  0.00     0.042 C 
BRANCH  24  25
ATOM     25  C   UNL A   1      32.789  32.847  27.027  1.00  0.00     0.118 C 
BRANCH  25  26
ATOM     26  N   UNL A   1      32.611  34.172  27.591  1.00  0.00    -0.352 N 
ATOM     27  C   UNL A   1      33.154  34.759  28.707  1.00  0.00     0.251 C 
ATOM     28  H   UNL A   1      31.993  34.749  27.086  1.00  0.00     0.163 HD
ATOM     29  O   UNL A   1      32.666  35.814  29.110  1.00  0.00    -0.269 OA
BRANCH  27  30
ATOM     30  C   UNL A   1      34.292  34.159  29.446  1.00  0.00     0.039 A 
ATOM     31  C   UNL A   1      35.592  34.435  29.004  1.00  0.00     0.014 A 
ATOM     32  C   UNL A   1      34.113  33.265  30.504  1.00  0.00     0.014 A 
ATOM     33  C   UNL A   1      36.696  33.856  29.641  1.00  0.00     0.010 A 
ATOM     34  C   UNL A   1      35.213  32.767  31.203  1.00  0.00     0.010 A 
ATOM     35  C   UNL A   1      36.517  33.037  30.765  1.00  0.00    -0.014 A 
BRANCH  35  36
ATOM     36  C   UNL A   1      37.674  32.417  31.466  1.00  0.00     0.031 A 
ATOM     37  C   UNL A   1      38.423  31.276  30.829  1.00  0.00     0.074 A 
ATOM     38  C   UNL A   1      38.018  32.837  32.699  1.00  0.00     0.049 A 
ATOM     39  N   UNL A   1      39.401  30.550  31.314  1.00  0.00    -0.248 NA
ATOM     40  C   UNL A   1      37.998  30.876  29.478  1.00  0.00     0.031 C 
ATOM     41  C   UNL A   1      37.349  33.903  33.446  1.00  0.00     0.029 A 
ATOM     42  N   UNL A   1      39.012  32.413  33.546  1.00  0.00    -0.354 N 
ATOM     43  C   UNL A   1      39.683  29.596  30.343  1.00  0.00     0.074 A 
ATOM     44  C   UNL A   1      38.745  29.803  29.261  1.00  0.00     0.031 C 
ATOM     45  C   UNL A   1      37.965  34.065  34.628  1.00  0.00     0.029 A 
ATOM     46  C   UNL A   1      39.047  33.091  34.739  1.00  0.00     0.049 A 
ATOM     47  H   UNL A   1      39.641  31.690  33.318  1.00  0.00     0.167 HD
ATOM     48  C   UNL A   1      40.650  28.648  30.342  1.00  0.00     0.037 A 
ATOM     49  C   UNL A   1      39.855  32.941  35.806  1.00  0.00     0.037 A 
ATOM     50  C   UNL A   1      41.615  28.474  31.396  1.00  0.00     0.049 A 
ATOM     51  C   UNL A   1      40.934  31.893  35.773  1.00  0.00     0.074 A 
ATOM     52  C   UNL A   1      42.681  27.593  31.452  1.00  0.00     0.029 A 
ATOM     53  N   UNL A   1      41.632  29.198  32.578  1.00  0.00    -0.354 N 
ATOM     54  N   UNL A   1      41.228  31.039  34.824  1.00  0.00    -0.248 NA
ATOM     55  C   UNL A   1      41.796  31.793  36.958  1.00  0.00     0.031 C 
ATOM     56  C   UNL A   1      43.319  27.757  32.687  1.00  0.00     0.029 A 
ATOM     57  C   UNL A   1      42.679  28.771  33.379  1.00  0.00     0.049 A 
ATOM     58  H   UNL A   1      40.994  29.911  32.813  1.00  0.00     0.167 HD
ATOM     59  C   UNL A   1      42.322  30.319  35.284  1.00  0.00     0.074 A 
ATOM     60  C   UNL A   1      42.649  30.846  36.592  1.00  0.00     0.031 C 
ATOM     61  C   UNL A   1      42.995  29.312  34.676  1.00  0.00     0.037 A 
BRANCH  48  62
ATOM     62  C   UNL A   1      40.720  27.724  29.160  1.00  0.00     0.064 A 
ATOM     63  C   UNL A   1      39.871  26.613  29.042  1.00  0.00     0.173 A 
ATOM     64  C   UNL A   1      41.620  27.974  28.114  1.00  0.00     0.173 A 
ATOM     65  F   UNL A   1      39.000  26.322  30.019  1.00  0.00    -0.203 F 
ATOM     66  C   UNL A   1      39.941  25.772  27.934  1.00  0.00     0.198 A 
ATOM     67  C   UNL A   1      41.667  27.149  26.994  1.00  0.00     0.198 A 
ATOM     68  F   UNL A   1      42.451  29.027  28.173  1.00  0.00    -0.203 F 
ATOM     69  F   UNL A   1      39.154  24.689  27.867  1.00  0.00    -0.200 F 
ATOM     70  C   UNL A   1      40.834  26.044  26.909  1.00  0.00     0.200 A 
ATOM     71  F   UNL A   1      42.521  27.421  25.997  1.00  0.00    -0.200 F 
ATOM     72  F   UNL A   1      40.895  25.238  25.840  1.00  0.00    -0.200 F 
ENDBRANCH  48  62
BRANCH  49  73
ATOM     73  C   UNL A   1      39.692  33.828  36.986  1.00  0.00     0.064 A 
ATOM     74  C   UNL A   1      40.334  35.073  37.041  1.00  0.00     0.173 A 
ATOM     75  C   UNL A   1      38.891  33.458  38.076  1.00  0.00     0.173 A 
ATOM     76  F   UNL A   1      41.128  35.462  36.032  1.00  0.00    -0.203 F 
ATOM     77  C   UNL A   1      40.193  35.907  38.148  1.00  0.00     0.198 A 
ATOM     78  C   UNL A   1      38.729  34.304  39.170  1.00  0.00     0.198 A 
ATOM     79  F   UNL A   1      38.252  32.278  38.069  1.00  0.00    -0.203 F 
ATOM     80  F   UNL A   1      40.850  37.075  38.192  1.00  0.00    -0.200 F 
ATOM     81  C   UNL A   1      39.386  35.525  39.209  1.00  0.00     0.200 A 
ATOM     82  F   UNL A   1      37.937  33.938  40.187  1.00  0.00    -0.200 F 
ATOM     83  F   UNL A   1      39.245  36.331  40.270  1.00  0.00    -0.200 F 
ENDBRANCH  49  73
BRANCH  61  84
ATOM     84  C   UNL A   1      44.173  28.733  35.404  1.00  0.00     0.064 A 
ATOM     85  C   UNL A   1      45.453  29.295  35.295  1.00  0.00     0.173 A 
ATOM     86  C   UNL A   1      44.008  27.629  36.255  1.00  0.00     0.173 A 
ATOM     87  F   UNL A   1      45.664  30.342  34.484  1.00  0.00    -0.203 F 
ATOM     88  C   UNL A   1      46.530  28.759  35.995  1.00  0.00     0.198 A 
ATOM     89  C   UNL A   1      45.082  27.113  36.973  1.00  0.00     0.198 A 
ATOM     90  F   UNL A   1      42.802  27.060  36.397  1.00  0.00    -0.203 F 
ATOM     91  F   UNL A   1      47.754  29.284  35.843  1.00  0.00    -0.200 F 
ATOM     92  C   UNL A   1      46.343  27.673  36.839  1.00  0.00     0.200 A 
ATOM     93  F   UNL A   1      44.896  26.072  37.797  1.00  0.00    -0.200 F 
ATOM     94  F   UNL A   1      47.380  27.163  37.517  1.00  0.00    -0.200 F 
ENDBRANCH  61  84
ENDBRANCH  35  36
ENDBRANCH  27  30
ENDBRANCH  25  26
ENDBRANCH  24  25
ENDBRANCH  23  24
ENDBRANCH   3  23
TORSDOF 15
ENDMDL
MODEL 3
REMARK VINA RESULT:     -11.5      3.953      8.210
REMARK SMILES CCCc1n[nH]c(C(=O)NC2(CC(=O)NCCCNC(=O)c3ccc(-c4c5nc(c(-c6c(F)c(F)c(F)c(F)c6F)c6ccc([nH]6)c(-c6c(F)c(F)c(F)c(F)c6F)c6nc(c(-c7c(F)c(F)c(F)c(F)c7F)c7ccc4[nH]7)C=C6)C=C5)cc3)CCC2)n1
REMARK SMILES IDX 13 1 14 2 15 3 12 5 11 6 85 7 87 8 86 9 10 10 8 11 9 12 7 14
REMARK SMILES IDX 4 15 5 16 88 17 6 18 3 20 2 21 1 22 16 23 17 24 18 25 19 26
REMARK SMILES IDX 20 27 21 29 22 30 23 31 84 32 24 33 83 34 25 35 26 36 27 37
REMARK SMILES IDX 77 38 28 39 82 40 76 41 78 42 29 43 81 44 75 45 74 46 30 48
REMARK SMILES IDX 62 49 42 50 61 51 43 52 46 53 60 54 79 55 44 56 45 57 59 59
REMARK SMILES IDX 80 60 47 61 31 62 32 63 40 64 33 65 34 66 38 67 41 68 35 69
REMARK SMILES IDX 36 70 39 71 37 72 63 73 64 74 72 75 65 76 66 77 70 78 73 79
REMARK SMILES IDX 67 80 68 81 71 82 69 83 48 84 49 85 57 86 50 87 51 88 55 89
REMARK SMILES IDX 58 90 52 91 53 92 56 93 54 94
REMARK H PARENT 15 4 10 13 6 19 19 28 78 47 46 58
REMARK Flexibility Score: inf
ROOT
ATOM      1  C   UNL A   1      33.689  26.457  24.443  1.00  0.00     0.222 C 
ATOM      2  O   UNL A   1      33.541  27.125  23.419  1.00  0.00    -0.275 OA
ATOM      3  N   UNL A   1      34.189  25.198  24.310  1.00  0.00    -0.356 N 
ATOM      4  H   UNL A   1      34.628  25.010  23.449  1.00  0.00     0.163 HD
ENDROOT
BRANCH   1   5
ATOM      5  C   UNL A   1      33.321  27.016  25.802  1.00  0.00     0.128 C 
BRANCH   5   6
ATOM      6  C   UNL A   1      31.925  27.663  25.920  1.00  0.00     0.049 C 
ATOM      7  C   UNL A   1      31.972  29.212  25.713  1.00  0.00     0.029 C 
ATOM      8  C   UNL A   1      31.402  28.064  27.350  1.00  0.00     0.029 C 
ATOM      9  C   UNL A   1      32.213  29.363  27.219  1.00  0.00     0.005 C 
BRANCH   6  10
ATOM     10  N   UNL A   1      30.939  26.807  25.201  1.00  0.00    -0.343 N 
ATOM     11  C   UNL A   1      30.085  26.943  24.122  1.00  0.00     0.289 C 
ATOM     12  O   UNL A   1      29.352  25.990  23.877  1.00  0.00    -0.266 OA
ATOM     13  H   UNL A   1      30.882  25.909  25.598  1.00  0.00     0.164 HD
BRANCH  11  14
ATOM     14  C   UNL A   1      29.980  28.169  23.379  1.00  0.00     0.214 A 
ATOM     15  C   UNL A   1      29.201  29.784  22.279  1.00  0.00     0.151 A 
ATOM     16  N   UNL A   1      30.337  29.511  21.625  1.00  0.00    -0.158 NA
ATOM     17  N   UNL A   1      29.050  29.092  23.451  1.00  0.00    -0.207 NA
ATOM     18  N   UNL A   1      30.848  28.522  22.385  1.00  0.00    -0.255 N 
ATOM     19  H   UNL A   1      31.731  28.109  22.244  1.00  0.00     0.192 HD
BRANCH  15  20
ATOM     20  C   UNL A   1      28.046  30.555  21.739  1.00  0.00     0.079 C 
BRANCH  20  21
ATOM     21  C   UNL A   1      28.193  32.071  21.652  1.00  0.00     0.005 C 
ATOM     22  C   UNL A   1      28.780  32.709  22.905  1.00  0.00     0.004 C 
ENDBRANCH  20  21
ENDBRANCH  15  20
ENDBRANCH  11  14
ENDBRANCH   6  10
ENDBRANCH   5   6
ENDBRANCH   1   5
BRANCH   3  23
ATOM     23  C   UNL A   1      34.172  24.092  25.249  1.00  0.00     0.117 C 
BRANCH  23  24
ATOM     24  C   UNL A   1      35.542  23.935  25.908  1.00  0.00     0.042 C 
BRANCH  24  25
ATOM     25  C   UNL A   1      36.683  23.705  24.935  1.00  0.00     0.118 C 
BRANCH  25  26
ATOM     26  N   UNL A   1      37.628  22.717  25.423  1.00  0.00    -0.352 N 
ATOM     27  C   UNL A   1      38.801  22.857  26.121  1.00  0.00     0.251 C 
ATOM     28  H   UNL A   1      37.385  21.785  25.218  1.00  0.00     0.163 HD
ATOM     29  O   UNL A   1      39.547  21.883  26.215  1.00  0.00    -0.269 OA
BRANCH  27  30
ATOM     30  C   UNL A   1      39.204  24.141  26.748  1.00  0.00     0.039 A 
ATOM     31  C   UNL A   1      39.975  25.036  25.993  1.00  0.00     0.014 A 
ATOM     32  C   UNL A   1      38.921  24.449  28.080  1.00  0.00     0.014 A 
ATOM     33  C   UNL A   1      40.416  26.239  26.556  1.00  0.00     0.010 A 
ATOM     34  C   UNL A   1      39.274  25.691  28.610  1.00  0.00     0.010 A 
ATOM     35  C   UNL A   1      40.047  26.590  27.863  1.00  0.00    -0.014 A 
BRANCH  35  36
ATOM     36  C   UNL A   1      40.495  27.867  28.480  1.00  0.00     0.031 A 
ATOM     37  C   UNL A   1      41.934  28.047  28.890  1.00  0.00     0.074 A 
ATOM     38  C   UNL A   1      39.602  28.846  28.727  1.00  0.00     0.049 A 
ATOM     39  N   UNL A   1      42.500  29.049  29.517  1.00  0.00    -0.248 NA
ATOM     40  C   UNL A   1      42.854  26.941  28.581  1.00  0.00     0.031 C 
ATOM     41  C   UNL A   1      38.173  28.783  28.420  1.00  0.00     0.029 A 
ATOM     42  N   UNL A   1      39.764  30.082  29.302  1.00  0.00    -0.354 N 
ATOM     43  C   UNL A   1      43.827  28.679  29.701  1.00  0.00     0.074 A 
ATOM     44  C   UNL A   1      43.973  27.344  29.163  1.00  0.00     0.031 C 
ATOM     45  C   UNL A   1      37.593  29.937  28.787  1.00  0.00     0.029 A 
ATOM     46  C   UNL A   1      38.600  30.805  29.390  1.00  0.00     0.049 A 
ATOM     47  H   UNL A   1      40.633  30.418  29.622  1.00  0.00     0.167 HD
ATOM     48  C   UNL A   1      44.838  29.395  30.249  1.00  0.00     0.037 A 
ATOM     49  C   UNL A   1      38.368  32.029  29.904  1.00  0.00     0.037 A 
ATOM     50  C   UNL A   1      44.704  30.741  30.740  1.00  0.00     0.049 A 
ATOM     51  C   UNL A   1      39.511  32.812  30.490  1.00  0.00     0.074 A 
ATOM     52  C   UNL A   1      45.686  31.579  31.241  1.00  0.00     0.029 A 
ATOM     53  N   UNL A   1      43.513  31.449  30.787  1.00  0.00    -0.354 N 
ATOM     54  N   UNL A   1      40.773  32.475  30.602  1.00  0.00    -0.248 NA
ATOM     55  C   UNL A   1      39.199  34.148  31.014  1.00  0.00     0.031 C 
ATOM     56  C   UNL A   1      45.081  32.779  31.630  1.00  0.00     0.029 A 
ATOM     57  C   UNL A   1      43.731  32.706  31.328  1.00  0.00     0.049 A 
ATOM     58  H   UNL A   1      42.641  31.108  30.482  1.00  0.00     0.167 HD
ATOM     59  C   UNL A   1      41.408  33.563  31.184  1.00  0.00     0.074 A 
ATOM     60  C   UNL A   1      40.396  34.577  31.389  1.00  0.00     0.031 C 
ATOM     61  C   UNL A   1      42.714  33.707  31.518  1.00  0.00     0.037 A 
BRANCH  48  62
ATOM     62  C   UNL A   1      46.187  28.740  30.343  1.00  0.00     0.064 A 
ATOM     63  C   UNL A   1      47.114  28.810  29.292  1.00  0.00     0.173 A 
ATOM     64  C   UNL A   1      46.571  28.067  31.512  1.00  0.00     0.173 A 
ATOM     65  F   UNL A   1      46.794  29.432  28.148  1.00  0.00    -0.203 F 
ATOM     66  C   UNL A   1      48.365  28.206  29.399  1.00  0.00     0.198 A 
ATOM     67  C   UNL A   1      47.832  27.490  31.626  1.00  0.00     0.198 A 
ATOM     68  F   UNL A   1      45.724  27.975  32.549  1.00  0.00    -0.203 F 
ATOM     69  F   UNL A   1      49.216  28.244  28.364  1.00  0.00    -0.200 F 
ATOM     70  C   UNL A   1      48.725  27.553  30.567  1.00  0.00     0.200 A 
ATOM     71  F   UNL A   1      48.184  26.871  32.762  1.00  0.00    -0.200 F 
ATOM     72  F   UNL A   1      49.932  26.979  30.672  1.00  0.00    -0.200 F 
ENDBRANCH  48  62
BRANCH  49  73
ATOM     73  C   UNL A   1      36.998  32.601  29.859  1.00  0.00     0.064 A 
ATOM     74  C   UNL A   1      36.133  32.477  30.956  1.00  0.00     0.173 A 
ATOM     75  C   UNL A   1      36.527  33.286  28.731  1.00  0.00     0.173 A 
ATOM     76  F   UNL A   1      36.532  31.811  32.050  1.00  0.00    -0.203 F 
ATOM     77  C   UNL A   1      34.845  33.003  30.920  1.00  0.00     0.198 A 
ATOM     78  C   UNL A   1      35.247  33.836  28.705  1.00  0.00     0.198 A 
ATOM     79  F   UNL A   1      37.317  33.436  27.657  1.00  0.00    -0.203 F 
ATOM     80  F   UNL A   1      34.025  32.835  31.966  1.00  0.00    -0.200 F 
ATOM     81  C   UNL A   1      34.404  33.687  29.797  1.00  0.00     0.200 A 
ATOM     82  F   UNL A   1      34.829  34.509  27.624  1.00  0.00    -0.200 F 
ATOM     83  F   UNL A   1      33.166  34.200  29.765  1.00  0.00    -0.200 F 
ENDBRANCH  49  73
BRANCH  61  84
ATOM     84  C   UNL A   1      43.130  35.021  32.113  1.00  0.00     0.064 A 
ATOM     85  C   UNL A   1      43.590  36.077  31.313  1.00  0.00     0.173 A 
ATOM     86  C   UNL A   1      43.026  35.238  33.495  1.00  0.00     0.173 A 
ATOM     87  F   UNL A   1      43.721  35.913  29.988  1.00  0.00    -0.203 F 
ATOM     88  C   UNL A   1      43.952  37.296  31.878  1.00  0.00     0.198 A 
ATOM     89  C   UNL A   1      43.363  36.468  34.054  1.00  0.00     0.198 A 
ATOM     90  F   UNL A   1      42.586  34.262  34.302  1.00  0.00    -0.203 F 
ATOM     91  F   UNL A   1      44.431  38.277  31.101  1.00  0.00    -0.200 F 
ATOM     92  C   UNL A   1      43.831  37.494  33.246  1.00  0.00     0.200 A 
ATOM     93  F   UNL A   1      43.234  36.660  35.373  1.00  0.00    -0.200 F 
ATOM     94  F   UNL A   1      44.174  38.671  33.787  1.00  0.00    -0.200 F 
ENDBRANCH  61  84
ENDBRANCH  35  36
ENDBRANCH  27  30
ENDBRANCH  25  26
ENDBRANCH  24  25
ENDBRANCH  23  24
ENDBRANCH   3  23
TORSDOF 15
ENDMDL
