MODEL 1
REMARK VINA RESULT:     -12.6      0.000      0.000
REMARK SMILES CC(C)[NH2+][C@]1(C(=O)NCCCNC(=O)c2ccc(-c3c4nc(c(-c5c(F)c(F)c(F)c(F)c5F)c5ccc([nH]5)c(-c5c(F)c(F)c(F)c(F)c5F)c5nc(c(-c6c(F)c(F)c(F)c(F)c6F)c6ccc3[nH]6)C=C5)C=C4)cc2)CCC[C@@H](Sc2nnnn2C)C1
REMARK SMILES IDX 10 1 9 2 8 3 6 4 7 5 5 7 78 8 89 9 79 10 81 11 80 12 4 13
REMARK SMILES IDX 2 16 1 17 3 18 82 19 83 20 84 21 87 22 85 23 86 24 88 25
REMARK SMILES IDX 11 26 12 27 13 28 14 30 15 31 16 32 77 33 17 34 76 35 18 36
REMARK SMILES IDX 19 37 20 38 70 39 21 40 75 41 69 42 71 43 22 44 74 45 68 46
REMARK SMILES IDX 67 47 23 49 55 50 35 51 54 52 36 53 39 54 53 55 72 56 37 57
REMARK SMILES IDX 38 58 52 60 73 61 40 62 24 63 25 64 33 65 26 66 27 67 31 68
REMARK SMILES IDX 34 69 28 70 29 71 32 72 30 73 56 74 57 75 65 76 58 77 59 78
REMARK SMILES IDX 63 79 66 80 60 81 61 82 64 83 62 84 41 85 42 86 50 87 43 88
REMARK SMILES IDX 44 89 48 90 51 91 45 92 46 93 49 94 47 95
REMARK H PARENT 8 6 4 14 4 15 12 29 71 48 39 59
REMARK Flexibility Score: inf
ROOT
ATOM      1  C   UNL A   1      31.262  32.358  26.568  1.00  0.00     0.042 C 
ENDROOT
BRANCH   1   2
ATOM      2  C   UNL A   1      31.396  30.918  26.089  1.00  0.00     0.118 C 
BRANCH   2   3
ATOM      3  N   UNL A   1      32.694  30.346  26.405  1.00  0.00    -0.351 N 
ATOM      4  C   UNL A   1      33.425  29.272  26.014  1.00  0.00     0.281 C 
ATOM      5  O   UNL A   1      34.559  29.241  26.521  1.00  0.00    -0.268 OA
ATOM      6  H   UNL A   1      33.170  30.879  27.083  1.00  0.00     0.163 HD
BRANCH   4   7
ATOM      7  C   UNL A   1      32.993  28.134  24.986  1.00  0.00     0.176 C 
ATOM      8  C   UNL A   1      33.872  28.054  23.729  1.00  0.00     0.079 C 
ATOM      9  C   UNL A   1      33.194  26.830  25.802  1.00  0.00     0.094 C 
ATOM     10  C   UNL A   1      33.753  26.794  22.886  1.00  0.00     0.008 C 
ATOM     11  C   UNL A   1      33.132  25.525  25.004  1.00  0.00     0.061 C 
ATOM     12  C   UNL A   1      33.991  25.546  23.737  1.00  0.00     0.015 C 
BRANCH   7  13
ATOM     13  N   UNL A   1      31.605  28.472  24.618  1.00  0.00    -0.332 N 
ATOM     14  H   UNL A   1      31.028  28.095  25.370  1.00  0.00     0.347 HD
ATOM     15  H   UNL A   1      31.706  29.474  24.454  1.00  0.00     0.347 HD
BRANCH  13  16
ATOM     16  C   UNL A   1      30.933  28.083  23.391  1.00  0.00     0.176 C 
ATOM     17  C   UNL A   1      29.841  27.057  23.723  1.00  0.00     0.075 C 
ATOM     18  C   UNL A   1      30.260  29.275  22.707  1.00  0.00     0.075 C 
ENDBRANCH  13  16
ENDBRANCH   7  13
BRANCH  11  19
ATOM     19  S   UNL A   1      33.483  24.101  26.115  1.00  0.00    -0.081 SA
BRANCH  19  20
ATOM     20  C   UNL A   1      31.915  23.475  26.464  1.00  0.00     0.209 A 
ATOM     21  N   UNL A   1      31.030  24.036  27.256  1.00  0.00    -0.102 NA
ATOM     22  N   UNL A   1      31.394  22.307  25.989  1.00  0.00    -0.224 N 
ATOM     23  N   UNL A   1      29.935  23.205  27.245  1.00  0.00    -0.023 NA
ATOM     24  N   UNL A   1      30.143  22.155  26.463  1.00  0.00    -0.045 NA
ATOM     25  C   UNL A   1      31.924  21.326  25.085  1.00  0.00     0.179 C 
ENDBRANCH  19  20
ENDBRANCH  11  19
ENDBRANCH   4   7
ENDBRANCH   2   3
ENDBRANCH   1   2
BRANCH   1  26
ATOM     26  C   UNL A   1      32.532  32.850  27.255  1.00  0.00     0.118 C 
BRANCH  26  27
ATOM     27  N   UNL A   1      32.440  34.264  27.616  1.00  0.00    -0.352 N 
ATOM     28  C   UNL A   1      33.057  34.978  28.610  1.00  0.00     0.251 C 
ATOM     29  H   UNL A   1      31.831  34.792  27.050  1.00  0.00     0.163 HD
ATOM     30  O   UNL A   1      32.639  36.093  28.904  1.00  0.00    -0.269 OA
BRANCH  28  31
ATOM     31  C   UNL A   1      34.218  34.416  29.326  1.00  0.00     0.039 A 
ATOM     32  C   UNL A   1      34.012  33.761  30.544  1.00  0.00     0.014 A 
ATOM     33  C   UNL A   1      35.511  34.574  28.826  1.00  0.00     0.014 A 
ATOM     34  C   UNL A   1      35.099  33.212  31.226  1.00  0.00     0.010 A 
ATOM     35  C   UNL A   1      36.579  33.948  29.455  1.00  0.00     0.010 A 
ATOM     36  C   UNL A   1      36.386  33.270  30.668  1.00  0.00    -0.014 A 
BRANCH  36  37
ATOM     37  C   UNL A   1      37.550  32.638  31.335  1.00  0.00     0.031 A 
ATOM     38  C   UNL A   1      38.252  31.480  30.679  1.00  0.00     0.074 A 
ATOM     39  C   UNL A   1      37.915  33.053  32.563  1.00  0.00     0.049 A 
ATOM     40  N   UNL A   1      39.212  30.723  31.147  1.00  0.00    -0.248 NA
ATOM     41  C   UNL A   1      37.791  31.098  29.334  1.00  0.00     0.031 C 
ATOM     42  C   UNL A   1      37.270  34.129  33.319  1.00  0.00     0.029 A 
ATOM     43  N   UNL A   1      38.905  32.607  33.401  1.00  0.00    -0.354 N 
ATOM     44  C   UNL A   1      39.449  29.766  30.167  1.00  0.00     0.074 A 
ATOM     45  C   UNL A   1      38.502  30.005  29.102  1.00  0.00     0.031 C 
ATOM     46  C   UNL A   1      37.890  34.269  34.501  1.00  0.00     0.029 A 
ATOM     47  C   UNL A   1      38.946  33.268  34.606  1.00  0.00     0.049 A 
ATOM     48  H   UNL A   1      39.527  31.882  33.164  1.00  0.00     0.167 HD
ATOM     49  C   UNL A   1      40.389  28.793  30.152  1.00  0.00     0.037 A 
ATOM     50  C   UNL A   1      39.737  33.074  35.678  1.00  0.00     0.037 A 
ATOM     51  C   UNL A   1      41.357  28.594  31.198  1.00  0.00     0.049 A 
ATOM     52  C   UNL A   1      40.784  31.995  35.623  1.00  0.00     0.074 A 
ATOM     53  C   UNL A   1      42.404  27.690  31.242  1.00  0.00     0.029 A 
ATOM     54  N   UNL A   1      41.395  29.311  32.385  1.00  0.00    -0.354 N 
ATOM     55  N   UNL A   1      41.052  31.149  34.656  1.00  0.00    -0.248 NA
ATOM     56  C   UNL A   1      41.644  31.845  36.805  1.00  0.00     0.031 C 
ATOM     57  C   UNL A   1      43.045  27.825  32.477  1.00  0.00     0.029 A 
ATOM     58  C   UNL A   1      42.433  28.852  33.179  1.00  0.00     0.049 A 
ATOM     59  H   UNL A   1      40.776  30.037  32.626  1.00  0.00     0.167 HD
ATOM     60  C   UNL A   1      42.128  30.391  35.100  1.00  0.00     0.074 A 
ATOM     61  C   UNL A   1      42.475  30.890  36.414  1.00  0.00     0.031 C 
ATOM     62  C   UNL A   1      42.769  29.373  34.478  1.00  0.00     0.037 A 
BRANCH  49  63
ATOM     63  C   UNL A   1      40.432  27.872  28.968  1.00  0.00     0.064 A 
ATOM     64  C   UNL A   1      39.672  26.694  28.921  1.00  0.00     0.173 A 
ATOM     65  C   UNL A   1      41.189  28.209  27.836  1.00  0.00     0.173 A 
ATOM     66  F   UNL A   1      38.940  26.320  29.981  1.00  0.00    -0.203 F 
ATOM     67  C   UNL A   1      39.680  25.879  27.792  1.00  0.00     0.198 A 
ATOM     68  C   UNL A   1      41.173  27.407  26.696  1.00  0.00     0.198 A 
ATOM     69  F   UNL A   1      41.932  29.326  27.826  1.00  0.00    -0.203 F 
ATOM     70  F   UNL A   1      38.975  24.740  27.785  1.00  0.00    -0.200 F 
ATOM     71  C   UNL A   1      40.422  26.241  26.678  1.00  0.00     0.200 A 
ATOM     72  F   UNL A   1      41.879  27.766  25.616  1.00  0.00    -0.200 F 
ATOM     73  F   UNL A   1      40.414  25.465  25.585  1.00  0.00    -0.200 F 
ENDBRANCH  49  63
BRANCH  50  74
ATOM     74  C   UNL A   1      39.578  33.922  36.890  1.00  0.00     0.064 A 
ATOM     75  C   UNL A   1      38.800  33.492  37.974  1.00  0.00     0.173 A 
ATOM     76  C   UNL A   1      40.178  35.187  36.979  1.00  0.00     0.173 A 
ATOM     77  F   UNL A   1      38.192  32.297  37.931  1.00  0.00    -0.203 F 
ATOM     78  C   UNL A   1      38.598  34.309  39.085  1.00  0.00     0.198 A 
ATOM     79  C   UNL A   1      40.003  35.989  38.105  1.00  0.00     0.198 A 
ATOM     80  F   UNL A   1      40.940  35.642  35.974  1.00  0.00    -0.203 F 
ATOM     81  F   UNL A   1      37.799  33.898  40.079  1.00  0.00    -0.200 F 
ATOM     82  C   UNL A   1      39.202  35.555  39.151  1.00  0.00     0.200 A 
ATOM     83  F   UNL A   1      40.603  37.186  38.172  1.00  0.00    -0.200 F 
ATOM     84  F   UNL A   1      39.005  36.342  40.218  1.00  0.00    -0.200 F 
ENDBRANCH  50  74
BRANCH  62  85
ATOM     85  C   UNL A   1      43.936  28.756  35.193  1.00  0.00     0.064 A 
ATOM     86  C   UNL A   1      45.247  29.212  34.992  1.00  0.00     0.173 A 
ATOM     87  C   UNL A   1      43.733  27.725  36.122  1.00  0.00     0.173 A 
ATOM     88  F   UNL A   1      45.494  30.187  34.103  1.00  0.00    -0.203 F 
ATOM     89  C   UNL A   1      46.315  28.641  35.677  1.00  0.00     0.198 A 
ATOM     90  C   UNL A   1      44.799  27.178  36.829  1.00  0.00     0.198 A 
ATOM     91  F   UNL A   1      42.497  27.258  36.356  1.00  0.00    -0.203 F 
ATOM     92  F   UNL A   1      47.565  29.058  35.433  1.00  0.00    -0.200 F 
ATOM     93  C   UNL A   1      46.090  27.631  36.600  1.00  0.00     0.200 A 
ATOM     94  F   UNL A   1      44.578  26.214  37.733  1.00  0.00    -0.200 F 
ATOM     95  F   UNL A   1      47.118  27.088  37.265  1.00  0.00    -0.200 F 
ENDBRANCH  62  85
ENDBRANCH  36  37
ENDBRANCH  28  31
ENDBRANCH  26  27
ENDBRANCH   1  26
TORSDOF 14
ENDMDL
MODEL 2
REMARK VINA RESULT:     -12.4      3.847      8.980
REMARK SMILES CC(C)[NH2+][C@]1(C(=O)NCCCNC(=O)c2ccc(-c3c4nc(c(-c5c(F)c(F)c(F)c(F)c5F)c5ccc([nH]5)c(-c5c(F)c(F)c(F)c(F)c5F)c5nc(c(-c6c(F)c(F)c(F)c(F)c6F)c6ccc3[nH]6)C=C5)C=C4)cc2)CCC[C@@H](Sc2nnnn2C)C1
REMARK SMILES IDX 10 1 9 2 8 3 6 4 7 5 5 7 78 8 89 9 79 10 81 11 80 12 4 13
REMARK SMILES IDX 2 16 1 17 3 18 82 19 83 20 84 21 87 22 85 23 86 24 88 25
REMARK SMILES IDX 11 26 12 27 13 28 14 30 15 31 16 32 77 33 17 34 76 35 18 36
REMARK SMILES IDX 19 37 20 38 70 39 21 40 75 41 69 42 71 43 22 44 74 45 68 46
REMARK SMILES IDX 67 47 23 49 55 50 35 51 54 52 36 53 39 54 53 55 72 56 37 57
REMARK SMILES IDX 38 58 52 60 73 61 40 62 24 63 25 64 33 65 26 66 27 67 31 68
REMARK SMILES IDX 34 69 28 70 29 71 32 72 30 73 56 74 57 75 65 76 58 77 59 78
REMARK SMILES IDX 63 79 66 80 60 81 61 82 64 83 62 84 41 85 42 86 50 87 43 88
REMARK SMILES IDX 44 89 48 90 51 91 45 92 46 93 49 94 47 95
REMARK H PARENT 8 6 4 14 4 15 12 29 71 48 39 59
REMARK Flexibility Score: inf
ROOT
ATOM      1  C   UNL A   1      32.312  27.670  27.224  1.00  0.00     0.042 C 
ENDROOT
BRANCH   1   2
ATOM      2  C   UNL A   1      31.893  26.709  26.119  1.00  0.00     0.118 C 
BRANCH   2   3
ATOM      3  N   UNL A   1      31.312  25.483  26.639  1.00  0.00    -0.351 N 
ATOM      4  C   UNL A   1      31.519  24.149  26.494  1.00  0.00     0.281 C 
ATOM      5  O   UNL A   1      30.801  23.459  27.237  1.00  0.00    -0.268 OA
ATOM      6  H   UNL A   1      30.573  25.667  27.262  1.00  0.00     0.163 HD
BRANCH   4   7
ATOM      7  C   UNL A   1      32.574  23.435  25.537  1.00  0.00     0.176 C 
ATOM      8  C   UNL A   1      34.041  23.720  25.893  1.00  0.00     0.079 C 
ATOM      9  C   UNL A   1      32.300  21.928  25.778  1.00  0.00     0.094 C 
ATOM     10  C   UNL A   1      35.088  22.813  25.267  1.00  0.00     0.008 C 
ATOM     11  C   UNL A   1      33.343  20.959  25.213  1.00  0.00     0.061 C 
ATOM     12  C   UNL A   1      34.783  21.344  25.564  1.00  0.00     0.015 C 
BRANCH   7  13
ATOM     13  N   UNL A   1      32.265  23.953  24.190  1.00  0.00    -0.332 N 
ATOM     14  H   UNL A   1      31.690  23.233  23.752  1.00  0.00     0.347 HD
ATOM     15  H   UNL A   1      31.898  24.873  24.435  1.00  0.00     0.347 HD
BRANCH  13  16
ATOM     16  C   UNL A   1      33.238  24.330  23.181  1.00  0.00     0.176 C 
ATOM     17  C   UNL A   1      33.258  23.260  22.082  1.00  0.00     0.075 C 
ATOM     18  C   UNL A   1      32.889  25.667  22.525  1.00  0.00     0.075 C 
ENDBRANCH  13  16
ENDBRANCH   7  13
BRANCH  11  19
ATOM     19  S   UNL A   1      32.902  19.234  25.674  1.00  0.00    -0.081 SA
BRANCH  19  20
ATOM     20  C   UNL A   1      33.011  18.383  24.178  1.00  0.00     0.209 A 
ATOM     21  N   UNL A   1      32.335  18.669  23.088  1.00  0.00    -0.102 NA
ATOM     22  N   UNL A   1      33.790  17.290  23.932  1.00  0.00    -0.224 N 
ATOM     23  N   UNL A   1      32.727  17.746  22.150  1.00  0.00    -0.023 NA
ATOM     24  N   UNL A   1      33.625  16.910  22.650  1.00  0.00    -0.045 NA
ATOM     25  C   UNL A   1      34.725  16.582  24.758  1.00  0.00     0.179 C 
ENDBRANCH  19  20
ENDBRANCH  11  19
ENDBRANCH   4   7
ENDBRANCH   2   3
ENDBRANCH   1   2
BRANCH   1  26
ATOM     26  C   UNL A   1      33.655  28.329  26.926  1.00  0.00     0.118 C 
BRANCH  26  27
ATOM     27  N   UNL A   1      33.619  29.769  27.174  1.00  0.00    -0.352 N 
ATOM     28  C   UNL A   1      34.485  30.584  27.856  1.00  0.00     0.251 C 
ATOM     29  H   UNL A   1      32.840  30.231  26.788  1.00  0.00     0.163 HD
ATOM     30  O   UNL A   1      34.132  31.716  28.170  1.00  0.00    -0.269 OA
BRANCH  28  31
ATOM     31  C   UNL A   1      35.837  30.110  28.211  1.00  0.00     0.039 A 
ATOM     32  C   UNL A   1      36.854  30.178  27.254  1.00  0.00     0.014 A 
ATOM     33  C   UNL A   1      36.092  29.556  29.467  1.00  0.00     0.014 A 
ATOM     34  C   UNL A   1      38.140  29.746  27.580  1.00  0.00     0.010 A 
ATOM     35  C   UNL A   1      37.391  29.215  29.822  1.00  0.00     0.010 A 
ATOM     36  C   UNL A   1      38.426  29.296  28.880  1.00  0.00    -0.014 A 
BRANCH  36  37
ATOM     37  C   UNL A   1      39.797  28.894  29.276  1.00  0.00     0.031 A 
ATOM     38  C   UNL A   1      40.643  29.829  30.097  1.00  0.00     0.074 A 
ATOM     39  C   UNL A   1      40.303  27.731  28.825  1.00  0.00     0.049 A 
ATOM     40  N   UNL A   1      41.899  29.713  30.451  1.00  0.00    -0.248 NA
ATOM     41  C   UNL A   1      40.007  31.076  30.553  1.00  0.00     0.031 C 
ATOM     42  C   UNL A   1      39.593  26.773  27.974  1.00  0.00     0.029 A 
ATOM     43  N   UNL A   1      41.540  27.164  29.002  1.00  0.00    -0.354 N 
ATOM     44  C   UNL A   1      42.205  30.877  31.144  1.00  0.00     0.074 A 
ATOM     45  C   UNL A   1      41.023  31.710  31.120  1.00  0.00     0.031 C 
ATOM     46  C   UNL A   1      40.400  25.731  27.717  1.00  0.00     0.029 A 
ATOM     47  C   UNL A   1      41.695  25.966  28.345  1.00  0.00     0.049 A 
ATOM     48  H   UNL A   1      42.249  27.575  29.546  1.00  0.00     0.167 HD
ATOM     49  C   UNL A   1      43.362  31.209  31.763  1.00  0.00     0.037 A 
ATOM     50  C   UNL A   1      42.768  25.159  28.250  1.00  0.00     0.037 A 
ATOM     51  C   UNL A   1      44.517  30.353  31.819  1.00  0.00     0.049 A 
ATOM     52  C   UNL A   1      44.035  25.548  28.964  1.00  0.00     0.074 A 
ATOM     53  C   UNL A   1      45.709  30.559  32.490  1.00  0.00     0.029 A 
ATOM     54  N   UNL A   1      44.623  29.128  31.178  1.00  0.00    -0.354 N 
ATOM     55  N   UNL A   1      44.286  26.614  29.685  1.00  0.00    -0.248 NA
ATOM     56  C   UNL A   1      45.168  24.618  28.857  1.00  0.00     0.031 C 
ATOM     57  C   UNL A   1      46.556  29.482  32.214  1.00  0.00     0.029 A 
ATOM     58  C   UNL A   1      45.871  28.577  31.417  1.00  0.00     0.049 A 
ATOM     59  H   UNL A   1      43.916  28.712  30.634  1.00  0.00     0.167 HD
ATOM     60  C   UNL A   1      45.589  26.468  30.142  1.00  0.00     0.074 A 
ATOM     61  C   UNL A   1      46.070  25.201  29.632  1.00  0.00     0.031 C 
ATOM     62  C   UNL A   1      46.323  27.308  30.911  1.00  0.00     0.037 A 
BRANCH  49  63
ATOM     63  C   UNL A   1      43.441  32.545  32.441  1.00  0.00     0.064 A 
ATOM     64  C   UNL A   1      43.855  33.697  31.755  1.00  0.00     0.173 A 
ATOM     65  C   UNL A   1      43.031  32.688  33.775  1.00  0.00     0.173 A 
ATOM     66  F   UNL A   1      44.268  33.614  30.482  1.00  0.00    -0.203 F 
ATOM     67  C   UNL A   1      43.870  34.940  32.384  1.00  0.00     0.198 A 
ATOM     68  C   UNL A   1      43.019  33.937  34.393  1.00  0.00     0.198 A 
ATOM     69  F   UNL A   1      42.623  31.620  34.476  1.00  0.00    -0.203 F 
ATOM     70  F   UNL A   1      44.304  36.019  31.720  1.00  0.00    -0.200 F 
ATOM     71  C   UNL A   1      43.442  35.060  33.698  1.00  0.00     0.200 A 
ATOM     72  F   UNL A   1      42.592  34.053  35.657  1.00  0.00    -0.200 F 
ATOM     73  F   UNL A   1      43.440  36.260  34.296  1.00  0.00    -0.200 F 
ENDBRANCH  49  63
BRANCH  50  74
ATOM     74  C   UNL A   1      42.695  23.903  27.457  1.00  0.00     0.064 A 
ATOM     75  C   UNL A   1      42.259  22.705  28.041  1.00  0.00     0.173 A 
ATOM     76  C   UNL A   1      43.084  23.867  26.110  1.00  0.00     0.173 A 
ATOM     77  F   UNL A   1      41.892  22.684  29.331  1.00  0.00    -0.203 F 
ATOM     78  C   UNL A   1      42.249  21.513  27.319  1.00  0.00     0.198 A 
ATOM     79  C   UNL A   1      43.041  22.681  25.379  1.00  0.00     0.198 A 
ATOM     80  F   UNL A   1      43.500  24.986  25.500  1.00  0.00    -0.203 F 
ATOM     81  F   UNL A   1      41.886  20.372  27.921  1.00  0.00    -0.200 F 
ATOM     82  C   UNL A   1      42.636  21.503  25.988  1.00  0.00     0.200 A 
ATOM     83  F   UNL A   1      43.400  22.679  24.088  1.00  0.00    -0.200 F 
ATOM     84  F   UNL A   1      42.629  20.356  25.295  1.00  0.00    -0.200 F 
ENDBRANCH  50  74
BRANCH  62  85
ATOM     85  C   UNL A   1      47.709  26.866  31.282  1.00  0.00     0.064 A 
ATOM     86  C   UNL A   1      47.945  26.027  32.381  1.00  0.00     0.173 A 
ATOM     87  C   UNL A   1      48.808  27.253  30.501  1.00  0.00     0.173 A 
ATOM     88  F   UNL A   1      46.927  25.641  33.167  1.00  0.00    -0.203 F 
ATOM     89  C   UNL A   1      49.234  25.613  32.699  1.00  0.00     0.198 A 
ATOM     90  C   UNL A   1      50.093  26.810  30.803  1.00  0.00     0.198 A 
ATOM     91  F   UNL A   1      48.635  28.049  29.435  1.00  0.00    -0.203 F 
ATOM     92  F   UNL A   1      49.443  24.852  33.783  1.00  0.00    -0.200 F 
ATOM     93  C   UNL A   1      50.306  25.997  31.907  1.00  0.00     0.200 A 
ATOM     94  F   UNL A   1      51.123  27.169  30.027  1.00  0.00    -0.200 F 
ATOM     95  F   UNL A   1      51.545  25.590  32.210  1.00  0.00    -0.200 F 
ENDBRANCH  62  85
ENDBRANCH  36  37
ENDBRANCH  28  31
ENDBRANCH  26  27
ENDBRANCH   1  26
TORSDOF 14
ENDMDL
MODEL 3
REMARK VINA RESULT:     -12.4      5.867     11.167
REMARK SMILES CC(C)[NH2+][C@]1(C(=O)NCCCNC(=O)c2ccc(-c3c4nc(c(-c5c(F)c(F)c(F)c(F)c5F)c5ccc([nH]5)c(-c5c(F)c(F)c(F)c(F)c5F)c5nc(c(-c6c(F)c(F)c(F)c(F)c6F)c6ccc3[nH]6)C=C5)C=C4)cc2)CCC[C@@H](Sc2nnnn2C)C1
REMARK SMILES IDX 10 1 9 2 8 3 6 4 7 5 5 7 78 8 89 9 79 10 81 11 80 12 4 13
REMARK SMILES IDX 2 16 1 17 3 18 82 19 83 20 84 21 87 22 85 23 86 24 88 25
REMARK SMILES IDX 11 26 12 27 13 28 14 30 15 31 16 32 77 33 17 34 76 35 18 36
REMARK SMILES IDX 19 37 20 38 70 39 21 40 75 41 69 42 71 43 22 44 74 45 68 46
REMARK SMILES IDX 67 47 23 49 55 50 35 51 54 52 36 53 39 54 53 55 72 56 37 57
REMARK SMILES IDX 38 58 52 60 73 61 40 62 24 63 25 64 33 65 26 66 27 67 31 68
REMARK SMILES IDX 34 69 28 70 29 71 32 72 30 73 56 74 57 75 65 76 58 77 59 78
REMARK SMILES IDX 63 79 66 80 60 81 61 82 64 83 62 84 41 85 42 86 50 87 43 88
REMARK SMILES IDX 44 89 48 90 51 91 45 92 46 93 49 94 47 95
REMARK H PARENT 8 6 4 14 4 15 12 29 71 48 39 59
REMARK Flexibility Score: inf
ROOT
ATOM      1  C   UNL A   1      38.223  19.202  24.979  1.00  0.00     0.042 C 
ENDROOT
BRANCH   1   2
ATOM      2  C   UNL A   1      36.983  20.087  25.014  1.00  0.00     0.118 C 
BRANCH   2   3
ATOM      3  N   UNL A   1      37.298  21.474  25.313  1.00  0.00    -0.351 N 
ATOM      4  C   UNL A   1      36.607  22.618  25.549  1.00  0.00     0.281 C 
ATOM      5  O   UNL A   1      37.338  23.576  25.854  1.00  0.00    -0.268 OA
ATOM      6  H   UNL A   1      38.270  21.624  25.357  1.00  0.00     0.163 HD
BRANCH   4   7
ATOM      7  C   UNL A   1      35.027  22.816  25.510  1.00  0.00     0.176 C 
ATOM      8  C   UNL A   1      34.366  22.871  26.896  1.00  0.00     0.079 C 
ATOM      9  C   UNL A   1      34.865  24.206  24.840  1.00  0.00     0.094 C 
ATOM     10  C   UNL A   1      32.943  23.404  26.957  1.00  0.00     0.008 C 
ATOM     11  C   UNL A   1      33.465  24.822  24.907  1.00  0.00     0.061 C 
ATOM     12  C   UNL A   1      32.851  24.786  26.310  1.00  0.00     0.015 C 
BRANCH   7  13
ATOM     13  N   UNL A   1      34.525  21.656  24.749  1.00  0.00    -0.332 N 
ATOM     14  H   UNL A   1      34.757  21.854  23.775  1.00  0.00     0.347 HD
ATOM     15  H   UNL A   1      34.962  20.899  25.274  1.00  0.00     0.347 HD
BRANCH  13  16
ATOM     16  C   UNL A   1      33.151  21.186  24.726  1.00  0.00     0.176 C 
ATOM     17  C   UNL A   1      32.519  21.556  23.378  1.00  0.00     0.075 C 
ATOM     18  C   UNL A   1      33.067  19.666  24.880  1.00  0.00     0.075 C 
ENDBRANCH  13  16
ENDBRANCH   7  13
BRANCH  11  19
ATOM     19  S   UNL A   1      33.487  26.498  24.149  1.00  0.00    -0.081 SA
BRANCH  19  20
ATOM     20  C   UNL A   1      32.999  26.203  22.521  1.00  0.00     0.209 A 
ATOM     21  N   UNL A   1      33.713  25.577  21.614  1.00  0.00    -0.102 NA
ATOM     22  N   UNL A   1      31.824  26.599  21.952  1.00  0.00    -0.224 N 
ATOM     23  N   UNL A   1      32.948  25.569  20.473  1.00  0.00    -0.023 NA
ATOM     24  N   UNL A   1      31.787  26.178  20.674  1.00  0.00    -0.045 NA
ATOM     25  C   UNL A   1      30.690  27.293  22.494  1.00  0.00     0.179 C 
ENDBRANCH  19  20
ENDBRANCH  11  19
ENDBRANCH   4   7
ENDBRANCH   2   3
ENDBRANCH   1   2
BRANCH   1  26
ATOM     26  C   UNL A   1      39.384  19.819  25.754  1.00  0.00     0.118 C 
BRANCH  26  27
ATOM     27  N   UNL A   1      40.488  18.874  25.917  1.00  0.00    -0.352 N 
ATOM     28  C   UNL A   1      41.834  19.086  26.062  1.00  0.00     0.251 C 
ATOM     29  H   UNL A   1      40.219  17.927  25.922  1.00  0.00     0.163 HD
ATOM     30  O   UNL A   1      42.613  18.149  25.919  1.00  0.00    -0.269 OA
BRANCH  28  31
ATOM     31  C   UNL A   1      42.351  20.428  26.390  1.00  0.00     0.039 A 
ATOM     32  C   UNL A   1      42.948  21.191  25.382  1.00  0.00     0.014 A 
ATOM     33  C   UNL A   1      42.293  20.916  27.697  1.00  0.00     0.014 A 
ATOM     34  C   UNL A   1      43.429  22.468  25.674  1.00  0.00     0.010 A 
ATOM     35  C   UNL A   1      42.686  22.221  27.966  1.00  0.00     0.010 A 
ATOM     36  C   UNL A   1      43.268  23.007  26.961  1.00  0.00    -0.014 A 
BRANCH  36  37
ATOM     37  C   UNL A   1      43.708  24.385  27.285  1.00  0.00     0.031 A 
ATOM     38  C   UNL A   1      42.701  25.405  27.743  1.00  0.00     0.074 A 
ATOM     39  C   UNL A   1      44.993  24.734  27.084  1.00  0.00     0.049 A 
ATOM     40  N   UNL A   1      42.862  26.684  27.967  1.00  0.00    -0.248 NA
ATOM     41  C   UNL A   1      41.320  24.933  27.942  1.00  0.00     0.031 C 
ATOM     42  C   UNL A   1      46.044  23.844  26.588  1.00  0.00     0.029 A 
ATOM     43  N   UNL A   1      45.630  25.938  27.254  1.00  0.00    -0.354 N 
ATOM     44  C   UNL A   1      41.606  27.170  28.306  1.00  0.00     0.074 A 
ATOM     45  C   UNL A   1      40.682  26.062  28.212  1.00  0.00     0.031 C 
ATOM     46  C   UNL A   1      47.198  24.527  26.508  1.00  0.00     0.029 A 
ATOM     47  C   UNL A   1      46.959  25.910  26.904  1.00  0.00     0.049 A 
ATOM     48  H   UNL A   1      45.179  26.745  27.592  1.00  0.00     0.167 HD
ATOM     49  C   UNL A   1      41.262  28.423  28.685  1.00  0.00     0.037 A 
ATOM     50  C   UNL A   1      47.876  26.896  26.891  1.00  0.00     0.037 A 
ATOM     51  C   UNL A   1      42.198  29.507  28.820  1.00  0.00     0.049 A 
ATOM     52  C   UNL A   1      47.466  28.275  27.334  1.00  0.00     0.074 A 
ATOM     53  C   UNL A   1      41.967  30.792  29.277  1.00  0.00     0.029 A 
ATOM     54  N   UNL A   1      43.546  29.431  28.498  1.00  0.00    -0.354 N 
ATOM     55  N   UNL A   1      46.291  28.702  27.732  1.00  0.00    -0.248 NA
ATOM     56  C   UNL A   1      48.510  29.308  27.334  1.00  0.00     0.031 C 
ATOM     57  C   UNL A   1      43.164  31.510  29.183  1.00  0.00     0.029 A 
ATOM     58  C   UNL A   1      44.153  30.655  28.723  1.00  0.00     0.049 A 
ATOM     59  H   UNL A   1      44.001  28.626  28.161  1.00  0.00     0.167 HD
ATOM     60  C   UNL A   1      46.463  30.041  28.057  1.00  0.00     0.074 A 
ATOM     61  C   UNL A   1      47.859  30.350  27.829  1.00  0.00     0.031 C 
ATOM     62  C   UNL A   1      45.547  30.936  28.502  1.00  0.00     0.037 A 
BRANCH  49  63
ATOM     63  C   UNL A   1      39.819  28.696  28.993  1.00  0.00     0.064 A 
ATOM     64  C   UNL A   1      39.285  28.485  30.273  1.00  0.00     0.173 A 
ATOM     65  C   UNL A   1      38.976  29.243  28.013  1.00  0.00     0.173 A 
ATOM     66  F   UNL A   1      40.044  27.953  31.242  1.00  0.00    -0.203 F 
ATOM     67  C   UNL A   1      37.957  28.795  30.556  1.00  0.00     0.198 A 
ATOM     68  C   UNL A   1      37.657  29.580  28.308  1.00  0.00     0.198 A 
ATOM     69  F   UNL A   1      39.437  29.469  26.774  1.00  0.00    -0.203 F 
ATOM     70  F   UNL A   1      37.459  28.549  31.776  1.00  0.00    -0.200 F 
ATOM     71  C   UNL A   1      37.148  29.352  29.577  1.00  0.00     0.200 A 
ATOM     72  F   UNL A   1      36.881  30.131  27.365  1.00  0.00    -0.200 F 
ATOM     73  F   UNL A   1      35.876  29.667  29.857  1.00  0.00    -0.200 F 
ENDBRANCH  49  63
BRANCH  50  74
ATOM     74  C   UNL A   1      49.270  26.619  26.452  1.00  0.00     0.064 A 
ATOM     75  C   UNL A   1      50.237  26.169  27.361  1.00  0.00     0.173 A 
ATOM     76  C   UNL A   1      49.670  26.825  25.123  1.00  0.00     0.173 A 
ATOM     77  F   UNL A   1      49.908  25.973  28.647  1.00  0.00    -0.203 F 
ATOM     78  C   UNL A   1      51.559  25.969  26.967  1.00  0.00     0.198 A 
ATOM     79  C   UNL A   1      50.984  26.592  24.723  1.00  0.00     0.198 A 
ATOM     80  F   UNL A   1      48.783  27.247  24.211  1.00  0.00    -0.203 F 
ATOM     81  F   UNL A   1      52.475  25.597  27.872  1.00  0.00    -0.200 F 
ATOM     82  C   UNL A   1      51.930  26.177  25.648  1.00  0.00     0.200 A 
ATOM     83  F   UNL A   1      51.335  26.779  23.443  1.00  0.00    -0.200 F 
ATOM     84  F   UNL A   1      53.202  25.988  25.270  1.00  0.00    -0.200 F 
ENDBRANCH  50  74
BRANCH  62  85
ATOM     85  C   UNL A   1      46.034  32.322  28.809  1.00  0.00     0.064 A 
ATOM     86  C   UNL A   1      46.014  33.341  27.845  1.00  0.00     0.173 A 
ATOM     87  C   UNL A   1      46.483  32.645  30.098  1.00  0.00     0.173 A 
ATOM     88  F   UNL A   1      45.606  33.078  26.594  1.00  0.00    -0.203 F 
ATOM     89  C   UNL A   1      46.452  34.625  28.154  1.00  0.00     0.198 A 
ATOM     90  C   UNL A   1      46.890  33.938  30.412  1.00  0.00     0.198 A 
ATOM     91  F   UNL A   1      46.514  31.708  31.059  1.00  0.00    -0.203 F 
ATOM     92  F   UNL A   1      46.472  35.569  27.203  1.00  0.00    -0.200 F 
ATOM     93  C   UNL A   1      46.882  34.925  29.438  1.00  0.00     0.200 A 
ATOM     94  F   UNL A   1      47.288  34.230  31.657  1.00  0.00    -0.200 F 
ATOM     95  F   UNL A   1      47.294  36.164  29.735  1.00  0.00    -0.200 F 
ENDBRANCH  62  85
ENDBRANCH  36  37
ENDBRANCH  28  31
ENDBRANCH  26  27
ENDBRANCH   1  26
TORSDOF 14
ENDMDL
