MODEL 1
REMARK VINA RESULT:     -12.1      0.000      0.000
REMARK SMILES O=C(NCCCNC(=O)[C@H]1CC[C@@H](C[NH2+][C@H]2CCC[C@H](C3CC3)C2)CC1)c1ccc(-c2c3nc(c(-c4c(F)c(F)c(F)c(F)c4F)c4ccc([nH]4)c(-c4c(F)c(F)c(F)c(F)c4F)c4nc(c(-c5c(F)c(F)c(F)c(F)c5F)c5ccc2[nH]5)C=C4)C=C3)cc1
REMARK SMILES IDX 6 1 5 2 4 3 3 4 1 5 2 6 27 8 28 9 89 10 29 11 88 12 30 13
REMARK SMILES IDX 31 14 32 15 82 16 33 17 87 18 81 19 83 20 34 21 86 22 80 23
REMARK SMILES IDX 79 24 35 26 67 27 47 28 66 29 48 30 51 31 65 32 84 33 49 34
REMARK SMILES IDX 50 35 64 37 85 38 52 39 36 40 37 41 45 42 38 43 39 44 43 45
REMARK SMILES IDX 46 46 40 47 41 48 44 49 42 50 68 51 69 52 77 53 70 54 71 55
REMARK SMILES IDX 75 56 78 57 72 58 73 59 76 60 74 61 53 62 54 63 62 64 55 65
REMARK SMILES IDX 56 66 60 67 63 68 57 69 58 70 61 71 59 72 7 73 8 74 9 76
REMARK SMILES IDX 10 77 26 78 11 79 25 80 12 81 13 82 14 83 15 84 16 87 17 88
REMARK SMILES IDX 24 89 18 90 20 91 19 92 21 93 22 94 23 95
REMARK H PARENT 3 7 83 25 51 36 7 75 15 85 15 86
REMARK Flexibility Score: inf
ROOT
ATOM      1  C   UNL A   1      37.166  20.678  24.661  1.00  0.00     0.117 C 
ENDROOT
BRANCH   1   2
ATOM      2  C   UNL A   1      38.141  19.566  25.001  1.00  0.00     0.042 C 
BRANCH   2   3
ATOM      3  C   UNL A   1      39.261  20.054  25.910  1.00  0.00     0.118 C 
BRANCH   3   4
ATOM      4  N   UNL A   1      40.385  19.119  25.943  1.00  0.00    -0.352 N 
ATOM      5  O   UNL A   1      42.526  18.446  25.754  1.00  0.00    -0.269 OA
ATOM      6  C   UNL A   1      41.738  19.347  26.018  1.00  0.00     0.251 C 
ATOM      7  H   UNL A   1      40.131  18.169  25.904  1.00  0.00     0.163 HD
BRANCH   6   8
ATOM      8  C   UNL A   1      42.242  20.680  26.406  1.00  0.00     0.039 A 
ATOM      9  C   UNL A   1      42.362  21.018  27.752  1.00  0.00     0.014 A 
ATOM     10  C   UNL A   1      42.621  21.594  25.419  1.00  0.00     0.014 A 
ATOM     11  C   UNL A   1      42.653  22.324  28.110  1.00  0.00     0.010 A 
ATOM     12  C   UNL A   1      43.047  22.874  25.788  1.00  0.00     0.010 A 
ATOM     13  C   UNL A   1      43.020  23.263  27.136  1.00  0.00    -0.014 A 
BRANCH  13  14
ATOM     14  C   UNL A   1      43.409  24.628  27.573  1.00  0.00     0.031 A 
ATOM     15  C   UNL A   1      44.845  25.069  27.557  1.00  0.00     0.074 A 
ATOM     16  C   UNL A   1      42.437  25.489  27.932  1.00  0.00     0.049 A 
ATOM     17  N   UNL A   1      45.352  26.238  27.862  1.00  0.00    -0.248 NA
ATOM     18  C   UNL A   1      45.847  24.070  27.157  1.00  0.00     0.031 C 
ATOM     19  C   UNL A   1      41.008  25.168  27.987  1.00  0.00     0.029 A 
ATOM     20  N   UNL A   1      42.491  26.812  28.285  1.00  0.00    -0.354 N 
ATOM     21  C   UNL A   1      46.728  26.105  27.723  1.00  0.00     0.074 A 
ATOM     22  C   UNL A   1      46.980  24.735  27.331  1.00  0.00     0.031 C 
ATOM     23  C   UNL A   1      40.317  26.278  28.281  1.00  0.00     0.029 A 
ATOM     24  C   UNL A   1      41.256  27.367  28.516  1.00  0.00     0.049 A 
ATOM     25  H   UNL A   1      43.333  27.316  28.365  1.00  0.00     0.167 HD
ATOM     26  C   UNL A   1      47.688  27.045  27.902  1.00  0.00     0.037 A 
ATOM     27  C   UNL A   1      40.917  28.614  28.888  1.00  0.00     0.037 A 
ATOM     28  C   UNL A   1      47.421  28.412  28.272  1.00  0.00     0.049 A 
ATOM     29  C   UNL A   1      42.004  29.626  29.100  1.00  0.00     0.074 A 
ATOM     30  C   UNL A   1      48.318  29.452  28.440  1.00  0.00     0.029 A 
ATOM     31  N   UNL A   1      46.159  28.928  28.537  1.00  0.00    -0.354 N 
ATOM     32  N   UNL A   1      43.298  29.497  28.935  1.00  0.00    -0.248 NA
ATOM     33  C   UNL A   1      41.584  30.956  29.554  1.00  0.00     0.031 C 
ATOM     34  C   UNL A   1      47.607  30.581  28.864  1.00  0.00     0.029 A 
ATOM     35  C   UNL A   1      46.259  30.265  28.893  1.00  0.00     0.049 A 
ATOM     36  H   UNL A   1      45.318  28.420  28.479  1.00  0.00     0.167 HD
ATOM     37  C   UNL A   1      43.844  30.737  29.230  1.00  0.00     0.074 A 
ATOM     38  C   UNL A   1      42.737  31.608  29.572  1.00  0.00     0.031 C 
ATOM     39  C   UNL A   1      45.145  31.121  29.219  1.00  0.00     0.037 A 
BRANCH  26  40
ATOM     40  C   UNL A   1      49.120  26.619  27.737  1.00  0.00     0.064 A 
ATOM     41  C   UNL A   1      49.722  26.492  26.476  1.00  0.00     0.173 A 
ATOM     42  C   UNL A   1      49.915  26.361  28.866  1.00  0.00     0.173 A 
ATOM     43  F   UNL A   1      49.007  26.715  25.362  1.00  0.00    -0.203 F 
ATOM     44  C   UNL A   1      51.050  26.090  26.350  1.00  0.00     0.198 A 
ATOM     45  C   UNL A   1      51.252  25.992  28.738  1.00  0.00     0.198 A 
ATOM     46  F   UNL A   1      49.396  26.473  30.099  1.00  0.00    -0.203 F 
ATOM     47  F   UNL A   1      51.584  25.921  25.132  1.00  0.00    -0.200 F 
ATOM     48  C   UNL A   1      51.815  25.848  27.480  1.00  0.00     0.200 A 
ATOM     49  F   UNL A   1      51.994  25.774  29.833  1.00  0.00    -0.200 F 
ATOM     50  F   UNL A   1      53.094  25.466  27.357  1.00  0.00    -0.200 F 
ENDBRANCH  26  40
BRANCH  27  51
ATOM     51  C   UNL A   1      39.485  28.967  29.076  1.00  0.00     0.064 A 
ATOM     52  C   UNL A   1      38.878  28.870  30.335  1.00  0.00     0.173 A 
ATOM     53  C   UNL A   1      38.698  29.417  28.004  1.00  0.00     0.173 A 
ATOM     54  F   UNL A   1      39.584  28.431  31.386  1.00  0.00    -0.203 F 
ATOM     55  C   UNL A   1      37.534  29.191  30.511  1.00  0.00     0.198 A 
ATOM     56  C   UNL A   1      37.364  29.769  28.189  1.00  0.00     0.198 A 
ATOM     57  F   UNL A   1      39.234  29.536  26.780  1.00  0.00    -0.203 F 
ATOM     58  F   UNL A   1      36.965  29.045  31.717  1.00  0.00    -0.200 F 
ATOM     59  C   UNL A   1      36.780  29.647  29.440  1.00  0.00     0.200 A 
ATOM     60  F   UNL A   1      36.646  30.229  27.156  1.00  0.00    -0.200 F 
ATOM     61  F   UNL A   1      35.490  29.962  29.612  1.00  0.00    -0.200 F 
ENDBRANCH  27  51
BRANCH  39  62
ATOM     62  C   UNL A   1      45.433  32.562  29.527  1.00  0.00     0.064 A 
ATOM     63  C   UNL A   1      45.720  33.002  30.828  1.00  0.00     0.173 A 
ATOM     64  C   UNL A   1      45.434  33.516  28.497  1.00  0.00     0.173 A 
ATOM     65  F   UNL A   1      45.714  32.134  31.850  1.00  0.00    -0.203 F 
ATOM     66  C   UNL A   1      45.959  34.348  31.091  1.00  0.00     0.198 A 
ATOM     67  C   UNL A   1      45.710  34.854  28.758  1.00  0.00     0.198 A 
ATOM     68  F   UNL A   1      45.172  33.147  27.233  1.00  0.00    -0.203 F 
ATOM     69  F   UNL A   1      46.167  34.755  32.351  1.00  0.00    -0.200 F 
ATOM     70  C   UNL A   1      45.961  35.271  30.056  1.00  0.00     0.200 A 
ATOM     71  F   UNL A   1      45.727  35.741  27.754  1.00  0.00    -0.200 F 
ATOM     72  F   UNL A   1      46.195  36.565  30.311  1.00  0.00    -0.200 F 
ENDBRANCH  39  62
ENDBRANCH  13  14
ENDBRANCH   6   8
ENDBRANCH   3   4
ENDBRANCH   2   3
ENDBRANCH   1   2
BRANCH   1  73
ATOM     73  N   UNL A   1      35.917  20.531  25.388  1.00  0.00    -0.356 N 
ATOM     74  C   UNL A   1      34.669  21.033  25.263  1.00  0.00     0.223 C 
ATOM     75  H   UNL A   1      36.000  19.920  26.155  1.00  0.00     0.163 HD
ATOM     76  O   UNL A   1      33.892  20.704  26.171  1.00  0.00    -0.275 OA
BRANCH  74  77
ATOM     77  C   UNL A   1      34.188  21.983  24.151  1.00  0.00     0.078 C 
ATOM     78  C   UNL A   1      32.677  22.179  24.017  1.00  0.00     0.014 C 
ATOM     79  C   UNL A   1      34.937  23.320  24.369  1.00  0.00     0.014 C 
ATOM     80  C   UNL A   1      32.231  23.394  23.212  1.00  0.00     0.010 C 
ATOM     81  C   UNL A   1      34.413  24.486  23.538  1.00  0.00     0.010 C 
ATOM     82  C   UNL A   1      32.899  24.683  23.697  1.00  0.00     0.044 C 
BRANCH  82  83
ATOM     83  C   UNL A   1      32.445  25.031  25.137  1.00  0.00     0.264 C 
BRANCH  83  84
ATOM     84  N   UNL A   1      33.150  26.192  25.669  1.00  0.00    -0.344 N 
ATOM     85  H   UNL A   1      33.498  26.745  24.886  1.00  0.00     0.346 HD
ATOM     86  H   UNL A   1      33.905  25.839  26.259  1.00  0.00     0.346 HD
BRANCH  84  87
ATOM     87  C   UNL A   1      32.310  27.057  26.513  1.00  0.00     0.182 C 
ATOM     88  C   UNL A   1      33.075  28.213  27.183  1.00  0.00     0.065 C 
ATOM     89  C   UNL A   1      31.190  27.648  25.640  1.00  0.00     0.069 C 
ATOM     90  C   UNL A   1      33.644  29.199  26.169  1.00  0.00     0.006 C 
ATOM     91  C   UNL A   1      31.688  28.679  24.599  1.00  0.00    -0.002 C 
ATOM     92  C   UNL A   1      32.546  29.764  25.272  1.00  0.00     0.004 C 
BRANCH  91  93
ATOM     93  C   UNL A   1      30.504  29.231  23.823  1.00  0.00    -0.008 C 
ATOM     94  C   UNL A   1      30.425  29.279  22.313  1.00  0.00     0.004 C 
ATOM     95  C   UNL A   1      29.594  28.286  23.073  1.00  0.00     0.004 C 
ENDBRANCH  91  93
ENDBRANCH  84  87
ENDBRANCH  83  84
ENDBRANCH  82  83
ENDBRANCH  74  77
ENDBRANCH   1  73
TORSDOF 14
ENDMDL
MODEL 2
REMARK VINA RESULT:     -12.1      5.367     10.789
REMARK SMILES O=C(NCCCNC(=O)[C@H]1CC[C@@H](C[NH2+][C@H]2CCC[C@H](C3CC3)C2)CC1)c1ccc(-c2c3nc(c(-c4c(F)c(F)c(F)c(F)c4F)c4ccc([nH]4)c(-c4c(F)c(F)c(F)c(F)c4F)c4nc(c(-c5c(F)c(F)c(F)c(F)c5F)c5ccc2[nH]5)C=C4)C=C3)cc1
REMARK SMILES IDX 6 1 5 2 4 3 3 4 1 5 2 6 27 8 28 9 89 10 29 11 88 12 30 13
REMARK SMILES IDX 31 14 32 15 82 16 33 17 87 18 81 19 83 20 34 21 86 22 80 23
REMARK SMILES IDX 79 24 35 26 67 27 47 28 66 29 48 30 51 31 65 32 84 33 49 34
REMARK SMILES IDX 50 35 64 37 85 38 52 39 36 40 37 41 45 42 38 43 39 44 43 45
REMARK SMILES IDX 46 46 40 47 41 48 44 49 42 50 68 51 69 52 77 53 70 54 71 55
REMARK SMILES IDX 75 56 78 57 72 58 73 59 76 60 74 61 53 62 54 63 62 64 55 65
REMARK SMILES IDX 56 66 60 67 63 68 57 69 58 70 61 71 59 72 7 73 8 74 9 76
REMARK SMILES IDX 10 77 26 78 11 79 25 80 12 81 13 82 14 83 15 84 16 87 17 88
REMARK SMILES IDX 24 89 18 90 20 91 19 92 21 93 22 94 23 95
REMARK H PARENT 3 7 83 25 51 36 7 75 15 85 15 86
REMARK Flexibility Score: inf
ROOT
ATOM      1  C   UNL A   1      31.337  30.891  26.515  1.00  0.00     0.117 C 
ENDROOT
BRANCH   1   2
ATOM      2  C   UNL A   1      31.374  32.409  26.521  1.00  0.00     0.042 C 
BRANCH   2   3
ATOM      3  C   UNL A   1      32.640  32.941  27.179  1.00  0.00     0.118 C 
BRANCH   3   4
ATOM      4  N   UNL A   1      32.476  34.316  27.647  1.00  0.00    -0.352 N 
ATOM      5  O   UNL A   1      32.562  36.035  29.100  1.00  0.00    -0.269 OA
ATOM      6  C   UNL A   1      33.038  34.973  28.716  1.00  0.00     0.251 C 
ATOM      7  H   UNL A   1      31.861  34.864  27.107  1.00  0.00     0.163 HD
BRANCH   6   8
ATOM      8  C   UNL A   1      34.207  34.392  29.407  1.00  0.00     0.039 A 
ATOM      9  C   UNL A   1      35.491  34.612  28.915  1.00  0.00     0.014 A 
ATOM     10  C   UNL A   1      34.023  33.640  30.571  1.00  0.00     0.014 A 
ATOM     11  C   UNL A   1      36.562  33.916  29.451  1.00  0.00     0.010 A 
ATOM     12  C   UNL A   1      35.126  33.047  31.193  1.00  0.00     0.010 A 
ATOM     13  C   UNL A   1      36.398  33.142  30.609  1.00  0.00    -0.014 A 
BRANCH  13  14
ATOM     14  C   UNL A   1      37.591  32.484  31.200  1.00  0.00     0.031 A 
ATOM     15  C   UNL A   1      38.061  32.826  32.586  1.00  0.00     0.074 A 
ATOM     16  C   UNL A   1      38.215  31.525  30.488  1.00  0.00     0.049 A 
ATOM     17  N   UNL A   1      39.055  32.315  33.269  1.00  0.00    -0.248 NA
ATOM     18  C   UNL A   1      37.331  33.887  33.296  1.00  0.00     0.031 C 
ATOM     19  C   UNL A   1      37.846  31.111  29.131  1.00  0.00     0.029 A 
ATOM     20  N   UNL A   1      39.262  30.701  30.810  1.00  0.00    -0.354 N 
ATOM     21  C   UNL A   1      39.089  33.011  34.471  1.00  0.00     0.074 A 
ATOM     22  C   UNL A   1      38.033  33.998  34.415  1.00  0.00     0.031 C 
ATOM     23  C   UNL A   1      38.604  30.068  28.766  1.00  0.00     0.029 A 
ATOM     24  C   UNL A   1      39.565  29.792  29.825  1.00  0.00     0.049 A 
ATOM     25  H   UNL A   1      39.749  30.756  31.664  1.00  0.00     0.167 HD
ATOM     26  C   UNL A   1      39.923  32.834  35.524  1.00  0.00     0.037 A 
ATOM     27  C   UNL A   1      40.521  28.849  29.776  1.00  0.00     0.037 A 
ATOM     28  C   UNL A   1      40.957  31.831  35.576  1.00  0.00     0.049 A 
ATOM     29  C   UNL A   1      41.444  28.692  30.949  1.00  0.00     0.074 A 
ATOM     30  C   UNL A   1      41.830  31.543  36.611  1.00  0.00     0.029 A 
ATOM     31  N   UNL A   1      41.261  30.954  34.543  1.00  0.00    -0.354 N 
ATOM     32  N   UNL A   1      41.446  29.334  32.092  1.00  0.00    -0.248 NA
ATOM     33  C   UNL A   1      42.500  27.681  30.824  1.00  0.00     0.031 C 
ATOM     34  C   UNL A   1      42.700  30.534  36.182  1.00  0.00     0.029 A 
ATOM     35  C   UNL A   1      42.326  30.144  34.907  1.00  0.00     0.049 A 
ATOM     36  H   UNL A   1      40.790  30.914  33.680  1.00  0.00     0.167 HD
ATOM     37  C   UNL A   1      42.478  28.782  32.836  1.00  0.00     0.074 A 
ATOM     38  C   UNL A   1      43.072  27.744  32.017  1.00  0.00     0.031 C 
ATOM     39  C   UNL A   1      42.897  29.106  34.084  1.00  0.00     0.037 A 
BRANCH  26  40
ATOM     40  C   UNL A   1      39.778  33.768  36.694  1.00  0.00     0.064 A 
ATOM     41  C   UNL A   1      40.446  35.001  36.753  1.00  0.00     0.173 A 
ATOM     42  C   UNL A   1      38.931  33.435  37.763  1.00  0.00     0.173 A 
ATOM     43  F   UNL A   1      41.277  35.366  35.764  1.00  0.00    -0.203 F 
ATOM     44  C   UNL A   1      40.299  35.846  37.851  1.00  0.00     0.198 A 
ATOM     45  C   UNL A   1      38.760  34.297  38.844  1.00  0.00     0.198 A 
ATOM     46  F   UNL A   1      38.261  32.272  37.758  1.00  0.00    -0.203 F 
ATOM     47  F   UNL A   1      40.992  36.992  37.909  1.00  0.00    -0.200 F 
ATOM     48  C   UNL A   1      39.452  35.497  38.891  1.00  0.00     0.200 A 
ATOM     49  F   UNL A   1      37.928  33.964  39.840  1.00  0.00    -0.200 F 
ATOM     50  F   UNL A   1      39.308  36.314  39.944  1.00  0.00    -0.200 F 
ENDBRANCH  26  40
BRANCH  27  51
ATOM     51  C   UNL A   1      40.643  27.980  28.576  1.00  0.00     0.064 A 
ATOM     52  C   UNL A   1      39.987  26.744  28.512  1.00  0.00     0.173 A 
ATOM     53  C   UNL A   1      41.410  28.371  27.467  1.00  0.00     0.173 A 
ATOM     54  F   UNL A   1      39.256  26.319  29.552  1.00  0.00    -0.203 F 
ATOM     55  C   UNL A   1      40.108  25.923  27.393  1.00  0.00     0.198 A 
ATOM     56  C   UNL A   1      41.502  27.564  26.336  1.00  0.00     0.198 A 
ATOM     57  F   UNL A   1      42.051  29.549  27.475  1.00  0.00    -0.203 F 
ATOM     58  F   UNL A   1      39.507  24.724  27.376  1.00  0.00    -0.200 F 
ATOM     59  C   UNL A   1      40.859  26.337  26.302  1.00  0.00     0.200 A 
ATOM     60  F   UNL A   1      42.211  27.979  25.277  1.00  0.00    -0.200 F 
ATOM     61  F   UNL A   1      40.968  25.551  25.224  1.00  0.00    -0.200 F 
ENDBRANCH  27  51
BRANCH  39  62
ATOM     62  C   UNL A   1      44.013  28.285  34.663  1.00  0.00     0.064 A 
ATOM     63  C   UNL A   1      45.358  28.663  34.535  1.00  0.00     0.173 A 
ATOM     64  C   UNL A   1      43.727  27.106  35.369  1.00  0.00     0.173 A 
ATOM     65  F   UNL A   1      45.687  29.771  33.855  1.00  0.00    -0.203 F 
ATOM     66  C   UNL A   1      46.377  27.870  35.060  1.00  0.00     0.198 A 
ATOM     67  C   UNL A   1      44.744  26.337  35.924  1.00  0.00     0.198 A 
ATOM     68  F   UNL A   1      42.456  26.703  35.526  1.00  0.00    -0.203 F 
ATOM     69  F   UNL A   1      47.657  28.216  34.870  1.00  0.00    -0.200 F 
ATOM     70  C   UNL A   1      46.069  26.712  35.759  1.00  0.00     0.200 A 
ATOM     71  F   UNL A   1      44.443  25.226  36.612  1.00  0.00    -0.200 F 
ATOM     72  F   UNL A   1      47.049  25.953  36.265  1.00  0.00    -0.200 F 
ENDBRANCH  39  62
ENDBRANCH  13  14
ENDBRANCH   6   8
ENDBRANCH   3   4
ENDBRANCH   2   3
ENDBRANCH   1   2
BRANCH   1  73
ATOM     73  N   UNL A   1      32.047  30.346  25.373  1.00  0.00    -0.356 N 
ATOM     74  C   UNL A   1      31.960  29.215  24.638  1.00  0.00     0.223 C 
ATOM     75  H   UNL A   1      32.765  30.942  25.058  1.00  0.00     0.163 HD
ATOM     76  O   UNL A   1      32.839  29.100  23.771  1.00  0.00    -0.275 OA
BRANCH  74  77
ATOM     77  C   UNL A   1      30.924  28.093  24.833  1.00  0.00     0.078 C 
ATOM     78  C   UNL A   1      30.475  27.344  23.577  1.00  0.00     0.014 C 
ATOM     79  C   UNL A   1      31.510  27.144  25.906  1.00  0.00     0.014 C 
ATOM     80  C   UNL A   1      29.783  26.006  23.811  1.00  0.00     0.010 C 
ATOM     81  C   UNL A   1      30.767  25.821  26.060  1.00  0.00     0.010 C 
ATOM     82  C   UNL A   1      30.598  25.087  24.723  1.00  0.00     0.044 C 
BRANCH  82  83
ATOM     83  C   UNL A   1      31.930  24.678  24.043  1.00  0.00     0.264 C 
BRANCH  83  84
ATOM     84  N   UNL A   1      32.061  23.230  23.921  1.00  0.00    -0.344 N 
ATOM     85  H   UNL A   1      32.884  23.028  23.353  1.00  0.00     0.346 HD
ATOM     86  H   UNL A   1      31.201  22.886  23.492  1.00  0.00     0.346 HD
BRANCH  84  87
ATOM     87  C   UNL A   1      32.205  22.539  25.213  1.00  0.00     0.182 C 
ATOM     88  C   UNL A   1      32.004  21.015  25.134  1.00  0.00     0.065 C 
ATOM     89  C   UNL A   1      33.614  22.823  25.761  1.00  0.00     0.069 C 
ATOM     90  C   UNL A   1      33.065  20.332  24.278  1.00  0.00     0.006 C 
ATOM     91  C   UNL A   1      34.746  22.141  24.957  1.00  0.00    -0.002 C 
ATOM     92  C   UNL A   1      34.469  20.637  24.792  1.00  0.00     0.004 C 
BRANCH  91  93
ATOM     93  C   UNL A   1      36.087  22.448  25.604  1.00  0.00    -0.008 C 
ATOM     94  C   UNL A   1      37.283  23.000  24.861  1.00  0.00     0.004 C 
ATOM     95  C   UNL A   1      36.512  23.884  25.798  1.00  0.00     0.004 C 
ENDBRANCH  91  93
ENDBRANCH  84  87
ENDBRANCH  83  84
ENDBRANCH  82  83
ENDBRANCH  74  77
ENDBRANCH   1  73
TORSDOF 14
ENDMDL
MODEL 3
REMARK VINA RESULT:     -12.1      2.071      3.590
REMARK SMILES O=C(NCCCNC(=O)[C@H]1CC[C@@H](C[NH2+][C@H]2CCC[C@H](C3CC3)C2)CC1)c1ccc(-c2c3nc(c(-c4c(F)c(F)c(F)c(F)c4F)c4ccc([nH]4)c(-c4c(F)c(F)c(F)c(F)c4F)c4nc(c(-c5c(F)c(F)c(F)c(F)c5F)c5ccc2[nH]5)C=C4)C=C3)cc1
REMARK SMILES IDX 6 1 5 2 4 3 3 4 1 5 2 6 27 8 28 9 89 10 29 11 88 12 30 13
REMARK SMILES IDX 31 14 32 15 82 16 33 17 87 18 81 19 83 20 34 21 86 22 80 23
REMARK SMILES IDX 79 24 35 26 67 27 47 28 66 29 48 30 51 31 65 32 84 33 49 34
REMARK SMILES IDX 50 35 64 37 85 38 52 39 36 40 37 41 45 42 38 43 39 44 43 45
REMARK SMILES IDX 46 46 40 47 41 48 44 49 42 50 68 51 69 52 77 53 70 54 71 55
REMARK SMILES IDX 75 56 78 57 72 58 73 59 76 60 74 61 53 62 54 63 62 64 55 65
REMARK SMILES IDX 56 66 60 67 63 68 57 69 58 70 61 71 59 72 7 73 8 74 9 76
REMARK SMILES IDX 10 77 26 78 11 79 25 80 12 81 13 82 14 83 15 84 16 87 17 88
REMARK SMILES IDX 24 89 18 90 20 91 19 92 21 93 22 94 23 95
REMARK H PARENT 3 7 83 25 51 36 7 75 15 85 15 86
REMARK Flexibility Score: inf
ROOT
ATOM      1  C   UNL A   1      33.848  22.223  26.206  1.00  0.00     0.117 C 
ENDROOT
BRANCH   1   2
ATOM      2  C   UNL A   1      35.054  22.173  25.285  1.00  0.00     0.042 C 
BRANCH   2   3
ATOM      3  C   UNL A   1      36.332  22.579  26.006  1.00  0.00     0.118 C 
BRANCH   3   4
ATOM      4  N   UNL A   1      37.341  21.521  25.968  1.00  0.00    -0.352 N 
ATOM      5  O   UNL A   1      39.394  20.622  25.744  1.00  0.00    -0.269 OA
ATOM      6  C   UNL A   1      38.710  21.583  26.077  1.00  0.00     0.251 C 
ATOM      7  H   UNL A   1      36.980  20.614  25.844  1.00  0.00     0.163 HD
BRANCH   6   8
ATOM      8  C   UNL A   1      39.355  22.810  26.587  1.00  0.00     0.039 A 
ATOM      9  C   UNL A   1      38.954  24.058  26.117  1.00  0.00     0.014 A 
ATOM     10  C   UNL A   1      40.354  22.717  27.560  1.00  0.00     0.014 A 
ATOM     11  C   UNL A   1      39.683  25.187  26.452  1.00  0.00     0.010 A 
ATOM     12  C   UNL A   1      41.000  23.876  28.000  1.00  0.00     0.010 A 
ATOM     13  C   UNL A   1      40.701  25.115  27.414  1.00  0.00    -0.014 A 
BRANCH  13  14
ATOM     14  C   UNL A   1      41.398  26.366  27.807  1.00  0.00     0.031 A 
ATOM     15  C   UNL A   1      42.800  26.651  27.346  1.00  0.00     0.074 A 
ATOM     16  C   UNL A   1      40.726  27.274  28.542  1.00  0.00     0.049 A 
ATOM     17  N   UNL A   1      43.538  27.712  27.560  1.00  0.00    -0.248 NA
ATOM     18  C   UNL A   1      43.467  25.609  26.552  1.00  0.00     0.031 C 
ATOM     19  C   UNL A   1      39.361  27.101  29.047  1.00  0.00     0.029 A 
ATOM     20  N   UNL A   1      41.077  28.529  28.965  1.00  0.00    -0.354 N 
ATOM     21  C   UNL A   1      44.762  27.453  26.957  1.00  0.00     0.074 A 
ATOM     22  C   UNL A   1      44.678  26.124  26.390  1.00  0.00     0.031 C 
ATOM     23  C   UNL A   1      38.966  28.233  29.647  1.00  0.00     0.029 A 
ATOM     24  C   UNL A   1      40.074  29.178  29.642  1.00  0.00     0.049 A 
ATOM     25  H   UNL A   1      41.963  28.926  28.799  1.00  0.00     0.167 HD
ATOM     26  C   UNL A   1      45.851  28.256  26.880  1.00  0.00     0.037 A 
ATOM     27  C   UNL A   1      40.053  30.397  30.209  1.00  0.00     0.037 A 
ATOM     28  C   UNL A   1      45.914  29.587  27.430  1.00  0.00     0.049 A 
ATOM     29  C   UNL A   1      41.282  31.254  30.127  1.00  0.00     0.074 A 
ATOM     30  C   UNL A   1      46.954  30.497  27.372  1.00  0.00     0.029 A 
ATOM     31  N   UNL A   1      44.891  30.196  28.145  1.00  0.00    -0.354 N 
ATOM     32  N   UNL A   1      42.422  31.011  29.526  1.00  0.00    -0.248 NA
ATOM     33  C   UNL A   1      41.223  32.554  30.804  1.00  0.00     0.031 C 
ATOM     34  C   UNL A   1      46.585  31.632  28.103  1.00  0.00     0.029 A 
ATOM     35  C   UNL A   1      45.288  31.460  28.557  1.00  0.00     0.049 A 
ATOM     36  H   UNL A   1      44.014  29.791  28.331  1.00  0.00     0.167 HD
ATOM     37  C   UNL A   1      43.203  32.139  29.723  1.00  0.00     0.074 A 
ATOM     38  C   UNL A   1      42.401  33.072  30.488  1.00  0.00     0.031 C 
ATOM     39  C   UNL A   1      44.471  32.381  29.308  1.00  0.00     0.037 A 
BRANCH  26  40
ATOM     40  C   UNL A   1      47.078  27.705  26.209  1.00  0.00     0.064 A 
ATOM     41  C   UNL A   1      47.272  27.786  24.821  1.00  0.00     0.173 A 
ATOM     42  C   UNL A   1      48.094  27.109  26.974  1.00  0.00     0.173 A 
ATOM     43  F   UNL A   1      46.329  28.335  24.039  1.00  0.00    -0.203 F 
ATOM     44  C   UNL A   1      48.416  27.263  24.223  1.00  0.00     0.198 A 
ATOM     45  C   UNL A   1      49.252  26.617  26.377  1.00  0.00     0.198 A 
ATOM     46  F   UNL A   1      47.968  27.009  28.306  1.00  0.00    -0.203 F 
ATOM     47  F   UNL A   1      48.551  27.303  22.890  1.00  0.00    -0.200 F 
ATOM     48  C   UNL A   1      49.408  26.686  25.001  1.00  0.00     0.200 A 
ATOM     49  F   UNL A   1      50.216  26.073  27.133  1.00  0.00    -0.200 F 
ATOM     50  F   UNL A   1      50.510  26.186  24.424  1.00  0.00    -0.200 F 
ENDBRANCH  26  40
BRANCH  27  51
ATOM     51  C   UNL A   1      38.824  30.874  30.895  1.00  0.00     0.064 A 
ATOM     52  C   UNL A   1      37.779  31.466  30.172  1.00  0.00     0.173 A 
ATOM     53  C   UNL A   1      38.664  30.740  32.283  1.00  0.00     0.173 A 
ATOM     54  F   UNL A   1      37.892  31.630  28.847  1.00  0.00    -0.203 F 
ATOM     55  C   UNL A   1      36.630  31.924  30.813  1.00  0.00     0.198 A 
ATOM     56  C   UNL A   1      37.500  31.167  32.918  1.00  0.00     0.198 A 
ATOM     57  F   UNL A   1      39.630  30.172  33.019  1.00  0.00    -0.203 F 
ATOM     58  F   UNL A   1      35.666  32.528  30.105  1.00  0.00    -0.200 F 
ATOM     59  C   UNL A   1      36.488  31.767  32.184  1.00  0.00     0.200 A 
ATOM     60  F   UNL A   1      37.359  30.994  34.238  1.00  0.00    -0.200 F 
ATOM     61  F   UNL A   1      35.380  32.200  32.799  1.00  0.00    -0.200 F 
ENDBRANCH  27  51
BRANCH  39  62
ATOM     62  C   UNL A   1      45.044  33.734  29.619  1.00  0.00     0.064 A 
ATOM     63  C   UNL A   1      44.877  34.829  28.757  1.00  0.00     0.173 A 
ATOM     64  C   UNL A   1      45.759  33.939  30.810  1.00  0.00     0.173 A 
ATOM     65  F   UNL A   1      44.217  34.682  27.600  1.00  0.00    -0.203 F 
ATOM     66  C   UNL A   1      45.439  36.067  29.058  1.00  0.00     0.198 A 
ATOM     67  C   UNL A   1      46.286  35.187  31.124  1.00  0.00     0.198 A 
ATOM     68  F   UNL A   1      45.941  32.927  31.672  1.00  0.00    -0.203 F 
ATOM     69  F   UNL A   1      45.323  37.081  28.189  1.00  0.00    -0.200 F 
ATOM     70  C   UNL A   1      46.136  36.247  30.243  1.00  0.00     0.200 A 
ATOM     71  F   UNL A   1      46.947  35.363  32.277  1.00  0.00    -0.200 F 
ATOM     72  F   UNL A   1      46.673  37.440  30.531  1.00  0.00    -0.200 F 
ENDBRANCH  39  62
ENDBRANCH  13  14
ENDBRANCH   6   8
ENDBRANCH   3   4
ENDBRANCH   2   3
ENDBRANCH   1   2
BRANCH   1  73
ATOM     73  N   UNL A   1      32.678  22.744  25.522  1.00  0.00    -0.356 N 
ATOM     74  C   UNL A   1      32.041  23.935  25.481  1.00  0.00     0.223 C 
ATOM     75  H   UNL A   1      32.244  22.068  24.953  1.00  0.00     0.163 HD
ATOM     76  O   UNL A   1      30.998  23.934  24.811  1.00  0.00    -0.275 OA
BRANCH  74  77
ATOM     77  C   UNL A   1      32.477  25.215  26.218  1.00  0.00     0.078 C 
ATOM     78  C   UNL A   1      33.836  25.803  25.832  1.00  0.00     0.014 C 
ATOM     79  C   UNL A   1      31.324  26.232  26.039  1.00  0.00     0.014 C 
ATOM     80  C   UNL A   1      34.079  27.249  26.250  1.00  0.00     0.010 C 
ATOM     81  C   UNL A   1      31.661  27.657  26.465  1.00  0.00     0.010 C 
ATOM     82  C   UNL A   1      32.946  28.176  25.805  1.00  0.00     0.044 C 
BRANCH  82  83
ATOM     83  C   UNL A   1      32.883  28.264  24.259  1.00  0.00     0.264 C 
BRANCH  83  84
ATOM     84  N   UNL A   1      31.846  29.185  23.804  1.00  0.00    -0.344 N 
ATOM     85  H   UNL A   1      32.253  30.117  23.731  1.00  0.00     0.346 HD
ATOM     86  H   UNL A   1      31.089  29.145  24.488  1.00  0.00     0.346 HD
BRANCH  84  87
ATOM     87  C   UNL A   1      31.269  28.824  22.499  1.00  0.00     0.182 C 
ATOM     88  C   UNL A   1      30.744  27.379  22.423  1.00  0.00     0.065 C 
ATOM     89  C   UNL A   1      30.106  29.787  22.199  1.00  0.00     0.069 C 
ATOM     90  C   UNL A   1      29.579  27.132  23.375  1.00  0.00     0.006 C 
ATOM     91  C   UNL A   1      28.874  29.581  23.111  1.00  0.00    -0.002 C 
ATOM     92  C   UNL A   1      28.434  28.107  23.111  1.00  0.00     0.004 C 
BRANCH  91  93
ATOM     93  C   UNL A   1      27.773  30.547  22.706  1.00  0.00    -0.008 C 
ATOM     94  C   UNL A   1      27.511  31.872  23.386  1.00  0.00     0.004 C 
ATOM     95  C   UNL A   1      28.131  31.844  22.020  1.00  0.00     0.004 C 
ENDBRANCH  91  93
ENDBRANCH  84  87
ENDBRANCH  83  84
ENDBRANCH  82  83
ENDBRANCH  74  77
ENDBRANCH   1  73
TORSDOF 14
ENDMDL
