MODEL 1
REMARK VINA RESULT:     -12.6      0.000      0.000
REMARK SMILES C[C@H]1[C@H](C(=O)NCCCNC(=O)c2ccc(-c3c4nc(c(-c5c(F)c(F)c(F)c(F)c5F)c5ccc([nH]5)c(-c5c(F)c(F)c(F)c(F)c5F)c5nc(c(-c6c(F)c(F)c(F)c(F)c6F)c6ccc3[nH]6)C=C5)C=C4)cc2)CCN1c1ccc(C(N)=O)c(Cl)c1
REMARK SMILES IDX 8 1 7 2 6 3 4 4 5 5 3 7 1 8 2 9 78 10 76 11 77 12 79 13
REMARK SMILES IDX 80 14 88 15 81 16 86 17 82 18 87 19 83 20 84 21 85 22 9 25
REMARK SMILES IDX 10 26 11 27 12 29 13 30 14 31 75 32 15 33 74 34 16 35 17 36
REMARK SMILES IDX 18 37 68 38 19 39 73 40 67 41 69 42 20 43 72 44 66 45 65 46
REMARK SMILES IDX 21 48 53 49 33 50 52 51 34 52 37 53 51 54 70 55 35 56 36 57
REMARK SMILES IDX 50 59 71 60 38 61 22 62 23 63 31 64 24 65 25 66 29 67 32 68
REMARK SMILES IDX 26 69 27 70 30 71 28 72 54 73 55 74 63 75 56 76 57 77 61 78
REMARK SMILES IDX 64 79 58 80 59 81 62 82 60 83 39 84 40 85 48 86 41 87 42 88
REMARK SMILES IDX 46 89 49 90 43 91 44 92 47 93 45 94
REMARK H PARENT 6 6 84 23 84 24 10 28 69 47 37 58
REMARK Flexibility Score: inf
ROOT
ATOM      1  C   UNL A   1      37.963  19.608  25.006  1.00  0.00     0.042 C 
ENDROOT
BRANCH   1   2
ATOM      2  C   UNL A   1      36.728  20.499  24.961  1.00  0.00     0.117 C 
BRANCH   2   3
ATOM      3  N   UNL A   1      36.872  21.586  24.008  1.00  0.00    -0.356 N 
ATOM      4  C   UNL A   1      36.015  22.574  23.634  1.00  0.00     0.225 C 
ATOM      5  O   UNL A   1      36.399  23.347  22.751  1.00  0.00    -0.275 OA
ATOM      6  H   UNL A   1      37.744  21.613  23.552  1.00  0.00     0.163 HD
BRANCH   4   7
ATOM      7  C   UNL A   1      34.640  22.752  24.253  1.00  0.00     0.102 C 
ATOM      8  C   UNL A   1      34.185  24.555  25.965  1.00  0.00     0.032 C 
ATOM      9  C   UNL A   1      34.282  24.231  24.473  1.00  0.00     0.091 C 
ATOM     10  N   UNL A   1      32.970  24.388  23.838  1.00  0.00    -0.368 N 
ATOM     11  C   UNL A   1      33.507  22.130  23.436  1.00  0.00     0.037 C 
ATOM     12  C   UNL A   1      32.343  23.107  23.549  1.00  0.00     0.118 C 
BRANCH  10  13
ATOM     13  C   UNL A   1      32.371  25.584  23.535  1.00  0.00     0.038 A 
ATOM     14  C   UNL A   1      33.122  26.719  23.224  1.00  0.00     0.027 A 
ATOM     15  C   UNL A   1      30.984  25.744  23.566  1.00  0.00     0.047 A 
ATOM     16  C   UNL A   1      32.517  27.961  22.974  1.00  0.00     0.017 A 
ATOM     17  C   UNL A   1      30.358  26.988  23.358  1.00  0.00     0.055 A 
ATOM     18  C   UNL A   1      31.123  28.121  23.050  1.00  0.00     0.058 A 
ATOM     19  Cl  UNL A   1      28.634  26.981  23.528  1.00  0.00    -0.083 Cl
BRANCH  18  20
ATOM     20  C   UNL A   1      30.508  29.471  22.844  1.00  0.00     0.250 C 
ATOM     21  N   UNL A   1      30.652  30.078  21.626  1.00  0.00    -0.366 N 
ATOM     22  O   UNL A   1      29.887  30.073  23.715  1.00  0.00    -0.269 OA
ATOM     23  H   UNL A   1      31.145  29.623  20.905  1.00  0.00     0.159 HD
ATOM     24  H   UNL A   1      30.264  30.969  21.471  1.00  0.00     0.159 HD
ENDBRANCH  18  20
ENDBRANCH  10  13
ENDBRANCH   4   7
ENDBRANCH   2   3
ENDBRANCH   1   2
BRANCH   1  25
ATOM     25  C   UNL A   1      39.048  20.093  25.953  1.00  0.00     0.118 C 
BRANCH  25  26
ATOM     26  N   UNL A   1      40.192  19.196  25.999  1.00  0.00    -0.352 N 
ATOM     27  C   UNL A   1      41.533  19.468  26.100  1.00  0.00     0.251 C 
ATOM     28  H   UNL A   1      39.968  18.239  25.950  1.00  0.00     0.163 HD
ATOM     29  O   UNL A   1      42.345  18.566  25.907  1.00  0.00    -0.269 OA
BRANCH  27  30
ATOM     30  C   UNL A   1      42.013  20.831  26.423  1.00  0.00     0.039 A 
ATOM     31  C   UNL A   1      42.225  21.733  25.376  1.00  0.00     0.014 A 
ATOM     32  C   UNL A   1      42.297  21.215  27.735  1.00  0.00     0.014 A 
ATOM     33  C   UNL A   1      42.661  23.030  25.651  1.00  0.00     0.010 A 
ATOM     34  C   UNL A   1      42.634  22.537  28.018  1.00  0.00     0.010 A 
ATOM     35  C   UNL A   1      42.833  23.455  26.980  1.00  0.00    -0.014 A 
BRANCH  35  36
ATOM     36  C   UNL A   1      43.228  24.853  27.290  1.00  0.00     0.031 A 
ATOM     37  C   UNL A   1      44.633  25.326  27.032  1.00  0.00     0.074 A 
ATOM     38  C   UNL A   1      42.330  25.686  27.852  1.00  0.00     0.049 A 
ATOM     39  N   UNL A   1      45.171  26.497  27.270  1.00  0.00    -0.248 NA
ATOM     40  C   UNL A   1      45.566  24.346  26.457  1.00  0.00     0.031 C 
ATOM     41  C   UNL A   1      40.956  25.329  28.210  1.00  0.00     0.029 A 
ATOM     42  N   UNL A   1      42.441  27.001  28.228  1.00  0.00    -0.354 N 
ATOM     43  C   UNL A   1      46.500  26.389  26.882  1.00  0.00     0.074 A 
ATOM     44  C   UNL A   1      46.706  25.021  26.457  1.00  0.00     0.031 C 
ATOM     45  C   UNL A   1      40.342  26.406  28.727  1.00  0.00     0.029 A 
ATOM     46  C   UNL A   1      41.289  27.515  28.773  1.00  0.00     0.049 A 
ATOM     47  H   UNL A   1      43.265  27.526  28.119  1.00  0.00     0.167 HD
ATOM     48  C   UNL A   1      47.456  27.348  26.854  1.00  0.00     0.037 A 
ATOM     49  C   UNL A   1      41.027  28.743  29.260  1.00  0.00     0.037 A 
ATOM     50  C   UNL A   1      47.243  28.712  27.267  1.00  0.00     0.049 A 
ATOM     51  C   UNL A   1      42.105  29.792  29.221  1.00  0.00     0.074 A 
ATOM     52  C   UNL A   1      48.130  29.773  27.231  1.00  0.00     0.029 A 
ATOM     53  N   UNL A   1      46.057  29.202  27.796  1.00  0.00    -0.354 N 
ATOM     54  N   UNL A   1      43.337  29.697  28.784  1.00  0.00    -0.248 NA
ATOM     55  C   UNL A   1      41.750  31.121  29.734  1.00  0.00     0.031 C 
ATOM     56  C   UNL A   1      47.499  30.891  27.788  1.00  0.00     0.029 A 
ATOM     57  C   UNL A   1      46.198  30.543  28.113  1.00  0.00     0.049 A 
ATOM     58  H   UNL A   1      45.237  28.674  27.927  1.00  0.00     0.167 HD
ATOM     59  C   UNL A   1      43.898  30.957  28.948  1.00  0.00     0.074 A 
ATOM     60  C   UNL A   1      42.862  31.804  29.501  1.00  0.00     0.031 C 
ATOM     61  C   UNL A   1      45.158  31.374  28.668  1.00  0.00     0.037 A 
BRANCH  48  62
ATOM     62  C   UNL A   1      48.819  26.956  26.357  1.00  0.00     0.064 A 
ATOM     63  C   UNL A   1      49.790  26.418  27.218  1.00  0.00     0.173 A 
ATOM     64  C   UNL A   1      49.152  27.090  25.001  1.00  0.00     0.173 A 
ATOM     65  F   UNL A   1      49.529  26.278  28.526  1.00  0.00    -0.203 F 
ATOM     66  C   UNL A   1      51.052  26.065  26.745  1.00  0.00     0.198 A 
ATOM     67  C   UNL A   1      50.403  26.702  24.526  1.00  0.00     0.198 A 
ATOM     68  F   UNL A   1      48.262  27.592  24.132  1.00  0.00    -0.203 F 
ATOM     69  F   UNL A   1      51.980  25.608  27.598  1.00  0.00    -0.200 F 
ATOM     70  C   UNL A   1      51.354  26.200  25.400  1.00  0.00     0.200 A 
ATOM     71  F   UNL A   1      50.689  26.819  23.222  1.00  0.00    -0.200 F 
ATOM     72  F   UNL A   1      52.567  25.852  24.946  1.00  0.00    -0.200 F 
ENDBRANCH  48  62
BRANCH  49  73
ATOM     73  C   UNL A   1      39.679  29.048  29.808  1.00  0.00     0.064 A 
ATOM     74  C   UNL A   1      39.390  28.857  31.166  1.00  0.00     0.173 A 
ATOM     75  C   UNL A   1      38.652  29.533  28.985  1.00  0.00     0.173 A 
ATOM     76  F   UNL A   1      40.331  28.371  31.989  1.00  0.00    -0.203 F 
ATOM     77  C   UNL A   1      38.120  29.119  31.676  1.00  0.00     0.198 A 
ATOM     78  C   UNL A   1      37.391  29.825  29.501  1.00  0.00     0.198 A 
ATOM     79  F   UNL A   1      38.877  29.733  27.678  1.00  0.00    -0.203 F 
ATOM     80  F   UNL A   1      37.856  28.876  32.967  1.00  0.00    -0.200 F 
ATOM     81  C   UNL A   1      37.124  29.609  30.845  1.00  0.00     0.200 A 
ATOM     82  F   UNL A   1      36.433  30.305  28.696  1.00  0.00    -0.200 F 
ATOM     83  F   UNL A   1      35.903  29.859  31.337  1.00  0.00    -0.200 F 
ENDBRANCH  49  73
BRANCH  61  84
ATOM     84  C   UNL A   1      45.475  32.820  28.931  1.00  0.00     0.064 A 
ATOM     85  C   UNL A   1      45.241  33.814  27.969  1.00  0.00     0.173 A 
ATOM     86  C   UNL A   1      46.002  33.217  30.170  1.00  0.00     0.173 A 
ATOM     87  F   UNL A   1      44.751  33.486  26.764  1.00  0.00    -0.203 F 
ATOM     88  C   UNL A   1      45.556  35.146  28.225  1.00  0.00     0.198 A 
ATOM     89  C   UNL A   1      46.283  34.555  30.434  1.00  0.00     0.198 A 
ATOM     90  F   UNL A   1      46.236  32.309  31.129  1.00  0.00    -0.203 F 
ATOM     91  F   UNL A   1      45.381  36.069  27.268  1.00  0.00    -0.200 F 
ATOM     92  C   UNL A   1      46.071  35.516  29.458  1.00  0.00     0.200 A 
ATOM     93  F   UNL A   1      46.763  34.913  31.633  1.00  0.00    -0.200 F 
ATOM     94  F   UNL A   1      46.371  36.799  29.703  1.00  0.00    -0.200 F 
ENDBRANCH  61  84
ENDBRANCH  35  36
ENDBRANCH  27  30
ENDBRANCH  25  26
ENDBRANCH   1  25
TORSDOF 12
ENDMDL
MODEL 2
REMARK VINA RESULT:     -12.6      5.145     10.931
REMARK SMILES C[C@H]1[C@H](C(=O)NCCCNC(=O)c2ccc(-c3c4nc(c(-c5c(F)c(F)c(F)c(F)c5F)c5ccc([nH]5)c(-c5c(F)c(F)c(F)c(F)c5F)c5nc(c(-c6c(F)c(F)c(F)c(F)c6F)c6ccc3[nH]6)C=C5)C=C4)cc2)CCN1c1ccc(C(N)=O)c(Cl)c1
REMARK SMILES IDX 8 1 7 2 6 3 4 4 5 5 3 7 1 8 2 9 78 10 76 11 77 12 79 13
REMARK SMILES IDX 80 14 88 15 81 16 86 17 82 18 87 19 83 20 84 21 85 22 9 25
REMARK SMILES IDX 10 26 11 27 12 29 13 30 14 31 75 32 15 33 74 34 16 35 17 36
REMARK SMILES IDX 18 37 68 38 19 39 73 40 67 41 69 42 20 43 72 44 66 45 65 46
REMARK SMILES IDX 21 48 53 49 33 50 52 51 34 52 37 53 51 54 70 55 35 56 36 57
REMARK SMILES IDX 50 59 71 60 38 61 22 62 23 63 31 64 24 65 25 66 29 67 32 68
REMARK SMILES IDX 26 69 27 70 30 71 28 72 54 73 55 74 63 75 56 76 57 77 61 78
REMARK SMILES IDX 64 79 58 80 59 81 62 82 60 83 39 84 40 85 48 86 41 87 42 88
REMARK SMILES IDX 46 89 49 90 43 91 44 92 47 93 45 94
REMARK H PARENT 6 6 84 23 84 24 10 28 69 47 37 58
REMARK Flexibility Score: inf
ROOT
ATOM      1  C   UNL A   1      31.402  31.865  26.514  1.00  0.00     0.042 C 
ENDROOT
BRANCH   1   2
ATOM      2  C   UNL A   1      31.570  30.480  25.901  1.00  0.00     0.117 C 
BRANCH   2   3
ATOM      3  N   UNL A   1      31.542  29.430  26.906  1.00  0.00    -0.356 N 
ATOM      4  C   UNL A   1      31.562  28.075  26.793  1.00  0.00     0.225 C 
ATOM      5  O   UNL A   1      31.479  27.422  27.837  1.00  0.00    -0.275 OA
ATOM      6  H   UNL A   1      31.500  29.758  27.834  1.00  0.00     0.163 HD
BRANCH   4   7
ATOM      7  C   UNL A   1      31.681  27.361  25.457  1.00  0.00     0.102 C 
ATOM      8  C   UNL A   1      33.864  26.339  24.696  1.00  0.00     0.032 C 
ATOM      9  C   UNL A   1      32.598  26.130  25.530  1.00  0.00     0.091 C 
ATOM     10  N   UNL A   1      31.796  25.042  24.963  1.00  0.00    -0.368 N 
ATOM     11  C   UNL A   1      30.343  26.894  24.883  1.00  0.00     0.037 C 
ATOM     12  C   UNL A   1      30.625  25.535  24.253  1.00  0.00     0.118 C 
BRANCH  10  13
ATOM     13  C   UNL A   1      32.082  23.705  25.068  1.00  0.00     0.038 A 
ATOM     14  C   UNL A   1      32.611  23.160  26.239  1.00  0.00     0.027 A 
ATOM     15  C   UNL A   1      31.903  22.824  23.998  1.00  0.00     0.047 A 
ATOM     16  C   UNL A   1      32.964  21.805  26.332  1.00  0.00     0.017 A 
ATOM     17  C   UNL A   1      32.286  21.471  24.055  1.00  0.00     0.055 A 
ATOM     18  C   UNL A   1      32.820  20.938  25.235  1.00  0.00     0.058 A 
ATOM     19  Cl  UNL A   1      32.057  20.580  22.588  1.00  0.00    -0.083 Cl
BRANCH  18  20
ATOM     20  C   UNL A   1      33.266  19.511  25.340  1.00  0.00     0.250 C 
ATOM     21  N   UNL A   1      32.825  18.763  26.398  1.00  0.00    -0.366 N 
ATOM     22  O   UNL A   1      34.018  18.975  24.532  1.00  0.00    -0.269 OA
ATOM     23  H   UNL A   1      32.221  19.163  27.065  1.00  0.00     0.159 HD
ATOM     24  H   UNL A   1      33.111  17.826  26.491  1.00  0.00     0.159 HD
ENDBRANCH  18  20
ENDBRANCH  10  13
ENDBRANCH   4   7
ENDBRANCH   2   3
ENDBRANCH   1   2
BRANCH   1  25
ATOM     25  C   UNL A   1      32.708  32.539  26.901  1.00  0.00     0.118 C 
BRANCH  25  26
ATOM     26  N   UNL A   1      32.511  33.880  27.429  1.00  0.00    -0.352 N 
ATOM     27  C   UNL A   1      33.102  34.514  28.493  1.00  0.00     0.251 C 
ATOM     28  H   UNL A   1      31.846  34.419  26.944  1.00  0.00     0.163 HD
ATOM     29  O   UNL A   1      32.632  35.576  28.895  1.00  0.00    -0.269 OA
BRANCH  27  30
ATOM     30  C   UNL A   1      34.282  33.931  29.168  1.00  0.00     0.039 A 
ATOM     31  C   UNL A   1      34.085  32.908  30.100  1.00  0.00     0.014 A 
ATOM     32  C   UNL A   1      35.573  34.408  28.928  1.00  0.00     0.014 A 
ATOM     33  C   UNL A   1      35.181  32.327  30.740  1.00  0.00     0.010 A 
ATOM     34  C   UNL A   1      36.672  33.763  29.489  1.00  0.00     0.010 A 
ATOM     35  C   UNL A   1      36.489  32.725  30.412  1.00  0.00    -0.014 A 
BRANCH  35  36
ATOM     36  C   UNL A   1      37.667  32.066  31.033  1.00  0.00     0.031 A 
ATOM     37  C   UNL A   1      38.134  32.472  32.404  1.00  0.00     0.074 A 
ATOM     38  C   UNL A   1      38.347  31.134  30.338  1.00  0.00     0.049 A 
ATOM     39  N   UNL A   1      39.161  32.037  33.094  1.00  0.00    -0.248 NA
ATOM     40  C   UNL A   1      37.365  33.528  33.081  1.00  0.00     0.031 C 
ATOM     41  C   UNL A   1      38.033  30.699  28.977  1.00  0.00     0.029 A 
ATOM     42  N   UNL A   1      39.448  30.389  30.680  1.00  0.00    -0.354 N 
ATOM     43  C   UNL A   1      39.162  32.769  34.274  1.00  0.00     0.074 A 
ATOM     44  C   UNL A   1      38.077  33.722  34.181  1.00  0.00     0.031 C 
ATOM     45  C   UNL A   1      38.902  29.744  28.608  1.00  0.00     0.029 A 
ATOM     46  C   UNL A   1      39.857  29.528  29.690  1.00  0.00     0.049 A 
ATOM     47  H   UNL A   1      39.903  30.465  31.549  1.00  0.00     0.167 HD
ATOM     48  C   UNL A   1      39.973  32.639  35.351  1.00  0.00     0.037 A 
ATOM     49  C   UNL A   1      40.889  28.664  29.657  1.00  0.00     0.037 A 
ATOM     50  C   UNL A   1      41.044  31.680  35.445  1.00  0.00     0.049 A 
ATOM     51  C   UNL A   1      41.778  28.539  30.864  1.00  0.00     0.074 A 
ATOM     52  C   UNL A   1      41.892  31.434  36.509  1.00  0.00     0.029 A 
ATOM     53  N   UNL A   1      41.416  30.810  34.429  1.00  0.00    -0.354 N 
ATOM     54  N   UNL A   1      41.725  29.186  32.003  1.00  0.00    -0.248 NA
ATOM     55  C   UNL A   1      42.866  27.556  30.783  1.00  0.00     0.031 C 
ATOM     56  C   UNL A   1      42.812  30.454  36.120  1.00  0.00     0.029 A 
ATOM     57  C   UNL A   1      42.497  30.044  34.835  1.00  0.00     0.049 A 
ATOM     58  H   UNL A   1      40.978  30.747  33.550  1.00  0.00     0.167 HD
ATOM     59  C   UNL A   1      42.754  28.673  32.781  1.00  0.00     0.074 A 
ATOM     60  C   UNL A   1      43.400  27.645  31.993  1.00  0.00     0.031 C 
ATOM     61  C   UNL A   1      43.133  29.025  34.036  1.00  0.00     0.037 A 
BRANCH  48  62
ATOM     62  C   UNL A   1      39.731  33.556  36.517  1.00  0.00     0.064 A 
ATOM     63  C   UNL A   1      38.876  33.196  37.572  1.00  0.00     0.173 A 
ATOM     64  C   UNL A   1      40.382  34.796  36.600  1.00  0.00     0.173 A 
ATOM     65  F   UNL A   1      38.219  32.027  37.539  1.00  0.00    -0.203 F 
ATOM     66  C   UNL A   1      38.655  34.058  38.643  1.00  0.00     0.198 A 
ATOM     67  C   UNL A   1      40.186  35.639  37.691  1.00  0.00     0.198 A 
ATOM     68  F   UNL A   1      41.216  35.189  35.625  1.00  0.00    -0.203 F 
ATOM     69  F   UNL A   1      37.789  33.716  39.608  1.00  0.00    -0.200 F 
ATOM     70  C   UNL A   1      39.315  35.274  38.706  1.00  0.00     0.200 A 
ATOM     71  F   UNL A   1      40.837  36.810  37.758  1.00  0.00    -0.200 F 
ATOM     72  F   UNL A   1      39.108  36.099  39.742  1.00  0.00    -0.200 F 
ENDBRANCH  48  62
BRANCH  49  73
ATOM     73  C   UNL A   1      41.121  27.836  28.444  1.00  0.00     0.064 A 
ATOM     74  C   UNL A   1      41.991  28.266  27.431  1.00  0.00     0.173 A 
ATOM     75  C   UNL A   1      40.477  26.603  28.270  1.00  0.00     0.173 A 
ATOM     76  F   UNL A   1      42.611  29.450  27.539  1.00  0.00    -0.203 F 
ATOM     77  C   UNL A   1      42.190  27.503  26.282  1.00  0.00     0.198 A 
ATOM     78  C   UNL A   1      40.701  25.826  27.136  1.00  0.00     0.198 A 
ATOM     79  F   UNL A   1      39.635  26.148  29.209  1.00  0.00    -0.203 F 
ATOM     80  F   UNL A   1      42.985  27.962  25.306  1.00  0.00    -0.200 F 
ATOM     81  C   UNL A   1      41.551  26.281  26.138  1.00  0.00     0.200 A 
ATOM     82  F   UNL A   1      40.086  24.643  27.003  1.00  0.00    -0.200 F 
ATOM     83  F   UNL A   1      41.743  25.550  25.033  1.00  0.00    -0.200 F 
ENDBRANCH  49  73
BRANCH  61  84
ATOM     84  C   UNL A   1      44.283  28.270  34.641  1.00  0.00     0.064 A 
ATOM     85  C   UNL A   1      45.605  28.728  34.534  1.00  0.00     0.173 A 
ATOM     86  C   UNL A   1      44.056  27.084  35.357  1.00  0.00     0.173 A 
ATOM     87  F   UNL A   1      45.878  29.850  33.849  1.00  0.00    -0.203 F 
ATOM     88  C   UNL A   1      46.660  28.007  35.087  1.00  0.00     0.198 A 
ATOM     89  C   UNL A   1      45.110  26.385  35.939  1.00  0.00     0.198 A 
ATOM     90  F   UNL A   1      42.810  26.606  35.499  1.00  0.00    -0.203 F 
ATOM     91  F   UNL A   1      47.920  28.431  34.918  1.00  0.00    -0.200 F 
ATOM     92  C   UNL A   1      46.411  26.840  35.794  1.00  0.00     0.200 A 
ATOM     93  F   UNL A   1      44.866  25.267  36.636  1.00  0.00    -0.200 F 
ATOM     94  F   UNL A   1      47.427  26.149  36.328  1.00  0.00    -0.200 F 
ENDBRANCH  61  84
ENDBRANCH  35  36
ENDBRANCH  27  30
ENDBRANCH  25  26
ENDBRANCH   1  25
TORSDOF 12
ENDMDL
MODEL 3
REMARK VINA RESULT:     -12.6      4.836      8.504
REMARK SMILES C[C@H]1[C@H](C(=O)NCCCNC(=O)c2ccc(-c3c4nc(c(-c5c(F)c(F)c(F)c(F)c5F)c5ccc([nH]5)c(-c5c(F)c(F)c(F)c(F)c5F)c5nc(c(-c6c(F)c(F)c(F)c(F)c6F)c6ccc3[nH]6)C=C5)C=C4)cc2)CCN1c1ccc(C(N)=O)c(Cl)c1
REMARK SMILES IDX 8 1 7 2 6 3 4 4 5 5 3 7 1 8 2 9 78 10 76 11 77 12 79 13
REMARK SMILES IDX 80 14 88 15 81 16 86 17 82 18 87 19 83 20 84 21 85 22 9 25
REMARK SMILES IDX 10 26 11 27 12 29 13 30 14 31 75 32 15 33 74 34 16 35 17 36
REMARK SMILES IDX 18 37 68 38 19 39 73 40 67 41 69 42 20 43 72 44 66 45 65 46
REMARK SMILES IDX 21 48 53 49 33 50 52 51 34 52 37 53 51 54 70 55 35 56 36 57
REMARK SMILES IDX 50 59 71 60 38 61 22 62 23 63 31 64 24 65 25 66 29 67 32 68
REMARK SMILES IDX 26 69 27 70 30 71 28 72 54 73 55 74 63 75 56 76 57 77 61 78
REMARK SMILES IDX 64 79 58 80 59 81 62 82 60 83 39 84 40 85 48 86 41 87 42 88
REMARK SMILES IDX 46 89 49 90 43 91 44 92 47 93 45 94
REMARK H PARENT 6 6 84 23 84 24 10 28 69 47 37 58
REMARK Flexibility Score: inf
ROOT
ATOM      1  C   UNL A   1      31.878  28.268  25.621  1.00  0.00     0.042 C 
ENDROOT
BRANCH   1   2
ATOM      2  C   UNL A   1      31.961  27.418  26.883  1.00  0.00     0.117 C 
BRANCH   2   3
ATOM      3  N   UNL A   1      31.087  26.258  26.819  1.00  0.00    -0.356 N 
ATOM      4  C   UNL A   1      31.345  24.952  26.540  1.00  0.00     0.225 C 
ATOM      5  O   UNL A   1      30.380  24.182  26.513  1.00  0.00    -0.275 OA
ATOM      6  H   UNL A   1      30.141  26.452  27.013  1.00  0.00     0.163 HD
BRANCH   4   7
ATOM      7  C   UNL A   1      32.744  24.427  26.269  1.00  0.00     0.102 C 
ATOM      8  C   UNL A   1      33.732  22.539  27.629  1.00  0.00     0.032 C 
ATOM      9  C   UNL A   1      32.841  22.902  26.439  1.00  0.00     0.091 C 
ATOM     10  N   UNL A   1      33.452  22.433  25.192  1.00  0.00    -0.368 N 
ATOM     11  C   UNL A   1      33.271  24.760  24.873  1.00  0.00     0.037 C 
ATOM     12  C   UNL A   1      34.038  23.522  24.424  1.00  0.00     0.118 C 
BRANCH  10  13
ATOM     13  C   UNL A   1      33.487  21.130  24.764  1.00  0.00     0.038 A 
ATOM     14  C   UNL A   1      32.367  20.516  24.201  1.00  0.00     0.027 A 
ATOM     15  C   UNL A   1      34.627  20.335  24.909  1.00  0.00     0.047 A 
ATOM     16  C   UNL A   1      32.378  19.166  23.818  1.00  0.00     0.017 A 
ATOM     17  C   UNL A   1      34.648  18.969  24.570  1.00  0.00     0.055 A 
ATOM     18  C   UNL A   1      33.515  18.363  24.009  1.00  0.00     0.058 A 
ATOM     19  Cl  UNL A   1      36.135  18.150  24.912  1.00  0.00    -0.083 Cl
BRANCH  18  20
ATOM     20  C   UNL A   1      33.479  16.908  23.653  1.00  0.00     0.250 C 
ATOM     21  N   UNL A   1      32.813  16.047  24.483  1.00  0.00    -0.366 N 
ATOM     22  O   UNL A   1      34.025  16.440  22.659  1.00  0.00    -0.269 OA
ATOM     23  H   UNL A   1      32.364  16.390  25.290  1.00  0.00     0.159 HD
ATOM     24  H   UNL A   1      32.783  15.086  24.274  1.00  0.00     0.159 HD
ENDBRANCH  18  20
ENDBRANCH  10  13
ENDBRANCH   4   7
ENDBRANCH   2   3
ENDBRANCH   1   2
BRANCH   1  25
ATOM     25  C   UNL A   1      33.009  29.272  25.469  1.00  0.00     0.118 C 
BRANCH  25  26
ATOM     26  N   UNL A   1      32.630  30.610  25.897  1.00  0.00    -0.352 N 
ATOM     27  C   UNL A   1      33.123  31.393  26.910  1.00  0.00     0.251 C 
ATOM     28  H   UNL A   1      31.903  31.019  25.375  1.00  0.00     0.163 HD
ATOM     29  O   UNL A   1      32.513  32.409  27.234  1.00  0.00    -0.269 OA
BRANCH  27  30
ATOM     30  C   UNL A   1      34.365  31.023  27.625  1.00  0.00     0.039 A 
ATOM     31  C   UNL A   1      35.357  31.994  27.791  1.00  0.00     0.014 A 
ATOM     32  C   UNL A   1      34.582  29.726  28.093  1.00  0.00     0.014 A 
ATOM     33  C   UNL A   1      36.533  31.679  28.476  1.00  0.00     0.010 A 
ATOM     34  C   UNL A   1      35.707  29.439  28.862  1.00  0.00     0.010 A 
ATOM     35  C   UNL A   1      36.702  30.408  29.051  1.00  0.00    -0.014 A 
BRANCH  35  36
ATOM     36  C   UNL A   1      37.916  30.082  29.843  1.00  0.00     0.031 A 
ATOM     37  C   UNL A   1      38.961  29.151  29.290  1.00  0.00     0.074 A 
ATOM     38  C   UNL A   1      38.052  30.587  31.084  1.00  0.00     0.049 A 
ATOM     39  N   UNL A   1      40.067  28.722  29.847  1.00  0.00    -0.248 NA
ATOM     40  C   UNL A   1      38.720  28.606  27.946  1.00  0.00     0.031 C 
ATOM     41  C   UNL A   1      37.079  31.448  31.757  1.00  0.00     0.029 A 
ATOM     42  N   UNL A   1      39.060  30.442  32.004  1.00  0.00    -0.354 N 
ATOM     43  C   UNL A   1      40.644  27.857  28.926  1.00  0.00     0.074 A 
ATOM     44  C   UNL A   1      39.735  27.768  27.804  1.00  0.00     0.031 C 
ATOM     45  C   UNL A   1      37.549  31.780  32.970  1.00  0.00     0.029 A 
ATOM     46  C   UNL A   1      38.836  31.123  33.176  1.00  0.00     0.049 A 
ATOM     47  H   UNL A   1      39.866  29.902  31.841  1.00  0.00     0.167 HD
ATOM     48  C   UNL A   1      41.836  27.218  28.994  1.00  0.00     0.037 A 
ATOM     49  C   UNL A   1      39.582  31.205  34.293  1.00  0.00     0.037 A 
ATOM     50  C   UNL A   1      42.744  27.320  30.108  1.00  0.00     0.049 A 
ATOM     51  C   UNL A   1      40.902  30.485  34.348  1.00  0.00     0.074 A 
ATOM     52  C   UNL A   1      43.997  26.752  30.255  1.00  0.00     0.029 A 
ATOM     53  N   UNL A   1      42.492  28.035  31.270  1.00  0.00    -0.354 N 
ATOM     54  N   UNL A   1      41.470  29.727  33.441  1.00  0.00    -0.248 NA
ATOM     55  C   UNL A   1      41.688  30.639  35.578  1.00  0.00     0.031 C 
ATOM     56  C   UNL A   1      44.480  27.080  31.527  1.00  0.00     0.029 A 
ATOM     57  C   UNL A   1      43.556  27.903  32.148  1.00  0.00     0.049 A 
ATOM     58  H   UNL A   1      41.677  28.558  31.446  1.00  0.00     0.167 HD
ATOM     59  C   UNL A   1      42.687  29.334  33.981  1.00  0.00     0.074 A 
ATOM     60  C   UNL A   1      42.786  29.958  35.284  1.00  0.00     0.031 C 
ATOM     61  C   UNL A   1      43.638  28.527  33.446  1.00  0.00     0.037 A 
BRANCH  48  62
ATOM     62  C   UNL A   1      42.228  26.353  27.829  1.00  0.00     0.064 A 
ATOM     63  C   UNL A   1      41.731  25.047  27.681  1.00  0.00     0.173 A 
ATOM     64  C   UNL A   1      43.085  26.842  26.832  1.00  0.00     0.173 A 
ATOM     65  F   UNL A   1      40.916  24.526  28.610  1.00  0.00    -0.203 F 
ATOM     66  C   UNL A   1      42.107  24.254  26.600  1.00  0.00     0.198 A 
ATOM     67  C   UNL A   1      43.431  26.057  25.734  1.00  0.00     0.198 A 
ATOM     68  F   UNL A   1      43.585  28.083  26.917  1.00  0.00    -0.203 F 
ATOM     69  F   UNL A   1      41.666  22.992  26.512  1.00  0.00    -0.200 F 
ATOM     70  C   UNL A   1      42.950  24.761  25.624  1.00  0.00     0.200 A 
ATOM     71  F   UNL A   1      44.234  26.555  24.783  1.00  0.00    -0.200 F 
ATOM     72  F   UNL A   1      43.305  23.999  24.580  1.00  0.00    -0.200 F 
ENDBRANCH  48  62
BRANCH  49  73
ATOM     73  C   UNL A   1      39.105  32.019  35.443  1.00  0.00     0.064 A 
ATOM     74  C   UNL A   1      39.424  33.380  35.547  1.00  0.00     0.173 A 
ATOM     75  C   UNL A   1      38.324  31.453  36.461  1.00  0.00     0.173 A 
ATOM     76  F   UNL A   1      40.189  33.962  34.611  1.00  0.00    -0.203 F 
ATOM     77  C   UNL A   1      38.998  34.138  36.636  1.00  0.00     0.198 A 
ATOM     78  C   UNL A   1      37.872  32.218  37.534  1.00  0.00     0.198 A 
ATOM     79  F   UNL A   1      37.992  30.154  36.409  1.00  0.00    -0.203 F 
ATOM     80  F   UNL A   1      39.362  35.423  36.737  1.00  0.00    -0.200 F 
ATOM     81  C   UNL A   1      38.217  33.559  37.625  1.00  0.00     0.200 A 
ATOM     82  F   UNL A   1      37.112  31.656  38.484  1.00  0.00    -0.200 F 
ATOM     83  F   UNL A   1      37.810  34.289  38.671  1.00  0.00    -0.200 F 
ENDBRANCH  49  73
BRANCH  61  84
ATOM     84  C   UNL A   1      44.879  28.296  34.262  1.00  0.00     0.064 A 
ATOM     85  C   UNL A   1      44.989  27.212  35.147  1.00  0.00     0.173 A 
ATOM     86  C   UNL A   1      45.979  29.158  34.141  1.00  0.00     0.173 A 
ATOM     87  F   UNL A   1      43.960  26.365  35.310  1.00  0.00    -0.203 F 
ATOM     88  C   UNL A   1      46.140  27.023  35.907  1.00  0.00     0.198 A 
ATOM     89  C   UNL A   1      47.142  28.945  34.877  1.00  0.00     0.198 A 
ATOM     90  F   UNL A   1      45.931  30.205  33.302  1.00  0.00    -0.203 F 
ATOM     91  F   UNL A   1      46.199  26.017  36.791  1.00  0.00    -0.200 F 
ATOM     92  C   UNL A   1      47.217  27.885  35.768  1.00  0.00     0.200 A 
ATOM     93  F   UNL A   1      48.188  29.769  34.727  1.00  0.00    -0.200 F 
ATOM     94  F   UNL A   1      48.325  27.700  36.498  1.00  0.00    -0.200 F 
ENDBRANCH  61  84
ENDBRANCH  35  36
ENDBRANCH  27  30
ENDBRANCH  25  26
ENDBRANCH   1  25
TORSDOF 12
ENDMDL
