MODEL 1
REMARK VINA RESULT:     -12.4      0.000      0.000
REMARK SMILES CN(CC(C)(C)O)C(=O)N[C@H]1CC[C@H](C(=O)NCCCNC(=O)c2ccc(-c3c4nc(c(-c5c(F)c(F)c(F)c(F)c5F)c5ccc([nH]5)c(-c5c(F)c(F)c(F)c(F)c5F)c5nc(c(-c6c(F)c(F)c(F)c(F)c6F)c6ccc3[nH]6)C=C5)C=C4)cc2)C1
REMARK SMILES IDX 15 1 16 2 17 3 14 5 11 6 12 7 87 8 13 9 10 10 8 11 9 12 2 14
REMARK SMILES IDX 1 15 3 16 4 17 5 18 6 19 7 20 18 22 19 23 20 24 21 25 22 26
REMARK SMILES IDX 23 28 24 29 25 30 86 31 26 32 85 33 27 34 28 35 29 36 79 37
REMARK SMILES IDX 30 38 84 39 78 40 80 41 31 42 83 43 77 44 76 45 32 47 64 48
REMARK SMILES IDX 44 49 63 50 45 51 48 52 62 53 81 54 46 55 47 56 61 58 82 59
REMARK SMILES IDX 49 60 33 61 34 62 42 63 35 64 36 65 40 66 43 67 37 68 38 69
REMARK SMILES IDX 41 70 39 71 65 72 66 73 74 74 67 75 68 76 72 77 75 78 69 79
REMARK SMILES IDX 70 80 73 81 71 82 50 83 51 84 59 85 52 86 53 87 57 88 60 89
REMARK SMILES IDX 54 90 55 91 58 92 56 93
REMARK H PARENT 17 4 10 13 7 21 21 27 80 46 48 57
REMARK Flexibility Score: inf
ROOT
ATOM      1  C   UNL A   1      31.798  28.989  24.212  1.00  0.00     0.223 C 
ATOM      2  O   UNL A   1      32.286  28.943  23.082  1.00  0.00    -0.275 OA
ATOM      3  N   UNL A   1      32.164  30.029  25.009  1.00  0.00    -0.356 N 
ATOM      4  H   UNL A   1      32.713  30.707  24.554  1.00  0.00     0.163 HD
ENDROOT
BRANCH   1   5
ATOM      5  C   UNL A   1      30.749  27.976  24.644  1.00  0.00     0.080 C 
ATOM      6  C   UNL A   1      30.762  25.518  24.624  1.00  0.00     0.084 C 
ATOM      7  C   UNL A   1      29.705  26.001  23.628  1.00  0.00     0.026 C 
ATOM      8  C   UNL A   1      31.447  26.751  25.186  1.00  0.00     0.038 C 
ATOM      9  C   UNL A   1      29.768  27.524  23.578  1.00  0.00     0.015 C 
BRANCH   6  10
ATOM     10  N   UNL A   1      30.205  24.670  25.657  1.00  0.00    -0.335 N 
ATOM     11  C   UNL A   1      30.714  23.674  26.410  1.00  0.00     0.317 C 
ATOM     12  O   UNL A   1      30.027  23.355  27.386  1.00  0.00    -0.249 OA
ATOM     13  H   UNL A   1      29.259  24.861  25.848  1.00  0.00     0.165 HD
BRANCH  11  14
ATOM     14  N   UNL A   1      31.937  23.112  26.170  1.00  0.00    -0.325 N 
ATOM     15  C   UNL A   1      32.792  22.996  27.347  1.00  0.00     0.148 C 
BRANCH  14  16
ATOM     16  C   UNL A   1      32.538  22.639  24.913  1.00  0.00     0.155 C 
BRANCH  16  17
ATOM     17  C   UNL A   1      32.587  21.126  24.555  1.00  0.00     0.077 C 
ATOM     18  C   UNL A   1      32.181  20.707  23.141  1.00  0.00     0.043 C 
ATOM     19  C   UNL A   1      34.031  20.649  24.822  1.00  0.00     0.043 C 
BRANCH  17  20
ATOM     20  O   UNL A   1      31.732  20.439  25.481  1.00  0.00    -0.389 OA
ATOM     21  H   UNL A   1      32.215  19.696  25.877  1.00  0.00     0.211 HD
ENDBRANCH  17  20
ENDBRANCH  16  17
ENDBRANCH  14  16
ENDBRANCH  11  14
ENDBRANCH   6  10
ENDBRANCH   1   5
BRANCH   3  22
ATOM     22  C   UNL A   1      31.898  30.329  26.408  1.00  0.00     0.117 C 
BRANCH  22  23
ATOM     23  C   UNL A   1      31.608  31.807  26.607  1.00  0.00     0.042 C 
BRANCH  23  24
ATOM     24  C   UNL A   1      32.688  32.530  27.400  1.00  0.00     0.118 C 
BRANCH  24  25
ATOM     25  N   UNL A   1      32.387  33.939  27.613  1.00  0.00    -0.352 N 
ATOM     26  C   UNL A   1      32.951  34.830  28.492  1.00  0.00     0.251 C 
ATOM     27  H   UNL A   1      31.674  34.307  27.041  1.00  0.00     0.163 HD
ATOM     28  O   UNL A   1      32.446  35.939  28.651  1.00  0.00    -0.269 OA
BRANCH  26  29
ATOM     29  C   UNL A   1      34.140  34.440  29.278  1.00  0.00     0.039 A 
ATOM     30  C   UNL A   1      33.954  33.862  30.537  1.00  0.00     0.014 A 
ATOM     31  C   UNL A   1      35.429  34.606  28.766  1.00  0.00     0.014 A 
ATOM     32  C   UNL A   1      35.055  33.363  31.235  1.00  0.00     0.010 A 
ATOM     33  C   UNL A   1      36.510  34.021  29.417  1.00  0.00     0.010 A 
ATOM     34  C   UNL A   1      36.333  33.385  30.653  1.00  0.00    -0.014 A 
BRANCH  34  35
ATOM     35  C   UNL A   1      37.486  32.712  31.305  1.00  0.00     0.031 A 
ATOM     36  C   UNL A   1      38.166  31.550  30.638  1.00  0.00     0.074 A 
ATOM     37  C   UNL A   1      37.868  33.103  32.537  1.00  0.00     0.049 A 
ATOM     38  N   UNL A   1      39.140  30.796  31.082  1.00  0.00    -0.248 NA
ATOM     39  C   UNL A   1      37.673  31.169  29.306  1.00  0.00     0.031 C 
ATOM     40  C   UNL A   1      37.251  34.181  33.311  1.00  0.00     0.029 A 
ATOM     41  N   UNL A   1      38.861  32.632  33.361  1.00  0.00    -0.354 N 
ATOM     42  C   UNL A   1      39.367  29.849  30.093  1.00  0.00     0.074 A 
ATOM     43  C   UNL A   1      38.394  30.087  29.049  1.00  0.00     0.031 C 
ATOM     44  C   UNL A   1      37.893  34.308  34.483  1.00  0.00     0.029 A 
ATOM     45  C   UNL A   1      38.933  33.289  34.567  1.00  0.00     0.049 A 
ATOM     46  H   UNL A   1      39.463  31.894  33.112  1.00  0.00     0.167 HD
ATOM     47  C   UNL A   1      40.317  28.885  30.049  1.00  0.00     0.037 A 
ATOM     48  C   UNL A   1      39.738  33.081  35.626  1.00  0.00     0.037 A 
ATOM     49  C   UNL A   1      41.292  28.661  31.086  1.00  0.00     0.049 A 
ATOM     50  C   UNL A   1      40.766  31.986  35.561  1.00  0.00     0.074 A 
ATOM     51  C   UNL A   1      42.334  27.752  31.107  1.00  0.00     0.029 A 
ATOM     52  N   UNL A   1      41.336  29.348  32.291  1.00  0.00    -0.354 N 
ATOM     53  N   UNL A   1      41.024  31.149  34.586  1.00  0.00    -0.248 NA
ATOM     54  C   UNL A   1      41.618  31.806  36.745  1.00  0.00     0.031 C 
ATOM     55  C   UNL A   1      42.970  27.844  32.348  1.00  0.00     0.029 A 
ATOM     56  C   UNL A   1      42.367  28.856  33.077  1.00  0.00     0.049 A 
ATOM     57  H   UNL A   1      40.726  30.076  32.549  1.00  0.00     0.167 HD
ATOM     58  C   UNL A   1      42.080  30.363  35.026  1.00  0.00     0.074 A 
ATOM     59  C   UNL A   1      42.430  30.837  36.349  1.00  0.00     0.031 C 
ATOM     60  C   UNL A   1      42.702  29.337  34.394  1.00  0.00     0.037 A 
BRANCH  47  61
ATOM     61  C   UNL A   1      40.350  27.991  28.841  1.00  0.00     0.064 A 
ATOM     62  C   UNL A   1      41.096  28.322  27.700  1.00  0.00     0.173 A 
ATOM     63  C   UNL A   1      39.668  26.765  28.844  1.00  0.00     0.173 A 
ATOM     64  F   UNL A   1      41.758  29.487  27.639  1.00  0.00    -0.203 F 
ATOM     65  C   UNL A   1      41.135  27.473  26.597  1.00  0.00     0.198 A 
ATOM     66  C   UNL A   1      39.738  25.903  27.753  1.00  0.00     0.198 A 
ATOM     67  F   UNL A   1      38.944  26.396  29.911  1.00  0.00    -0.203 F 
ATOM     68  F   UNL A   1      41.815  27.834  25.499  1.00  0.00    -0.200 F 
ATOM     69  C   UNL A   1      40.464  26.260  26.627  1.00  0.00     0.200 A 
ATOM     70  F   UNL A   1      39.099  24.724  27.791  1.00  0.00    -0.200 F 
ATOM     71  F   UNL A   1      40.513  25.438  25.570  1.00  0.00    -0.200 F 
ENDBRANCH  47  61
BRANCH  48  72
ATOM     72  C   UNL A   1      39.608  33.934  36.838  1.00  0.00     0.064 A 
ATOM     73  C   UNL A   1      38.809  33.536  37.919  1.00  0.00     0.173 A 
ATOM     74  C   UNL A   1      40.269  35.168  36.937  1.00  0.00     0.173 A 
ATOM     75  F   UNL A   1      38.141  32.374  37.866  1.00  0.00    -0.203 F 
ATOM     76  C   UNL A   1      38.656  34.349  39.041  1.00  0.00     0.198 A 
ATOM     77  C   UNL A   1      40.142  35.965  38.074  1.00  0.00     0.198 A 
ATOM     78  F   UNL A   1      41.051  35.594  35.935  1.00  0.00    -0.203 F 
ATOM     79  F   UNL A   1      37.844  33.966  40.036  1.00  0.00    -0.200 F 
ATOM     80  C   UNL A   1      39.328  35.559  39.120  1.00  0.00     0.200 A 
ATOM     81  F   UNL A   1      40.808  37.124  38.154  1.00  0.00    -0.200 F 
ATOM     82  F   UNL A   1      39.184  36.338  40.201  1.00  0.00    -0.200 F 
ENDBRANCH  48  72
BRANCH  60  83
ATOM     83  C   UNL A   1      43.842  28.674  35.114  1.00  0.00     0.064 A 
ATOM     84  C   UNL A   1      45.161  29.135  34.987  1.00  0.00     0.173 A 
ATOM     85  C   UNL A   1      43.606  27.585  35.968  1.00  0.00     0.173 A 
ATOM     86  F   UNL A   1      45.442  30.162  34.172  1.00  0.00    -0.203 F 
ATOM     87  C   UNL A   1      46.206  28.510  35.664  1.00  0.00     0.198 A 
ATOM     88  C   UNL A   1      44.648  26.986  36.670  1.00  0.00     0.198 A 
ATOM     89  F   UNL A   1      42.363  27.110  36.131  1.00  0.00    -0.203 F 
ATOM     90  F   UNL A   1      47.465  28.932  35.483  1.00  0.00    -0.200 F 
ATOM     91  C   UNL A   1      45.947  27.443  36.510  1.00  0.00     0.200 A 
ATOM     92  F   UNL A   1      44.394  25.966  37.500  1.00  0.00    -0.200 F 
ATOM     93  F   UNL A   1      46.953  26.847  37.167  1.00  0.00    -0.200 F 
ENDBRANCH  60  83
ENDBRANCH  34  35
ENDBRANCH  26  29
ENDBRANCH  24  25
ENDBRANCH  23  24
ENDBRANCH  22  23
ENDBRANCH   3  22
TORSDOF 15
ENDMDL
MODEL 2
REMARK VINA RESULT:     -12.3      0.557      1.732
REMARK SMILES CN(CC(C)(C)O)C(=O)N[C@H]1CC[C@H](C(=O)NCCCNC(=O)c2ccc(-c3c4nc(c(-c5c(F)c(F)c(F)c(F)c5F)c5ccc([nH]5)c(-c5c(F)c(F)c(F)c(F)c5F)c5nc(c(-c6c(F)c(F)c(F)c(F)c6F)c6ccc3[nH]6)C=C5)C=C4)cc2)C1
REMARK SMILES IDX 15 1 16 2 17 3 14 5 11 6 12 7 87 8 13 9 10 10 8 11 9 12 2 14
REMARK SMILES IDX 1 15 3 16 4 17 5 18 6 19 7 20 18 22 19 23 20 24 21 25 22 26
REMARK SMILES IDX 23 28 24 29 25 30 86 31 26 32 85 33 27 34 28 35 29 36 79 37
REMARK SMILES IDX 30 38 84 39 78 40 80 41 31 42 83 43 77 44 76 45 32 47 64 48
REMARK SMILES IDX 44 49 63 50 45 51 48 52 62 53 81 54 46 55 47 56 61 58 82 59
REMARK SMILES IDX 49 60 33 61 34 62 42 63 35 64 36 65 40 66 43 67 37 68 38 69
REMARK SMILES IDX 41 70 39 71 65 72 66 73 74 74 67 75 68 76 72 77 75 78 69 79
REMARK SMILES IDX 70 80 73 81 71 82 50 83 51 84 59 85 52 86 53 87 57 88 60 89
REMARK SMILES IDX 54 90 55 91 58 92 56 93
REMARK H PARENT 17 4 10 13 7 21 21 27 80 46 48 57
REMARK Flexibility Score: inf
ROOT
ATOM      1  C   UNL A   1      32.021  29.049  24.367  1.00  0.00     0.223 C 
ATOM      2  O   UNL A   1      32.590  28.990  23.276  1.00  0.00    -0.275 OA
ATOM      3  N   UNL A   1      32.349  30.083  25.187  1.00  0.00    -0.356 N 
ATOM      4  H   UNL A   1      32.943  30.749  24.772  1.00  0.00     0.163 HD
ENDROOT
BRANCH   1   5
ATOM      5  C   UNL A   1      30.923  28.059  24.722  1.00  0.00     0.080 C 
ATOM      6  C   UNL A   1      30.900  25.600  24.744  1.00  0.00     0.084 C 
ATOM      7  C   UNL A   1      29.941  26.080  23.651  1.00  0.00     0.026 C 
ATOM      8  C   UNL A   1      31.552  26.834  25.343  1.00  0.00     0.038 C 
ATOM      9  C   UNL A   1      30.032  27.601  23.581  1.00  0.00     0.015 C 
BRANCH   6  10
ATOM     10  N   UNL A   1      30.242  24.779  25.738  1.00  0.00    -0.335 N 
ATOM     11  C   UNL A   1      30.589  23.644  26.377  1.00  0.00     0.317 C 
ATOM     12  O   UNL A   1      29.900  23.369  27.365  1.00  0.00    -0.249 OA
ATOM     13  H   UNL A   1      29.358  25.121  26.001  1.00  0.00     0.165 HD
BRANCH  11  14
ATOM     14  N   UNL A   1      31.674  22.892  26.019  1.00  0.00    -0.325 N 
ATOM     15  C   UNL A   1      32.907  23.235  26.721  1.00  0.00     0.148 C 
BRANCH  14  16
ATOM     16  C   UNL A   1      31.802  21.821  25.018  1.00  0.00     0.155 C 
BRANCH  16  17
ATOM     17  C   UNL A   1      32.132  22.135  23.531  1.00  0.00     0.077 C 
ATOM     18  C   UNL A   1      33.419  22.904  23.226  1.00  0.00     0.043 C 
ATOM     19  C   UNL A   1      32.170  20.784  22.785  1.00  0.00     0.043 C 
BRANCH  17  20
ATOM     20  O   UNL A   1      31.032  22.887  22.997  1.00  0.00    -0.389 OA
ATOM     21  H   UNL A   1      31.342  23.766  22.726  1.00  0.00     0.211 HD
ENDBRANCH  17  20
ENDBRANCH  16  17
ENDBRANCH  14  16
ENDBRANCH  11  14
ENDBRANCH   6  10
ENDBRANCH   1   5
BRANCH   3  22
ATOM     22  C   UNL A   1      31.988  30.392  26.562  1.00  0.00     0.117 C 
BRANCH  22  23
ATOM     23  C   UNL A   1      31.679  31.870  26.730  1.00  0.00     0.042 C 
BRANCH  23  24
ATOM     24  C   UNL A   1      32.820  32.654  27.365  1.00  0.00     0.118 C 
BRANCH  24  25
ATOM     25  N   UNL A   1      32.474  34.044  27.627  1.00  0.00    -0.352 N 
ATOM     26  C   UNL A   1      32.995  34.914  28.553  1.00  0.00     0.251 C 
ATOM     27  H   UNL A   1      31.763  34.415  27.056  1.00  0.00     0.163 HD
ATOM     28  O   UNL A   1      32.454  36.002  28.745  1.00  0.00    -0.269 OA
BRANCH  26  29
ATOM     29  C   UNL A   1      34.178  34.525  29.349  1.00  0.00     0.039 A 
ATOM     30  C   UNL A   1      33.986  34.026  30.639  1.00  0.00     0.014 A 
ATOM     31  C   UNL A   1      35.466  34.616  28.816  1.00  0.00     0.014 A 
ATOM     32  C   UNL A   1      35.076  33.527  31.354  1.00  0.00     0.010 A 
ATOM     33  C   UNL A   1      36.533  34.030  29.488  1.00  0.00     0.010 A 
ATOM     34  C   UNL A   1      36.348  33.470  30.760  1.00  0.00    -0.014 A 
BRANCH  34  35
ATOM     35  C   UNL A   1      37.483  32.793  31.437  1.00  0.00     0.031 A 
ATOM     36  C   UNL A   1      38.158  31.613  30.797  1.00  0.00     0.074 A 
ATOM     37  C   UNL A   1      37.854  33.198  32.668  1.00  0.00     0.049 A 
ATOM     38  N   UNL A   1      39.117  30.854  31.266  1.00  0.00    -0.248 NA
ATOM     39  C   UNL A   1      37.678  31.218  29.464  1.00  0.00     0.031 C 
ATOM     40  C   UNL A   1      37.240  34.296  33.417  1.00  0.00     0.029 A 
ATOM     41  N   UNL A   1      38.829  32.728  33.512  1.00  0.00    -0.354 N 
ATOM     42  C   UNL A   1      39.345  29.889  30.293  1.00  0.00     0.074 A 
ATOM     43  C   UNL A   1      38.389  30.124  29.233  1.00  0.00     0.031 C 
ATOM     44  C   UNL A   1      37.868  34.432  34.596  1.00  0.00     0.029 A 
ATOM     45  C   UNL A   1      38.894  33.402  34.709  1.00  0.00     0.049 A 
ATOM     46  H   UNL A   1      39.426  31.979  33.283  1.00  0.00     0.167 HD
ATOM     47  C   UNL A   1      40.283  28.913  30.277  1.00  0.00     0.037 A 
ATOM     48  C   UNL A   1      39.682  33.201  35.782  1.00  0.00     0.037 A 
ATOM     49  C   UNL A   1      41.241  28.693  31.330  1.00  0.00     0.049 A 
ATOM     50  C   UNL A   1      40.697  32.092  35.748  1.00  0.00     0.074 A 
ATOM     51  C   UNL A   1      42.272  27.772  31.379  1.00  0.00     0.029 A 
ATOM     52  N   UNL A   1      41.278  29.398  32.526  1.00  0.00    -0.354 N 
ATOM     53  N   UNL A   1      40.958  31.237  34.788  1.00  0.00    -0.248 NA
ATOM     54  C   UNL A   1      41.530  31.919  36.946  1.00  0.00     0.031 C 
ATOM     55  C   UNL A   1      42.892  27.876  32.628  1.00  0.00     0.029 A 
ATOM     56  C   UNL A   1      42.292  28.906  33.333  1.00  0.00     0.049 A 
ATOM     57  H   UNL A   1      40.674  30.138  32.764  1.00  0.00     0.167 HD
ATOM     58  C   UNL A   1      41.998  30.445  35.255  1.00  0.00     0.074 A 
ATOM     59  C   UNL A   1      42.336  30.936  36.575  1.00  0.00     0.031 C 
ATOM     60  C   UNL A   1      42.616  29.403  34.647  1.00  0.00     0.037 A 
BRANCH  47  61
ATOM     61  C   UNL A   1      40.322  28.001  29.084  1.00  0.00     0.064 A 
ATOM     62  C   UNL A   1      39.583  26.809  29.042  1.00  0.00     0.173 A 
ATOM     63  C   UNL A   1      41.070  28.347  27.948  1.00  0.00     0.173 A 
ATOM     64  F   UNL A   1      38.860  26.425  30.104  1.00  0.00    -0.203 F 
ATOM     65  C   UNL A   1      39.612  25.986  27.920  1.00  0.00     0.198 A 
ATOM     66  C   UNL A   1      41.069  27.538  26.815  1.00  0.00     0.198 A 
ATOM     67  F   UNL A   1      41.791  29.478  27.931  1.00  0.00    -0.203 F 
ATOM     68  F   UNL A   1      38.936  24.828  27.922  1.00  0.00    -0.200 F 
ATOM     69  C   UNL A   1      40.347  26.355  26.804  1.00  0.00     0.200 A 
ATOM     70  F   UNL A   1      41.770  27.905  25.732  1.00  0.00    -0.200 F 
ATOM     71  F   UNL A   1      40.365  25.567  25.720  1.00  0.00    -0.200 F 
ENDBRANCH  47  61
BRANCH  48  72
ATOM     72  C   UNL A   1      39.546  34.073  36.979  1.00  0.00     0.064 A 
ATOM     73  C   UNL A   1      40.191  35.316  37.044  1.00  0.00     0.173 A 
ATOM     74  C   UNL A   1      38.779  33.680  38.086  1.00  0.00     0.173 A 
ATOM     75  F   UNL A   1      40.951  35.730  36.020  1.00  0.00    -0.203 F 
ATOM     76  C   UNL A   1      40.095  36.120  38.178  1.00  0.00     0.198 A 
ATOM     77  C   UNL A   1      38.656  34.500  39.207  1.00  0.00     0.198 A 
ATOM     78  F   UNL A   1      38.135  32.504  38.074  1.00  0.00    -0.203 F 
ATOM     79  F   UNL A   1      40.766  37.280  38.233  1.00  0.00    -0.200 F 
ATOM     80  C   UNL A   1      39.322  35.715  39.256  1.00  0.00     0.200 A 
ATOM     81  F   UNL A   1      37.893  34.112  40.238  1.00  0.00    -0.200 F 
ATOM     82  F   UNL A   1      39.227  36.490  40.345  1.00  0.00    -0.200 F 
ENDBRANCH  48  72
BRANCH  60  83
ATOM     83  C   UNL A   1      43.737  28.737  35.392  1.00  0.00     0.064 A 
ATOM     84  C   UNL A   1      45.076  29.112  35.199  1.00  0.00     0.173 A 
ATOM     85  C   UNL A   1      43.467  27.734  36.336  1.00  0.00     0.173 A 
ATOM     86  F   UNL A   1      45.389  30.054  34.297  1.00  0.00    -0.203 F 
ATOM     87  C   UNL A   1      46.103  28.486  35.900  1.00  0.00     0.198 A 
ATOM     88  C   UNL A   1      44.494  27.136  37.061  1.00  0.00     0.198 A 
ATOM     89  F   UNL A   1      42.205  27.343  36.565  1.00  0.00    -0.203 F 
ATOM     90  F   UNL A   1      47.377  28.822  35.657  1.00  0.00    -0.200 F 
ATOM     91  C   UNL A   1      45.811  27.506  36.836  1.00  0.00     0.200 A 
ATOM     92  F   UNL A   1      44.208  26.200  37.977  1.00  0.00    -0.200 F 
ATOM     93  F   UNL A   1      46.801  26.909  37.515  1.00  0.00    -0.200 F 
ENDBRANCH  60  83
ENDBRANCH  34  35
ENDBRANCH  26  29
ENDBRANCH  24  25
ENDBRANCH  23  24
ENDBRANCH  22  23
ENDBRANCH   3  22
TORSDOF 15
ENDMDL
MODEL 3
REMARK VINA RESULT:     -12.2      1.181      7.516
REMARK SMILES CN(CC(C)(C)O)C(=O)N[C@H]1CC[C@H](C(=O)NCCCNC(=O)c2ccc(-c3c4nc(c(-c5c(F)c(F)c(F)c(F)c5F)c5ccc([nH]5)c(-c5c(F)c(F)c(F)c(F)c5F)c5nc(c(-c6c(F)c(F)c(F)c(F)c6F)c6ccc3[nH]6)C=C5)C=C4)cc2)C1
REMARK SMILES IDX 15 1 16 2 17 3 14 5 11 6 12 7 87 8 13 9 10 10 8 11 9 12 2 14
REMARK SMILES IDX 1 15 3 16 4 17 5 18 6 19 7 20 18 22 19 23 20 24 21 25 22 26
REMARK SMILES IDX 23 28 24 29 25 30 86 31 26 32 85 33 27 34 28 35 29 36 79 37
REMARK SMILES IDX 30 38 84 39 78 40 80 41 31 42 83 43 77 44 76 45 32 47 64 48
REMARK SMILES IDX 44 49 63 50 45 51 48 52 62 53 81 54 46 55 47 56 61 58 82 59
REMARK SMILES IDX 49 60 33 61 34 62 42 63 35 64 36 65 40 66 43 67 37 68 38 69
REMARK SMILES IDX 41 70 39 71 65 72 66 73 74 74 67 75 68 76 72 77 75 78 69 79
REMARK SMILES IDX 70 80 73 81 71 82 50 83 51 84 59 85 52 86 53 87 57 88 60 89
REMARK SMILES IDX 54 90 55 91 58 92 56 93
REMARK H PARENT 17 4 10 13 7 21 21 27 80 46 48 57
REMARK Flexibility Score: inf
ROOT
ATOM      1  C   UNL A   1      31.755  28.398  27.177  1.00  0.00     0.223 C 
ATOM      2  O   UNL A   1      31.478  27.806  28.221  1.00  0.00    -0.275 OA
ATOM      3  N   UNL A   1      31.720  29.758  27.203  1.00  0.00    -0.356 N 
ATOM      4  H   UNL A   1      31.575  30.137  28.100  1.00  0.00     0.163 HD
ENDROOT
BRANCH   1   5
ATOM      5  C   UNL A   1      32.218  27.630  25.950  1.00  0.00     0.080 C 
ATOM      6  C   UNL A   1      32.616  25.230  25.593  1.00  0.00     0.084 C 
ATOM      7  C   UNL A   1      33.958  25.961  25.488  1.00  0.00     0.026 C 
ATOM      8  C   UNL A   1      31.566  26.266  25.953  1.00  0.00     0.038 C 
ATOM      9  C   UNL A   1      33.716  27.433  25.802  1.00  0.00     0.015 C 
BRANCH   6  10
ATOM     10  N   UNL A   1      32.287  24.498  24.389  1.00  0.00    -0.335 N 
ATOM     11  C   UNL A   1      31.900  23.227  24.155  1.00  0.00     0.317 C 
ATOM     12  O   UNL A   1      31.440  23.020  23.028  1.00  0.00    -0.249 OA
ATOM     13  H   UNL A   1      32.361  25.040  23.571  1.00  0.00     0.165 HD
BRANCH  11  14
ATOM     14  N   UNL A   1      31.931  22.253  25.115  1.00  0.00    -0.325 N 
ATOM     15  C   UNL A   1      30.768  22.235  25.996  1.00  0.00     0.148 C 
BRANCH  14  16
ATOM     16  C   UNL A   1      32.962  21.248  25.419  1.00  0.00     0.155 C 
BRANCH  16  17
ATOM     17  C   UNL A   1      32.916  19.824  24.795  1.00  0.00     0.077 C 
ATOM     18  C   UNL A   1      32.314  19.670  23.397  1.00  0.00     0.043 C 
ATOM     19  C   UNL A   1      34.366  19.296  24.775  1.00  0.00     0.043 C 
BRANCH  17  20
ATOM     20  O   UNL A   1      32.169  18.987  25.691  1.00  0.00    -0.389 OA
ATOM     21  H   UNL A   1      32.747  18.291  26.042  1.00  0.00     0.211 HD
ENDBRANCH  17  20
ENDBRANCH  16  17
ENDBRANCH  14  16
ENDBRANCH  11  14
ENDBRANCH   6  10
ENDBRANCH   1   5
BRANCH   3  22
ATOM     22  C   UNL A   1      31.857  30.759  26.156  1.00  0.00     0.117 C 
BRANCH  22  23
ATOM     23  C   UNL A   1      31.529  32.148  26.677  1.00  0.00     0.042 C 
BRANCH  23  24
ATOM     24  C   UNL A   1      32.713  32.833  27.346  1.00  0.00     0.118 C 
BRANCH  24  25
ATOM     25  N   UNL A   1      32.441  34.222  27.691  1.00  0.00    -0.352 N 
ATOM     26  C   UNL A   1      33.014  35.010  28.658  1.00  0.00     0.251 C 
ATOM     27  H   UNL A   1      31.744  34.661  27.150  1.00  0.00     0.163 HD
ATOM     28  O   UNL A   1      32.532  36.111  28.919  1.00  0.00    -0.269 OA
BRANCH  26  29
ATOM     29  C   UNL A   1      34.183  34.517  29.416  1.00  0.00     0.039 A 
ATOM     30  C   UNL A   1      33.975  33.927  30.666  1.00  0.00     0.014 A 
ATOM     31  C   UNL A   1      35.472  34.599  28.885  1.00  0.00     0.014 A 
ATOM     32  C   UNL A   1      35.047  33.335  31.334  1.00  0.00     0.010 A 
ATOM     33  C   UNL A   1      36.518  33.924  29.505  1.00  0.00     0.010 A 
ATOM     34  C   UNL A   1      36.314  33.275  30.731  1.00  0.00    -0.014 A 
BRANCH  34  35
ATOM     35  C   UNL A   1      37.425  32.506  31.348  1.00  0.00     0.031 A 
ATOM     36  C   UNL A   1      37.946  32.877  32.707  1.00  0.00     0.074 A 
ATOM     37  C   UNL A   1      38.013  31.517  30.645  1.00  0.00     0.049 A 
ATOM     38  N   UNL A   1      38.951  32.368  33.375  1.00  0.00    -0.248 NA
ATOM     39  C   UNL A   1      37.267  33.984  33.398  1.00  0.00     0.031 C 
ATOM     40  C   UNL A   1      37.633  31.098  29.295  1.00  0.00     0.029 A 
ATOM     41  N   UNL A   1      39.063  30.691  30.963  1.00  0.00    -0.354 N 
ATOM     42  C   UNL A   1      39.029  33.096  34.555  1.00  0.00     0.074 A 
ATOM     43  C   UNL A   1      38.008  34.118  34.489  1.00  0.00     0.031 C 
ATOM     44  C   UNL A   1      38.417  30.080  28.910  1.00  0.00     0.029 A 
ATOM     45  C   UNL A   1      39.389  29.805  29.963  1.00  0.00     0.049 A 
ATOM     46  H   UNL A   1      39.537  30.729  31.824  1.00  0.00     0.167 HD
ATOM     47  C   UNL A   1      39.861  32.911  35.607  1.00  0.00     0.037 A 
ATOM     48  C   UNL A   1      40.371  28.886  29.898  1.00  0.00     0.037 A 
ATOM     49  C   UNL A   1      40.868  31.882  35.673  1.00  0.00     0.049 A 
ATOM     50  C   UNL A   1      41.298  28.720  31.071  1.00  0.00     0.074 A 
ATOM     51  C   UNL A   1      41.717  31.574  36.719  1.00  0.00     0.029 A 
ATOM     52  N   UNL A   1      41.167  31.002  34.642  1.00  0.00    -0.354 N 
ATOM     53  N   UNL A   1      41.310  29.361  32.214  1.00  0.00    -0.248 NA
ATOM     54  C   UNL A   1      42.349  27.702  30.945  1.00  0.00     0.031 C 
ATOM     55  C   UNL A   1      42.572  30.549  36.302  1.00  0.00     0.029 A 
ATOM     56  C   UNL A   1      42.213  30.174  35.017  1.00  0.00     0.049 A 
ATOM     57  H   UNL A   1      40.704  30.970  33.773  1.00  0.00     0.167 HD
ATOM     58  C   UNL A   1      42.348  28.809  32.951  1.00  0.00     0.074 A 
ATOM     59  C   UNL A   1      42.929  27.764  32.134  1.00  0.00     0.031 C 
ATOM     60  C   UNL A   1      42.784  29.139  34.192  1.00  0.00     0.037 A 
BRANCH  47  61
ATOM     61  C   UNL A   1      39.725  33.843  36.777  1.00  0.00     0.064 A 
ATOM     62  C   UNL A   1      40.340  35.104  36.792  1.00  0.00     0.173 A 
ATOM     63  C   UNL A   1      38.930  33.491  37.879  1.00  0.00     0.173 A 
ATOM     64  F   UNL A   1      41.120  35.488  35.769  1.00  0.00    -0.203 F 
ATOM     65  C   UNL A   1      40.186  35.966  37.874  1.00  0.00     0.198 A 
ATOM     66  C   UNL A   1      38.751  34.369  38.945  1.00  0.00     0.198 A 
ATOM     67  F   UNL A   1      38.315  32.299  37.916  1.00  0.00    -0.203 F 
ATOM     68  F   UNL A   1      40.822  37.146  37.886  1.00  0.00    -0.200 F 
ATOM     69  C   UNL A   1      39.384  35.602  38.946  1.00  0.00     0.200 A 
ATOM     70  F   UNL A   1      37.964  34.020  39.972  1.00  0.00    -0.200 F 
ATOM     71  F   UNL A   1      39.227  36.437  39.982  1.00  0.00    -0.200 F 
ENDBRANCH  47  61
BRANCH  48  72
ATOM     72  C   UNL A   1      40.524  28.046  28.680  1.00  0.00     0.064 A 
ATOM     73  C   UNL A   1      41.303  28.478  27.598  1.00  0.00     0.173 A 
ATOM     74  C   UNL A   1      39.888  26.800  28.567  1.00  0.00     0.173 A 
ATOM     75  F   UNL A   1      41.916  29.670  27.648  1.00  0.00    -0.203 F 
ATOM     76  C   UNL A   1      41.420  27.710  26.441  1.00  0.00     0.198 A 
ATOM     77  C   UNL A   1      40.033  26.017  27.423  1.00  0.00     0.198 A 
ATOM     78  F   UNL A   1      39.137  26.335  29.576  1.00  0.00    -0.203 F 
ATOM     79  F   UNL A   1      42.128  28.173  25.401  1.00  0.00    -0.200 F 
ATOM     80  C   UNL A   1      40.790  26.478  26.357  1.00  0.00     0.200 A 
ATOM     81  F   UNL A   1      39.438  24.818  27.355  1.00  0.00    -0.200 F 
ATOM     82  F   UNL A   1      40.906  25.738  25.246  1.00  0.00    -0.200 F 
ENDBRANCH  48  72
BRANCH  60  83
ATOM     83  C   UNL A   1      43.930  28.346  34.752  1.00  0.00     0.064 A 
ATOM     84  C   UNL A   1      45.260  28.768  34.605  1.00  0.00     0.173 A 
ATOM     85  C   UNL A   1      43.692  27.166  35.474  1.00  0.00     0.173 A 
ATOM     86  F   UNL A   1      45.542  29.880  33.910  1.00  0.00    -0.203 F 
ATOM     87  C   UNL A   1      46.311  28.021  35.132  1.00  0.00     0.198 A 
ATOM     88  C   UNL A   1      44.743  26.441  36.030  1.00  0.00     0.198 A 
ATOM     89  F   UNL A   1      42.439  26.721  35.651  1.00  0.00    -0.203 F 
ATOM     90  F   UNL A   1      47.575  28.415  34.930  1.00  0.00    -0.200 F 
ATOM     91  C   UNL A   1      46.050  26.865  35.851  1.00  0.00     0.200 A 
ATOM     92  F   UNL A   1      44.489  25.333  36.739  1.00  0.00    -0.200 F 
ATOM     93  F   UNL A   1      47.063  26.151  36.365  1.00  0.00    -0.200 F 
ENDBRANCH  60  83
ENDBRANCH  34  35
ENDBRANCH  26  29
ENDBRANCH  24  25
ENDBRANCH  23  24
ENDBRANCH  22  23
ENDBRANCH   3  22
TORSDOF 15
ENDMDL
