MODEL 1
REMARK VINA RESULT:     -12.7      0.000      0.000
REMARK SMILES CC[C@@H]1CCC[C@@](CC[NH+]2CCOCC2)(C(=O)NCCCNC(=O)c2ccc(-c3c4nc(c(-c5c(F)c(F)c(F)c(F)c5F)c5ccc([nH]5)c(-c5c(F)c(F)c(F)c(F)c5F)c5nc(c(-c6c(F)c(F)c(F)c(F)c6F)c6ccc3[nH]6)C=C5)C=C4)cc2)C1
REMARK SMILES IDX 19 1 18 2 16 3 17 4 7 6 3 7 4 8 88 9 5 10 6 11 2 12 1 13
REMARK SMILES IDX 8 14 9 15 10 16 11 17 15 18 12 20 14 21 13 22 20 23 21 24
REMARK SMILES IDX 22 25 23 26 24 28 25 29 26 30 87 31 27 32 86 33 28 34 29 35
REMARK SMILES IDX 30 36 80 37 31 38 85 39 79 40 81 41 32 42 84 43 78 44 77 45
REMARK SMILES IDX 33 47 65 48 45 49 64 50 46 51 49 52 63 53 82 54 47 55 48 56
REMARK SMILES IDX 62 58 83 59 50 60 34 61 35 62 43 63 36 64 37 65 41 66 44 67
REMARK SMILES IDX 38 68 39 69 42 70 40 71 66 72 67 73 75 74 68 75 69 76 73 77
REMARK SMILES IDX 76 78 70 79 71 80 74 81 72 82 51 83 52 84 60 85 53 86 54 87
REMARK SMILES IDX 58 88 61 89 55 90 56 91 59 92 57 93
REMARK H PARENT 18 5 10 19 22 27 81 46 49 57
REMARK Flexibility Score: inf
ROOT
ATOM      1  C   UNL A   1      31.732  30.500  26.416  1.00  0.00     0.117 C 
ENDROOT
BRANCH   1   2
ATOM      2  N   UNL A   1      32.687  30.156  25.381  1.00  0.00    -0.356 N 
ATOM      3  C   UNL A   1      32.650  29.237  24.384  1.00  0.00     0.226 C 
ATOM      4  O   UNL A   1      33.527  29.362  23.520  1.00  0.00    -0.274 OA
ATOM      5  H   UNL A   1      33.516  30.687  25.407  1.00  0.00     0.163 HD
BRANCH   3   6
ATOM      6  C   UNL A   1      31.621  28.088  24.332  1.00  0.00     0.055 C 
ATOM      7  C   UNL A   1      33.399  26.198  23.758  1.00  0.00    -0.010 C 
ATOM      8  C   UNL A   1      33.329  25.716  25.212  1.00  0.00     0.003 C 
ATOM      9  C   UNL A   1      32.137  26.972  23.352  1.00  0.00     0.020 C 
ATOM     10  C   UNL A   1      32.849  26.796  26.173  1.00  0.00     0.001 C 
ATOM     11  C   UNL A   1      31.513  27.398  25.718  1.00  0.00     0.017 C 
BRANCH   7  12
ATOM     12  C   UNL A   1      33.644  24.988  22.826  1.00  0.00     0.000 C 
ATOM     13  C   UNL A   1      34.426  23.845  23.459  1.00  0.00     0.004 C 
ENDBRANCH   7  12
BRANCH   6  14
ATOM     14  C   UNL A   1      30.230  28.473  23.707  1.00  0.00     0.078 C 
BRANCH  14  15
ATOM     15  C   UNL A   1      29.998  29.325  22.449  1.00  0.00     0.263 C 
BRANCH  15  16
ATOM     16  N   UNL A   1      28.637  29.652  22.013  1.00  0.00    -0.331 N 
ATOM     17  C   UNL A   1      28.625  30.831  21.111  1.00  0.00     0.291 C 
ATOM     18  C   UNL A   1      27.615  29.852  23.055  1.00  0.00     0.291 C 
ATOM     19  H   UNL A   1      28.363  28.797  21.532  1.00  0.00     0.348 HD
ATOM     20  C   UNL A   1      28.653  32.181  21.853  1.00  0.00     0.221 C 
ATOM     21  C   UNL A   1      27.646  31.218  23.745  1.00  0.00     0.221 C 
ATOM     22  O   UNL A   1      27.578  32.283  22.793  1.00  0.00    -0.370 OA
ENDBRANCH  15  16
ENDBRANCH  14  15
ENDBRANCH   6  14
ENDBRANCH   3   6
ENDBRANCH   1   2
BRANCH   1  23
ATOM     23  C   UNL A   1      31.529  31.995  26.541  1.00  0.00     0.042 C 
BRANCH  23  24
ATOM     24  C   UNL A   1      32.671  32.680  27.277  1.00  0.00     0.118 C 
BRANCH  24  25
ATOM     25  N   UNL A   1      32.403  34.083  27.587  1.00  0.00    -0.352 N 
ATOM     26  C   UNL A   1      32.969  34.898  28.542  1.00  0.00     0.251 C 
ATOM     27  H   UNL A   1      31.713  34.510  27.028  1.00  0.00     0.163 HD
ATOM     28  O   UNL A   1      32.517  36.007  28.770  1.00  0.00    -0.269 OA
BRANCH  26  29
ATOM     29  C   UNL A   1      34.118  34.386  29.317  1.00  0.00     0.039 A 
ATOM     30  C   UNL A   1      33.885  33.645  30.476  1.00  0.00     0.014 A 
ATOM     31  C   UNL A   1      35.417  34.577  28.847  1.00  0.00     0.014 A 
ATOM     32  C   UNL A   1      34.954  33.009  31.107  1.00  0.00     0.010 A 
ATOM     33  C   UNL A   1      36.456  33.846  29.400  1.00  0.00     0.010 A 
ATOM     34  C   UNL A   1      36.239  33.058  30.540  1.00  0.00    -0.014 A 
BRANCH  34  35
ATOM     35  C   UNL A   1      37.380  32.310  31.124  1.00  0.00     0.031 A 
ATOM     36  C   UNL A   1      37.872  32.661  32.501  1.00  0.00     0.074 A 
ATOM     37  C   UNL A   1      38.028  31.387  30.386  1.00  0.00     0.049 A 
ATOM     38  N   UNL A   1      38.918  32.211  33.149  1.00  0.00    -0.248 NA
ATOM     39  C   UNL A   1      37.117  33.693  33.231  1.00  0.00     0.031 C 
ATOM     40  C   UNL A   1      37.696  31.013  29.010  1.00  0.00     0.029 A 
ATOM     41  N   UNL A   1      39.111  30.601  30.688  1.00  0.00    -0.354 N 
ATOM     42  C   UNL A   1      38.960  32.929  34.337  1.00  0.00     0.074 A 
ATOM     43  C   UNL A   1      37.880  33.889  34.294  1.00  0.00     0.031 C 
ATOM     44  C   UNL A   1      38.533  30.045  28.601  1.00  0.00     0.029 A 
ATOM     45  C   UNL A   1      39.483  29.757  29.670  1.00  0.00     0.049 A 
ATOM     46  H   UNL A   1      39.578  30.638  31.554  1.00  0.00     0.167 HD
ATOM     47  C   UNL A   1      39.801  32.777  35.387  1.00  0.00     0.037 A 
ATOM     48  C   UNL A   1      40.478  28.852  29.610  1.00  0.00     0.037 A 
ATOM     49  C   UNL A   1      40.835  31.780  35.448  1.00  0.00     0.049 A 
ATOM     50  C   UNL A   1      41.368  28.668  30.809  1.00  0.00     0.074 A 
ATOM     51  C   UNL A   1      41.689  31.486  36.495  1.00  0.00     0.029 A 
ATOM     52  N   UNL A   1      41.145  30.906  34.417  1.00  0.00    -0.354 N 
ATOM     53  N   UNL A   1      41.352  29.300  31.957  1.00  0.00    -0.248 NA
ATOM     54  C   UNL A   1      42.411  27.636  30.706  1.00  0.00     0.031 C 
ATOM     55  C   UNL A   1      42.539  30.453  36.086  1.00  0.00     0.029 A 
ATOM     56  C   UNL A   1      42.186  30.078  34.799  1.00  0.00     0.049 A 
ATOM     57  H   UNL A   1      40.692  30.879  33.543  1.00  0.00     0.167 HD
ATOM     58  C   UNL A   1      42.359  28.727  32.722  1.00  0.00     0.074 A 
ATOM     59  C   UNL A   1      42.957  27.686  31.913  1.00  0.00     0.031 C 
ATOM     60  C   UNL A   1      42.756  29.039  33.981  1.00  0.00     0.037 A 
BRANCH  47  61
ATOM     61  C   UNL A   1      39.619  33.700  36.557  1.00  0.00     0.064 A 
ATOM     62  C   UNL A   1      40.246  34.955  36.608  1.00  0.00     0.173 A 
ATOM     63  C   UNL A   1      38.797  33.333  37.633  1.00  0.00     0.173 A 
ATOM     64  F   UNL A   1      41.053  35.348  35.611  1.00  0.00    -0.203 F 
ATOM     65  C   UNL A   1      40.087  35.792  37.709  1.00  0.00     0.198 A 
ATOM     66  C   UNL A   1      38.614  34.187  38.718  1.00  0.00     0.198 A 
ATOM     67  F   UNL A   1      38.172  32.147  37.633  1.00  0.00    -0.203 F 
ATOM     68  F   UNL A   1      40.742  36.959  37.761  1.00  0.00    -0.200 F 
ATOM     69  C   UNL A   1      39.265  35.411  38.759  1.00  0.00     0.200 A 
ATOM     70  F   UNL A   1      37.811  33.823  39.727  1.00  0.00    -0.200 F 
ATOM     71  F   UNL A   1      39.110  36.219  39.817  1.00  0.00    -0.200 F 
ENDBRANCH  47  61
BRANCH  48  72
ATOM     72  C   UNL A   1      40.656  28.020  28.391  1.00  0.00     0.064 A 
ATOM     73  C   UNL A   1      40.044  26.763  28.288  1.00  0.00     0.173 A 
ATOM     74  C   UNL A   1      41.438  28.456  27.312  1.00  0.00     0.173 A 
ATOM     75  F   UNL A   1      39.301  26.295  29.302  1.00  0.00    -0.203 F 
ATOM     76  C   UNL A   1      40.223  25.964  27.161  1.00  0.00     0.198 A 
ATOM     77  C   UNL A   1      41.596  27.667  26.174  1.00  0.00     0.198 A 
ATOM     78  F   UNL A   1      42.039  29.653  27.358  1.00  0.00    -0.203 F 
ATOM     79  F   UNL A   1      39.663  24.748  27.107  1.00  0.00    -0.200 F 
ATOM     80  C   UNL A   1      40.996  26.418  26.103  1.00  0.00     0.200 A 
ATOM     81  F   UNL A   1      42.330  28.115  25.147  1.00  0.00    -0.200 F 
ATOM     82  F   UNL A   1      41.167  25.651  25.018  1.00  0.00    -0.200 F 
ENDBRANCH  48  72
BRANCH  60  83
ATOM     83  C   UNL A   1      43.865  28.219  34.571  1.00  0.00     0.064 A 
ATOM     84  C   UNL A   1      45.203  28.627  34.486  1.00  0.00     0.173 A 
ATOM     85  C   UNL A   1      43.578  27.036  35.266  1.00  0.00     0.173 A 
ATOM     86  F   UNL A   1      45.528  29.743  33.818  1.00  0.00    -0.203 F 
ATOM     87  C   UNL A   1      46.218  27.864  35.057  1.00  0.00     0.198 A 
ATOM     88  C   UNL A   1      44.592  26.291  35.861  1.00  0.00     0.198 A 
ATOM     89  F   UNL A   1      42.311  26.608  35.381  1.00  0.00    -0.203 F 
ATOM     90  F   UNL A   1      47.496  28.248  34.926  1.00  0.00    -0.200 F 
ATOM     91  C   UNL A   1      45.911  26.702  35.749  1.00  0.00     0.200 A 
ATOM     92  F   UNL A   1      44.292  25.176  36.540  1.00  0.00    -0.200 F 
ATOM     93  F   UNL A   1      46.890  25.974  36.304  1.00  0.00    -0.200 F 
ENDBRANCH  60  83
ENDBRANCH  34  35
ENDBRANCH  26  29
ENDBRANCH  24  25
ENDBRANCH  23  24
ENDBRANCH   1  23
TORSDOF 14
ENDMDL
MODEL 2
REMARK VINA RESULT:     -12.7      0.310      1.651
REMARK SMILES CC[C@@H]1CCC[C@@](CC[NH+]2CCOCC2)(C(=O)NCCCNC(=O)c2ccc(-c3c4nc(c(-c5c(F)c(F)c(F)c(F)c5F)c5ccc([nH]5)c(-c5c(F)c(F)c(F)c(F)c5F)c5nc(c(-c6c(F)c(F)c(F)c(F)c6F)c6ccc3[nH]6)C=C5)C=C4)cc2)C1
REMARK SMILES IDX 19 1 18 2 16 3 17 4 7 6 3 7 4 8 88 9 5 10 6 11 2 12 1 13
REMARK SMILES IDX 8 14 9 15 10 16 11 17 15 18 12 20 14 21 13 22 20 23 21 24
REMARK SMILES IDX 22 25 23 26 24 28 25 29 26 30 87 31 27 32 86 33 28 34 29 35
REMARK SMILES IDX 30 36 80 37 31 38 85 39 79 40 81 41 32 42 84 43 78 44 77 45
REMARK SMILES IDX 33 47 65 48 45 49 64 50 46 51 49 52 63 53 82 54 47 55 48 56
REMARK SMILES IDX 62 58 83 59 50 60 34 61 35 62 43 63 36 64 37 65 41 66 44 67
REMARK SMILES IDX 38 68 39 69 42 70 40 71 66 72 67 73 75 74 68 75 69 76 73 77
REMARK SMILES IDX 76 78 70 79 71 80 74 81 72 82 51 83 52 84 60 85 53 86 54 87
REMARK SMILES IDX 58 88 61 89 55 90 56 91 59 92 57 93
REMARK H PARENT 18 5 10 19 22 27 81 46 49 57
REMARK Flexibility Score: inf
ROOT
ATOM      1  C   UNL A   1      31.765  30.502  26.421  1.00  0.00     0.117 C 
ENDROOT
BRANCH   1   2
ATOM      2  N   UNL A   1      32.725  30.167  25.387  1.00  0.00    -0.356 N 
ATOM      3  C   UNL A   1      32.710  29.225  24.411  1.00  0.00     0.226 C 
ATOM      4  O   UNL A   1      33.577  29.360  23.538  1.00  0.00    -0.274 OA
ATOM      5  H   UNL A   1      33.536  30.725  25.395  1.00  0.00     0.163 HD
BRANCH   3   6
ATOM      6  C   UNL A   1      31.719  28.042  24.392  1.00  0.00     0.055 C 
ATOM      7  C   UNL A   1      33.533  26.218  23.727  1.00  0.00    -0.010 C 
ATOM      8  C   UNL A   1      33.540  25.722  25.178  1.00  0.00     0.003 C 
ATOM      9  C   UNL A   1      32.230  26.952  23.381  1.00  0.00     0.020 C 
ATOM     10  C   UNL A   1      33.066  26.779  26.168  1.00  0.00     0.001 C 
ATOM     11  C   UNL A   1      31.693  27.338  25.775  1.00  0.00     0.017 C 
BRANCH   7  12
ATOM     12  C   UNL A   1      33.778  25.023  22.774  1.00  0.00     0.000 C 
ATOM     13  C   UNL A   1      34.208  23.736  23.465  1.00  0.00     0.004 C 
ENDBRANCH   7  12
BRANCH   6  14
ATOM     14  C   UNL A   1      30.291  28.385  23.830  1.00  0.00     0.078 C 
BRANCH  14  15
ATOM     15  C   UNL A   1      29.897  29.645  23.041  1.00  0.00     0.263 C 
BRANCH  15  16
ATOM     16  N   UNL A   1      28.529  30.167  23.109  1.00  0.00    -0.331 N 
ATOM     17  C   UNL A   1      27.906  30.233  21.763  1.00  0.00     0.291 C 
ATOM     18  C   UNL A   1      28.323  31.461  23.781  1.00  0.00     0.291 C 
ATOM     19  H   UNL A   1      28.075  29.480  23.709  1.00  0.00     0.348 HD
ATOM     20  C   UNL A   1      28.289  31.493  20.963  1.00  0.00     0.221 C 
ATOM     21  C   UNL A   1      28.676  32.694  22.945  1.00  0.00     0.221 C 
ATOM     22  O   UNL A   1      27.986  32.687  21.692  1.00  0.00    -0.370 OA
ENDBRANCH  15  16
ENDBRANCH  14  15
ENDBRANCH   6  14
ENDBRANCH   3   6
ENDBRANCH   1   2
BRANCH   1  23
ATOM     23  C   UNL A   1      31.558  31.996  26.554  1.00  0.00     0.042 C 
BRANCH  23  24
ATOM     24  C   UNL A   1      32.690  32.679  27.307  1.00  0.00     0.118 C 
BRANCH  24  25
ATOM     25  N   UNL A   1      32.415  34.080  27.621  1.00  0.00    -0.352 N 
ATOM     26  C   UNL A   1      32.977  34.894  28.579  1.00  0.00     0.251 C 
ATOM     27  H   UNL A   1      31.725  34.505  27.063  1.00  0.00     0.163 HD
ATOM     28  O   UNL A   1      32.519  36.001  28.811  1.00  0.00    -0.269 OA
BRANCH  26  29
ATOM     29  C   UNL A   1      34.127  34.384  29.354  1.00  0.00     0.039 A 
ATOM     30  C   UNL A   1      33.895  33.641  30.512  1.00  0.00     0.014 A 
ATOM     31  C   UNL A   1      35.426  34.580  28.885  1.00  0.00     0.014 A 
ATOM     32  C   UNL A   1      34.966  33.007  31.142  1.00  0.00     0.010 A 
ATOM     33  C   UNL A   1      36.466  33.851  29.437  1.00  0.00     0.010 A 
ATOM     34  C   UNL A   1      36.252  33.060  30.576  1.00  0.00    -0.014 A 
BRANCH  34  35
ATOM     35  C   UNL A   1      37.395  32.315  31.159  1.00  0.00     0.031 A 
ATOM     36  C   UNL A   1      37.888  32.668  32.535  1.00  0.00     0.074 A 
ATOM     37  C   UNL A   1      38.043  31.392  30.421  1.00  0.00     0.049 A 
ATOM     38  N   UNL A   1      38.935  32.221  33.182  1.00  0.00    -0.248 NA
ATOM     39  C   UNL A   1      37.132  33.700  33.265  1.00  0.00     0.031 C 
ATOM     40  C   UNL A   1      37.710  31.016  29.046  1.00  0.00     0.029 A 
ATOM     41  N   UNL A   1      39.128  30.609  30.723  1.00  0.00    -0.354 N 
ATOM     42  C   UNL A   1      38.978  32.940  34.369  1.00  0.00     0.074 A 
ATOM     43  C   UNL A   1      37.897  33.898  34.327  1.00  0.00     0.031 C 
ATOM     44  C   UNL A   1      38.547  30.049  28.637  1.00  0.00     0.029 A 
ATOM     45  C   UNL A   1      39.499  29.764  29.705  1.00  0.00     0.049 A 
ATOM     46  H   UNL A   1      39.596  30.647  31.588  1.00  0.00     0.167 HD
ATOM     47  C   UNL A   1      39.821  32.791  35.418  1.00  0.00     0.037 A 
ATOM     48  C   UNL A   1      40.495  28.860  29.645  1.00  0.00     0.037 A 
ATOM     49  C   UNL A   1      40.856  31.796  35.479  1.00  0.00     0.049 A 
ATOM     50  C   UNL A   1      41.388  28.679  30.843  1.00  0.00     0.074 A 
ATOM     51  C   UNL A   1      41.712  31.504  36.525  1.00  0.00     0.029 A 
ATOM     52  N   UNL A   1      41.166  30.921  34.448  1.00  0.00    -0.354 N 
ATOM     53  N   UNL A   1      41.372  29.312  31.990  1.00  0.00    -0.248 NA
ATOM     54  C   UNL A   1      42.432  27.649  30.740  1.00  0.00     0.031 C 
ATOM     55  C   UNL A   1      42.563  30.472  36.116  1.00  0.00     0.029 A 
ATOM     56  C   UNL A   1      42.209  30.095  34.830  1.00  0.00     0.049 A 
ATOM     57  H   UNL A   1      40.712  30.892  33.576  1.00  0.00     0.167 HD
ATOM     58  C   UNL A   1      42.381  28.742  32.755  1.00  0.00     0.074 A 
ATOM     59  C   UNL A   1      42.979  27.701  31.946  1.00  0.00     0.031 C 
ATOM     60  C   UNL A   1      42.779  29.056  34.012  1.00  0.00     0.037 A 
BRANCH  47  61
ATOM     61  C   UNL A   1      39.639  33.715  36.588  1.00  0.00     0.064 A 
ATOM     62  C   UNL A   1      40.257  34.975  36.633  1.00  0.00     0.173 A 
ATOM     63  C   UNL A   1      38.826  33.344  37.669  1.00  0.00     0.173 A 
ATOM     64  F   UNL A   1      41.056  35.371  35.630  1.00  0.00    -0.203 F 
ATOM     65  C   UNL A   1      40.098  35.813  37.732  1.00  0.00     0.198 A 
ATOM     66  C   UNL A   1      38.642  34.199  38.753  1.00  0.00     0.198 A 
ATOM     67  F   UNL A   1      38.208  32.154  37.675  1.00  0.00    -0.203 F 
ATOM     68  F   UNL A   1      40.746  36.984  37.778  1.00  0.00    -0.200 F 
ATOM     69  C   UNL A   1      39.285  35.428  38.788  1.00  0.00     0.200 A 
ATOM     70  F   UNL A   1      37.848  33.832  39.768  1.00  0.00    -0.200 F 
ATOM     71  F   UNL A   1      39.130  36.237  39.845  1.00  0.00    -0.200 F 
ENDBRANCH  47  61
BRANCH  48  72
ATOM     72  C   UNL A   1      40.673  28.027  28.427  1.00  0.00     0.064 A 
ATOM     73  C   UNL A   1      41.458  28.481  27.358  1.00  0.00     0.173 A 
ATOM     74  C   UNL A   1      40.067  26.769  28.304  1.00  0.00     0.173 A 
ATOM     75  F   UNL A   1      42.043  29.685  27.421  1.00  0.00    -0.203 F 
ATOM     76  C   UNL A   1      41.612  27.718  26.202  1.00  0.00     0.198 A 
ATOM     77  C   UNL A   1      40.243  25.994  27.158  1.00  0.00     0.198 A 
ATOM     78  F   UNL A   1      39.313  26.285  29.301  1.00  0.00    -0.203 F 
ATOM     79  F   UNL A   1      42.330  28.195  25.177  1.00  0.00    -0.200 F 
ATOM     80  C   UNL A   1      41.008  26.473  26.105  1.00  0.00     0.200 A 
ATOM     81  F   UNL A   1      39.670  24.786  27.074  1.00  0.00    -0.200 F 
ATOM     82  F   UNL A   1      41.158  25.739  24.995  1.00  0.00    -0.200 F 
ENDBRANCH  48  72
BRANCH  60  83
ATOM     83  C   UNL A   1      43.890  28.239  34.602  1.00  0.00     0.064 A 
ATOM     84  C   UNL A   1      43.638  27.039  35.281  1.00  0.00     0.173 A 
ATOM     85  C   UNL A   1      45.225  28.642  34.446  1.00  0.00     0.173 A 
ATOM     86  F   UNL A   1      42.377  26.621  35.468  1.00  0.00    -0.203 F 
ATOM     87  C   UNL A   1      44.683  26.283  35.805  1.00  0.00     0.198 A 
ATOM     88  C   UNL A   1      46.269  27.869  34.946  1.00  0.00     0.198 A 
ATOM     89  F   UNL A   1      45.517  29.780  33.798  1.00  0.00    -0.203 F 
ATOM     90  F   UNL A   1      44.418  25.161  36.490  1.00  0.00    -0.200 F 
ATOM     91  C   UNL A   1      45.996  26.695  35.631  1.00  0.00     0.200 A 
ATOM     92  F   UNL A   1      47.537  28.261  34.766  1.00  0.00    -0.200 F 
ATOM     93  F   UNL A   1      47.000  25.961  36.130  1.00  0.00    -0.200 F 
ENDBRANCH  60  83
ENDBRANCH  34  35
ENDBRANCH  26  29
ENDBRANCH  24  25
ENDBRANCH  23  24
ENDBRANCH   1  23
TORSDOF 14
ENDMDL
MODEL 3
REMARK VINA RESULT:     -12.7      0.704      7.480
REMARK SMILES CC[C@@H]1CCC[C@@](CC[NH+]2CCOCC2)(C(=O)NCCCNC(=O)c2ccc(-c3c4nc(c(-c5c(F)c(F)c(F)c(F)c5F)c5ccc([nH]5)c(-c5c(F)c(F)c(F)c(F)c5F)c5nc(c(-c6c(F)c(F)c(F)c(F)c6F)c6ccc3[nH]6)C=C5)C=C4)cc2)C1
REMARK SMILES IDX 19 1 18 2 16 3 17 4 7 6 3 7 4 8 88 9 5 10 6 11 2 12 1 13
REMARK SMILES IDX 8 14 9 15 10 16 11 17 15 18 12 20 14 21 13 22 20 23 21 24
REMARK SMILES IDX 22 25 23 26 24 28 25 29 26 30 87 31 27 32 86 33 28 34 29 35
REMARK SMILES IDX 30 36 80 37 31 38 85 39 79 40 81 41 32 42 84 43 78 44 77 45
REMARK SMILES IDX 33 47 65 48 45 49 64 50 46 51 49 52 63 53 82 54 47 55 48 56
REMARK SMILES IDX 62 58 83 59 50 60 34 61 35 62 43 63 36 64 37 65 41 66 44 67
REMARK SMILES IDX 38 68 39 69 42 70 40 71 66 72 67 73 75 74 68 75 69 76 73 77
REMARK SMILES IDX 76 78 70 79 71 80 74 81 72 82 51 83 52 84 60 85 53 86 54 87
REMARK SMILES IDX 58 88 61 89 55 90 56 91 59 92 57 93
REMARK H PARENT 18 5 10 19 22 27 81 46 49 57
REMARK Flexibility Score: inf
ROOT
ATOM      1  C   UNL A   1      32.124  30.350  26.612  1.00  0.00     0.117 C 
ENDROOT
BRANCH   1   2
ATOM      2  N   UNL A   1      33.004  30.024  25.507  1.00  0.00    -0.356 N 
ATOM      3  C   UNL A   1      32.827  29.249  24.408  1.00  0.00     0.226 C 
ATOM      4  O   UNL A   1      33.692  29.372  23.532  1.00  0.00    -0.274 OA
ATOM      5  H   UNL A   1      33.894  30.442  25.565  1.00  0.00     0.163 HD
BRANCH   3   6
ATOM      6  C   UNL A   1      31.660  28.250  24.258  1.00  0.00     0.055 C 
ATOM      7  C   UNL A   1      33.162  26.259  23.341  1.00  0.00    -0.010 C 
ATOM      8  C   UNL A   1      33.085  25.590  24.718  1.00  0.00     0.003 C 
ATOM      9  C   UNL A   1      31.994  27.228  23.110  1.00  0.00     0.020 C 
ATOM     10  C   UNL A   1      32.781  26.575  25.840  1.00  0.00     0.001 C 
ATOM     11  C   UNL A   1      31.516  27.390  25.542  1.00  0.00     0.017 C 
BRANCH   7  12
ATOM     12  C   UNL A   1      33.218  25.171  22.242  1.00  0.00     0.000 C 
ATOM     13  C   UNL A   1      32.625  25.588  20.902  1.00  0.00     0.004 C 
ENDBRANCH   7  12
BRANCH   6  14
ATOM     14  C   UNL A   1      30.307  28.882  23.766  1.00  0.00     0.078 C 
BRANCH  14  15
ATOM     15  C   UNL A   1      30.014  29.439  22.363  1.00  0.00     0.263 C 
BRANCH  15  16
ATOM     16  N   UNL A   1      28.642  29.761  21.961  1.00  0.00    -0.331 N 
ATOM     17  C   UNL A   1      28.601  30.953  21.077  1.00  0.00     0.291 C 
ATOM     18  C   UNL A   1      27.641  29.937  23.028  1.00  0.00     0.291 C 
ATOM     19  H   UNL A   1      28.365  28.910  21.473  1.00  0.00     0.348 HD
ATOM     20  C   UNL A   1      28.633  32.292  21.839  1.00  0.00     0.221 C 
ATOM     21  C   UNL A   1      27.676  31.293  23.737  1.00  0.00     0.221 C 
ATOM     22  O   UNL A   1      27.579  32.371  22.802  1.00  0.00    -0.370 OA
ENDBRANCH  15  16
ENDBRANCH  14  15
ENDBRANCH   6  14
ENDBRANCH   3   6
ENDBRANCH   1   2
BRANCH   1  23
ATOM     23  C   UNL A   1      31.810  31.829  26.683  1.00  0.00     0.042 C 
BRANCH  23  24
ATOM     24  C   UNL A   1      32.863  32.614  27.451  1.00  0.00     0.118 C 
BRANCH  24  25
ATOM     25  N   UNL A   1      32.505  34.016  27.660  1.00  0.00    -0.352 N 
ATOM     26  C   UNL A   1      33.003  34.927  28.565  1.00  0.00     0.251 C 
ATOM     27  H   UNL A   1      31.801  34.360  27.063  1.00  0.00     0.163 HD
ATOM     28  O   UNL A   1      32.480  36.019  28.710  1.00  0.00    -0.269 OA
BRANCH  26  29
ATOM     29  C   UNL A   1      34.166  34.541  29.390  1.00  0.00     0.039 A 
ATOM     30  C   UNL A   1      33.957  34.056  30.682  1.00  0.00     0.014 A 
ATOM     31  C   UNL A   1      35.451  34.587  28.850  1.00  0.00     0.014 A 
ATOM     32  C   UNL A   1      35.031  33.522  31.393  1.00  0.00     0.010 A 
ATOM     33  C   UNL A   1      36.489  33.945  29.505  1.00  0.00     0.010 A 
ATOM     34  C   UNL A   1      36.294  33.410  30.787  1.00  0.00    -0.014 A 
BRANCH  34  35
ATOM     35  C   UNL A   1      37.436  32.754  31.473  1.00  0.00     0.031 A 
ATOM     36  C   UNL A   1      38.143  31.607  30.806  1.00  0.00     0.074 A 
ATOM     37  C   UNL A   1      37.772  33.125  32.724  1.00  0.00     0.049 A 
ATOM     38  N   UNL A   1      39.084  30.827  31.274  1.00  0.00    -0.248 NA
ATOM     39  C   UNL A   1      37.700  31.256  29.446  1.00  0.00     0.031 C 
ATOM     40  C   UNL A   1      37.111  34.171  33.507  1.00  0.00     0.029 A 
ATOM     41  N   UNL A   1      38.751  32.655  33.562  1.00  0.00    -0.354 N 
ATOM     42  C   UNL A   1      39.315  29.881  30.285  1.00  0.00     0.074 A 
ATOM     43  C   UNL A   1      38.373  30.139  29.220  1.00  0.00     0.031 C 
ATOM     44  C   UNL A   1      37.727  34.288  34.695  1.00  0.00     0.029 A 
ATOM     45  C   UNL A   1      38.799  33.302  34.772  1.00  0.00     0.049 A 
ATOM     46  H   UNL A   1      39.362  31.922  33.318  1.00  0.00     0.167 HD
ATOM     47  C   UNL A   1      40.253  28.906  30.249  1.00  0.00     0.037 A 
ATOM     48  C   UNL A   1      39.620  33.119  35.824  1.00  0.00     0.037 A 
ATOM     49  C   UNL A   1      41.227  28.692  31.285  1.00  0.00     0.049 A 
ATOM     50  C   UNL A   1      40.687  32.061  35.740  1.00  0.00     0.074 A 
ATOM     51  C   UNL A   1      42.273  27.787  31.314  1.00  0.00     0.029 A 
ATOM     52  N   UNL A   1      41.278  29.405  32.474  1.00  0.00    -0.354 N 
ATOM     53  N   UNL A   1      40.945  31.221  34.768  1.00  0.00    -0.248 NA
ATOM     54  C   UNL A   1      41.583  31.932  36.899  1.00  0.00     0.031 C 
ATOM     55  C   UNL A   1      42.939  27.931  32.535  1.00  0.00     0.029 A 
ATOM     56  C   UNL A   1      42.332  28.953  33.249  1.00  0.00     0.049 A 
ATOM     57  H   UNL A   1      40.657  30.125  32.728  1.00  0.00     0.167 HD
ATOM     58  C   UNL A   1      42.046  30.484  35.182  1.00  0.00     0.074 A 
ATOM     59  C   UNL A   1      42.417  30.987  36.488  1.00  0.00     0.031 C 
ATOM     60  C   UNL A   1      42.690  29.478  34.541  1.00  0.00     0.037 A 
BRANCH  47  61
ATOM     61  C   UNL A   1      40.278  28.014  29.041  1.00  0.00     0.064 A 
ATOM     62  C   UNL A   1      39.564  26.805  29.004  1.00  0.00     0.173 A 
ATOM     63  C   UNL A   1      41.011  28.378  27.902  1.00  0.00     0.173 A 
ATOM     64  F   UNL A   1      38.859  26.405  30.074  1.00  0.00    -0.203 F 
ATOM     65  C   UNL A   1      39.613  25.977  27.888  1.00  0.00     0.198 A 
ATOM     66  C   UNL A   1      41.031  27.562  26.773  1.00  0.00     0.198 A 
ATOM     67  F   UNL A   1      41.707  29.523  27.882  1.00  0.00    -0.203 F 
ATOM     68  F   UNL A   1      38.972  24.801  27.900  1.00  0.00    -0.200 F 
ATOM     69  C   UNL A   1      40.340  26.359  26.770  1.00  0.00     0.200 A 
ATOM     70  F   UNL A   1      41.724  27.937  25.689  1.00  0.00    -0.200 F 
ATOM     71  F   UNL A   1      40.384  25.562  25.693  1.00  0.00    -0.200 F 
ENDBRANCH  47  61
BRANCH  48  72
ATOM     72  C   UNL A   1      39.496  33.985  37.026  1.00  0.00     0.064 A 
ATOM     73  C   UNL A   1      38.767  33.557  38.144  1.00  0.00     0.173 A 
ATOM     74  C   UNL A   1      40.097  35.250  37.084  1.00  0.00     0.173 A 
ATOM     75  F   UNL A   1      38.159  32.362  38.129  1.00  0.00    -0.203 F 
ATOM     76  C   UNL A   1      38.625  34.370  39.267  1.00  0.00     0.198 A 
ATOM     77  C   UNL A   1      39.976  36.053  38.218  1.00  0.00     0.198 A 
ATOM     78  F   UNL A   1      40.811  35.704  36.044  1.00  0.00    -0.203 F 
ATOM     79  F   UNL A   1      37.884  33.955  40.304  1.00  0.00    -0.200 F 
ATOM     80  C   UNL A   1      39.233  35.616  39.304  1.00  0.00     0.200 A 
ATOM     81  F   UNL A   1      40.577  37.249  38.256  1.00  0.00    -0.200 F 
ATOM     82  F   UNL A   1      39.098  36.396  40.384  1.00  0.00    -0.200 F 
ENDBRANCH  48  72
BRANCH  60  83
ATOM     83  C   UNL A   1      43.883  28.882  35.227  1.00  0.00     0.064 A 
ATOM     84  C   UNL A   1      43.752  27.822  36.135  1.00  0.00     0.173 A 
ATOM     85  C   UNL A   1      45.173  29.349  34.938  1.00  0.00     0.173 A 
ATOM     86  F   UNL A   1      42.538  27.352  36.455  1.00  0.00    -0.203 F 
ATOM     87  C   UNL A   1      44.872  27.267  36.748  1.00  0.00     0.198 A 
ATOM     88  C   UNL A   1      46.293  28.772  35.530  1.00  0.00     0.198 A 
ATOM     89  F   UNL A   1      45.350  30.357  34.069  1.00  0.00    -0.203 F 
ATOM     90  F   UNL A   1      44.723  26.284  37.648  1.00  0.00    -0.200 F 
ATOM     91  C   UNL A   1      46.140  27.737  36.440  1.00  0.00     0.200 A 
ATOM     92  F   UNL A   1      47.518  29.219  35.222  1.00  0.00    -0.200 F 
ATOM     93  F   UNL A   1      47.217  27.195  37.026  1.00  0.00    -0.200 F 
ENDBRANCH  60  83
ENDBRANCH  34  35
ENDBRANCH  26  29
ENDBRANCH  24  25
ENDBRANCH  23  24
ENDBRANCH   1  23
TORSDOF 14
ENDMDL
