MODEL 1
REMARK VINA RESULT:     -12.1      0.000      0.000
REMARK SMILES COc1cc(-c2cc(C(=O)NCCCNC(=O)c3ccc(-c4c5nc(c(-c6c(F)c(F)c(F)c(F)c6F)c6ccc([nH]6)c(-c6c(F)c(F)c(F)c(F)c6F)c6nc(c(-c7c(F)c(F)c(F)c(F)c7F)c7ccc4[nH]7)C=C6)C=C5)cc3)c3cc(C)ccc3n2)cc(OC)c1OC
REMARK SMILES IDX 13 1 12 2 11 3 9 4 10 5 8 7 6 8 7 9 88 10 87 11 81 12 86 13
REMARK SMILES IDX 82 14 85 15 83 16 84 17 5 18 3 19 4 20 93 21 90 22 89 23
REMARK SMILES IDX 2 24 1 25 94 26 95 27 91 28 92 29 14 30 15 31 16 32 17 34
REMARK SMILES IDX 18 35 19 36 80 37 20 38 79 39 21 40 22 41 23 42 73 43 24 44
REMARK SMILES IDX 78 45 72 46 74 47 25 48 77 49 71 50 70 51 26 53 58 54 38 55
REMARK SMILES IDX 57 56 39 57 42 58 56 59 75 60 40 61 41 62 55 64 76 65 43 66
REMARK SMILES IDX 27 67 28 68 36 69 29 70 30 71 34 72 37 73 31 74 32 75 35 76
REMARK SMILES IDX 33 77 59 78 60 79 68 80 61 81 62 82 66 83 69 84 63 85 64 86
REMARK SMILES IDX 67 87 65 88 44 89 45 90 53 91 46 92 47 93 51 94 54 95 48 96
REMARK SMILES IDX 49 97 52 98 50 99
REMARK H PARENT 11 6 15 33 74 52 42 63
REMARK Flexibility Score: inf
ROOT
ATOM      1  C   UNL A   1      36.276  23.497  24.350  1.00  0.00     0.042 C 
ENDROOT
BRANCH   1   2
ATOM      2  C   UNL A   1      34.762  23.669  24.209  1.00  0.00     0.118 C 
BRANCH   2   3
ATOM      3  N   UNL A   1      34.099  22.961  25.288  1.00  0.00    -0.352 N 
ATOM      4  C   UNL A   1      33.315  23.464  26.297  1.00  0.00     0.252 C 
ATOM      5  O   UNL A   1      33.381  22.962  27.411  1.00  0.00    -0.269 OA
ATOM      6  H   UNL A   1      34.229  21.985  25.298  1.00  0.00     0.163 HD
BRANCH   4   7
ATOM      7  C   UNL A   1      32.257  24.428  25.935  1.00  0.00     0.051 A 
ATOM      8  C   UNL A   1      30.169  25.043  25.050  1.00  0.00     0.072 A 
ATOM      9  C   UNL A   1      31.185  24.108  25.102  1.00  0.00     0.043 A 
ATOM     10  N   UNL A   1      30.031  25.914  26.083  1.00  0.00    -0.248 NA
ATOM     11  C   UNL A   1      31.166  26.440  26.543  1.00  0.00     0.072 A 
ATOM     12  C   UNL A   1      32.371  25.757  26.393  1.00  0.00     0.013 A 
ATOM     13  C   UNL A   1      31.170  27.760  26.963  1.00  0.00     0.029 A 
ATOM     14  C   UNL A   1      33.581  26.482  26.496  1.00  0.00     0.014 A 
ATOM     15  C   UNL A   1      32.358  28.491  26.991  1.00  0.00     0.005 A 
ATOM     16  C   UNL A   1      33.560  27.871  26.658  1.00  0.00    -0.050 A 
ATOM     17  C   UNL A   1      34.784  28.673  26.328  1.00  0.00     0.044 C 
BRANCH   8  18
ATOM     18  C   UNL A   1      29.821  25.782  23.791  1.00  0.00     0.008 A 
ATOM     19  C   UNL A   1      29.712  28.103  23.145  1.00  0.00     0.165 A 
ATOM     20  C   UNL A   1      29.196  27.029  23.879  1.00  0.00     0.061 A 
ATOM     21  C   UNL A   1      30.911  27.961  22.427  1.00  0.00     0.203 A 
ATOM     22  C   UNL A   1      31.368  26.674  22.136  1.00  0.00     0.165 A 
ATOM     23  C   UNL A   1      30.714  25.578  22.711  1.00  0.00     0.061 A 
BRANCH  19  24
ATOM     24  O   UNL A   1      29.092  29.317  23.294  1.00  0.00    -0.493 OA
ATOM     25  C   UNL A   1      28.053  29.461  22.320  1.00  0.00     0.278 C 
ENDBRANCH  19  24
BRANCH  21  26
ATOM     26  O   UNL A   1      31.768  29.033  22.387  1.00  0.00    -0.490 OA
ATOM     27  C   UNL A   1      32.821  29.010  23.331  1.00  0.00     0.278 C 
ENDBRANCH  21  26
BRANCH  22  28
ATOM     28  O   UNL A   1      32.465  26.331  21.390  1.00  0.00    -0.493 OA
ATOM     29  C   UNL A   1      32.867  24.968  21.445  1.00  0.00     0.278 C 
ENDBRANCH  22  28
ENDBRANCH   8  18
ENDBRANCH   4   7
ENDBRANCH   2   3
ENDBRANCH   1   2
BRANCH   1  30
ATOM     30  C   UNL A   1      36.758  23.478  25.802  1.00  0.00     0.118 C 
BRANCH  30  31
ATOM     31  N   UNL A   1      37.877  22.570  26.006  1.00  0.00    -0.352 N 
ATOM     32  C   UNL A   1      39.155  22.835  26.427  1.00  0.00     0.251 C 
ATOM     33  H   UNL A   1      37.687  21.624  25.812  1.00  0.00     0.163 HD
ATOM     34  O   UNL A   1      40.016  21.964  26.352  1.00  0.00    -0.269 OA
BRANCH  32  35
ATOM     35  C   UNL A   1      39.507  24.172  26.953  1.00  0.00     0.039 A 
ATOM     36  C   UNL A   1      39.232  24.451  28.294  1.00  0.00     0.014 A 
ATOM     37  C   UNL A   1      40.073  25.153  26.134  1.00  0.00     0.014 A 
ATOM     38  C   UNL A   1      39.572  25.697  28.825  1.00  0.00     0.010 A 
ATOM     39  C   UNL A   1      40.474  26.370  26.682  1.00  0.00     0.010 A 
ATOM     40  C   UNL A   1      40.225  26.654  28.032  1.00  0.00    -0.014 A 
BRANCH  40  41
ATOM     41  C   UNL A   1      40.667  27.945  28.620  1.00  0.00     0.031 A 
ATOM     42  C   UNL A   1      42.104  28.165  28.998  1.00  0.00     0.074 A 
ATOM     43  C   UNL A   1      39.753  28.907  28.851  1.00  0.00     0.049 A 
ATOM     44  N   UNL A   1      42.668  29.228  29.517  1.00  0.00    -0.248 NA
ATOM     45  C   UNL A   1      43.027  27.039  28.790  1.00  0.00     0.031 C 
ATOM     46  C   UNL A   1      38.316  28.785  28.590  1.00  0.00     0.029 A 
ATOM     47  N   UNL A   1      39.891  30.174  29.361  1.00  0.00    -0.354 N 
ATOM     48  C   UNL A   1      44.003  28.895  29.705  1.00  0.00     0.074 A 
ATOM     49  C   UNL A   1      44.156  27.516  29.292  1.00  0.00     0.031 C 
ATOM     50  C   UNL A   1      37.712  29.939  28.912  1.00  0.00     0.029 A 
ATOM     51  C   UNL A   1      38.710  30.869  29.431  1.00  0.00     0.049 A 
ATOM     52  H   UNL A   1      40.756  30.547  29.647  1.00  0.00     0.167 HD
ATOM     53  C   UNL A   1      45.013  29.676  30.159  1.00  0.00     0.037 A 
ATOM     54  C   UNL A   1      38.459  32.119  29.866  1.00  0.00     0.037 A 
ATOM     55  C   UNL A   1      44.860  31.055  30.544  1.00  0.00     0.049 A 
ATOM     56  C   UNL A   1      39.602  32.972  30.344  1.00  0.00     0.074 A 
ATOM     57  C   UNL A   1      45.835  31.953  30.942  1.00  0.00     0.029 A 
ATOM     58  N   UNL A   1      43.651  31.734  30.586  1.00  0.00    -0.354 N 
ATOM     59  N   UNL A   1      40.876  32.675  30.429  1.00  0.00    -0.248 NA
ATOM     60  C   UNL A   1      39.273  34.338  30.774  1.00  0.00     0.031 C 
ATOM     61  C   UNL A   1      45.209  33.162  31.271  1.00  0.00     0.029 A 
ATOM     62  C   UNL A   1      43.852  33.033  31.029  1.00  0.00     0.049 A 
ATOM     63  H   UNL A   1      42.779  31.351  30.338  1.00  0.00     0.167 HD
ATOM     64  C   UNL A   1      41.503  33.819  30.905  1.00  0.00     0.074 A 
ATOM     65  C   UNL A   1      40.471  34.823  31.063  1.00  0.00     0.031 C 
ATOM     66  C   UNL A   1      42.813  34.019  31.189  1.00  0.00     0.037 A 
BRANCH  53  67
ATOM     67  C   UNL A   1      46.379  29.061  30.261  1.00  0.00     0.064 A 
ATOM     68  C   UNL A   1      46.815  28.427  31.434  1.00  0.00     0.173 A 
ATOM     69  C   UNL A   1      47.245  29.063  29.157  1.00  0.00     0.173 A 
ATOM     70  F   UNL A   1      46.030  28.405  32.521  1.00  0.00    -0.203 F 
ATOM     71  C   UNL A   1      48.077  27.841  31.507  1.00  0.00     0.198 A 
ATOM     72  C   UNL A   1      48.494  28.450  29.223  1.00  0.00     0.198 A 
ATOM     73  F   UNL A   1      46.877  29.648  28.008  1.00  0.00    -0.203 F 
ATOM     74  F   UNL A   1      48.487  27.280  32.653  1.00  0.00    -0.200 F 
ATOM     75  C   UNL A   1      48.911  27.845  30.399  1.00  0.00     0.200 A 
ATOM     76  F   UNL A   1      49.294  28.443  28.148  1.00  0.00    -0.200 F 
ATOM     77  F   UNL A   1      50.120  27.272  30.467  1.00  0.00    -0.200 F 
ENDBRANCH  53  67
BRANCH  54  78
ATOM     78  C   UNL A   1      37.070  32.648  29.839  1.00  0.00     0.064 A 
ATOM     79  C   UNL A   1      36.574  33.314  28.710  1.00  0.00     0.173 A 
ATOM     80  C   UNL A   1      36.213  32.500  30.939  1.00  0.00     0.173 A 
ATOM     81  F   UNL A   1      37.361  33.498  27.640  1.00  0.00    -0.203 F 
ATOM     82  C   UNL A   1      35.279  33.830  28.690  1.00  0.00     0.198 A 
ATOM     83  C   UNL A   1      34.910  32.990  30.908  1.00  0.00     0.198 A 
ATOM     84  F   UNL A   1      36.638  31.865  32.041  1.00  0.00    -0.203 F 
ATOM     85  F   UNL A   1      34.845  34.502  27.616  1.00  0.00    -0.200 F 
ATOM     86  C   UNL A   1      34.446  33.662  29.786  1.00  0.00     0.200 A 
ATOM     87  F   UNL A   1      34.103  32.812  31.962  1.00  0.00    -0.200 F 
ATOM     88  F   UNL A   1      33.200  34.155  29.766  1.00  0.00    -0.200 F 
ENDBRANCH  54  78
BRANCH  66  89
ATOM     89  C   UNL A   1      43.204  35.380  31.686  1.00  0.00     0.064 A 
ATOM     90  C   UNL A   1      43.667  36.375  30.811  1.00  0.00     0.173 A 
ATOM     91  C   UNL A   1      43.097  35.699  33.047  1.00  0.00     0.173 A 
ATOM     92  F   UNL A   1      43.803  36.114  29.502  1.00  0.00    -0.203 F 
ATOM     93  C   UNL A   1      44.040  37.629  31.288  1.00  0.00     0.198 A 
ATOM     94  C   UNL A   1      43.441  36.965  33.515  1.00  0.00     0.198 A 
ATOM     95  F   UNL A   1      42.654  34.786  33.924  1.00  0.00    -0.203 F 
ATOM     96  F   UNL A   1      44.533  38.545  30.443  1.00  0.00    -0.200 F 
ATOM     97  C   UNL A   1      43.921  37.925  32.637  1.00  0.00     0.200 A 
ATOM     98  F   UNL A   1      43.313  37.253  34.818  1.00  0.00    -0.200 F 
ATOM     99  F   UNL A   1      44.279  39.133  33.094  1.00  0.00    -0.200 F 
ENDBRANCH  66  89
ENDBRANCH  40  41
ENDBRANCH  32  35
ENDBRANCH  30  31
ENDBRANCH   1  30
TORSDOF 14
ENDMDL
MODEL 2
REMARK VINA RESULT:     -12.1      3.325      5.357
REMARK SMILES COc1cc(-c2cc(C(=O)NCCCNC(=O)c3ccc(-c4c5nc(c(-c6c(F)c(F)c(F)c(F)c6F)c6ccc([nH]6)c(-c6c(F)c(F)c(F)c(F)c6F)c6nc(c(-c7c(F)c(F)c(F)c(F)c7F)c7ccc4[nH]7)C=C6)C=C5)cc3)c3cc(C)ccc3n2)cc(OC)c1OC
REMARK SMILES IDX 13 1 12 2 11 3 9 4 10 5 8 7 6 8 7 9 88 10 87 11 81 12 86 13
REMARK SMILES IDX 82 14 85 15 83 16 84 17 5 18 3 19 4 20 93 21 90 22 89 23
REMARK SMILES IDX 2 24 1 25 94 26 95 27 91 28 92 29 14 30 15 31 16 32 17 34
REMARK SMILES IDX 18 35 19 36 80 37 20 38 79 39 21 40 22 41 23 42 73 43 24 44
REMARK SMILES IDX 78 45 72 46 74 47 25 48 77 49 71 50 70 51 26 53 58 54 38 55
REMARK SMILES IDX 57 56 39 57 42 58 56 59 75 60 40 61 41 62 55 64 76 65 43 66
REMARK SMILES IDX 27 67 28 68 36 69 29 70 30 71 34 72 37 73 31 74 32 75 35 76
REMARK SMILES IDX 33 77 59 78 60 79 68 80 61 81 62 82 66 83 69 84 63 85 64 86
REMARK SMILES IDX 67 87 65 88 44 89 45 90 53 91 46 92 47 93 51 94 54 95 48 96
REMARK SMILES IDX 49 97 52 98 50 99
REMARK H PARENT 11 6 15 33 74 52 42 63
REMARK Flexibility Score: inf
ROOT
ATOM      1  C   UNL A   1      39.049  21.131  25.371  1.00  0.00     0.042 C 
ENDROOT
BRANCH   1   2
ATOM      2  C   UNL A   1      38.537  22.445  25.967  1.00  0.00     0.118 C 
BRANCH   2   3
ATOM      3  N   UNL A   1      37.918  23.234  24.919  1.00  0.00    -0.352 N 
ATOM      4  C   UNL A   1      36.817  22.939  24.154  1.00  0.00     0.252 C 
ATOM      5  O   UNL A   1      36.796  23.282  22.979  1.00  0.00    -0.269 OA
ATOM      6  H   UNL A   1      38.345  24.101  24.731  1.00  0.00     0.163 HD
BRANCH   4   7
ATOM      7  C   UNL A   1      35.611  22.435  24.842  1.00  0.00     0.051 A 
ATOM      8  C   UNL A   1      34.329  20.800  25.939  1.00  0.00     0.072 A 
ATOM      9  C   UNL A   1      35.381  21.082  25.088  1.00  0.00     0.043 A 
ATOM     10  N   UNL A   1      33.917  21.760  26.806  1.00  0.00    -0.248 NA
ATOM     11  C   UNL A   1      33.827  22.990  26.299  1.00  0.00     0.072 A 
ATOM     12  C   UNL A   1      34.608  23.358  25.205  1.00  0.00     0.013 A 
ATOM     13  C   UNL A   1      32.798  23.815  26.720  1.00  0.00     0.029 A 
ATOM     14  C   UNL A   1      34.216  24.479  24.437  1.00  0.00     0.014 A 
ATOM     15  C   UNL A   1      32.366  24.874  25.921  1.00  0.00     0.005 A 
ATOM     16  C   UNL A   1      33.019  25.145  24.720  1.00  0.00    -0.050 A 
ATOM     17  C   UNL A   1      32.391  26.017  23.673  1.00  0.00     0.044 C 
BRANCH   8  18
ATOM     18  C   UNL A   1      33.110  20.049  25.488  1.00  0.00     0.008 A 
ATOM     19  C   UNL A   1      32.334  19.151  23.389  1.00  0.00     0.165 A 
ATOM     20  C   UNL A   1      32.615  20.258  24.199  1.00  0.00     0.061 A 
ATOM     21  C   UNL A   1      32.660  17.855  23.821  1.00  0.00     0.203 A 
ATOM     22  C   UNL A   1      32.898  17.643  25.181  1.00  0.00     0.165 A 
ATOM     23  C   UNL A   1      32.973  18.750  26.035  1.00  0.00     0.061 A 
BRANCH  19  24
ATOM     24  O   UNL A   1      31.889  19.405  22.118  1.00  0.00    -0.493 OA
ATOM     25  C   UNL A   1      31.880  20.816  21.871  1.00  0.00     0.278 C 
ENDBRANCH  19  24
BRANCH  21  26
ATOM     26  O   UNL A   1      33.112  16.959  22.884  1.00  0.00    -0.490 OA
ATOM     27  C   UNL A   1      34.481  16.617  22.975  1.00  0.00     0.278 C 
ENDBRANCH  21  26
BRANCH  22  28
ATOM     28  O   UNL A   1      33.155  16.449  25.803  1.00  0.00    -0.493 OA
ATOM     29  C   UNL A   1      32.121  15.474  25.754  1.00  0.00     0.278 C 
ENDBRANCH  22  28
ENDBRANCH   8  18
ENDBRANCH   4   7
ENDBRANCH   2   3
ENDBRANCH   1   2
BRANCH   1  30
ATOM     30  C   UNL A   1      39.335  20.052  26.418  1.00  0.00     0.118 C 
BRANCH  30  31
ATOM     31  N   UNL A   1      40.488  19.234  26.074  1.00  0.00    -0.352 N 
ATOM     32  C   UNL A   1      41.809  19.585  25.960  1.00  0.00     0.251 C 
ATOM     33  H   UNL A   1      40.289  18.286  25.896  1.00  0.00     0.163 HD
ATOM     34  O   UNL A   1      42.611  18.796  25.471  1.00  0.00    -0.269 OA
BRANCH  32  35
ATOM     35  C   UNL A   1      42.270  20.917  26.407  1.00  0.00     0.039 A 
ATOM     36  C   UNL A   1      42.627  21.857  25.436  1.00  0.00     0.014 A 
ATOM     37  C   UNL A   1      42.382  21.233  27.764  1.00  0.00     0.014 A 
ATOM     38  C   UNL A   1      43.046  23.130  25.826  1.00  0.00     0.010 A 
ATOM     39  C   UNL A   1      42.734  22.526  28.150  1.00  0.00     0.010 A 
ATOM     40  C   UNL A   1      43.072  23.485  27.185  1.00  0.00    -0.014 A 
BRANCH  40  41
ATOM     41  C   UNL A   1      43.432  24.867  27.595  1.00  0.00     0.031 A 
ATOM     42  C   UNL A   1      44.869  25.302  27.649  1.00  0.00     0.074 A 
ATOM     43  C   UNL A   1      42.454  25.719  27.958  1.00  0.00     0.049 A 
ATOM     44  N   UNL A   1      45.367  26.468  27.979  1.00  0.00    -0.248 NA
ATOM     45  C   UNL A   1      45.884  24.290  27.316  1.00  0.00     0.031 C 
ATOM     46  C   UNL A   1      41.027  25.392  28.011  1.00  0.00     0.029 A 
ATOM     47  N   UNL A   1      42.508  27.031  28.356  1.00  0.00    -0.354 N 
ATOM     48  C   UNL A   1      46.747  26.328  27.901  1.00  0.00     0.074 A 
ATOM     49  C   UNL A   1      47.010  24.950  27.543  1.00  0.00     0.031 C 
ATOM     50  C   UNL A   1      40.341  26.481  28.389  1.00  0.00     0.029 A 
ATOM     51  C   UNL A   1      41.278  27.572  28.634  1.00  0.00     0.049 A 
ATOM     52  H   UNL A   1      43.351  27.536  28.433  1.00  0.00     0.167 HD
ATOM     53  C   UNL A   1      47.704  27.268  28.088  1.00  0.00     0.037 A 
ATOM     54  C   UNL A   1      40.942  28.812  29.041  1.00  0.00     0.037 A 
ATOM     55  C   UNL A   1      47.435  28.643  28.419  1.00  0.00     0.049 A 
ATOM     56  C   UNL A   1      42.023  29.842  29.220  1.00  0.00     0.074 A 
ATOM     57  C   UNL A   1      48.330  29.689  28.553  1.00  0.00     0.029 A 
ATOM     58  N   UNL A   1      46.174  29.162  28.676  1.00  0.00    -0.354 N 
ATOM     59  N   UNL A   1      43.318  29.720  29.053  1.00  0.00    -0.248 NA
ATOM     60  C   UNL A   1      41.594  31.185  29.632  1.00  0.00     0.031 C 
ATOM     61  C   UNL A   1      47.616  30.831  28.938  1.00  0.00     0.029 A 
ATOM     62  C   UNL A   1      46.270  30.508  28.993  1.00  0.00     0.049 A 
ATOM     63  H   UNL A   1      45.334  28.649  28.638  1.00  0.00     0.167 HD
ATOM     64  C   UNL A   1      43.856  30.971  29.321  1.00  0.00     0.074 A 
ATOM     65  C   UNL A   1      42.744  31.844  29.636  1.00  0.00     0.031 C 
ATOM     66  C   UNL A   1      45.154  31.361  29.312  1.00  0.00     0.037 A 
BRANCH  53  67
ATOM     67  C   UNL A   1      49.136  26.844  27.935  1.00  0.00     0.064 A 
ATOM     68  C   UNL A   1      49.927  26.507  29.044  1.00  0.00     0.173 A 
ATOM     69  C   UNL A   1      49.713  26.729  26.661  1.00  0.00     0.173 A 
ATOM     70  F   UNL A   1      49.428  26.609  30.285  1.00  0.00    -0.203 F 
ATOM     71  C   UNL A   1      51.248  26.094  28.886  1.00  0.00     0.198 A 
ATOM     72  C   UNL A   1      51.024  26.288  26.503  1.00  0.00     0.198 A 
ATOM     73  F   UNL A   1      49.001  27.032  25.565  1.00  0.00    -0.203 F 
ATOM     74  F   UNL A   1      51.995  25.820  29.963  1.00  0.00    -0.200 F 
ATOM     75  C   UNL A   1      51.792  25.977  27.616  1.00  0.00     0.200 A 
ATOM     76  F   UNL A   1      51.546  26.161  25.275  1.00  0.00    -0.200 F 
ATOM     77  F   UNL A   1      53.060  25.570  27.464  1.00  0.00    -0.200 F 
ENDBRANCH  53  67
BRANCH  54  78
ATOM     78  C   UNL A   1      39.515  29.153  29.277  1.00  0.00     0.064 A 
ATOM     79  C   UNL A   1      38.685  29.551  28.220  1.00  0.00     0.173 A 
ATOM     80  C   UNL A   1      38.953  29.088  30.560  1.00  0.00     0.173 A 
ATOM     81  F   UNL A   1      39.180  29.647  26.978  1.00  0.00    -0.203 F 
ATOM     82  C   UNL A   1      37.352  29.893  28.442  1.00  0.00     0.198 A 
ATOM     83  C   UNL A   1      37.614  29.402  30.776  1.00  0.00     0.198 A 
ATOM     84  F   UNL A   1      39.704  28.706  31.603  1.00  0.00    -0.203 F 
ATOM     85  F   UNL A   1      36.592  30.315  27.422  1.00  0.00    -0.200 F 
ATOM     86  C   UNL A   1      36.816  29.812  29.718  1.00  0.00     0.200 A 
ATOM     87  F   UNL A   1      37.095  29.307  32.008  1.00  0.00    -0.200 F 
ATOM     88  F   UNL A   1      35.533  30.136  29.930  1.00  0.00    -0.200 F 
ENDBRANCH  54  78
BRANCH  66  89
ATOM     89  C   UNL A   1      45.438  32.799  29.639  1.00  0.00     0.064 A 
ATOM     90  C   UNL A   1      45.386  33.799  28.656  1.00  0.00     0.173 A 
ATOM     91  C   UNL A   1      45.745  33.184  30.953  1.00  0.00     0.173 A 
ATOM     92  F   UNL A   1      45.112  33.480  27.382  1.00  0.00    -0.203 F 
ATOM     93  C   UNL A   1      45.665  35.126  28.970  1.00  0.00     0.198 A 
ATOM     94  C   UNL A   1      45.992  34.517  31.269  1.00  0.00     0.198 A 
ATOM     95  F   UNL A   1      45.800  32.268  31.931  1.00  0.00    -0.203 F 
ATOM     96  F   UNL A   1      45.665  36.055  28.004  1.00  0.00    -0.200 F 
ATOM     97  C   UNL A   1      45.961  35.485  30.277  1.00  0.00     0.200 A 
ATOM     98  F   UNL A   1      46.266  34.864  32.535  1.00  0.00    -0.200 F 
ATOM     99  F   UNL A   1      46.228  36.763  30.578  1.00  0.00    -0.200 F 
ENDBRANCH  66  89
ENDBRANCH  40  41
ENDBRANCH  32  35
ENDBRANCH  30  31
ENDBRANCH   1  30
TORSDOF 14
ENDMDL
MODEL 3
REMARK VINA RESULT:     -12.0      3.053      8.502
REMARK SMILES COc1cc(-c2cc(C(=O)NCCCNC(=O)c3ccc(-c4c5nc(c(-c6c(F)c(F)c(F)c(F)c6F)c6ccc([nH]6)c(-c6c(F)c(F)c(F)c(F)c6F)c6nc(c(-c7c(F)c(F)c(F)c(F)c7F)c7ccc4[nH]7)C=C6)C=C5)cc3)c3cc(C)ccc3n2)cc(OC)c1OC
REMARK SMILES IDX 13 1 12 2 11 3 9 4 10 5 8 7 6 8 7 9 88 10 87 11 81 12 86 13
REMARK SMILES IDX 82 14 85 15 83 16 84 17 5 18 3 19 4 20 93 21 90 22 89 23
REMARK SMILES IDX 2 24 1 25 94 26 95 27 91 28 92 29 14 30 15 31 16 32 17 34
REMARK SMILES IDX 18 35 19 36 80 37 20 38 79 39 21 40 22 41 23 42 73 43 24 44
REMARK SMILES IDX 78 45 72 46 74 47 25 48 77 49 71 50 70 51 26 53 58 54 38 55
REMARK SMILES IDX 57 56 39 57 42 58 56 59 75 60 40 61 41 62 55 64 76 65 43 66
REMARK SMILES IDX 27 67 28 68 36 69 29 70 30 71 34 72 37 73 31 74 32 75 35 76
REMARK SMILES IDX 33 77 59 78 60 79 68 80 61 81 62 82 66 83 69 84 63 85 64 86
REMARK SMILES IDX 67 87 65 88 44 89 45 90 53 91 46 92 47 93 51 94 54 95 48 96
REMARK SMILES IDX 49 97 52 98 50 99
REMARK H PARENT 11 6 15 33 74 52 42 63
REMARK Flexibility Score: inf
ROOT
ATOM      1  C   UNL A   1      38.066  19.923  24.941  1.00  0.00     0.042 C 
ENDROOT
BRANCH   1   2
ATOM      2  C   UNL A   1      37.072  21.080  24.808  1.00  0.00     0.118 C 
BRANCH   2   3
ATOM      3  N   UNL A   1      35.850  20.742  25.514  1.00  0.00    -0.352 N 
ATOM      4  C   UNL A   1      35.028  21.557  26.254  1.00  0.00     0.252 C 
ATOM      5  O   UNL A   1      34.494  21.110  27.260  1.00  0.00    -0.269 OA
ATOM      6  H   UNL A   1      35.572  19.800  25.455  1.00  0.00     0.163 HD
BRANCH   4   7
ATOM      7  C   UNL A   1      34.637  22.856  25.672  1.00  0.00     0.051 A 
ATOM      8  C   UNL A   1      34.485  25.200  25.641  1.00  0.00     0.072 A 
ATOM      9  C   UNL A   1      34.656  24.051  26.389  1.00  0.00     0.043 A 
ATOM     10  N   UNL A   1      34.774  25.163  24.314  1.00  0.00    -0.248 NA
ATOM     11  C   UNL A   1      34.346  24.081  23.665  1.00  0.00     0.072 A 
ATOM     12  C   UNL A   1      34.152  22.882  24.348  1.00  0.00     0.013 A 
ATOM     13  C   UNL A   1      33.883  24.218  22.367  1.00  0.00     0.029 A 
ATOM     14  C   UNL A   1      33.325  21.894  23.764  1.00  0.00     0.014 A 
ATOM     15  C   UNL A   1      33.007  23.277  21.824  1.00  0.00     0.005 A 
ATOM     16  C   UNL A   1      32.647  22.156  22.569  1.00  0.00    -0.050 A 
ATOM     17  C   UNL A   1      31.460  21.319  22.191  1.00  0.00     0.044 C 
BRANCH   8  18
ATOM     18  C   UNL A   1      33.301  26.105  25.816  1.00  0.00     0.008 A 
ATOM     19  C   UNL A   1      31.704  27.138  24.333  1.00  0.00     0.165 A 
ATOM     20  C   UNL A   1      33.010  27.051  24.830  1.00  0.00     0.061 A 
ATOM     21  C   UNL A   1      30.730  26.208  24.731  1.00  0.00     0.203 A 
ATOM     22  C   UNL A   1      30.955  25.456  25.886  1.00  0.00     0.165 A 
ATOM     23  C   UNL A   1      32.207  25.531  26.508  1.00  0.00     0.061 A 
BRANCH  19  24
ATOM     24  O   UNL A   1      31.474  28.053  23.337  1.00  0.00    -0.493 OA
ATOM     25  C   UNL A   1      32.650  28.837  23.108  1.00  0.00     0.278 C 
ENDBRANCH  19  24
BRANCH  21  26
ATOM     26  O   UNL A   1      29.815  25.793  23.794  1.00  0.00    -0.490 OA
ATOM     27  C   UNL A   1      28.547  26.414  23.860  1.00  0.00     0.278 C 
ENDBRANCH  21  26
BRANCH  22  28
ATOM     28  O   UNL A   1      30.101  24.560  26.474  1.00  0.00    -0.493 OA
ATOM     29  C   UNL A   1      30.560  23.217  26.571  1.00  0.00     0.278 C 
ENDBRANCH  22  28
ENDBRANCH   8  18
ENDBRANCH   4   7
ENDBRANCH   2   3
ENDBRANCH   1   2
BRANCH   1  30
ATOM     30  C   UNL A   1      39.093  20.123  26.057  1.00  0.00     0.118 C 
BRANCH  30  31
ATOM     31  N   UNL A   1      40.184  19.162  25.987  1.00  0.00    -0.352 N 
ATOM     32  C   UNL A   1      41.540  19.373  26.017  1.00  0.00     0.251 C 
ATOM     33  H   UNL A   1      39.908  18.221  25.906  1.00  0.00     0.163 HD
ATOM     34  O   UNL A   1      42.307  18.453  25.751  1.00  0.00    -0.269 OA
BRANCH  32  35
ATOM     35  C   UNL A   1      42.082  20.708  26.350  1.00  0.00     0.039 A 
ATOM     36  C   UNL A   1      42.351  21.595  25.304  1.00  0.00     0.014 A 
ATOM     37  C   UNL A   1      42.355  21.077  27.670  1.00  0.00     0.014 A 
ATOM     38  C   UNL A   1      42.843  22.870  25.588  1.00  0.00     0.010 A 
ATOM     39  C   UNL A   1      42.781  22.372  27.957  1.00  0.00     0.010 A 
ATOM     40  C   UNL A   1      43.032  23.281  26.918  1.00  0.00    -0.014 A 
BRANCH  40  41
ATOM     41  C   UNL A   1      43.471  24.666  27.223  1.00  0.00     0.031 A 
ATOM     42  C   UNL A   1      42.502  25.678  27.765  1.00  0.00     0.074 A 
ATOM     43  C   UNL A   1      44.746  25.021  26.970  1.00  0.00     0.049 A 
ATOM     44  N   UNL A   1      42.711  26.929  28.093  1.00  0.00    -0.248 NA
ATOM     45  C   UNL A   1      41.109  25.238  27.939  1.00  0.00     0.031 C 
ATOM     46  C   UNL A   1      45.763  24.146  26.381  1.00  0.00     0.029 A 
ATOM     47  N   UNL A   1      45.405  26.208  27.169  1.00  0.00    -0.354 N 
ATOM     48  C   UNL A   1      41.479  27.425  28.501  1.00  0.00     0.074 A 
ATOM     49  C   UNL A   1      40.518  26.356  28.332  1.00  0.00     0.031 C 
ATOM     50  C   UNL A   1      46.922  24.817  26.295  1.00  0.00     0.029 A 
ATOM     51  C   UNL A   1      46.724  26.175  26.792  1.00  0.00     0.049 A 
ATOM     52  H   UNL A   1      44.971  27.007  27.548  1.00  0.00     0.167 HD
ATOM     53  C   UNL A   1      41.183  28.652  28.993  1.00  0.00     0.037 A 
ATOM     54  C   UNL A   1      47.670  27.133  26.841  1.00  0.00     0.037 A 
ATOM     55  C   UNL A   1      42.149  29.703  29.183  1.00  0.00     0.049 A 
ATOM     56  C   UNL A   1      47.319  28.479  27.413  1.00  0.00     0.074 A 
ATOM     57  C   UNL A   1      41.964  30.953  29.746  1.00  0.00     0.029 A 
ATOM     58  N   UNL A   1      43.482  29.629  28.805  1.00  0.00    -0.354 N 
ATOM     59  N   UNL A   1      46.171  28.905  27.882  1.00  0.00    -0.248 NA
ATOM     60  C   UNL A   1      48.399  29.473  27.472  1.00  0.00     0.031 C 
ATOM     61  C   UNL A   1      43.174  31.653  29.667  1.00  0.00     0.029 A 
ATOM     62  C   UNL A   1      44.126  30.821  29.101  1.00  0.00     0.049 A 
ATOM     63  H   UNL A   1      43.908  28.845  28.391  1.00  0.00     0.167 HD
ATOM     64  C   UNL A   1      46.394  30.208  28.308  1.00  0.00     0.074 A 
ATOM     65  C   UNL A   1      47.793  30.491  28.066  1.00  0.00     0.031 C 
ATOM     66  C   UNL A   1      45.518  31.091  28.847  1.00  0.00     0.037 A 
BRANCH  53  67
ATOM     67  C   UNL A   1      39.756  28.928  29.367  1.00  0.00     0.064 A 
ATOM     68  C   UNL A   1      38.825  29.397  28.428  1.00  0.00     0.173 A 
ATOM     69  C   UNL A   1      39.299  28.674  30.670  1.00  0.00     0.173 A 
ATOM     70  F   UNL A   1      39.211  29.665  27.172  1.00  0.00    -0.203 F 
ATOM     71  C   UNL A   1      37.498  29.627  28.784  1.00  0.00     0.198 A 
ATOM     72  C   UNL A   1      37.966  28.877  31.016  1.00  0.00     0.198 A 
ATOM     73  F   UNL A   1      40.144  28.218  31.607  1.00  0.00    -0.203 F 
ATOM     74  F   UNL A   1      36.640  30.117  27.880  1.00  0.00    -0.200 F 
ATOM     75  C   UNL A   1      37.068  29.359  30.075  1.00  0.00     0.200 A 
ATOM     76  F   UNL A   1      37.547  28.605  32.260  1.00  0.00    -0.200 F 
ATOM     77  F   UNL A   1      35.789  29.571  30.414  1.00  0.00    -0.200 F 
ENDBRANCH  53  67
BRANCH  54  78
ATOM     78  C   UNL A   1      49.046  26.840  26.363  1.00  0.00     0.064 A 
ATOM     79  C   UNL A   1      50.016  26.320  27.232  1.00  0.00     0.173 A 
ATOM     80  C   UNL A   1      49.420  27.074  25.032  1.00  0.00     0.173 A 
ATOM     81  F   UNL A   1      49.713  26.098  28.519  1.00  0.00    -0.203 F 
ATOM     82  C   UNL A   1      51.314  26.066  26.792  1.00  0.00     0.198 A 
ATOM     83  C   UNL A   1      50.708  26.792  24.586  1.00  0.00     0.198 A 
ATOM     84  F   UNL A   1      48.527  27.564  24.160  1.00  0.00    -0.203 F 
ATOM     85  F   UNL A   1      52.234  25.613  27.653  1.00  0.00    -0.200 F 
ATOM     86  C   UNL A   1      51.657  26.296  25.468  1.00  0.00     0.200 A 
ATOM     87  F   UNL A   1      51.032  27.000  23.302  1.00  0.00    -0.200 F 
ATOM     88  F   UNL A   1      52.903  26.047  25.044  1.00  0.00    -0.200 F 
ENDBRANCH  54  78
BRANCH  66  89
ATOM     89  C   UNL A   1      46.055  32.441  29.224  1.00  0.00     0.064 A 
ATOM     90  C   UNL A   1      46.605  32.684  30.492  1.00  0.00     0.173 A 
ATOM     91  C   UNL A   1      46.036  33.498  28.302  1.00  0.00     0.173 A 
ATOM     92  F   UNL A   1      46.630  31.710  31.414  1.00  0.00    -0.203 F 
ATOM     93  C   UNL A   1      47.086  33.945  30.833  1.00  0.00     0.198 A 
ATOM     94  C   UNL A   1      46.547  34.749  28.636  1.00  0.00     0.198 A 
ATOM     95  F   UNL A   1      45.528  33.316  27.074  1.00  0.00    -0.203 F 
ATOM     96  F   UNL A   1      47.554  34.169  32.069  1.00  0.00    -0.200 F 
ATOM     97  C   UNL A   1      47.062  34.974  29.904  1.00  0.00     0.200 A 
ATOM     98  F   UNL A   1      46.536  35.739  27.733  1.00  0.00    -0.200 F 
ATOM     99  F   UNL A   1      47.527  36.187  30.234  1.00  0.00    -0.200 F 
ENDBRANCH  66  89
ENDBRANCH  40  41
ENDBRANCH  32  35
ENDBRANCH  30  31
ENDBRANCH   1  30
TORSDOF 14
ENDMDL
