MODEL 1
REMARK VINA RESULT:     -12.6      0.000      0.000
REMARK SMILES CCc1ccc(C[NH+]2CCC(Oc3ccccc3OC)(C(=O)NCCCNC(=O)c3ccc(-c4c5nc(c(-c6c(F)c(F)c(F)c(F)c6F)c6ccc([nH]6)c(-c6c(F)c(F)c(F)c(F)c6F)c6nc(c(-c7c(F)c(F)c(F)c(F)c7F)c7ccc4[nH]7)C=C6)C=C5)cc3)CC2)nc1
REMARK SMILES IDX 24 1 23 2 21 3 22 4 11 6 8 7 9 8 94 9 10 11 93 12 7 13 6 14
REMARK SMILES IDX 3 15 4 16 96 17 5 18 95 19 2 20 1 21 12 22 13 23 14 24 18 25
REMARK SMILES IDX 15 26 17 27 16 28 19 29 20 30 25 31 26 32 27 33 28 34 29 36
REMARK SMILES IDX 30 37 31 38 92 39 32 40 91 41 33 42 34 43 35 44 85 45 36 46
REMARK SMILES IDX 90 47 84 48 86 49 37 50 89 51 83 52 82 53 38 55 70 56 50 57
REMARK SMILES IDX 69 58 51 59 54 60 68 61 87 62 52 63 53 64 67 66 88 67 55 68
REMARK SMILES IDX 39 69 40 70 48 71 41 72 42 73 46 74 49 75 43 76 44 77 47 78
REMARK SMILES IDX 45 79 71 80 72 81 80 82 73 83 74 84 78 85 81 86 75 87 76 88
REMARK SMILES IDX 79 89 77 90 56 91 57 92 65 93 58 94 59 95 63 96 66 97 60 98
REMARK SMILES IDX 61 99 64 100 62 101
REMARK H PARENT 23 5 8 10 27 35 86 54 54 65
REMARK Flexibility Score: inf
ROOT
ATOM      1  C   UNL A   1      36.858  21.306  24.742  1.00  0.00     0.118 C 
ENDROOT
BRANCH   1   2
ATOM      2  N   UNL A   1      36.260  21.874  25.944  1.00  0.00    -0.353 N 
ATOM      3  C   UNL A   1      34.988  21.799  26.450  1.00  0.00     0.264 C 
ATOM      4  O   UNL A   1      34.858  22.199  27.612  1.00  0.00    -0.270 OA
ATOM      5  H   UNL A   1      36.881  22.408  26.490  1.00  0.00     0.163 HD
BRANCH   3   6
ATOM      6  C   UNL A   1      33.777  21.292  25.605  1.00  0.00     0.197 C 
ATOM      7  N   UNL A   1      32.316  23.617  24.521  1.00  0.00    -0.330 N 
ATOM      8  C   UNL A   1      33.670  23.317  24.062  1.00  0.00     0.267 C 
ATOM      9  C   UNL A   1      32.199  23.313  25.957  1.00  0.00     0.267 C 
ATOM     10  H   UNL A   1      31.657  23.019  24.023  1.00  0.00     0.348 HD
ATOM     11  C   UNL A   1      33.901  21.826  24.177  1.00  0.00     0.120 C 
ATOM     12  C   UNL A   1      32.450  21.811  26.215  1.00  0.00     0.120 C 
BRANCH   7  13
ATOM     13  C   UNL A   1      31.914  25.008  24.189  1.00  0.00     0.319 C 
BRANCH  13  14
ATOM     14  C   UNL A   1      32.300  26.066  25.210  1.00  0.00     0.095 A 
ATOM     15  C   UNL A   1      32.862  28.340  26.662  1.00  0.00    -0.030 A 
ATOM     16  C   UNL A   1      31.625  27.716  26.818  1.00  0.00     0.007 A 
ATOM     17  C   UNL A   1      33.780  27.734  25.810  1.00  0.00     0.115 A 
ATOM     18  C   UNL A   1      31.339  26.564  26.093  1.00  0.00     0.030 A 
ATOM     19  N   UNL A   1      33.531  26.616  25.096  1.00  0.00    -0.255 NA
BRANCH  15  20
ATOM     20  C   UNL A   1      33.183  29.646  27.330  1.00  0.00     0.034 C 
ATOM     21  C   UNL A   1      32.294  30.787  26.864  1.00  0.00     0.009 C 
ENDBRANCH  15  20
ENDBRANCH  13  14
ENDBRANCH   7  13
BRANCH   6  22
ATOM     22  O   UNL A   1      33.974  19.854  25.599  1.00  0.00    -0.473 OA
BRANCH  22  23
ATOM     23  C   UNL A   1      33.740  19.094  24.496  1.00  0.00     0.162 A 
ATOM     24  C   UNL A   1      32.542  19.304  23.804  1.00  0.00     0.050 A 
ATOM     25  C   UNL A   1      34.486  17.938  24.221  1.00  0.00     0.160 A 
ATOM     26  C   UNL A   1      32.145  18.438  22.783  1.00  0.00     0.004 A 
ATOM     27  C   UNL A   1      34.109  17.098  23.166  1.00  0.00     0.050 A 
ATOM     28  C   UNL A   1      32.946  17.353  22.441  1.00  0.00     0.004 A 
BRANCH  25  29
ATOM     29  O   UNL A   1      35.404  17.390  25.082  1.00  0.00    -0.493 OA
ATOM     30  C   UNL A   1      35.282  15.992  25.276  1.00  0.00     0.278 C 
ENDBRANCH  25  29
ENDBRANCH  22  23
ENDBRANCH   6  22
ENDBRANCH   3   6
ENDBRANCH   1   2
BRANCH   1  31
ATOM     31  C   UNL A   1      37.791  20.136  25.027  1.00  0.00     0.042 C 
BRANCH  31  32
ATOM     32  C   UNL A   1      39.007  20.500  25.867  1.00  0.00     0.118 C 
BRANCH  32  33
ATOM     33  N   UNL A   1      39.992  19.429  25.917  1.00  0.00    -0.352 N 
ATOM     34  C   UNL A   1      41.349  19.476  26.111  1.00  0.00     0.251 C 
ATOM     35  H   UNL A   1      39.625  18.524  25.793  1.00  0.00     0.163 HD
ATOM     36  O   UNL A   1      42.028  18.467  25.912  1.00  0.00    -0.269 OA
BRANCH  34  37
ATOM     37  C   UNL A   1      42.015  20.727  26.532  1.00  0.00     0.039 A 
ATOM     38  C   UNL A   1      42.511  21.590  25.549  1.00  0.00     0.014 A 
ATOM     39  C   UNL A   1      42.175  21.047  27.881  1.00  0.00     0.014 A 
ATOM     40  C   UNL A   1      43.080  22.812  25.918  1.00  0.00     0.010 A 
ATOM     41  C   UNL A   1      42.674  22.296  28.247  1.00  0.00     0.010 A 
ATOM     42  C   UNL A   1      43.116  23.198  27.266  1.00  0.00    -0.014 A 
BRANCH  42  43
ATOM     43  C   UNL A   1      43.552  24.560  27.672  1.00  0.00     0.031 A 
ATOM     44  C   UNL A   1      42.540  25.612  28.031  1.00  0.00     0.074 A 
ATOM     45  C   UNL A   1      44.864  24.870  27.623  1.00  0.00     0.049 A 
ATOM     46  N   UNL A   1      42.725  26.883  28.285  1.00  0.00    -0.248 NA
ATOM     47  C   UNL A   1      41.133  25.188  28.092  1.00  0.00     0.031 C 
ATOM     48  C   UNL A   1      45.939  23.946  27.254  1.00  0.00     0.029 A 
ATOM     49  N   UNL A   1      45.517  26.057  27.859  1.00  0.00    -0.354 N 
ATOM     50  C   UNL A   1      41.463  27.412  28.517  1.00  0.00     0.074 A 
ATOM     51  C   UNL A   1      40.514  26.334  28.345  1.00  0.00     0.031 C 
ATOM     52  C   UNL A   1      47.112  24.596  27.291  1.00  0.00     0.029 A 
ATOM     53  C   UNL A   1      46.872  25.994  27.633  1.00  0.00     0.049 A 
ATOM     54  H   UNL A   1      45.058  26.874  28.160  1.00  0.00     0.167 HD
ATOM     55  C   UNL A   1      41.132  28.681  28.854  1.00  0.00     0.037 A 
ATOM     56  C   UNL A   1      47.810  26.959  27.665  1.00  0.00     0.037 A 
ATOM     57  C   UNL A   1      42.084  29.743  29.055  1.00  0.00     0.049 A 
ATOM     58  C   UNL A   1      47.402  28.367  28.013  1.00  0.00     0.074 A 
ATOM     59  C   UNL A   1      41.849  31.037  29.487  1.00  0.00     0.029 A 
ATOM     60  N   UNL A   1      43.448  29.638  28.828  1.00  0.00    -0.354 N 
ATOM     61  N   UNL A   1      46.215  28.833  28.319  1.00  0.00    -0.248 NA
ATOM     62  C   UNL A   1      48.462  29.384  28.018  1.00  0.00     0.031 C 
ATOM     63  C   UNL A   1      43.060  31.735  29.455  1.00  0.00     0.029 A 
ATOM     64  C   UNL A   1      44.059  30.859  29.064  1.00  0.00     0.049 A 
ATOM     65  H   UNL A   1      43.912  28.819  28.542  1.00  0.00     0.167 HD
ATOM     66  C   UNL A   1      46.391  30.186  28.576  1.00  0.00     0.074 A 
ATOM     67  C   UNL A   1      47.803  30.462  28.415  1.00  0.00     0.031 C 
ATOM     68  C   UNL A   1      45.466  31.119  28.907  1.00  0.00     0.037 A 
BRANCH  55  69
ATOM     69  C   UNL A   1      39.680  29.017  29.029  1.00  0.00     0.064 A 
ATOM     70  C   UNL A   1      38.874  29.397  27.947  1.00  0.00     0.173 A 
ATOM     71  C   UNL A   1      39.064  28.850  30.281  1.00  0.00     0.173 A 
ATOM     72  F   UNL A   1      39.415  29.576  26.732  1.00  0.00    -0.203 F 
ATOM     73  C   UNL A   1      37.506  29.604  28.111  1.00  0.00     0.198 A 
ATOM     74  C   UNL A   1      37.692  29.031  30.435  1.00  0.00     0.198 A 
ATOM     75  F   UNL A   1      39.790  28.482  31.347  1.00  0.00    -0.203 F 
ATOM     76  F   UNL A   1      36.758  29.987  27.067  1.00  0.00    -0.200 F 
ATOM     77  C   UNL A   1      36.915  29.409  29.350  1.00  0.00     0.200 A 
ATOM     78  F   UNL A   1      37.122  28.826  31.629  1.00  0.00    -0.200 F 
ATOM     79  F   UNL A   1      35.595  29.582  29.500  1.00  0.00    -0.200 F 
ENDBRANCH  55  69
BRANCH  56  80
ATOM     80  C   UNL A   1      49.226  26.648  27.332  1.00  0.00     0.064 A 
ATOM     81  C   UNL A   1      50.136  26.259  28.326  1.00  0.00     0.173 A 
ATOM     82  C   UNL A   1      49.714  26.785  26.023  1.00  0.00     0.173 A 
ATOM     83  F   UNL A   1      49.725  26.136  29.597  1.00  0.00    -0.203 F 
ATOM     84  C   UNL A   1      51.484  26.061  28.033  1.00  0.00     0.198 A 
ATOM     85  C   UNL A   1      51.055  26.549  25.724  1.00  0.00     0.198 A 
ATOM     86  F   UNL A   1      48.888  27.149  25.031  1.00  0.00    -0.203 F 
ATOM     87  F   UNL A   1      52.344  25.763  29.017  1.00  0.00    -0.200 F 
ATOM     88  C   UNL A   1      51.941  26.202  26.732  1.00  0.00     0.200 A 
ATOM     89  F   UNL A   1      51.488  26.670  24.463  1.00  0.00    -0.200 F 
ATOM     90  F   UNL A   1      53.240  26.020  26.451  1.00  0.00    -0.200 F 
ENDBRANCH  56  80
BRANCH  68  91
ATOM     91  C   UNL A   1      45.952  32.520  29.143  1.00  0.00     0.064 A 
ATOM     92  C   UNL A   1      45.981  33.470  28.110  1.00  0.00     0.173 A 
ATOM     93  C   UNL A   1      46.349  32.931  30.425  1.00  0.00     0.173 A 
ATOM     94  F   UNL A   1      45.627  33.123  26.864  1.00  0.00    -0.203 F 
ATOM     95  C   UNL A   1      46.412  34.772  28.349  1.00  0.00     0.198 A 
ATOM     96  C   UNL A   1      46.747  34.243  30.666  1.00  0.00     0.198 A 
ATOM     97  F   UNL A   1      46.334  32.063  31.448  1.00  0.00    -0.203 F 
ATOM     98  F   UNL A   1      46.479  35.648  27.337  1.00  0.00    -0.200 F 
ATOM     99  C   UNL A   1      46.786  35.160  29.626  1.00  0.00     0.200 A 
ATOM    100  F   UNL A   1      47.091  34.619  31.905  1.00  0.00    -0.200 F 
ATOM    101  F   UNL A   1      47.189  36.417  29.855  1.00  0.00    -0.200 F 
ENDBRANCH  68  91
ENDBRANCH  42  43
ENDBRANCH  34  37
ENDBRANCH  32  33
ENDBRANCH  31  32
ENDBRANCH   1  31
TORSDOF 16
ENDMDL
MODEL 2
REMARK VINA RESULT:     -12.1      1.972      2.875
REMARK SMILES CCc1ccc(C[NH+]2CCC(Oc3ccccc3OC)(C(=O)NCCCNC(=O)c3ccc(-c4c5nc(c(-c6c(F)c(F)c(F)c(F)c6F)c6ccc([nH]6)c(-c6c(F)c(F)c(F)c(F)c6F)c6nc(c(-c7c(F)c(F)c(F)c(F)c7F)c7ccc4[nH]7)C=C6)C=C5)cc3)CC2)nc1
REMARK SMILES IDX 24 1 23 2 21 3 22 4 11 6 8 7 9 8 94 9 10 11 93 12 7 13 6 14
REMARK SMILES IDX 3 15 4 16 96 17 5 18 95 19 2 20 1 21 12 22 13 23 14 24 18 25
REMARK SMILES IDX 15 26 17 27 16 28 19 29 20 30 25 31 26 32 27 33 28 34 29 36
REMARK SMILES IDX 30 37 31 38 92 39 32 40 91 41 33 42 34 43 35 44 85 45 36 46
REMARK SMILES IDX 90 47 84 48 86 49 37 50 89 51 83 52 82 53 38 55 70 56 50 57
REMARK SMILES IDX 69 58 51 59 54 60 68 61 87 62 52 63 53 64 67 66 88 67 55 68
REMARK SMILES IDX 39 69 40 70 48 71 41 72 42 73 46 74 49 75 43 76 44 77 47 78
REMARK SMILES IDX 45 79 71 80 72 81 80 82 73 83 74 84 78 85 81 86 75 87 76 88
REMARK SMILES IDX 79 89 77 90 56 91 57 92 65 93 58 94 59 95 63 96 66 97 60 98
REMARK SMILES IDX 61 99 64 100 62 101
REMARK H PARENT 23 5 8 10 27 35 86 54 54 65
REMARK Flexibility Score: inf
ROOT
ATOM      1  C   UNL A   1      35.680  20.462  25.086  1.00  0.00     0.118 C 
ENDROOT
BRANCH   1   2
ATOM      2  N   UNL A   1      35.216  21.180  26.266  1.00  0.00    -0.353 N 
ATOM      3  C   UNL A   1      33.978  21.656  26.613  1.00  0.00     0.264 C 
ATOM      4  O   UNL A   1      33.863  22.017  27.789  1.00  0.00    -0.270 OA
ATOM      5  H   UNL A   1      35.918  21.355  26.935  1.00  0.00     0.163 HD
BRANCH   3   6
ATOM      6  C   UNL A   1      32.809  21.783  25.586  1.00  0.00     0.197 C 
ATOM      7  N   UNL A   1      32.805  24.512  24.460  1.00  0.00    -0.330 N 
ATOM      8  C   UNL A   1      33.904  23.595  24.167  1.00  0.00     0.267 C 
ATOM      9  C   UNL A   1      32.350  24.317  25.846  1.00  0.00     0.267 C 
ATOM     10  H   UNL A   1      32.022  24.297  23.844  1.00  0.00     0.348 HD
ATOM     11  C   UNL A   1      33.379  22.177  24.222  1.00  0.00     0.120 C 
ATOM     12  C   UNL A   1      31.816  22.881  26.045  1.00  0.00     0.120 C 
BRANCH   7  13
ATOM     13  C   UNL A   1      33.166  25.922  24.163  1.00  0.00     0.319 C 
BRANCH  13  14
ATOM     14  C   UNL A   1      32.000  26.892  24.057  1.00  0.00     0.095 A 
ATOM     15  C   UNL A   1      30.230  28.942  23.549  1.00  0.00    -0.030 A 
ATOM     16  C   UNL A   1      30.173  27.781  22.779  1.00  0.00     0.007 A 
ATOM     17  C   UNL A   1      31.156  28.974  24.587  1.00  0.00     0.115 A 
ATOM     18  C   UNL A   1      31.060  26.740  23.036  1.00  0.00     0.030 A 
ATOM     19  N   UNL A   1      32.026  27.980  24.860  1.00  0.00    -0.255 NA
BRANCH  15  20
ATOM     20  C   UNL A   1      29.378  30.140  23.244  1.00  0.00     0.034 C 
ATOM     21  C   UNL A   1      27.975  29.772  22.790  1.00  0.00     0.009 C 
ENDBRANCH  15  20
ENDBRANCH  13  14
ENDBRANCH   7  13
BRANCH   6  22
ATOM     22  O   UNL A   1      32.297  20.427  25.519  1.00  0.00    -0.473 OA
BRANCH  22  23
ATOM     23  C   UNL A   1      32.511  19.622  24.444  1.00  0.00     0.162 A 
ATOM     24  C   UNL A   1      32.126  20.100  23.187  1.00  0.00     0.050 A 
ATOM     25  C   UNL A   1      32.807  18.258  24.587  1.00  0.00     0.160 A 
ATOM     26  C   UNL A   1      32.135  19.263  22.070  1.00  0.00     0.004 A 
ATOM     27  C   UNL A   1      32.861  17.433  23.457  1.00  0.00     0.050 A 
ATOM     28  C   UNL A   1      32.536  17.937  22.198  1.00  0.00     0.004 A 
BRANCH  25  29
ATOM     29  O   UNL A   1      32.771  17.582  25.782  1.00  0.00    -0.493 OA
ATOM     30  C   UNL A   1      33.185  16.229  25.715  1.00  0.00     0.278 C 
ENDBRANCH  25  29
ENDBRANCH  22  23
ENDBRANCH   6  22
ENDBRANCH   3   6
ENDBRANCH   1   2
BRANCH   1  31
ATOM     31  C   UNL A   1      36.883  21.114  24.416  1.00  0.00     0.042 C 
BRANCH  31  32
ATOM     32  C   UNL A   1      37.877  21.732  25.387  1.00  0.00     0.118 C 
BRANCH  32  33
ATOM     33  N   UNL A   1      38.813  20.755  25.926  1.00  0.00    -0.352 N 
ATOM     34  C   UNL A   1      40.007  20.931  26.578  1.00  0.00     0.251 C 
ATOM     35  H   UNL A   1      38.544  19.815  25.806  1.00  0.00     0.163 HD
ATOM     36  O   UNL A   1      40.744  19.962  26.770  1.00  0.00    -0.269 OA
BRANCH  34  37
ATOM     37  C   UNL A   1      40.437  22.271  27.030  1.00  0.00     0.039 A 
ATOM     38  C   UNL A   1      41.390  22.364  28.050  1.00  0.00     0.014 A 
ATOM     39  C   UNL A   1      39.896  23.433  26.477  1.00  0.00     0.014 A 
ATOM     40  C   UNL A   1      41.865  23.618  28.447  1.00  0.00     0.010 A 
ATOM     41  C   UNL A   1      40.422  24.677  26.819  1.00  0.00     0.010 A 
ATOM     42  C   UNL A   1      41.425  24.780  27.796  1.00  0.00    -0.014 A 
BRANCH  42  43
ATOM     43  C   UNL A   1      42.040  26.105  28.073  1.00  0.00     0.031 A 
ATOM     44  C   UNL A   1      41.254  27.183  28.765  1.00  0.00     0.074 A 
ATOM     45  C   UNL A   1      43.281  26.362  27.610  1.00  0.00     0.049 A 
ATOM     46  N   UNL A   1      41.578  28.434  28.978  1.00  0.00    -0.248 NA
ATOM     47  C   UNL A   1      39.920  26.816  29.267  1.00  0.00     0.031 C 
ATOM     48  C   UNL A   1      44.130  25.409  26.891  1.00  0.00     0.029 A 
ATOM     49  N   UNL A   1      44.037  27.509  27.653  1.00  0.00    -0.354 N 
ATOM     50  C   UNL A   1      40.487  29.006  29.618  1.00  0.00     0.074 A 
ATOM     51  C   UNL A   1      39.477  27.976  29.734  1.00  0.00     0.031 C 
ATOM     52  C   UNL A   1      45.285  26.007  26.565  1.00  0.00     0.029 A 
ATOM     53  C   UNL A   1      45.242  27.398  27.000  1.00  0.00     0.049 A 
ATOM     54  H   UNL A   1      43.743  28.332  28.106  1.00  0.00     0.167 HD
ATOM     55  C   UNL A   1      40.349  30.273  30.076  1.00  0.00     0.037 A 
ATOM     56  C   UNL A   1      46.190  28.321  26.752  1.00  0.00     0.037 A 
ATOM     57  C   UNL A   1      41.371  31.284  29.985  1.00  0.00     0.049 A 
ATOM     58  C   UNL A   1      45.991  29.729  27.248  1.00  0.00     0.074 A 
ATOM     59  C   UNL A   1      41.356  32.569  30.501  1.00  0.00     0.029 A 
ATOM     60  N   UNL A   1      42.581  31.131  29.327  1.00  0.00    -0.354 N 
ATOM     61  N   UNL A   1      44.992  30.232  27.933  1.00  0.00    -0.248 NA
ATOM     62  C   UNL A   1      47.049  30.700  26.936  1.00  0.00     0.031 C 
ATOM     63  C   UNL A   1      42.527  33.215  30.098  1.00  0.00     0.029 A 
ATOM     64  C   UNL A   1      43.300  32.315  29.384  1.00  0.00     0.049 A 
ATOM     65  H   UNL A   1      42.885  30.306  28.886  1.00  0.00     0.167 HD
ATOM     66  C   UNL A   1      45.312  31.565  28.153  1.00  0.00     0.074 A 
ATOM     67  C   UNL A   1      46.610  31.788  27.551  1.00  0.00     0.031 C 
ATOM     68  C   UNL A   1      44.594  32.522  28.788  1.00  0.00     0.037 A 
BRANCH  55  69
ATOM     69  C   UNL A   1      39.050  30.662  30.718  1.00  0.00     0.064 A 
ATOM     70  C   UNL A   1      38.856  30.571  32.103  1.00  0.00     0.173 A 
ATOM     71  C   UNL A   1      38.026  31.234  29.946  1.00  0.00     0.173 A 
ATOM     72  F   UNL A   1      39.801  30.026  32.884  1.00  0.00    -0.203 F 
ATOM     73  C   UNL A   1      37.681  31.034  32.693  1.00  0.00     0.198 A 
ATOM     74  C   UNL A   1      36.865  31.720  30.542  1.00  0.00     0.198 A 
ATOM     75  F   UNL A   1      38.166  31.349  28.617  1.00  0.00    -0.203 F 
ATOM     76  F   UNL A   1      37.507  30.919  34.017  1.00  0.00    -0.200 F 
ATOM     77  C   UNL A   1      36.693  31.618  31.914  1.00  0.00     0.200 A 
ATOM     78  F   UNL A   1      35.921  32.299  29.789  1.00  0.00    -0.200 F 
ATOM     79  F   UNL A   1      35.576  32.087  32.486  1.00  0.00    -0.200 F 
ENDBRANCH  55  69
BRANCH  56  80
ATOM     80  C   UNL A   1      47.406  27.964  25.971  1.00  0.00     0.064 A 
ATOM     81  C   UNL A   1      47.363  27.853  24.574  1.00  0.00     0.173 A 
ATOM     82  C   UNL A   1      48.622  27.673  26.609  1.00  0.00     0.173 A 
ATOM     83  F   UNL A   1      46.218  28.098  23.919  1.00  0.00    -0.203 F 
ATOM     84  C   UNL A   1      48.475  27.425  23.850  1.00  0.00     0.198 A 
ATOM     85  C   UNL A   1      49.743  27.282  25.880  1.00  0.00     0.198 A 
ATOM     86  F   UNL A   1      48.723  27.767  27.942  1.00  0.00    -0.203 F 
ATOM     87  F   UNL A   1      48.382  27.257  22.523  1.00  0.00    -0.200 F 
ATOM     88  C   UNL A   1      49.664  27.144  24.502  1.00  0.00     0.200 A 
ATOM     89  F   UNL A   1      50.896  27.028  26.513  1.00  0.00    -0.200 F 
ATOM     90  F   UNL A   1      50.731  26.724  23.807  1.00  0.00    -0.200 F 
ENDBRANCH  56  80
BRANCH  68  91
ATOM     91  C   UNL A   1      45.203  33.890  28.889  1.00  0.00     0.064 A 
ATOM     92  C   UNL A   1      44.937  34.884  27.935  1.00  0.00     0.173 A 
ATOM     93  C   UNL A   1      46.024  34.226  29.976  1.00  0.00     0.173 A 
ATOM     94  F   UNL A   1      44.171  34.608  26.868  1.00  0.00    -0.203 F 
ATOM     95  C   UNL A   1      45.490  36.156  28.054  1.00  0.00     0.198 A 
ATOM     96  C   UNL A   1      46.548  35.510  30.109  1.00  0.00     0.198 A 
ATOM     97  F   UNL A   1      46.304  33.315  30.920  1.00  0.00    -0.203 F 
ATOM     98  F   UNL A   1      45.263  37.074  27.104  1.00  0.00    -0.200 F 
ATOM     99  C   UNL A   1      46.287  36.470  29.144  1.00  0.00     0.200 A 
ATOM    100  F   UNL A   1      47.303  35.815  31.173  1.00  0.00    -0.200 F 
ATOM    101  F   UNL A   1      46.808  37.699  29.263  1.00  0.00    -0.200 F 
ENDBRANCH  68  91
ENDBRANCH  42  43
ENDBRANCH  34  37
ENDBRANCH  32  33
ENDBRANCH  31  32
ENDBRANCH   1  31
TORSDOF 16
ENDMDL
MODEL 3
REMARK VINA RESULT:     -12.0      1.947      7.264
REMARK SMILES CCc1ccc(C[NH+]2CCC(Oc3ccccc3OC)(C(=O)NCCCNC(=O)c3ccc(-c4c5nc(c(-c6c(F)c(F)c(F)c(F)c6F)c6ccc([nH]6)c(-c6c(F)c(F)c(F)c(F)c6F)c6nc(c(-c7c(F)c(F)c(F)c(F)c7F)c7ccc4[nH]7)C=C6)C=C5)cc3)CC2)nc1
REMARK SMILES IDX 24 1 23 2 21 3 22 4 11 6 8 7 9 8 94 9 10 11 93 12 7 13 6 14
REMARK SMILES IDX 3 15 4 16 96 17 5 18 95 19 2 20 1 21 12 22 13 23 14 24 18 25
REMARK SMILES IDX 15 26 17 27 16 28 19 29 20 30 25 31 26 32 27 33 28 34 29 36
REMARK SMILES IDX 30 37 31 38 92 39 32 40 91 41 33 42 34 43 35 44 85 45 36 46
REMARK SMILES IDX 90 47 84 48 86 49 37 50 89 51 83 52 82 53 38 55 70 56 50 57
REMARK SMILES IDX 69 58 51 59 54 60 68 61 87 62 52 63 53 64 67 66 88 67 55 68
REMARK SMILES IDX 39 69 40 70 48 71 41 72 42 73 46 74 49 75 43 76 44 77 47 78
REMARK SMILES IDX 45 79 71 80 72 81 80 82 73 83 74 84 78 85 81 86 75 87 76 88
REMARK SMILES IDX 79 89 77 90 56 91 57 92 65 93 58 94 59 95 63 96 66 97 60 98
REMARK SMILES IDX 61 99 64 100 62 101
REMARK H PARENT 23 5 8 10 27 35 86 54 54 65
REMARK Flexibility Score: inf
ROOT
ATOM      1  C   UNL A   1      37.084  21.869  25.339  1.00  0.00     0.118 C 
ENDROOT
BRANCH   1   2
ATOM      2  N   UNL A   1      36.190  22.086  26.469  1.00  0.00    -0.353 N 
ATOM      3  C   UNL A   1      34.835  22.287  26.532  1.00  0.00     0.264 C 
ATOM      4  O   UNL A   1      34.342  22.206  27.662  1.00  0.00    -0.270 OA
ATOM      5  H   UNL A   1      36.639  22.088  27.345  1.00  0.00     0.163 HD
BRANCH   3   6
ATOM      6  C   UNL A   1      33.980  22.643  25.275  1.00  0.00     0.197 C 
ATOM      7  N   UNL A   1      32.643  25.237  25.722  1.00  0.00    -0.330 N 
ATOM      8  C   UNL A   1      34.096  25.169  25.588  1.00  0.00     0.267 C 
ATOM      9  C   UNL A   1      32.154  24.054  26.448  1.00  0.00     0.267 C 
ATOM     10  H   UNL A   1      32.224  25.224  24.792  1.00  0.00     0.348 HD
ATOM     11  C   UNL A   1      34.447  23.986  24.713  1.00  0.00     0.120 C 
ATOM     12  C   UNL A   1      32.484  22.763  25.667  1.00  0.00     0.120 C 
BRANCH   7  13
ATOM     13  C   UNL A   1      32.202  26.516  26.335  1.00  0.00     0.319 C 
BRANCH  13  14
ATOM     14  C   UNL A   1      31.667  27.560  25.368  1.00  0.00     0.095 A 
ATOM     15  C   UNL A   1      30.239  29.418  23.917  1.00  0.00    -0.030 A 
ATOM     16  C   UNL A   1      31.114  29.851  24.913  1.00  0.00     0.007 A 
ATOM     17  C   UNL A   1      30.182  28.050  23.670  1.00  0.00     0.115 A 
ATOM     18  C   UNL A   1      31.842  28.917  25.643  1.00  0.00     0.030 A 
ATOM     19  N   UNL A   1      30.878  27.123  24.360  1.00  0.00    -0.255 NA
BRANCH  15  20
ATOM     20  C   UNL A   1      29.344  30.370  23.177  1.00  0.00     0.034 C 
ATOM     21  C   UNL A   1      28.113  29.697  22.593  1.00  0.00     0.009 C 
ENDBRANCH  15  20
ENDBRANCH  13  14
ENDBRANCH   7  13
BRANCH   6  22
ATOM     22  O   UNL A   1      34.327  21.586  24.344  1.00  0.00    -0.473 OA
BRANCH  22  23
ATOM     23  C   UNL A   1      33.680  20.391  24.328  1.00  0.00     0.162 A 
ATOM     24  C   UNL A   1      34.356  19.278  24.841  1.00  0.00     0.050 A 
ATOM     25  C   UNL A   1      32.524  20.184  23.560  1.00  0.00     0.160 A 
ATOM     26  C   UNL A   1      33.837  17.991  24.685  1.00  0.00     0.004 A 
ATOM     27  C   UNL A   1      31.982  18.898  23.446  1.00  0.00     0.050 A 
ATOM     28  C   UNL A   1      32.632  17.804  24.017  1.00  0.00     0.004 A 
BRANCH  25  29
ATOM     29  O   UNL A   1      32.023  21.093  22.661  1.00  0.00    -0.493 OA
ATOM     30  C   UNL A   1      31.791  20.582  21.361  1.00  0.00     0.278 C 
ENDBRANCH  25  29
ENDBRANCH  22  23
ENDBRANCH   6  22
ENDBRANCH   3   6
ENDBRANCH   1   2
BRANCH   1  31
ATOM     31  C   UNL A   1      37.708  20.480  25.319  1.00  0.00     0.042 C 
BRANCH  31  32
ATOM     32  C   UNL A   1      39.220  20.480  25.152  1.00  0.00     0.118 C 
BRANCH  32  33
ATOM     33  N   UNL A   1      39.901  19.756  26.216  1.00  0.00    -0.352 N 
ATOM     34  C   UNL A   1      40.779  20.197  27.173  1.00  0.00     0.251 C 
ATOM     35  H   UNL A   1      39.696  18.793  26.258  1.00  0.00     0.163 HD
ATOM     36  O   UNL A   1      41.400  19.379  27.854  1.00  0.00    -0.269 OA
BRANCH  34  37
ATOM     37  C   UNL A   1      41.013  21.642  27.383  1.00  0.00     0.039 A 
ATOM     38  C   UNL A   1      41.837  22.045  28.439  1.00  0.00     0.014 A 
ATOM     39  C   UNL A   1      40.412  22.601  26.566  1.00  0.00     0.014 A 
ATOM     40  C   UNL A   1      42.132  23.400  28.615  1.00  0.00     0.010 A 
ATOM     41  C   UNL A   1      40.763  23.944  26.694  1.00  0.00     0.010 A 
ATOM     42  C   UNL A   1      41.641  24.354  27.710  1.00  0.00    -0.014 A 
BRANCH  42  43
ATOM     43  C   UNL A   1      42.078  25.774  27.767  1.00  0.00     0.031 A 
ATOM     44  C   UNL A   1      43.413  26.185  27.215  1.00  0.00     0.074 A 
ATOM     45  C   UNL A   1      41.303  26.674  28.408  1.00  0.00     0.049 A 
ATOM     46  N   UNL A   1      44.015  27.347  27.287  1.00  0.00    -0.248 NA
ATOM     47  C   UNL A   1      44.186  25.155  26.504  1.00  0.00     0.031 C 
ATOM     48  C   UNL A   1      40.002  26.387  29.018  1.00  0.00     0.029 A 
ATOM     49  N   UNL A   1      41.506  28.006  28.675  1.00  0.00    -0.354 N 
ATOM     50  C   UNL A   1      45.238  27.182  26.653  1.00  0.00     0.074 A 
ATOM     51  C   UNL A   1      45.310  25.801  26.225  1.00  0.00     0.031 C 
ATOM     52  C   UNL A   1      39.525  27.506  29.583  1.00  0.00     0.029 A 
ATOM     53  C   UNL A   1      40.503  28.576  29.424  1.00  0.00     0.049 A 
ATOM     54  H   UNL A   1      42.294  28.506  28.360  1.00  0.00     0.167 HD
ATOM     55  C   UNL A   1      46.206  28.104  26.438  1.00  0.00     0.037 A 
ATOM     56  C   UNL A   1      40.400  29.810  29.953  1.00  0.00     0.037 A 
ATOM     57  C   UNL A   1      46.114  29.485  26.838  1.00  0.00     0.049 A 
ATOM     58  C   UNL A   1      41.510  30.802  29.721  1.00  0.00     0.074 A 
ATOM     59  C   UNL A   1      47.005  30.514  26.584  1.00  0.00     0.029 A 
ATOM     60  N   UNL A   1      45.080  30.026  27.585  1.00  0.00    -0.354 N 
ATOM     61  N   UNL A   1      42.620  30.658  29.040  1.00  0.00    -0.248 NA
ATOM     62  C   UNL A   1      41.353  32.129  30.334  1.00  0.00     0.031 C 
ATOM     63  C   UNL A   1      46.544  31.662  27.234  1.00  0.00     0.029 A 
ATOM     64  C   UNL A   1      45.336  31.364  27.841  1.00  0.00     0.049 A 
ATOM     65  H   UNL A   1      44.284  29.534  27.888  1.00  0.00     0.167 HD
ATOM     66  C   UNL A   1      43.279  31.877  29.121  1.00  0.00     0.074 A 
ATOM     67  C   UNL A   1      42.433  32.759  29.897  1.00  0.00     0.031 C 
ATOM     68  C   UNL A   1      44.482  32.234  28.608  1.00  0.00     0.037 A 
BRANCH  55  69
ATOM     69  C   UNL A   1      47.463  27.671  25.741  1.00  0.00     0.064 A 
ATOM     70  C   UNL A   1      47.574  27.682  24.344  1.00  0.00     0.173 A 
ATOM     71  C   UNL A   1      48.606  27.345  26.490  1.00  0.00     0.173 A 
ATOM     72  F   UNL A   1      46.509  27.980  23.585  1.00  0.00    -0.203 F 
ATOM     73  C   UNL A   1      48.781  27.376  23.720  1.00  0.00     0.198 A 
ATOM     74  C   UNL A   1      49.817  27.066  25.863  1.00  0.00     0.198 A 
ATOM     75  F   UNL A   1      48.554  27.326  27.830  1.00  0.00    -0.203 F 
ATOM     76  F   UNL A   1      48.859  27.372  22.382  1.00  0.00    -0.200 F 
ATOM     77  C   UNL A   1      49.903  27.081  24.479  1.00  0.00     0.200 A 
ATOM     78  F   UNL A   1      50.904  26.798  26.599  1.00  0.00    -0.200 F 
ATOM     79  F   UNL A   1      51.071  26.813  23.877  1.00  0.00    -0.200 F 
ENDBRANCH  55  69
BRANCH  56  80
ATOM     80  C   UNL A   1      39.220  30.181  30.780  1.00  0.00     0.064 A 
ATOM     81  C   UNL A   1      38.110  30.823  30.213  1.00  0.00     0.173 A 
ATOM     82  C   UNL A   1      39.200  29.952  32.165  1.00  0.00     0.173 A 
ATOM     83  F   UNL A   1      38.090  31.087  28.897  1.00  0.00    -0.203 F 
ATOM     84  C   UNL A   1      37.046  31.258  31.002  1.00  0.00     0.198 A 
ATOM     85  C   UNL A   1      38.118  30.353  32.947  1.00  0.00     0.198 A 
ATOM     86  F   UNL A   1      40.232  29.337  32.761  1.00  0.00    -0.203 F 
ATOM     87  F   UNL A   1      36.034  31.935  30.442  1.00  0.00    -0.200 F 
ATOM     88  C   UNL A   1      37.050  31.020  32.367  1.00  0.00     0.200 A 
ATOM     89  F   UNL A   1      38.119  30.105  34.263  1.00  0.00    -0.200 F 
ATOM     90  F   UNL A   1      36.031  31.445  33.127  1.00  0.00    -0.200 F 
ENDBRANCH  56  80
BRANCH  68  91
ATOM     91  C   UNL A   1      44.944  33.642  28.845  1.00  0.00     0.064 A 
ATOM     92  C   UNL A   1      44.580  34.688  27.983  1.00  0.00     0.173 A 
ATOM     93  C   UNL A   1      45.720  33.958  29.970  1.00  0.00     0.173 A 
ATOM     94  F   UNL A   1      43.853  34.435  26.884  1.00  0.00    -0.203 F 
ATOM     95  C   UNL A   1      44.998  35.993  28.227  1.00  0.00     0.198 A 
ATOM     96  C   UNL A   1      46.107  35.271  30.229  1.00  0.00     0.198 A 
ATOM     97  F   UNL A   1      46.089  32.996  30.829  1.00  0.00    -0.203 F 
ATOM     98  F   UNL A   1      44.681  36.968  27.363  1.00  0.00    -0.200 F 
ATOM     99  C   UNL A   1      45.752  36.285  29.353  1.00  0.00     0.200 A 
ATOM    100  F   UNL A   1      46.821  35.552  31.327  1.00  0.00    -0.200 F 
ATOM    101  F   UNL A   1      46.142  37.544  29.592  1.00  0.00    -0.200 F 
ENDBRANCH  68  91
ENDBRANCH  42  43
ENDBRANCH  34  37
ENDBRANCH  32  33
ENDBRANCH  31  32
ENDBRANCH   1  31
TORSDOF 16
ENDMDL
