MODEL 1
REMARK VINA RESULT:     -13.4      0.000      0.000
REMARK SMILES O=C(/C=C/c1ccc(NC(=O)[C@H]2COc3ccccc3C2)cc1)NCCCNC(=O)c1ccc(-c2c3nc(c(-c4c(F)c(F)c(F)c(F)c4F)c4ccc([nH]4)c(-c4c(F)c(F)c(F)c(F)c4F)c4nc(c(-c5c(F)c(F)c(F)c(F)c5F)c5ccc2[nH]5)C=C4)C=C3)cc1
REMARK SMILES IDX 25 1 24 2 1 3 2 4 3 6 4 7 5 8 6 9 23 10 7 11 22 12 8 13 9 14
REMARK SMILES IDX 10 15 11 17 12 18 13 19 21 20 14 21 20 22 15 23 19 24 16 25
REMARK SMILES IDX 18 26 17 27 26 28 27 29 28 30 29 31 30 33 31 34 32 35 93 36
REMARK SMILES IDX 33 37 92 38 34 39 35 40 36 41 86 42 37 43 91 44 85 45 87 46
REMARK SMILES IDX 38 47 90 48 84 49 83 50 39 52 71 53 51 54 70 55 52 56 55 57
REMARK SMILES IDX 69 58 88 59 53 60 54 61 68 63 89 64 56 65 40 66 41 67 49 68
REMARK SMILES IDX 42 69 43 70 47 71 50 72 44 73 45 74 48 75 46 76 72 77 73 78
REMARK SMILES IDX 81 79 74 80 75 81 79 82 82 83 76 84 77 85 80 86 78 87 57 88
REMARK SMILES IDX 58 89 66 90 59 91 60 92 64 93 67 94 61 95 62 96 65 97 63 98
REMARK H PARENT 24 5 9 16 28 32 87 51 55 62
REMARK Flexibility Score: inf
ROOT
ATOM      1  C   UNL A   1      34.462  36.058  28.001  1.00  0.00     0.118 C 
ENDROOT
BRANCH   1   2
ATOM      2  N   UNL A   1      34.328  34.620  27.893  1.00  0.00    -0.352 N 
ATOM      3  O   UNL A   1      36.273  34.069  28.988  1.00  0.00    -0.270 OA
ATOM      4  C   UNL A   1      35.263  33.740  28.380  1.00  0.00     0.244 C 
ATOM      5  H   UNL A   1      33.528  34.256  27.450  1.00  0.00     0.163 HD
BRANCH   4   6
ATOM      6  C   UNL A   1      34.970  32.296  28.160  1.00  0.00     0.072 C 
ATOM      7  C   UNL A   1      33.809  31.863  27.649  1.00  0.00     0.014 C 
BRANCH   7   8
ATOM      8  C   UNL A   1      33.452  30.484  27.311  1.00  0.00    -0.025 A 
ATOM      9  C   UNL A   1      32.083  30.197  27.283  1.00  0.00     0.010 A 
ATOM     10  C   UNL A   1      34.370  29.448  27.092  1.00  0.00     0.010 A 
ATOM     11  C   UNL A   1      31.632  28.916  27.001  1.00  0.00     0.027 A 
ATOM     12  C   UNL A   1      33.918  28.146  26.839  1.00  0.00     0.027 A 
ATOM     13  C   UNL A   1      32.547  27.896  26.757  1.00  0.00     0.041 A 
BRANCH  13  14
ATOM     14  N   UNL A   1      32.083  26.615  26.446  1.00  0.00    -0.326 N 
ATOM     15  C   UNL A   1      30.863  26.347  25.880  1.00  0.00     0.231 C 
ATOM     16  H   UNL A   1      32.672  25.852  26.647  1.00  0.00     0.169 HD
ATOM     17  O   UNL A   1      30.162  25.431  26.310  1.00  0.00    -0.274 OA
BRANCH  15  18
ATOM     18  C   UNL A   1      30.548  27.009  24.543  1.00  0.00     0.121 C 
ATOM     19  C   UNL A   1      31.637  27.092  23.476  1.00  0.00     0.243 C 
ATOM     20  C   UNL A   1      29.260  26.648  23.808  1.00  0.00     0.056 C 
ATOM     21  O   UNL A   1      31.288  27.964  22.358  1.00  0.00    -0.492 OA
ATOM     22  C   UNL A   1      28.971  27.923  23.082  1.00  0.00    -0.005 A 
ATOM     23  C   UNL A   1      30.035  28.534  22.405  1.00  0.00     0.122 A 
ATOM     24  C   UNL A   1      27.779  28.613  23.313  1.00  0.00     0.007 A 
ATOM     25  C   UNL A   1      29.881  29.818  21.900  1.00  0.00     0.047 A 
ATOM     26  C   UNL A   1      27.662  29.928  22.884  1.00  0.00     0.001 A 
ATOM     27  C   UNL A   1      28.703  30.525  22.168  1.00  0.00     0.004 A 
ENDBRANCH  15  18
ENDBRANCH  13  14
ENDBRANCH   7   8
ENDBRANCH   4   6
ENDBRANCH   1   2
BRANCH   1  28
ATOM     28  C   UNL A   1      33.364  36.695  28.848  1.00  0.00     0.042 C 
BRANCH  28  29
ATOM     29  C   UNL A   1      32.660  35.748  29.819  1.00  0.00     0.118 C 
BRANCH  29  30
ATOM     30  N   UNL A   1      32.288  36.373  31.081  1.00  0.00    -0.352 N 
ATOM     31  C   UNL A   1      32.783  36.180  32.352  1.00  0.00     0.251 C 
ATOM     32  H   UNL A   1      31.567  37.041  31.016  1.00  0.00     0.163 HD
ATOM     33  O   UNL A   1      32.248  36.731  33.304  1.00  0.00    -0.269 OA
BRANCH  31  34
ATOM     34  C   UNL A   1      33.941  35.285  32.580  1.00  0.00     0.039 A 
ATOM     35  C   UNL A   1      35.223  35.749  32.268  1.00  0.00     0.014 A 
ATOM     36  C   UNL A   1      33.773  33.993  33.082  1.00  0.00     0.014 A 
ATOM     37  C   UNL A   1      36.339  34.952  32.539  1.00  0.00     0.010 A 
ATOM     38  C   UNL A   1      34.887  33.229  33.419  1.00  0.00     0.010 A 
ATOM     39  C   UNL A   1      36.184  33.702  33.158  1.00  0.00    -0.014 A 
BRANCH  39  40
ATOM     40  C   UNL A   1      37.352  32.867  33.547  1.00  0.00     0.031 A 
ATOM     41  C   UNL A   1      38.086  33.149  34.828  1.00  0.00     0.074 A 
ATOM     42  C   UNL A   1      37.809  31.917  32.706  1.00  0.00     0.049 A 
ATOM     43  N   UNL A   1      39.208  32.642  35.273  1.00  0.00    -0.248 NA
ATOM     44  C   UNL A   1      37.493  34.162  35.714  1.00  0.00     0.031 C 
ATOM     45  C   UNL A   1      37.207  31.561  31.422  1.00  0.00     0.029 A 
ATOM     46  N   UNL A   1      38.905  31.092  32.798  1.00  0.00    -0.354 N 
ATOM     47  C   UNL A   1      39.464  33.286  36.476  1.00  0.00     0.074 A 
ATOM     48  C   UNL A   1      38.408  34.257  36.667  1.00  0.00     0.031 C 
ATOM     49  C   UNL A   1      37.932  30.587  30.850  1.00  0.00     0.029 A 
ATOM     50  C   UNL A   1      39.078  30.283  31.701  1.00  0.00     0.049 A 
ATOM     51  H   UNL A   1      39.507  31.082  33.576  1.00  0.00     0.167 HD
ATOM     52  C   UNL A   1      40.478  33.075  37.350  1.00  0.00     0.037 A 
ATOM     53  C   UNL A   1      40.063  29.412  31.404  1.00  0.00     0.037 A 
ATOM     54  C   UNL A   1      41.515  32.095  37.166  1.00  0.00     0.049 A 
ATOM     55  C   UNL A   1      41.194  29.217  32.378  1.00  0.00     0.074 A 
ATOM     56  C   UNL A   1      42.558  31.772  38.018  1.00  0.00     0.029 A 
ATOM     57  N   UNL A   1      41.644  31.280  36.050  1.00  0.00    -0.354 N 
ATOM     58  N   UNL A   1      41.399  29.796  33.537  1.00  0.00    -0.248 NA
ATOM     59  C   UNL A   1      42.231  28.244  32.005  1.00  0.00     0.031 C 
ATOM     60  C   UNL A   1      43.349  30.803  37.394  1.00  0.00     0.029 A 
ATOM     61  C   UNL A   1      42.763  30.471  36.183  1.00  0.00     0.049 A 
ATOM     62  H   UNL A   1      41.033  31.276  35.279  1.00  0.00     0.167 HD
ATOM     63  C   UNL A   1      42.560  29.229  34.047  1.00  0.00     0.074 A 
ATOM     64  C   UNL A   1      43.013  28.257  33.076  1.00  0.00     0.031 C 
ATOM     65  C   UNL A   1      43.192  29.491  35.217  1.00  0.00     0.037 A 
BRANCH  52  66
ATOM     66  C   UNL A   1      40.520  33.929  38.586  1.00  0.00     0.064 A 
ATOM     67  C   UNL A   1      41.242  35.133  38.627  1.00  0.00     0.173 A 
ATOM     68  C   UNL A   1      39.799  33.560  39.732  1.00  0.00     0.173 A 
ATOM     69  F   UNL A   1      41.957  35.529  37.563  1.00  0.00    -0.203 F 
ATOM     70  C   UNL A   1      41.267  35.915  39.780  1.00  0.00     0.198 A 
ATOM     71  C   UNL A   1      39.798  34.362  40.870  1.00  0.00     0.198 A 
ATOM     72  F   UNL A   1      39.086  32.424  39.745  1.00  0.00    -0.203 F 
ATOM     73  F   UNL A   1      42.009  37.031  39.813  1.00  0.00    -0.200 F 
ATOM     74  C   UNL A   1      40.539  35.534  40.896  1.00  0.00     0.200 A 
ATOM     75  F   UNL A   1      39.081  34.001  41.942  1.00  0.00    -0.200 F 
ATOM     76  F   UNL A   1      40.559  36.291  42.001  1.00  0.00    -0.200 F 
ENDBRANCH  52  66
BRANCH  53  77
ATOM     77  C   UNL A   1      40.021  28.646  30.129  1.00  0.00     0.064 A 
ATOM     78  C   UNL A   1      39.406  27.387  30.066  1.00  0.00     0.173 A 
ATOM     79  C   UNL A   1      40.603  29.145  28.955  1.00  0.00     0.173 A 
ATOM     80  F   UNL A   1      38.855  26.857  31.169  1.00  0.00    -0.203 F 
ATOM     81  C   UNL A   1      39.398  26.647  28.887  1.00  0.00     0.198 A 
ATOM     82  C   UNL A   1      40.567  28.417  27.767  1.00  0.00     0.198 A 
ATOM     83  F   UNL A   1      41.200  30.346  28.958  1.00  0.00    -0.203 F 
ATOM     84  F   UNL A   1      38.852  25.423  28.870  1.00  0.00    -0.200 F 
ATOM     85  C   UNL A   1      39.973  27.164  27.736  1.00  0.00     0.200 A 
ATOM     86  F   UNL A   1      41.109  28.928  26.654  1.00  0.00    -0.200 F 
ATOM     87  F   UNL A   1      39.964  26.452  26.601  1.00  0.00    -0.200 F 
ENDBRANCH  53  77
BRANCH  65  88
ATOM     88  C   UNL A   1      44.407  28.672  35.551  1.00  0.00     0.064 A 
ATOM     89  C   UNL A   1      45.694  29.054  35.146  1.00  0.00     0.173 A 
ATOM     90  C   UNL A   1      44.283  27.513  36.332  1.00  0.00     0.173 A 
ATOM     91  F   UNL A   1      45.867  30.146  34.384  1.00  0.00    -0.203 F 
ATOM     92  C   UNL A   1      46.808  28.294  35.491  1.00  0.00     0.198 A 
ATOM     93  C   UNL A   1      45.402  26.774  36.704  1.00  0.00     0.198 A 
ATOM     94  F   UNL A   1      43.075  27.106  36.752  1.00  0.00    -0.203 F 
ATOM     95  F   UNL A   1      48.024  28.650  35.053  1.00  0.00    -0.200 F 
ATOM     96  C   UNL A   1      46.662  27.160  36.277  1.00  0.00     0.200 A 
ATOM     97  F   UNL A   1      45.260  25.689  37.478  1.00  0.00    -0.200 F 
ATOM     98  F   UNL A   1      47.738  26.436  36.620  1.00  0.00    -0.200 F 
ENDBRANCH  65  88
ENDBRANCH  39  40
ENDBRANCH  31  34
ENDBRANCH  29  30
ENDBRANCH  28  29
ENDBRANCH   1  28
TORSDOF 13
ENDMDL
MODEL 2
REMARK VINA RESULT:     -13.2      7.581     13.003
REMARK SMILES O=C(/C=C/c1ccc(NC(=O)[C@H]2COc3ccccc3C2)cc1)NCCCNC(=O)c1ccc(-c2c3nc(c(-c4c(F)c(F)c(F)c(F)c4F)c4ccc([nH]4)c(-c4c(F)c(F)c(F)c(F)c4F)c4nc(c(-c5c(F)c(F)c(F)c(F)c5F)c5ccc2[nH]5)C=C4)C=C3)cc1
REMARK SMILES IDX 25 1 24 2 1 3 2 4 3 6 4 7 5 8 6 9 23 10 7 11 22 12 8 13 9 14
REMARK SMILES IDX 10 15 11 17 12 18 13 19 21 20 14 21 20 22 15 23 19 24 16 25
REMARK SMILES IDX 18 26 17 27 26 28 27 29 28 30 29 31 30 33 31 34 32 35 93 36
REMARK SMILES IDX 33 37 92 38 34 39 35 40 36 41 86 42 37 43 91 44 85 45 87 46
REMARK SMILES IDX 38 47 90 48 84 49 83 50 39 52 71 53 51 54 70 55 52 56 55 57
REMARK SMILES IDX 69 58 88 59 53 60 54 61 68 63 89 64 56 65 40 66 41 67 49 68
REMARK SMILES IDX 42 69 43 70 47 71 50 72 44 73 45 74 48 75 46 76 72 77 73 78
REMARK SMILES IDX 81 79 74 80 75 81 79 82 82 83 76 84 77 85 80 86 78 87 57 88
REMARK SMILES IDX 58 89 66 90 59 91 60 92 64 93 67 94 61 95 62 96 65 97 63 98
REMARK H PARENT 24 5 9 16 28 32 87 51 55 62
REMARK Flexibility Score: inf
ROOT
ATOM      1  C   UNL A   1      42.108  19.293  27.807  1.00  0.00     0.118 C 
ENDROOT
BRANCH   1   2
ATOM      2  N   UNL A   1      41.115  20.178  27.235  1.00  0.00    -0.352 N 
ATOM      3  O   UNL A   1      41.966  22.142  28.075  1.00  0.00    -0.270 OA
ATOM      4  C   UNL A   1      41.116  21.537  27.435  1.00  0.00     0.244 C 
ATOM      5  H   UNL A   1      40.407  19.788  26.673  1.00  0.00     0.163 HD
BRANCH   4   6
ATOM      6  C   UNL A   1      40.004  22.288  26.787  1.00  0.00     0.072 C 
ATOM      7  C   UNL A   1      39.028  21.683  26.096  1.00  0.00     0.014 C 
BRANCH   7   8
ATOM      8  C   UNL A   1      37.849  22.311  25.497  1.00  0.00    -0.025 A 
ATOM      9  C   UNL A   1      37.420  21.768  24.281  1.00  0.00     0.010 A 
ATOM     10  C   UNL A   1      37.189  23.434  26.012  1.00  0.00     0.010 A 
ATOM     11  C   UNL A   1      36.329  22.302  23.611  1.00  0.00     0.027 A 
ATOM     12  C   UNL A   1      36.107  23.996  25.322  1.00  0.00     0.027 A 
ATOM     13  C   UNL A   1      35.659  23.401  24.141  1.00  0.00     0.041 A 
BRANCH  13  14
ATOM     14  N   UNL A   1      34.544  23.915  23.474  1.00  0.00    -0.326 N 
ATOM     15  C   UNL A   1      33.697  23.173  22.691  1.00  0.00     0.231 C 
ATOM     16  H   UNL A   1      34.353  24.876  23.572  1.00  0.00     0.169 HD
ATOM     17  O   UNL A   1      33.324  23.598  21.598  1.00  0.00    -0.274 OA
BRANCH  15  18
ATOM     18  C   UNL A   1      33.014  21.973  23.336  1.00  0.00     0.121 C 
ATOM     19  C   UNL A   1      32.404  22.121  24.728  1.00  0.00     0.243 C 
ATOM     20  C   UNL A   1      32.024  21.143  22.525  1.00  0.00     0.056 C 
ATOM     21  O   UNL A   1      32.013  20.848  25.329  1.00  0.00    -0.492 OA
ATOM     22  C   UNL A   1      32.194  19.793  23.149  1.00  0.00    -0.005 A 
ATOM     23  C   UNL A   1      32.204  19.729  24.549  1.00  0.00     0.122 A 
ATOM     24  C   UNL A   1      32.610  18.706  22.378  1.00  0.00     0.007 A 
ATOM     25  C   UNL A   1      32.572  18.548  25.179  1.00  0.00     0.047 A 
ATOM     26  C   UNL A   1      33.061  17.557  23.014  1.00  0.00     0.001 A 
ATOM     27  C   UNL A   1      33.030  17.472  24.408  1.00  0.00     0.004 A 
ENDBRANCH  15  18
ENDBRANCH  13  14
ENDBRANCH   7   8
ENDBRANCH   4   6
ENDBRANCH   1   2
BRANCH   1  28
ATOM     28  C   UNL A   1      42.749  18.372  26.773  1.00  0.00     0.042 C 
BRANCH  28  29
ATOM     29  C   UNL A   1      42.838  18.944  25.359  1.00  0.00     0.118 C 
BRANCH  29  30
ATOM     30  N   UNL A   1      44.106  18.672  24.695  1.00  0.00    -0.352 N 
ATOM     31  C   UNL A   1      45.141  19.522  24.367  1.00  0.00     0.251 C 
ATOM     32  H   UNL A   1      44.248  17.732  24.441  1.00  0.00     0.163 HD
ATOM     33  O   UNL A   1      46.080  19.107  23.703  1.00  0.00    -0.269 OA
BRANCH  31  34
ATOM     34  C   UNL A   1      45.110  20.942  24.787  1.00  0.00     0.039 A 
ATOM     35  C   UNL A   1      45.377  21.255  26.124  1.00  0.00     0.014 A 
ATOM     36  C   UNL A   1      44.807  21.960  23.882  1.00  0.00     0.014 A 
ATOM     37  C   UNL A   1      45.423  22.591  26.533  1.00  0.00     0.010 A 
ATOM     38  C   UNL A   1      44.925  23.292  24.271  1.00  0.00     0.010 A 
ATOM     39  C   UNL A   1      45.241  23.624  25.600  1.00  0.00    -0.014 A 
BRANCH  39  40
ATOM     40  C   UNL A   1      45.377  25.057  25.976  1.00  0.00     0.031 A 
ATOM     41  C   UNL A   1      46.720  25.729  25.908  1.00  0.00     0.074 A 
ATOM     42  C   UNL A   1      44.314  25.727  26.466  1.00  0.00     0.049 A 
ATOM     43  N   UNL A   1      47.077  26.915  26.331  1.00  0.00    -0.248 NA
ATOM     44  C   UNL A   1      47.814  24.949  25.311  1.00  0.00     0.031 C 
ATOM     45  C   UNL A   1      42.963  25.183  26.609  1.00  0.00     0.029 A 
ATOM     46  N   UNL A   1      44.211  27.005  26.958  1.00  0.00    -0.354 N 
ATOM     47  C   UNL A   1      48.438  27.015  26.071  1.00  0.00     0.074 A 
ATOM     48  C   UNL A   1      48.852  25.751  25.500  1.00  0.00     0.031 C 
ATOM     49  C   UNL A   1      42.166  26.123  27.142  1.00  0.00     0.029 A 
ATOM     50  C   UNL A   1      42.957  27.316  27.426  1.00  0.00     0.049 A 
ATOM     51  H   UNL A   1      44.964  27.639  26.973  1.00  0.00     0.167 HD
ATOM     52  C   UNL A   1      49.263  28.071  26.273  1.00  0.00     0.037 A 
ATOM     53  C   UNL A   1      42.503  28.428  28.036  1.00  0.00     0.037 A 
ATOM     54  C   UNL A   1      48.844  29.333  26.823  1.00  0.00     0.049 A 
ATOM     55  C   UNL A   1      43.447  29.576  28.277  1.00  0.00     0.074 A 
ATOM     56  C   UNL A   1      49.595  30.479  27.021  1.00  0.00     0.029 A 
ATOM     57  N   UNL A   1      47.560  29.615  27.266  1.00  0.00    -0.354 N 
ATOM     58  N   UNL A   1      44.719  29.678  27.980  1.00  0.00    -0.248 NA
ATOM     59  C   UNL A   1      42.889  30.767  28.933  1.00  0.00     0.031 C 
ATOM     60  C   UNL A   1      48.780  31.435  27.635  1.00  0.00     0.029 A 
ATOM     61  C   UNL A   1      47.504  30.911  27.758  1.00  0.00     0.049 A 
ATOM     62  H   UNL A   1      46.801  28.990  27.235  1.00  0.00     0.167 HD
ATOM     63  C   UNL A   1      45.104  30.953  28.376  1.00  0.00     0.074 A 
ATOM     64  C   UNL A   1      43.928  31.591  28.928  1.00  0.00     0.031 C 
ATOM     65  C   UNL A   1      46.321  31.542  28.286  1.00  0.00     0.037 A 
BRANCH  52  66
ATOM     66  C   UNL A   1      50.711  27.902  25.905  1.00  0.00     0.064 A 
ATOM     67  C   UNL A   1      51.684  27.585  26.866  1.00  0.00     0.173 A 
ATOM     68  C   UNL A   1      51.125  28.023  24.570  1.00  0.00     0.173 A 
ATOM     69  F   UNL A   1      51.346  27.467  28.159  1.00  0.00    -0.203 F 
ATOM     70  C   UNL A   1      53.022  27.429  26.507  1.00  0.00     0.198 A 
ATOM     71  C   UNL A   1      52.457  27.831  24.210  1.00  0.00     0.198 A 
ATOM     72  F   UNL A   1      50.236  28.318  23.610  1.00  0.00    -0.203 F 
ATOM     73  F   UNL A   1      53.941  27.181  27.451  1.00  0.00    -0.200 F 
ATOM     74  C   UNL A   1      53.405  27.544  25.180  1.00  0.00     0.200 A 
ATOM     75  F   UNL A   1      52.822  27.926  22.925  1.00  0.00    -0.200 F 
ATOM     76  F   UNL A   1      54.690  27.386  24.836  1.00  0.00    -0.200 F 
ENDBRANCH  52  66
BRANCH  53  77
ATOM     77  C   UNL A   1      41.077  28.518  28.456  1.00  0.00     0.064 A 
ATOM     78  C   UNL A   1      40.099  29.007  27.579  1.00  0.00     0.173 A 
ATOM     79  C   UNL A   1      40.667  28.135  29.741  1.00  0.00     0.173 A 
ATOM     80  F   UNL A   1      40.446  29.408  26.347  1.00  0.00    -0.203 F 
ATOM     81  C   UNL A   1      38.771  29.133  27.978  1.00  0.00     0.198 A 
ATOM     82  C   UNL A   1      39.332  28.231  30.129  1.00  0.00     0.198 A 
ATOM     83  F   UNL A   1      41.562  27.656  30.618  1.00  0.00    -0.203 F 
ATOM     84  F   UNL A   1      37.867  29.654  27.137  1.00  0.00    -0.200 F 
ATOM     85  C   UNL A   1      38.387  28.739  29.251  1.00  0.00     0.200 A 
ATOM     86  F   UNL A   1      38.962  27.834  31.354  1.00  0.00    -0.200 F 
ATOM     87  F   UNL A   1      37.108  28.858  29.635  1.00  0.00    -0.200 F 
ENDBRANCH  53  77
BRANCH  65  88
ATOM     88  C   UNL A   1      46.438  32.971  28.735  1.00  0.00     0.064 A 
ATOM     89  C   UNL A   1      46.748  33.311  30.060  1.00  0.00     0.173 A 
ATOM     90  C   UNL A   1      46.286  34.016  27.809  1.00  0.00     0.173 A 
ATOM     91  F   UNL A   1      46.889  32.352  30.988  1.00  0.00    -0.203 F 
ATOM     92  C   UNL A   1      46.879  34.643  30.445  1.00  0.00     0.198 A 
ATOM     93  C   UNL A   1      46.450  35.344  28.190  1.00  0.00     0.198 A 
ATOM     94  F   UNL A   1      45.995  33.745  26.527  1.00  0.00    -0.203 F 
ATOM     95  F   UNL A   1      47.129  34.947  31.726  1.00  0.00    -0.200 F 
ATOM     96  C   UNL A   1      46.739  35.657  29.509  1.00  0.00     0.200 A 
ATOM     97  F   UNL A   1      46.332  36.320  27.280  1.00  0.00    -0.200 F 
ATOM     98  F   UNL A   1      46.878  36.938  29.880  1.00  0.00    -0.200 F 
ENDBRANCH  65  88
ENDBRANCH  39  40
ENDBRANCH  31  34
ENDBRANCH  29  30
ENDBRANCH  28  29
ENDBRANCH   1  28
TORSDOF 13
ENDMDL
MODEL 3
REMARK VINA RESULT:     -13.0      1.760      2.897
REMARK SMILES O=C(/C=C/c1ccc(NC(=O)[C@H]2COc3ccccc3C2)cc1)NCCCNC(=O)c1ccc(-c2c3nc(c(-c4c(F)c(F)c(F)c(F)c4F)c4ccc([nH]4)c(-c4c(F)c(F)c(F)c(F)c4F)c4nc(c(-c5c(F)c(F)c(F)c(F)c5F)c5ccc2[nH]5)C=C4)C=C3)cc1
REMARK SMILES IDX 25 1 24 2 1 3 2 4 3 6 4 7 5 8 6 9 23 10 7 11 22 12 8 13 9 14
REMARK SMILES IDX 10 15 11 17 12 18 13 19 21 20 14 21 20 22 15 23 19 24 16 25
REMARK SMILES IDX 18 26 17 27 26 28 27 29 28 30 29 31 30 33 31 34 32 35 93 36
REMARK SMILES IDX 33 37 92 38 34 39 35 40 36 41 86 42 37 43 91 44 85 45 87 46
REMARK SMILES IDX 38 47 90 48 84 49 83 50 39 52 71 53 51 54 70 55 52 56 55 57
REMARK SMILES IDX 69 58 88 59 53 60 54 61 68 63 89 64 56 65 40 66 41 67 49 68
REMARK SMILES IDX 42 69 43 70 47 71 50 72 44 73 45 74 48 75 46 76 72 77 73 78
REMARK SMILES IDX 81 79 74 80 75 81 79 82 82 83 76 84 77 85 80 86 78 87 57 88
REMARK SMILES IDX 58 89 66 90 59 91 60 92 64 93 67 94 61 95 62 96 65 97 63 98
REMARK H PARENT 24 5 9 16 28 32 87 51 55 62
REMARK Flexibility Score: inf
ROOT
ATOM      1  C   UNL A   1      34.297  33.695  28.901  1.00  0.00     0.118 C 
ENDROOT
BRANCH   1   2
ATOM      2  N   UNL A   1      33.915  32.427  28.315  1.00  0.00    -0.352 N 
ATOM      3  O   UNL A   1      36.039  31.662  27.880  1.00  0.00    -0.270 OA
ATOM      4  C   UNL A   1      34.824  31.519  27.830  1.00  0.00     0.244 C 
ATOM      5  H   UNL A   1      32.957  32.205  28.263  1.00  0.00     0.163 HD
BRANCH   4   6
ATOM      6  C   UNL A   1      34.248  30.277  27.242  1.00  0.00     0.072 C 
ATOM      7  C   UNL A   1      32.928  30.080  27.117  1.00  0.00     0.014 C 
BRANCH   7   8
ATOM      8  C   UNL A   1      32.262  28.944  26.478  1.00  0.00    -0.025 A 
ATOM      9  C   UNL A   1      31.737  27.978  27.345  1.00  0.00     0.010 A 
ATOM     10  C   UNL A   1      32.184  28.732  25.095  1.00  0.00     0.010 A 
ATOM     11  C   UNL A   1      31.108  26.847  26.848  1.00  0.00     0.027 A 
ATOM     12  C   UNL A   1      31.577  27.574  24.591  1.00  0.00     0.027 A 
ATOM     13  C   UNL A   1      31.008  26.654  25.474  1.00  0.00     0.041 A 
BRANCH  13  14
ATOM     14  N   UNL A   1      30.348  25.524  24.982  1.00  0.00    -0.326 N 
ATOM     15  C   UNL A   1      30.931  24.566  24.193  1.00  0.00     0.231 C 
ATOM     16  H   UNL A   1      29.399  25.408  25.219  1.00  0.00     0.169 HD
ATOM     17  O   UNL A   1      30.345  24.133  23.201  1.00  0.00    -0.274 OA
BRANCH  15  18
ATOM     18  C   UNL A   1      32.166  23.859  24.741  1.00  0.00     0.121 C 
ATOM     19  C   UNL A   1      32.213  23.478  26.219  1.00  0.00     0.243 C 
ATOM     20  C   UNL A   1      32.759  22.679  23.979  1.00  0.00     0.056 C 
ATOM     21  O   UNL A   1      33.534  23.044  26.664  1.00  0.00    -0.492 OA
ATOM     22  C   UNL A   1      34.205  22.792  24.344  1.00  0.00    -0.005 A 
ATOM     23  C   UNL A   1      34.512  22.999  25.696  1.00  0.00     0.122 A 
ATOM     24  C   UNL A   1      35.173  22.972  23.354  1.00  0.00     0.007 A 
ATOM     25  C   UNL A   1      35.811  23.326  26.063  1.00  0.00     0.047 A 
ATOM     26  C   UNL A   1      36.447  23.385  23.718  1.00  0.00     0.001 A 
ATOM     27  C   UNL A   1      36.770  23.548  25.067  1.00  0.00     0.004 A 
ENDBRANCH  15  18
ENDBRANCH  13  14
ENDBRANCH   7   8
ENDBRANCH   4   6
ENDBRANCH   1   2
BRANCH   1  28
ATOM     28  C   UNL A   1      33.246  34.783  28.699  1.00  0.00     0.042 C 
BRANCH  28  29
ATOM     29  C   UNL A   1      33.490  36.075  29.478  1.00  0.00     0.118 C 
BRANCH  29  30
ATOM     30  N   UNL A   1      32.538  36.297  30.558  1.00  0.00    -0.352 N 
ATOM     31  C   UNL A   1      32.556  35.862  31.866  1.00  0.00     0.251 C 
ATOM     32  H   UNL A   1      31.758  36.846  30.317  1.00  0.00     0.163 HD
ATOM     33  O   UNL A   1      31.592  36.068  32.588  1.00  0.00    -0.269 OA
BRANCH  31  34
ATOM     34  C   UNL A   1      33.723  35.119  32.395  1.00  0.00     0.039 A 
ATOM     35  C   UNL A   1      33.536  33.812  32.857  1.00  0.00     0.014 A 
ATOM     36  C   UNL A   1      34.990  35.703  32.454  1.00  0.00     0.014 A 
ATOM     37  C   UNL A   1      34.633  33.064  33.298  1.00  0.00     0.010 A 
ATOM     38  C   UNL A   1      36.091  34.935  32.823  1.00  0.00     0.010 A 
ATOM     39  C   UNL A   1      35.927  33.603  33.242  1.00  0.00    -0.014 A 
BRANCH  39  40
ATOM     40  C   UNL A   1      37.128  32.807  33.612  1.00  0.00     0.031 A 
ATOM     41  C   UNL A   1      37.858  33.098  34.894  1.00  0.00     0.074 A 
ATOM     42  C   UNL A   1      37.615  31.888  32.755  1.00  0.00     0.049 A 
ATOM     43  N   UNL A   1      39.001  32.626  35.324  1.00  0.00    -0.248 NA
ATOM     44  C   UNL A   1      37.233  34.074  35.798  1.00  0.00     0.031 C 
ATOM     45  C   UNL A   1      37.019  31.529  31.468  1.00  0.00     0.029 A 
ATOM     46  N   UNL A   1      38.741  31.104  32.828  1.00  0.00    -0.354 N 
ATOM     47  C   UNL A   1      39.241  33.262  36.535  1.00  0.00     0.074 A 
ATOM     48  C   UNL A   1      38.150  34.189  36.747  1.00  0.00     0.031 C 
ATOM     49  C   UNL A   1      37.776  30.591  30.878  1.00  0.00     0.029 A 
ATOM     50  C   UNL A   1      38.938  30.318  31.718  1.00  0.00     0.049 A 
ATOM     51  H   UNL A   1      39.349  31.105  33.602  1.00  0.00     0.167 HD
ATOM     52  C   UNL A   1      40.267  33.076  37.401  1.00  0.00     0.037 A 
ATOM     53  C   UNL A   1      39.953  29.490  31.402  1.00  0.00     0.037 A 
ATOM     54  C   UNL A   1      41.339  32.138  37.196  1.00  0.00     0.049 A 
ATOM     55  C   UNL A   1      41.097  29.323  32.367  1.00  0.00     0.074 A 
ATOM     56  C   UNL A   1      42.399  31.843  38.037  1.00  0.00     0.029 A 
ATOM     57  N   UNL A   1      41.492  31.346  36.067  1.00  0.00    -0.354 N 
ATOM     58  N   UNL A   1      41.287  29.891  33.533  1.00  0.00    -0.248 NA
ATOM     59  C   UNL A   1      42.167  28.395  31.973  1.00  0.00     0.031 C 
ATOM     60  C   UNL A   1      43.222  30.913  37.394  1.00  0.00     0.029 A 
ATOM     61  C   UNL A   1      42.641  30.578  36.182  1.00  0.00     0.049 A 
ATOM     62  H   UNL A   1      40.877  31.330  35.300  1.00  0.00     0.167 HD
ATOM     63  C   UNL A   1      42.472  29.361  34.028  1.00  0.00     0.074 A 
ATOM     64  C   UNL A   1      42.954  28.421  33.039  1.00  0.00     0.031 C 
ATOM     65  C   UNL A   1      43.100  29.629  35.199  1.00  0.00     0.037 A 
BRANCH  52  66
ATOM     66  C   UNL A   1      40.284  33.912  38.649  1.00  0.00     0.064 A 
ATOM     67  C   UNL A   1      40.959  35.143  38.704  1.00  0.00     0.173 A 
ATOM     68  C   UNL A   1      39.587  33.498  39.794  1.00  0.00     0.173 A 
ATOM     69  F   UNL A   1      41.649  35.583  37.641  1.00  0.00    -0.203 F 
ATOM     70  C   UNL A   1      40.961  35.908  39.868  1.00  0.00     0.198 A 
ATOM     71  C   UNL A   1      39.563  34.282  40.945  1.00  0.00     0.198 A 
ATOM     72  F   UNL A   1      38.920  32.334  39.795  1.00  0.00    -0.203 F 
ATOM     73  F   UNL A   1      41.659  37.052  39.914  1.00  0.00    -0.200 F 
ATOM     74  C   UNL A   1      40.258  35.481  40.983  1.00  0.00     0.200 A 
ATOM     75  F   UNL A   1      38.869  33.876  42.016  1.00  0.00    -0.200 F 
ATOM     76  F   UNL A   1      40.256  36.222  42.100  1.00  0.00    -0.200 F 
ENDBRANCH  52  66
BRANCH  53  77
ATOM     77  C   UNL A   1      39.932  28.742  30.115  1.00  0.00     0.064 A 
ATOM     78  C   UNL A   1      39.354  27.466  30.035  1.00  0.00     0.173 A 
ATOM     79  C   UNL A   1      40.498  29.275  28.949  1.00  0.00     0.173 A 
ATOM     80  F   UNL A   1      38.820  26.904  31.129  1.00  0.00    -0.203 F 
ATOM     81  C   UNL A   1      39.367  26.744  28.844  1.00  0.00     0.198 A 
ATOM     82  C   UNL A   1      40.482  28.564  27.750  1.00  0.00     0.198 A 
ATOM     83  F   UNL A   1      41.060  30.493  28.969  1.00  0.00    -0.203 F 
ATOM     84  F   UNL A   1      38.857  25.505  28.810  1.00  0.00    -0.200 F 
ATOM     85  C   UNL A   1      39.925  27.295  27.701  1.00  0.00     0.200 A 
ATOM     86  F   UNL A   1      41.007  29.107  26.644  1.00  0.00    -0.200 F 
ATOM     87  F   UNL A   1      39.935  26.600  26.555  1.00  0.00    -0.200 F 
ENDBRANCH  53  77
BRANCH  65  88
ATOM     88  C   UNL A   1      44.348  28.852  35.513  1.00  0.00     0.064 A 
ATOM     89  C   UNL A   1      45.619  29.298  35.124  1.00  0.00     0.173 A 
ATOM     90  C   UNL A   1      44.270  27.666  36.259  1.00  0.00     0.173 A 
ATOM     91  F   UNL A   1      45.748  30.418  34.395  1.00  0.00    -0.203 F 
ATOM     92  C   UNL A   1      46.763  28.574  35.451  1.00  0.00     0.198 A 
ATOM     93  C   UNL A   1      45.417  26.963  36.614  1.00  0.00     0.198 A 
ATOM     94  F   UNL A   1      43.078  27.198  36.663  1.00  0.00    -0.203 F 
ATOM     95  F   UNL A   1      47.964  28.994  35.029  1.00  0.00    -0.200 F 
ATOM     96  C   UNL A   1      46.662  27.413  36.203  1.00  0.00     0.200 A 
ATOM     97  F   UNL A   1      45.318  25.851  37.356  1.00  0.00    -0.200 F 
ATOM     98  F   UNL A   1      47.765  26.725  36.529  1.00  0.00    -0.200 F 
ENDBRANCH  65  88
ENDBRANCH  39  40
ENDBRANCH  31  34
ENDBRANCH  29  30
ENDBRANCH  28  29
ENDBRANCH   1  28
TORSDOF 13
ENDMDL
