MODEL 1
REMARK VINA RESULT:     -14.2      0.000      0.000
REMARK SMILES O=C(Nc1ccccc1)N[C@H]1C[C@@H](C(=O)NCCCNC(=O)c2ccc(-c3c4nc(c(-c5c(F)c(F)c(F)c(F)c5F)c5ccc([nH]5)c(-c5c(F)c(F)c(F)c(F)c5F)c5nc(c(-c6c(F)c(F)c(F)c(F)c6F)c6ccc3[nH]6)C=C5)C=C4)cc2)Nc2cc(Cl)cc(Cl)c21
REMARK SMILES IDX 18 1 17 2 16 3 14 4 15 5 13 7 11 8 12 9 94 10 87 11 92 12
REMARK SMILES IDX 86 13 88 14 91 15 93 16 89 18 90 19 10 20 1 21 2 22 3 23
REMARK SMILES IDX 4 26 5 27 9 28 6 29 8 30 7 31 19 32 20 33 21 34 22 36 23 37
REMARK SMILES IDX 24 38 85 39 25 40 84 41 26 42 27 43 28 44 78 45 29 46 83 47
REMARK SMILES IDX 77 48 79 49 30 50 82 51 76 52 75 53 31 55 63 56 43 57 62 58
REMARK SMILES IDX 44 59 47 60 61 61 80 62 45 63 46 64 60 66 81 67 48 68 32 69
REMARK SMILES IDX 33 70 41 71 34 72 35 73 39 74 42 75 36 76 37 77 40 78 38 79
REMARK SMILES IDX 64 80 65 81 73 82 66 83 67 84 71 85 74 86 68 87 69 88 72 89
REMARK SMILES IDX 70 90 49 91 50 92 58 93 51 94 52 95 56 96 59 97 53 98 54 99
REMARK SMILES IDX 57 100 55 101
REMARK H PARENT 16 6 86 17 3 24 10 25 20 35 79 54 47 65
REMARK Flexibility Score: inf
ROOT
ATOM      1  C   UNL A   1      32.884  28.864  23.643  1.00  0.00     0.042 C 
ENDROOT
BRANCH   1   2
ATOM      2  C   UNL A   1      34.020  28.577  22.667  1.00  0.00     0.117 C 
BRANCH   2   3
ATOM      3  N   UNL A   1      33.702  27.476  21.795  1.00  0.00    -0.354 N 
ATOM      4  C   UNL A   1      33.494  26.162  22.027  1.00  0.00     0.242 C 
ATOM      5  O   UNL A   1      33.277  25.498  21.001  1.00  0.00    -0.273 OA
ATOM      6  H   UNL A   1      33.620  27.730  20.847  1.00  0.00     0.163 HD
BRANCH   4   7
ATOM      7  C   UNL A   1      33.474  25.467  23.424  1.00  0.00     0.171 C 
ATOM      8  C   UNL A   1      34.295  23.547  25.016  1.00  0.00     0.120 C 
ATOM      9  C   UNL A   1      34.656  24.694  24.029  1.00  0.00     0.065 C 
ATOM     10  C   UNL A   1      32.875  23.594  25.533  1.00  0.00     0.016 A 
ATOM     11  C   UNL A   1      31.921  24.225  24.730  1.00  0.00     0.043 A 
ATOM     12  C   UNL A   1      32.474  23.082  26.774  1.00  0.00     0.049 A 
ATOM     13  N   UNL A   1      32.282  24.623  23.457  1.00  0.00    -0.373 N 
ATOM     14  C   UNL A   1      30.627  24.444  25.189  1.00  0.00     0.046 A 
ATOM     15  C   UNL A   1      31.184  23.320  27.250  1.00  0.00     0.041 A 
ATOM     16  Cl  UNL A   1      33.536  22.156  27.772  1.00  0.00    -0.084 Cl
ATOM     17  H   UNL A   1      31.784  24.362  22.649  1.00  0.00     0.161 HD
ATOM     18  C   UNL A   1      30.282  24.038  26.472  1.00  0.00     0.044 A 
ATOM     19  Cl  UNL A   1      28.743  24.460  27.111  1.00  0.00    -0.084 Cl
BRANCH   8  20
ATOM     20  N   UNL A   1      34.601  22.206  24.512  1.00  0.00    -0.331 N 
ATOM     21  O   UNL A   1      36.507  21.989  25.734  1.00  0.00    -0.248 OA
ATOM     22  C   UNL A   1      35.568  21.468  25.133  1.00  0.00     0.319 C 
ATOM     23  N   UNL A   1      35.342  20.134  25.288  1.00  0.00    -0.308 N 
ATOM     24  H   UNL A   1      35.867  19.734  26.018  1.00  0.00     0.171 HD
ATOM     25  H   UNL A   1      34.117  21.842  23.736  1.00  0.00     0.166 HD
BRANCH  23  26
ATOM     26  C   UNL A   1      34.521  19.212  24.625  1.00  0.00     0.042 A 
ATOM     27  C   UNL A   1      35.097  17.985  24.268  1.00  0.00     0.026 A 
ATOM     28  C   UNL A   1      33.219  19.498  24.216  1.00  0.00     0.026 A 
ATOM     29  C   UNL A   1      34.371  17.040  23.541  1.00  0.00     0.002 A 
ATOM     30  C   UNL A   1      32.502  18.561  23.461  1.00  0.00     0.002 A 
ATOM     31  C   UNL A   1      33.074  17.332  23.131  1.00  0.00     0.000 A 
ENDBRANCH  23  26
ENDBRANCH   8  20
ENDBRANCH   4   7
ENDBRANCH   2   3
ENDBRANCH   1   2
BRANCH   1  32
ATOM     32  C   UNL A   1      33.350  29.173  25.056  1.00  0.00     0.118 C 
BRANCH  32  33
ATOM     33  N   UNL A   1      32.719  30.364  25.599  1.00  0.00    -0.352 N 
ATOM     34  C   UNL A   1      32.999  31.053  26.754  1.00  0.00     0.251 C 
ATOM     35  H   UNL A   1      31.982  30.730  25.060  1.00  0.00     0.163 HD
ATOM     36  O   UNL A   1      32.207  31.880  27.183  1.00  0.00    -0.269 OA
BRANCH  34  37
ATOM     37  C   UNL A   1      34.257  30.785  27.483  1.00  0.00     0.039 A 
ATOM     38  C   UNL A   1      35.192  31.813  27.635  1.00  0.00     0.014 A 
ATOM     39  C   UNL A   1      34.523  29.514  27.997  1.00  0.00     0.014 A 
ATOM     40  C   UNL A   1      36.363  31.580  28.360  1.00  0.00     0.010 A 
ATOM     41  C   UNL A   1      35.640  29.312  28.798  1.00  0.00     0.010 A 
ATOM     42  C   UNL A   1      36.579  30.338  28.977  1.00  0.00    -0.014 A 
BRANCH  42  43
ATOM     43  C   UNL A   1      37.794  30.062  29.785  1.00  0.00     0.031 A 
ATOM     44  C   UNL A   1      38.847  29.131  29.245  1.00  0.00     0.074 A 
ATOM     45  C   UNL A   1      37.915  30.580  31.022  1.00  0.00     0.049 A 
ATOM     46  N   UNL A   1      39.905  28.640  29.837  1.00  0.00    -0.248 NA
ATOM     47  C   UNL A   1      38.665  28.661  27.861  1.00  0.00     0.031 C 
ATOM     48  C   UNL A   1      36.952  31.476  31.665  1.00  0.00     0.029 A 
ATOM     49  N   UNL A   1      38.896  30.415  31.968  1.00  0.00    -0.354 N 
ATOM     50  C   UNL A   1      40.504  27.804  28.905  1.00  0.00     0.074 A 
ATOM     51  C   UNL A   1      39.657  27.795  27.734  1.00  0.00     0.031 C 
ATOM     52  C   UNL A   1      37.398  31.796  32.890  1.00  0.00     0.029 A 
ATOM     53  C   UNL A   1      38.652  31.091  33.139  1.00  0.00     0.049 A 
ATOM     54  H   UNL A   1      39.699  29.864  31.821  1.00  0.00     0.167 HD
ATOM     55  C   UNL A   1      41.674  27.128  29.004  1.00  0.00     0.037 A 
ATOM     56  C   UNL A   1      39.354  31.121  34.288  1.00  0.00     0.037 A 
ATOM     57  C   UNL A   1      42.524  27.155  30.164  1.00  0.00     0.049 A 
ATOM     58  C   UNL A   1      40.626  30.318  34.388  1.00  0.00     0.074 A 
ATOM     59  C   UNL A   1      43.736  26.519  30.362  1.00  0.00     0.029 A 
ATOM     60  N   UNL A   1      42.249  27.866  31.325  1.00  0.00    -0.354 N 
ATOM     61  N   UNL A   1      41.203  29.561  33.486  1.00  0.00    -0.248 NA
ATOM     62  C   UNL A   1      41.348  30.377  35.667  1.00  0.00     0.031 C 
ATOM     63  C   UNL A   1      44.175  26.809  31.657  1.00  0.00     0.029 A 
ATOM     64  C   UNL A   1      43.266  27.675  32.244  1.00  0.00     0.049 A 
ATOM     65  H   UNL A   1      41.450  28.422  31.471  1.00  0.00     0.167 HD
ATOM     66  C   UNL A   1      42.376  29.099  34.069  1.00  0.00     0.074 A 
ATOM     67  C   UNL A   1      42.431  29.663  35.400  1.00  0.00     0.031 C 
ATOM     68  C   UNL A   1      43.323  28.280  33.550  1.00  0.00     0.037 A 
BRANCH  55  69
ATOM     69  C   UNL A   1      42.113  26.318  27.818  1.00  0.00     0.064 A 
ATOM     70  C   UNL A   1      43.072  26.804  26.916  1.00  0.00     0.173 A 
ATOM     71  C   UNL A   1      41.610  25.026  27.607  1.00  0.00     0.173 A 
ATOM     72  F   UNL A   1      43.576  28.038  27.065  1.00  0.00    -0.203 F 
ATOM     73  C   UNL A   1      43.491  26.038  25.832  1.00  0.00     0.198 A 
ATOM     74  C   UNL A   1      42.056  24.249  26.541  1.00  0.00     0.198 A 
ATOM     75  F   UNL A   1      40.695  24.510  28.442  1.00  0.00    -0.203 F 
ATOM     76  F   UNL A   1      44.371  26.542  24.957  1.00  0.00    -0.200 F 
ATOM     77  C   UNL A   1      42.989  24.757  25.650  1.00  0.00     0.200 A 
ATOM     78  F   UNL A   1      41.582  23.006  26.375  1.00  0.00    -0.200 F 
ATOM     79  F   UNL A   1      43.404  24.015  24.615  1.00  0.00    -0.200 F 
ENDBRANCH  55  69
BRANCH  56  80
ATOM     80  C   UNL A   1      38.890  31.943  35.439  1.00  0.00     0.064 A 
ATOM     81  C   UNL A   1      39.220  33.303  35.528  1.00  0.00     0.173 A 
ATOM     82  C   UNL A   1      38.155  31.382  36.495  1.00  0.00     0.173 A 
ATOM     83  F   UNL A   1      39.938  33.882  34.555  1.00  0.00    -0.203 F 
ATOM     84  C   UNL A   1      38.874  34.059  36.646  1.00  0.00     0.198 A 
ATOM     85  C   UNL A   1      37.778  32.149  37.596  1.00  0.00     0.198 A 
ATOM     86  F   UNL A   1      37.808  30.088  36.459  1.00  0.00    -0.203 F 
ATOM     87  F   UNL A   1      39.268  35.336  36.737  1.00  0.00    -0.200 F 
ATOM     88  C   UNL A   1      38.150  33.481  37.678  1.00  0.00     0.200 A 
ATOM     89  F   UNL A   1      37.066  31.591  38.585  1.00  0.00    -0.200 F 
ATOM     90  F   UNL A   1      37.826  34.205  38.759  1.00  0.00    -0.200 F 
ENDBRANCH  56  80
BRANCH  68  91
ATOM     91  C   UNL A   1      44.540  28.008  34.385  1.00  0.00     0.064 A 
ATOM     92  C   UNL A   1      44.622  26.899  35.240  1.00  0.00     0.173 A 
ATOM     93  C   UNL A   1      45.665  28.842  34.281  1.00  0.00     0.173 A 
ATOM     94  F   UNL A   1      43.571  26.078  35.385  1.00  0.00    -0.203 F 
ATOM     95  C   UNL A   1      45.776  26.651  35.978  1.00  0.00     0.198 A 
ATOM     96  C   UNL A   1      46.828  28.571  34.995  1.00  0.00     0.198 A 
ATOM     97  F   UNL A   1      45.640  29.912  33.471  1.00  0.00    -0.203 F 
ATOM     98  F   UNL A   1      45.817  25.612  36.825  1.00  0.00    -0.200 F 
ATOM     99  C   UNL A   1      46.881  27.480  35.848  1.00  0.00     0.200 A 
ATOM    100  F   UNL A   1      47.899  29.364  34.852  1.00  0.00    -0.200 F 
ATOM    101  F   UNL A   1      47.995  27.230  36.549  1.00  0.00    -0.200 F 
ENDBRANCH  68  91
ENDBRANCH  42  43
ENDBRANCH  34  37
ENDBRANCH  32  33
ENDBRANCH   1  32
TORSDOF 12
ENDMDL
MODEL 2
REMARK VINA RESULT:     -13.7      2.761      5.489
REMARK SMILES O=C(Nc1ccccc1)N[C@H]1C[C@@H](C(=O)NCCCNC(=O)c2ccc(-c3c4nc(c(-c5c(F)c(F)c(F)c(F)c5F)c5ccc([nH]5)c(-c5c(F)c(F)c(F)c(F)c5F)c5nc(c(-c6c(F)c(F)c(F)c(F)c6F)c6ccc3[nH]6)C=C5)C=C4)cc2)Nc2cc(Cl)cc(Cl)c21
REMARK SMILES IDX 18 1 17 2 16 3 14 4 15 5 13 7 11 8 12 9 94 10 87 11 92 12
REMARK SMILES IDX 86 13 88 14 91 15 93 16 89 18 90 19 10 20 1 21 2 22 3 23
REMARK SMILES IDX 4 26 5 27 9 28 6 29 8 30 7 31 19 32 20 33 21 34 22 36 23 37
REMARK SMILES IDX 24 38 85 39 25 40 84 41 26 42 27 43 28 44 78 45 29 46 83 47
REMARK SMILES IDX 77 48 79 49 30 50 82 51 76 52 75 53 31 55 63 56 43 57 62 58
REMARK SMILES IDX 44 59 47 60 61 61 80 62 45 63 46 64 60 66 81 67 48 68 32 69
REMARK SMILES IDX 33 70 41 71 34 72 35 73 39 74 42 75 36 76 37 77 40 78 38 79
REMARK SMILES IDX 64 80 65 81 73 82 66 83 67 84 71 85 74 86 68 87 69 88 72 89
REMARK SMILES IDX 70 90 49 91 50 92 58 93 51 94 52 95 56 96 59 97 53 98 54 99
REMARK SMILES IDX 57 100 55 101
REMARK H PARENT 16 6 86 17 3 24 10 25 20 35 79 54 47 65
REMARK Flexibility Score: inf
ROOT
ATOM      1  C   UNL A   1      31.513  32.095  26.752  1.00  0.00     0.042 C 
ENDROOT
BRANCH   1   2
ATOM      2  C   UNL A   1      31.743  30.640  26.360  1.00  0.00     0.117 C 
BRANCH   2   3
ATOM      3  N   UNL A   1      32.966  30.128  26.922  1.00  0.00    -0.354 N 
ATOM      4  C   UNL A   1      33.825  29.171  26.510  1.00  0.00     0.242 C 
ATOM      5  O   UNL A   1      34.769  28.972  27.290  1.00  0.00    -0.273 OA
ATOM      6  H   UNL A   1      33.226  30.557  27.769  1.00  0.00     0.163 HD
BRANCH   4   7
ATOM      7  C   UNL A   1      33.736  28.368  25.174  1.00  0.00     0.171 C 
ATOM      8  C   UNL A   1      32.760  28.094  22.752  1.00  0.00     0.120 C 
ATOM      9  C   UNL A   1      33.478  28.997  23.797  1.00  0.00     0.065 C 
ATOM     10  C   UNL A   1      32.754  26.622  23.099  1.00  0.00     0.016 A 
ATOM     11  C   UNL A   1      32.846  26.283  24.452  1.00  0.00     0.043 A 
ATOM     12  C   UNL A   1      32.702  25.592  22.151  1.00  0.00     0.049 A 
ATOM     13  N   UNL A   1      32.775  27.289  25.396  1.00  0.00    -0.373 N 
ATOM     14  C   UNL A   1      32.996  24.960  24.852  1.00  0.00     0.046 A 
ATOM     15  C   UNL A   1      32.877  24.264  22.544  1.00  0.00     0.041 A 
ATOM     16  Cl  UNL A   1      32.438  25.901  20.473  1.00  0.00    -0.084 Cl
ATOM     17  H   UNL A   1      32.138  27.280  26.147  1.00  0.00     0.161 HD
ATOM     18  C   UNL A   1      33.066  23.961  23.889  1.00  0.00     0.044 A 
ATOM     19  Cl  UNL A   1      33.427  22.348  24.362  1.00  0.00    -0.084 Cl
BRANCH   8  20
ATOM     20  N   UNL A   1      31.404  28.534  22.413  1.00  0.00    -0.331 N 
ATOM     21  O   UNL A   1      30.408  27.321  24.059  1.00  0.00    -0.248 OA
ATOM     22  C   UNL A   1      30.386  28.278  23.286  1.00  0.00     0.319 C 
ATOM     23  N   UNL A   1      29.446  29.247  23.462  1.00  0.00    -0.308 N 
ATOM     24  H   UNL A   1      28.965  29.171  24.317  1.00  0.00     0.171 HD
ATOM     25  H   UNL A   1      31.229  29.007  21.568  1.00  0.00     0.166 HD
BRANCH  23  26
ATOM     26  C   UNL A   1      29.019  30.329  22.680  1.00  0.00     0.042 A 
ATOM     27  C   UNL A   1      29.061  31.599  23.271  1.00  0.00     0.026 A 
ATOM     28  C   UNL A   1      28.463  30.187  21.409  1.00  0.00     0.026 A 
ATOM     29  C   UNL A   1      28.585  32.721  22.588  1.00  0.00     0.002 A 
ATOM     30  C   UNL A   1      27.959  31.308  20.737  1.00  0.00     0.002 A 
ATOM     31  C   UNL A   1      28.027  32.573  21.323  1.00  0.00     0.000 A 
ENDBRANCH  23  26
ENDBRANCH   8  20
ENDBRANCH   4   7
ENDBRANCH   2   3
ENDBRANCH   1   2
BRANCH   1  32
ATOM     32  C   UNL A   1      32.782  32.837  27.139  1.00  0.00     0.118 C 
BRANCH  32  33
ATOM     33  N   UNL A   1      32.517  34.195  27.580  1.00  0.00    -0.352 N 
ATOM     34  C   UNL A   1      33.026  34.880  28.656  1.00  0.00     0.251 C 
ATOM     35  H   UNL A   1      31.878  34.699  27.025  1.00  0.00     0.163 HD
ATOM     36  O   UNL A   1      32.503  35.925  29.022  1.00  0.00    -0.269 OA
BRANCH  34  37
ATOM     37  C   UNL A   1      34.201  34.348  29.377  1.00  0.00     0.039 A 
ATOM     38  C   UNL A   1      34.009  33.623  30.557  1.00  0.00     0.014 A 
ATOM     39  C   UNL A   1      35.493  34.581  28.900  1.00  0.00     0.014 A 
ATOM     40  C   UNL A   1      35.112  33.079  31.220  1.00  0.00     0.010 A 
ATOM     41  C   UNL A   1      36.577  33.960  29.505  1.00  0.00     0.010 A 
ATOM     42  C   UNL A   1      36.401  33.213  30.680  1.00  0.00    -0.014 A 
BRANCH  42  43
ATOM     43  C   UNL A   1      37.594  32.620  31.335  1.00  0.00     0.031 A 
ATOM     44  C   UNL A   1      38.325  31.491  30.659  1.00  0.00     0.074 A 
ATOM     45  C   UNL A   1      37.971  33.038  32.559  1.00  0.00     0.049 A 
ATOM     46  N   UNL A   1      39.293  30.737  31.114  1.00  0.00    -0.248 NA
ATOM     47  C   UNL A   1      37.885  31.142  29.297  1.00  0.00     0.031 C 
ATOM     48  C   UNL A   1      37.329  34.107  33.326  1.00  0.00     0.029 A 
ATOM     49  N   UNL A   1      38.980  32.602  33.380  1.00  0.00    -0.354 N 
ATOM     50  C   UNL A   1      39.567  29.826  30.103  1.00  0.00     0.074 A 
ATOM     51  C   UNL A   1      38.619  30.072  29.039  1.00  0.00     0.031 C 
ATOM     52  C   UNL A   1      37.970  34.255  34.496  1.00  0.00     0.029 A 
ATOM     53  C   UNL A   1      39.036  33.262  34.584  1.00  0.00     0.049 A 
ATOM     54  H   UNL A   1      39.606  31.884  33.130  1.00  0.00     0.167 HD
ATOM     55  C   UNL A   1      40.542  28.888  30.052  1.00  0.00     0.037 A 
ATOM     56  C   UNL A   1      39.846  33.072  35.643  1.00  0.00     0.037 A 
ATOM     57  C   UNL A   1      41.495  28.660  31.105  1.00  0.00     0.049 A 
ATOM     58  C   UNL A   1      40.890  31.986  35.579  1.00  0.00     0.074 A 
ATOM     59  C   UNL A   1      42.532  27.745  31.149  1.00  0.00     0.029 A 
ATOM     60  N   UNL A   1      41.528  29.361  32.303  1.00  0.00    -0.354 N 
ATOM     61  N   UNL A   1      41.165  31.156  34.602  1.00  0.00    -0.248 NA
ATOM     62  C   UNL A   1      41.740  31.814  36.766  1.00  0.00     0.031 C 
ATOM     63  C   UNL A   1      43.168  27.863  32.389  1.00  0.00     0.029 A 
ATOM     64  C   UNL A   1      42.564  28.893  33.093  1.00  0.00     0.049 A 
ATOM     65  H   UNL A   1      40.909  30.084  32.551  1.00  0.00     0.167 HD
ATOM     66  C   UNL A   1      42.249  30.402  35.036  1.00  0.00     0.074 A 
ATOM     67  C   UNL A   1      42.584  30.876  36.361  1.00  0.00     0.031 C 
ATOM     68  C   UNL A   1      42.908  29.406  34.395  1.00  0.00     0.037 A 
BRANCH  55  69
ATOM     69  C   UNL A   1      40.641  28.052  28.809  1.00  0.00     0.064 A 
ATOM     70  C   UNL A   1      39.922  26.853  28.676  1.00  0.00     0.173 A 
ATOM     71  C   UNL A   1      41.420  28.472  27.721  1.00  0.00     0.173 A 
ATOM     72  F   UNL A   1      39.171  26.400  29.691  1.00  0.00    -0.203 F 
ATOM     73  C   UNL A   1      40.000  26.095  27.512  1.00  0.00     0.198 A 
ATOM     74  C   UNL A   1      41.470  27.728  26.545  1.00  0.00     0.198 A 
ATOM     75  F   UNL A   1      42.124  29.612  27.793  1.00  0.00    -0.203 F 
ATOM     76  F   UNL A   1      39.343  24.931  27.427  1.00  0.00    -0.200 F 
ATOM     77  C   UNL A   1      40.767  26.537  26.444  1.00  0.00     0.200 A 
ATOM     78  F   UNL A   1      42.199  28.164  25.509  1.00  0.00    -0.200 F 
ATOM     79  F   UNL A   1      40.831  25.813  25.318  1.00  0.00    -0.200 F 
ENDBRANCH  55  69
BRANCH  56  80
ATOM     80  C   UNL A   1      39.723  33.928  36.855  1.00  0.00     0.064 A 
ATOM     81  C   UNL A   1      38.916  33.533  37.932  1.00  0.00     0.173 A 
ATOM     82  C   UNL A   1      40.361  35.174  36.943  1.00  0.00     0.173 A 
ATOM     83  F   UNL A   1      38.268  32.360  37.888  1.00  0.00    -0.203 F 
ATOM     84  C   UNL A   1      38.717  34.369  39.030  1.00  0.00     0.198 A 
ATOM     85  C   UNL A   1      40.190  35.993  38.058  1.00  0.00     0.198 A 
ATOM     86  F   UNL A   1      41.148  35.599  35.944  1.00  0.00    -0.203 F 
ATOM     87  F   UNL A   1      37.882  33.997  40.009  1.00  0.00    -0.200 F 
ATOM     88  C   UNL A   1      39.357  35.597  39.092  1.00  0.00     0.200 A 
ATOM     89  F   UNL A   1      40.822  37.173  38.122  1.00  0.00    -0.200 F 
ATOM     90  F   UNL A   1      39.158  36.405  40.143  1.00  0.00    -0.200 F 
ENDBRANCH  56  80
BRANCH  68  91
ATOM     91  C   UNL A   1      44.107  28.815  35.076  1.00  0.00     0.064 A 
ATOM     92  C   UNL A   1      45.396  29.338  34.897  1.00  0.00     0.173 A 
ATOM     93  C   UNL A   1      43.951  27.742  35.968  1.00  0.00     0.173 A 
ATOM     94  F   UNL A   1      45.601  30.354  34.046  1.00  0.00    -0.203 F 
ATOM     95  C   UNL A   1      46.487  28.791  35.567  1.00  0.00     0.198 A 
ATOM     96  C   UNL A   1      45.038  27.222  36.663  1.00  0.00     0.198 A 
ATOM     97  F   UNL A   1      42.737  27.211  36.181  1.00  0.00    -0.203 F 
ATOM     98  F   UNL A   1      47.718  29.275  35.346  1.00  0.00    -0.200 F 
ATOM     99  C   UNL A   1      46.306  27.741  36.456  1.00  0.00     0.200 A 
ATOM    100  F   UNL A   1      44.858  26.220  37.534  1.00  0.00    -0.200 F 
ATOM    101  F   UNL A   1      47.357  27.228  37.111  1.00  0.00    -0.200 F 
ENDBRANCH  68  91
ENDBRANCH  42  43
ENDBRANCH  34  37
ENDBRANCH  32  33
ENDBRANCH   1  32
TORSDOF 12
ENDMDL
MODEL 3
REMARK VINA RESULT:     -13.6      4.340      9.873
REMARK SMILES O=C(Nc1ccccc1)N[C@H]1C[C@@H](C(=O)NCCCNC(=O)c2ccc(-c3c4nc(c(-c5c(F)c(F)c(F)c(F)c5F)c5ccc([nH]5)c(-c5c(F)c(F)c(F)c(F)c5F)c5nc(c(-c6c(F)c(F)c(F)c(F)c6F)c6ccc3[nH]6)C=C5)C=C4)cc2)Nc2cc(Cl)cc(Cl)c21
REMARK SMILES IDX 18 1 17 2 16 3 14 4 15 5 13 7 11 8 12 9 94 10 87 11 92 12
REMARK SMILES IDX 86 13 88 14 91 15 93 16 89 18 90 19 10 20 1 21 2 22 3 23
REMARK SMILES IDX 4 26 5 27 9 28 6 29 8 30 7 31 19 32 20 33 21 34 22 36 23 37
REMARK SMILES IDX 24 38 85 39 25 40 84 41 26 42 27 43 28 44 78 45 29 46 83 47
REMARK SMILES IDX 77 48 79 49 30 50 82 51 76 52 75 53 31 55 63 56 43 57 62 58
REMARK SMILES IDX 44 59 47 60 61 61 80 62 45 63 46 64 60 66 81 67 48 68 32 69
REMARK SMILES IDX 33 70 41 71 34 72 35 73 39 74 42 75 36 76 37 77 40 78 38 79
REMARK SMILES IDX 64 80 65 81 73 82 66 83 67 84 71 85 74 86 68 87 69 88 72 89
REMARK SMILES IDX 70 90 49 91 50 92 58 93 51 94 52 95 56 96 59 97 53 98 54 99
REMARK SMILES IDX 57 100 55 101
REMARK H PARENT 16 6 86 17 3 24 10 25 20 35 79 54 47 65
REMARK Flexibility Score: inf
ROOT
ATOM      1  C   UNL A   1      38.043  19.675  25.012  1.00  0.00     0.042 C 
ENDROOT
BRANCH   1   2
ATOM      2  C   UNL A   1      36.993  20.763  24.817  1.00  0.00     0.117 C 
BRANCH   2   3
ATOM      3  N   UNL A   1      37.249  21.902  25.661  1.00  0.00    -0.354 N 
ATOM      4  C   UNL A   1      36.579  23.058  25.855  1.00  0.00     0.242 C 
ATOM      5  O   UNL A   1      37.135  23.835  26.647  1.00  0.00    -0.273 OA
ATOM      6  H   UNL A   1      38.070  21.823  26.199  1.00  0.00     0.163 HD
BRANCH   4   7
ATOM      7  C   UNL A   1      35.210  23.446  25.215  1.00  0.00     0.171 C 
ATOM      8  C   UNL A   1      33.705  25.195  23.960  1.00  0.00     0.120 C 
ATOM      9  C   UNL A   1      35.045  24.407  24.028  1.00  0.00     0.065 C 
ATOM     10  C   UNL A   1      32.610  24.638  24.843  1.00  0.00     0.016 A 
ATOM     11  C   UNL A   1      33.003  23.914  25.972  1.00  0.00     0.043 A 
ATOM     12  C   UNL A   1      31.242  24.772  24.573  1.00  0.00     0.049 A 
ATOM     13  N   UNL A   1      34.342  23.882  26.308  1.00  0.00    -0.373 N 
ATOM     14  C   UNL A   1      32.070  23.244  26.755  1.00  0.00     0.046 A 
ATOM     15  C   UNL A   1      30.303  24.081  25.341  1.00  0.00     0.041 A 
ATOM     16  Cl  UNL A   1      30.650  25.768  23.294  1.00  0.00    -0.084 Cl
ATOM     17  H   UNL A   1      34.681  24.129  27.199  1.00  0.00     0.161 HD
ATOM     18  C   UNL A   1      30.728  23.286  26.401  1.00  0.00     0.044 A 
ATOM     19  Cl  UNL A   1      29.592  22.320  27.258  1.00  0.00    -0.084 Cl
BRANCH   8  20
ATOM     20  N   UNL A   1      33.846  26.635  24.186  1.00  0.00    -0.331 N 
ATOM     21  O   UNL A   1      33.731  27.172  21.979  1.00  0.00    -0.248 OA
ATOM     22  C   UNL A   1      33.590  27.496  23.157  1.00  0.00     0.319 C 
ATOM     23  N   UNL A   1      32.937  28.654  23.451  1.00  0.00    -0.308 N 
ATOM     24  H   UNL A   1      32.479  29.049  22.674  1.00  0.00     0.171 HD
ATOM     25  H   UNL A   1      34.122  26.978  25.066  1.00  0.00     0.166 HD
BRANCH  23  26
ATOM     26  C   UNL A   1      32.780  29.401  24.626  1.00  0.00     0.042 A 
ATOM     27  C   UNL A   1      33.820  29.342  25.564  1.00  0.00     0.026 A 
ATOM     28  C   UNL A   1      31.613  30.095  24.945  1.00  0.00     0.026 A 
ATOM     29  C   UNL A   1      33.711  29.997  26.792  1.00  0.00     0.002 A 
ATOM     30  C   UNL A   1      31.494  30.728  26.189  1.00  0.00     0.002 A 
ATOM     31  C   UNL A   1      32.544  30.684  27.108  1.00  0.00     0.000 A 
ENDBRANCH  23  26
ENDBRANCH   8  20
ENDBRANCH   4   7
ENDBRANCH   2   3
ENDBRANCH   1   2
BRANCH   1  32
ATOM     32  C   UNL A   1      39.201  20.090  25.905  1.00  0.00     0.118 C 
BRANCH  32  33
ATOM     33  N   UNL A   1      40.259  19.094  25.938  1.00  0.00    -0.352 N 
ATOM     34  C   UNL A   1      41.617  19.265  26.047  1.00  0.00     0.251 C 
ATOM     35  H   UNL A   1      39.957  18.160  25.872  1.00  0.00     0.163 HD
ATOM     36  O   UNL A   1      42.374  18.335  25.804  1.00  0.00    -0.269 OA
BRANCH  34  37
ATOM     37  C   UNL A   1      42.162  20.578  26.452  1.00  0.00     0.039 A 
ATOM     38  C   UNL A   1      42.527  21.500  25.467  1.00  0.00     0.014 A 
ATOM     39  C   UNL A   1      42.332  20.891  27.802  1.00  0.00     0.014 A 
ATOM     40  C   UNL A   1      43.001  22.760  25.841  1.00  0.00     0.010 A 
ATOM     41  C   UNL A   1      42.711  22.175  28.172  1.00  0.00     0.010 A 
ATOM     42  C   UNL A   1      43.064  23.119  27.197  1.00  0.00    -0.014 A 
BRANCH  42  43
ATOM     43  C   UNL A   1      43.529  24.460  27.634  1.00  0.00     0.031 A 
ATOM     44  C   UNL A   1      42.515  25.520  27.974  1.00  0.00     0.074 A 
ATOM     45  C   UNL A   1      44.844  24.746  27.653  1.00  0.00     0.049 A 
ATOM     46  N   UNL A   1      42.696  26.789  28.235  1.00  0.00    -0.248 NA
ATOM     47  C   UNL A   1      41.103  25.102  27.990  1.00  0.00     0.031 C 
ATOM     48  C   UNL A   1      45.921  23.812  27.322  1.00  0.00     0.029 A 
ATOM     49  N   UNL A   1      45.500  25.915  27.949  1.00  0.00    -0.354 N 
ATOM     50  C   UNL A   1      41.427  27.317  28.435  1.00  0.00     0.074 A 
ATOM     51  C   UNL A   1      40.480  26.251  28.196  1.00  0.00     0.031 C 
ATOM     52  C   UNL A   1      47.102  24.437  27.452  1.00  0.00     0.029 A 
ATOM     53  C   UNL A   1      46.866  25.827  27.827  1.00  0.00     0.049 A 
ATOM     54  H   UNL A   1      45.035  26.738  28.224  1.00  0.00     0.167 HD
ATOM     55  C   UNL A   1      41.084  28.570  28.815  1.00  0.00     0.037 A 
ATOM     56  C   UNL A   1      47.815  26.770  27.982  1.00  0.00     0.037 A 
ATOM     57  C   UNL A   1      42.031  29.622  29.070  1.00  0.00     0.049 A 
ATOM     58  C   UNL A   1      47.400  28.170  28.355  1.00  0.00     0.074 A 
ATOM     59  C   UNL A   1      41.789  30.923  29.474  1.00  0.00     0.029 A 
ATOM     60  N   UNL A   1      43.407  29.489  28.951  1.00  0.00    -0.354 N 
ATOM     61  N   UNL A   1      46.199  28.648  28.579  1.00  0.00    -0.248 NA
ATOM     62  C   UNL A   1      48.474  29.163  28.502  1.00  0.00     0.031 C 
ATOM     63  C   UNL A   1      43.015  31.590  29.559  1.00  0.00     0.029 A 
ATOM     64  C   UNL A   1      44.025  30.687  29.265  1.00  0.00     0.049 A 
ATOM     65  H   UNL A   1      43.874  28.664  28.683  1.00  0.00     0.167 HD
ATOM     66  C   UNL A   1      46.379  29.977  28.943  1.00  0.00     0.074 A 
ATOM     67  C   UNL A   1      47.803  30.229  28.913  1.00  0.00     0.031 C 
ATOM     68  C   UNL A   1      45.449  30.907  29.270  1.00  0.00     0.037 A 
BRANCH  55  69
ATOM     69  C   UNL A   1      39.623  28.867  28.997  1.00  0.00     0.064 A 
ATOM     70  C   UNL A   1      39.006  28.757  30.253  1.00  0.00     0.173 A 
ATOM     71  C   UNL A   1      38.842  29.313  27.921  1.00  0.00     0.173 A 
ATOM     72  F   UNL A   1      39.705  28.325  31.314  1.00  0.00    -0.203 F 
ATOM     73  C   UNL A   1      37.657  29.056  30.419  1.00  0.00     0.198 A 
ATOM     74  C   UNL A   1      37.501  29.643  28.097  1.00  0.00     0.198 A 
ATOM     75  F   UNL A   1      39.382  29.440  26.699  1.00  0.00    -0.203 F 
ATOM     76  F   UNL A   1      37.079  28.897  31.617  1.00  0.00    -0.200 F 
ATOM     77  C   UNL A   1      36.907  29.508  29.343  1.00  0.00     0.200 A 
ATOM     78  F   UNL A   1      36.782  30.094  27.060  1.00  0.00    -0.200 F 
ATOM     79  F   UNL A   1      35.612  29.808  29.506  1.00  0.00    -0.200 F 
ENDBRANCH  55  69
BRANCH  56  80
ATOM     80  C   UNL A   1      49.254  26.435  27.801  1.00  0.00     0.064 A 
ATOM     81  C   UNL A   1      50.090  26.240  28.910  1.00  0.00     0.173 A 
ATOM     82  C   UNL A   1      49.834  26.352  26.526  1.00  0.00     0.173 A 
ATOM     83  F   UNL A   1      49.588  26.329  30.149  1.00  0.00    -0.203 F 
ATOM     84  C   UNL A   1      51.458  26.021  28.753  1.00  0.00     0.198 A 
ATOM     85  C   UNL A   1      51.196  26.096  26.370  1.00  0.00     0.198 A 
ATOM     86  F   UNL A   1      49.081  26.524  25.430  1.00  0.00    -0.203 F 
ATOM     87  F   UNL A   1      52.244  25.914  29.833  1.00  0.00    -0.200 F 
ATOM     88  C   UNL A   1      52.008  25.947  27.483  1.00  0.00     0.200 A 
ATOM     89  F   UNL A   1      51.722  26.010  25.141  1.00  0.00    -0.200 F 
ATOM     90  F   UNL A   1      53.325  25.747  27.332  1.00  0.00    -0.200 F 
ENDBRANCH  56  80
BRANCH  68  91
ATOM     91  C   UNL A   1      45.938  32.258  29.704  1.00  0.00     0.064 A 
ATOM     92  C   UNL A   1      46.122  33.308  28.793  1.00  0.00     0.173 A 
ATOM     93  C   UNL A   1      46.170  32.518  31.064  1.00  0.00     0.173 A 
ATOM     94  F   UNL A   1      45.927  33.108  27.481  1.00  0.00    -0.203 F 
ATOM     95  C   UNL A   1      46.546  34.562  29.227  1.00  0.00     0.198 A 
ATOM     96  C   UNL A   1      46.559  33.782  31.497  1.00  0.00     0.198 A 
ATOM     97  F   UNL A   1      45.999  31.549  31.977  1.00  0.00    -0.203 F 
ATOM     98  F   UNL A   1      46.762  35.539  28.334  1.00  0.00    -0.200 F 
ATOM     99  C   UNL A   1      46.753  34.800  30.578  1.00  0.00     0.200 A 
ATOM    100  F   UNL A   1      46.741  34.014  32.804  1.00  0.00    -0.200 F 
ATOM    101  F   UNL A   1      47.146  36.013  30.992  1.00  0.00    -0.200 F 
ENDBRANCH  68  91
ENDBRANCH  42  43
ENDBRANCH  34  37
ENDBRANCH  32  33
ENDBRANCH   1  32
TORSDOF 12
ENDMDL
