MODEL 1
REMARK VINA RESULT:     -11.1      0.000      0.000
REMARK SMILES CCC[C@](C)(CC(F)(F)F)C(=O)NCCCNC(=O)c1ccc(-c2c3nc(c(-c4c(F)c(F)c(F)c(F)c4F)c4ccc([nH]4)c(-c4c(F)c(F)c(F)c(F)c4F)c4nc(c(-c5c(F)c(F)c(F)c(F)c5F)c5ccc2[nH]5)C=C4)C=C3)cc1
REMARK SMILES IDX 15 1 14 2 13 3 11 4 12 5 4 7 5 8 3 9 2 10 1 11 6 12 7 13
REMARK SMILES IDX 8 14 9 15 10 16 16 17 17 18 18 19 19 21 20 22 21 23 82 24
REMARK SMILES IDX 22 25 81 26 23 27 24 28 25 29 75 30 26 31 80 32 74 33 76 34
REMARK SMILES IDX 27 35 79 36 73 37 72 38 28 40 60 41 40 42 59 43 41 44 44 45
REMARK SMILES IDX 58 46 77 47 42 48 43 49 57 51 78 52 45 53 29 54 30 55 38 56
REMARK SMILES IDX 31 57 32 58 36 59 39 60 33 61 34 62 37 63 35 64 61 65 62 66
REMARK SMILES IDX 70 67 63 68 64 69 68 70 71 71 65 72 66 73 69 74 67 75 46 76
REMARK SMILES IDX 47 77 55 78 48 79 49 80 53 81 56 82 50 83 51 84 54 85 52 86
REMARK H PARENT 13 6 17 20 76 39 44 50
REMARK Flexibility Score: inf
ROOT
ATOM      1  C   UNL A   1      31.472  32.111  26.664  1.00  0.00     0.042 C 
ENDROOT
BRANCH   1   2
ATOM      2  C   UNL A   1      31.744  30.679  26.248  1.00  0.00     0.117 C 
BRANCH   2   3
ATOM      3  N   UNL A   1      31.208  30.340  24.946  1.00  0.00    -0.356 N 
ATOM      4  C   UNL A   1      31.176  29.202  24.212  1.00  0.00     0.226 C 
ATOM      5  O   UNL A   1      30.445  29.250  23.216  1.00  0.00    -0.274 OA
ATOM      6  H   UNL A   1      30.773  31.102  24.498  1.00  0.00     0.163 HD
BRANCH   4   7
ATOM      7  C   UNL A   1      31.960  27.914  24.557  1.00  0.00     0.055 C 
ATOM      8  C   UNL A   1      31.317  27.355  25.871  1.00  0.00     0.022 C 
BRANCH   7   9
ATOM      9  C   UNL A   1      33.443  28.209  24.966  1.00  0.00     0.017 C 
BRANCH   9  10
ATOM     10  C   UNL A   1      33.981  27.803  26.341  1.00  0.00    -0.002 C 
ATOM     11  C   UNL A   1      34.698  28.935  27.068  1.00  0.00     0.004 C 
ENDBRANCH   9  10
ENDBRANCH   7   9
BRANCH   7  12
ATOM     12  C   UNL A   1      31.832  26.800  23.486  1.00  0.00     0.132 C 
BRANCH  12  13
ATOM     13  C   UNL A   1      32.880  26.812  22.382  1.00  0.00     0.390 C 
ATOM     14  F   UNL A   1      33.286  28.057  22.070  1.00  0.00    -0.171 F 
ATOM     15  F   UNL A   1      33.976  26.131  22.797  1.00  0.00    -0.171 F 
ATOM     16  F   UNL A   1      32.447  26.211  21.257  1.00  0.00    -0.171 F 
ENDBRANCH  12  13
ENDBRANCH   7  12
ENDBRANCH   4   7
ENDBRANCH   2   3
ENDBRANCH   1   2
BRANCH   1  17
ATOM     17  C   UNL A   1      32.657  32.769  27.355  1.00  0.00     0.118 C 
BRANCH  17  18
ATOM     18  N   UNL A   1      32.432  34.183  27.652  1.00  0.00    -0.352 N 
ATOM     19  C   UNL A   1      32.999  35.007  28.594  1.00  0.00     0.251 C 
ATOM     20  H   UNL A   1      31.761  34.620  27.078  1.00  0.00     0.163 HD
ATOM     21  O   UNL A   1      32.521  36.118  28.804  1.00  0.00    -0.269 OA
BRANCH  19  22
ATOM     22  C   UNL A   1      34.167  34.550  29.373  1.00  0.00     0.039 A 
ATOM     23  C   UNL A   1      33.976  33.998  30.643  1.00  0.00     0.014 A 
ATOM     24  C   UNL A   1      35.452  34.660  28.848  1.00  0.00     0.014 A 
ATOM     25  C   UNL A   1      35.067  33.468  31.338  1.00  0.00     0.010 A 
ATOM     26  C   UNL A   1      36.512  34.026  29.479  1.00  0.00     0.010 A 
ATOM     27  C   UNL A   1      36.334  33.429  30.736  1.00  0.00    -0.014 A 
BRANCH  27  28
ATOM     28  C   UNL A   1      37.509  32.802  31.394  1.00  0.00     0.031 A 
ATOM     29  C   UNL A   1      38.216  31.661  30.711  1.00  0.00     0.074 A 
ATOM     30  C   UNL A   1      37.872  33.184  32.634  1.00  0.00     0.049 A 
ATOM     31  N   UNL A   1      39.133  30.853  31.179  1.00  0.00    -0.248 NA
ATOM     32  C   UNL A   1      37.801  31.359  29.331  1.00  0.00     0.031 C 
ATOM     33  C   UNL A   1      37.235  34.242  33.421  1.00  0.00     0.029 A 
ATOM     34  N   UNL A   1      38.859  32.709  33.461  1.00  0.00    -0.354 N 
ATOM     35  C   UNL A   1      39.376  29.935  30.165  1.00  0.00     0.074 A 
ATOM     36  C   UNL A   1      38.468  30.242  29.083  1.00  0.00     0.031 C 
ATOM     37  C   UNL A   1      37.861  34.351  34.604  1.00  0.00     0.029 A 
ATOM     38  C   UNL A   1      38.912  33.342  34.681  1.00  0.00     0.049 A 
ATOM     39  H   UNL A   1      39.473  31.982  33.205  1.00  0.00     0.167 HD
ATOM     40  C   UNL A   1      40.299  28.945  30.126  1.00  0.00     0.037 A 
ATOM     41  C   UNL A   1      39.712  33.121  35.741  1.00  0.00     0.037 A 
ATOM     42  C   UNL A   1      41.235  28.678  31.183  1.00  0.00     0.049 A 
ATOM     43  C   UNL A   1      40.742  32.025  35.660  1.00  0.00     0.074 A 
ATOM     44  C   UNL A   1      42.237  27.725  31.229  1.00  0.00     0.029 A 
ATOM     45  N   UNL A   1      41.295  29.383  32.374  1.00  0.00    -0.354 N 
ATOM     46  N   UNL A   1      40.989  31.191  34.680  1.00  0.00    -0.248 NA
ATOM     47  C   UNL A   1      41.608  31.844  36.833  1.00  0.00     0.031 C 
ATOM     48  C   UNL A   1      42.891  27.840  32.459  1.00  0.00     0.029 A 
ATOM     49  C   UNL A   1      42.322  28.890  33.161  1.00  0.00     0.049 A 
ATOM     50  H   UNL A   1      40.698  30.125  32.624  1.00  0.00     0.167 HD
ATOM     51  C   UNL A   1      42.062  30.416  35.100  1.00  0.00     0.074 A 
ATOM     52  C   UNL A   1      42.426  30.887  36.419  1.00  0.00     0.031 C 
ATOM     53  C   UNL A   1      42.688  29.402  34.455  1.00  0.00     0.037 A 
BRANCH  40  54
ATOM     54  C   UNL A   1      40.363  28.102  28.886  1.00  0.00     0.064 A 
ATOM     55  C   UNL A   1      41.138  28.487  27.782  1.00  0.00     0.173 A 
ATOM     56  C   UNL A   1      39.681  26.878  28.815  1.00  0.00     0.173 A 
ATOM     57  F   UNL A   1      41.797  29.656  27.794  1.00  0.00    -0.203 F 
ATOM     58  C   UNL A   1      41.210  27.689  26.643  1.00  0.00     0.198 A 
ATOM     59  C   UNL A   1      39.781  26.069  27.686  1.00  0.00     0.198 A 
ATOM     60  F   UNL A   1      38.929  26.461  29.844  1.00  0.00    -0.203 F 
ATOM     61  F   UNL A   1      41.921  28.101  25.583  1.00  0.00    -0.200 F 
ATOM     62  C   UNL A   1      40.539  26.477  26.599  1.00  0.00     0.200 A 
ATOM     63  F   UNL A   1      39.142  24.890  27.650  1.00  0.00    -0.200 F 
ATOM     64  F   UNL A   1      40.620  25.705  25.507  1.00  0.00    -0.200 F 
ENDBRANCH  40  54
BRANCH  41  65
ATOM     65  C   UNL A   1      39.596  33.961  36.963  1.00  0.00     0.064 A 
ATOM     66  C   UNL A   1      38.818  33.540  38.050  1.00  0.00     0.173 A 
ATOM     67  C   UNL A   1      40.223  35.213  37.056  1.00  0.00     0.173 A 
ATOM     68  F   UNL A   1      38.183  32.359  38.001  1.00  0.00    -0.203 F 
ATOM     69  C   UNL A   1      38.638  34.354  39.167  1.00  0.00     0.198 A 
ATOM     70  C   UNL A   1      40.068  36.011  38.188  1.00  0.00     0.198 A 
ATOM     71  F   UNL A   1      40.986  35.660  36.049  1.00  0.00    -0.203 F 
ATOM     72  F   UNL A   1      37.836  33.951  40.163  1.00  0.00    -0.200 F 
ATOM     73  C   UNL A   1      39.266  35.588  39.237  1.00  0.00     0.200 A 
ATOM     74  F   UNL A   1      40.688  37.198  38.258  1.00  0.00    -0.200 F 
ATOM     75  F   UNL A   1      39.087  36.373  40.308  1.00  0.00    -0.200 F 
ENDBRANCH  41  65
BRANCH  53  76
ATOM     76  C   UNL A   1      43.871  28.781  35.135  1.00  0.00     0.064 A 
ATOM     77  C   UNL A   1      43.733  27.687  36.001  1.00  0.00     0.173 A 
ATOM     78  C   UNL A   1      45.165  29.258  34.873  1.00  0.00     0.173 A 
ATOM     79  F   UNL A   1      42.515  27.207  36.292  1.00  0.00    -0.203 F 
ATOM     80  C   UNL A   1      44.848  27.108  36.601  1.00  0.00     0.198 A 
ATOM     81  C   UNL A   1      46.278  28.657  35.451  1.00  0.00     0.198 A 
ATOM     82  F   UNL A   1      45.348  30.297  34.044  1.00  0.00    -0.203 F 
ATOM     83  F   UNL A   1      44.692  26.092  37.460  1.00  0.00    -0.200 F 
ATOM     84  C   UNL A   1      46.119  27.588  36.319  1.00  0.00     0.200 A 
ATOM     85  F   UNL A   1      47.506  29.112  35.167  1.00  0.00    -0.200 F 
ATOM     86  F   UNL A   1      47.192  27.022  36.889  1.00  0.00    -0.200 F 
ENDBRANCH  53  76
ENDBRANCH  27  28
ENDBRANCH  19  22
ENDBRANCH  17  18
ENDBRANCH   1  17
TORSDOF 14
ENDMDL
MODEL 2
REMARK VINA RESULT:     -11.0      4.996      9.513
REMARK SMILES CCC[C@](C)(CC(F)(F)F)C(=O)NCCCNC(=O)c1ccc(-c2c3nc(c(-c4c(F)c(F)c(F)c(F)c4F)c4ccc([nH]4)c(-c4c(F)c(F)c(F)c(F)c4F)c4nc(c(-c5c(F)c(F)c(F)c(F)c5F)c5ccc2[nH]5)C=C4)C=C3)cc1
REMARK SMILES IDX 15 1 14 2 13 3 11 4 12 5 4 7 5 8 3 9 2 10 1 11 6 12 7 13
REMARK SMILES IDX 8 14 9 15 10 16 16 17 17 18 18 19 19 21 20 22 21 23 82 24
REMARK SMILES IDX 22 25 81 26 23 27 24 28 25 29 75 30 26 31 80 32 74 33 76 34
REMARK SMILES IDX 27 35 79 36 73 37 72 38 28 40 60 41 40 42 59 43 41 44 44 45
REMARK SMILES IDX 58 46 77 47 42 48 43 49 57 51 78 52 45 53 29 54 30 55 38 56
REMARK SMILES IDX 31 57 32 58 36 59 39 60 33 61 34 62 37 63 35 64 61 65 62 66
REMARK SMILES IDX 70 67 63 68 64 69 68 70 71 71 65 72 66 73 69 74 67 75 46 76
REMARK SMILES IDX 47 77 55 78 48 79 49 80 53 81 56 82 50 83 51 84 54 85 52 86
REMARK H PARENT 13 6 17 20 76 39 44 50
REMARK Flexibility Score: inf
ROOT
ATOM      1  C   UNL A   1      41.793  21.698  25.764  1.00  0.00     0.042 C 
ENDROOT
BRANCH   1   2
ATOM      2  C   UNL A   1      42.927  20.809  26.238  1.00  0.00     0.117 C 
BRANCH   2   3
ATOM      3  N   UNL A   1      44.237  21.273  25.833  1.00  0.00    -0.356 N 
ATOM      4  C   UNL A   1      45.050  22.272  26.253  1.00  0.00     0.226 C 
ATOM      5  O   UNL A   1      46.196  22.235  25.789  1.00  0.00    -0.274 OA
ATOM      6  H   UNL A   1      44.620  20.749  25.092  1.00  0.00     0.163 HD
BRANCH   4   7
ATOM      7  C   UNL A   1      44.632  23.385  27.242  1.00  0.00     0.055 C 
ATOM      8  C   UNL A   1      45.946  24.151  27.613  1.00  0.00     0.022 C 
BRANCH   7   9
ATOM      9  C   UNL A   1      44.138  22.810  28.613  1.00  0.00     0.017 C 
BRANCH   9  10
ATOM     10  C   UNL A   1      43.386  23.690  29.615  1.00  0.00    -0.002 C 
ATOM     11  C   UNL A   1      44.151  23.917  30.914  1.00  0.00     0.004 C 
ENDBRANCH   9  10
ENDBRANCH   7   9
BRANCH   7  12
ATOM     12  C   UNL A   1      43.661  24.429  26.633  1.00  0.00     0.132 C 
BRANCH  12  13
ATOM     13  C   UNL A   1      43.990  24.904  25.225  1.00  0.00     0.390 C 
ATOM     14  F   UNL A   1      45.294  25.198  25.070  1.00  0.00    -0.171 F 
ATOM     15  F   UNL A   1      43.700  23.920  24.339  1.00  0.00    -0.171 F 
ATOM     16  F   UNL A   1      43.266  25.981  24.864  1.00  0.00    -0.171 F 
ENDBRANCH  12  13
ENDBRANCH   7  12
ENDBRANCH   4   7
ENDBRANCH   2   3
ENDBRANCH   1   2
BRANCH   1  17
ATOM     17  C   UNL A   1      40.612  21.724  26.722  1.00  0.00     0.118 C 
BRANCH  17  18
ATOM     18  N   UNL A   1      39.375  22.180  26.092  1.00  0.00    -0.352 N 
ATOM     19  C   UNL A   1      38.699  23.372  26.191  1.00  0.00     0.251 C 
ATOM     20  H   UNL A   1      38.953  21.521  25.494  1.00  0.00     0.163 HD
ATOM     21  O   UNL A   1      37.566  23.475  25.729  1.00  0.00    -0.269 OA
BRANCH  19  22
ATOM     22  C   UNL A   1      39.321  24.523  26.876  1.00  0.00     0.039 A 
ATOM     23  C   UNL A   1      40.107  25.419  26.146  1.00  0.00     0.014 A 
ATOM     24  C   UNL A   1      39.123  24.722  28.241  1.00  0.00     0.014 A 
ATOM     25  C   UNL A   1      40.608  26.565  26.770  1.00  0.00     0.010 A 
ATOM     26  C   UNL A   1      39.514  25.917  28.827  1.00  0.00     0.010 A 
ATOM     27  C   UNL A   1      40.269  26.849  28.101  1.00  0.00    -0.014 A 
BRANCH  27  28
ATOM     28  C   UNL A   1      40.704  28.093  28.785  1.00  0.00     0.031 A 
ATOM     29  C   UNL A   1      42.124  28.210  29.272  1.00  0.00     0.074 A 
ATOM     30  C   UNL A   1      39.809  29.064  29.059  1.00  0.00     0.049 A 
ATOM     31  N   UNL A   1      42.665  29.114  30.049  1.00  0.00    -0.248 NA
ATOM     32  C   UNL A   1      43.051  27.139  28.867  1.00  0.00     0.031 C 
ATOM     33  C   UNL A   1      38.393  29.045  28.686  1.00  0.00     0.029 A 
ATOM     34  N   UNL A   1      39.956  30.249  29.734  1.00  0.00    -0.354 N 
ATOM     35  C   UNL A   1      43.977  28.702  30.247  1.00  0.00     0.074 A 
ATOM     36  C   UNL A   1      44.135  27.436  29.566  1.00  0.00     0.031 C 
ATOM     37  C   UNL A   1      37.809  30.176  29.116  1.00  0.00     0.029 A 
ATOM     38  C   UNL A   1      38.794  30.976  29.835  1.00  0.00     0.049 A 
ATOM     39  H   UNL A   1      40.814  30.552  30.111  1.00  0.00     0.167 HD
ATOM     40  C   UNL A   1      44.971  29.338  30.910  1.00  0.00     0.037 A 
ATOM     41  C   UNL A   1      38.553  32.150  30.449  1.00  0.00     0.037 A 
ATOM     42  C   UNL A   1      44.823  30.621  31.539  1.00  0.00     0.049 A 
ATOM     43  C   UNL A   1      39.684  32.844  31.162  1.00  0.00     0.074 A 
ATOM     44  C   UNL A   1      45.776  31.373  32.204  1.00  0.00     0.029 A 
ATOM     45  N   UNL A   1      43.645  31.352  31.564  1.00  0.00    -0.354 N 
ATOM     46  N   UNL A   1      40.930  32.463  31.308  1.00  0.00    -0.248 NA
ATOM     47  C   UNL A   1      39.375  34.136  31.791  1.00  0.00     0.031 C 
ATOM     48  C   UNL A   1      45.168  32.551  32.649  1.00  0.00     0.029 A 
ATOM     49  C   UNL A   1      43.849  32.550  32.228  1.00  0.00     0.049 A 
ATOM     50  H   UNL A   1      42.791  31.063  31.168  1.00  0.00     0.167 HD
ATOM     51  C   UNL A   1      41.560  33.483  32.007  1.00  0.00     0.074 A 
ATOM     52  C   UNL A   1      40.564  34.505  32.246  1.00  0.00     0.031 C 
ATOM     53  C   UNL A   1      42.849  33.567  32.419  1.00  0.00     0.037 A 
BRANCH  40  54
ATOM     54  C   UNL A   1      46.315  28.672  30.956  1.00  0.00     0.064 A 
ATOM     55  C   UNL A   1      47.288  28.924  29.976  1.00  0.00     0.173 A 
ATOM     56  C   UNL A   1      46.652  27.809  32.009  1.00  0.00     0.173 A 
ATOM     57  F   UNL A   1      47.009  29.729  28.940  1.00  0.00    -0.203 F 
ATOM     58  C   UNL A   1      48.540  28.319  30.037  1.00  0.00     0.198 A 
ATOM     59  C   UNL A   1      47.917  27.230  32.082  1.00  0.00     0.198 A 
ATOM     60  F   UNL A   1      45.761  27.537  32.974  1.00  0.00    -0.203 F 
ATOM     61  F   UNL A   1      49.436  28.540  29.064  1.00  0.00    -0.200 F 
ATOM     62  C   UNL A   1      48.857  27.480  31.094  1.00  0.00     0.200 A 
ATOM     63  F   UNL A   1      48.227  26.429  33.112  1.00  0.00    -0.200 F 
ATOM     64  F   UNL A   1      50.067  26.909  31.157  1.00  0.00    -0.200 F 
ENDBRANCH  40  54
BRANCH  41  65
ATOM     65  C   UNL A   1      37.199  32.763  30.404  1.00  0.00     0.064 A 
ATOM     66  C   UNL A   1      36.267  32.515  31.422  1.00  0.00     0.173 A 
ATOM     67  C   UNL A   1      36.792  33.571  29.333  1.00  0.00     0.173 A 
ATOM     68  F   UNL A   1      36.601  31.733  32.460  1.00  0.00    -0.203 F 
ATOM     69  C   UNL A   1      34.969  33.019  31.351  1.00  0.00     0.198 A 
ATOM     70  C   UNL A   1      35.504  34.101  29.279  1.00  0.00     0.198 A 
ATOM     71  F   UNL A   1      37.646  33.848  28.337  1.00  0.00    -0.203 F 
ATOM     72  F   UNL A   1      34.081  32.711  32.308  1.00  0.00    -0.200 F 
ATOM     73  C   UNL A   1      34.590  33.814  30.281  1.00  0.00     0.200 A 
ATOM     74  F   UNL A   1      35.145  34.881  28.250  1.00  0.00    -0.200 F 
ATOM     75  F   UNL A   1      33.340  34.292  30.210  1.00  0.00    -0.200 F 
ENDBRANCH  41  65
BRANCH  53  76
ATOM     76  C   UNL A   1      43.270  34.829  33.108  1.00  0.00     0.064 A 
ATOM     77  C   UNL A   1      43.682  35.960  32.388  1.00  0.00     0.173 A 
ATOM     78  C   UNL A   1      43.212  34.921  34.507  1.00  0.00     0.173 A 
ATOM     79  F   UNL A   1      43.767  35.914  31.051  1.00  0.00    -0.203 F 
ATOM     80  C   UNL A   1      44.044  37.132  33.047  1.00  0.00     0.198 A 
ATOM     81  C   UNL A   1      43.547  36.104  35.160  1.00  0.00     0.198 A 
ATOM     82  F   UNL A   1      42.816  33.868  35.239  1.00  0.00    -0.203 F 
ATOM     83  F   UNL A   1      44.477  38.187  32.344  1.00  0.00    -0.200 F 
ATOM     84  C   UNL A   1      43.968  37.205  34.431  1.00  0.00     0.200 A 
ATOM     85  F   UNL A   1      43.459  36.177  36.495  1.00  0.00    -0.200 F 
ATOM     86  F   UNL A   1      44.307  38.337  35.062  1.00  0.00    -0.200 F 
ENDBRANCH  53  76
ENDBRANCH  27  28
ENDBRANCH  19  22
ENDBRANCH  17  18
ENDBRANCH   1  17
TORSDOF 14
ENDMDL
MODEL 3
REMARK VINA RESULT:     -11.0      1.137      1.935
REMARK SMILES CCC[C@](C)(CC(F)(F)F)C(=O)NCCCNC(=O)c1ccc(-c2c3nc(c(-c4c(F)c(F)c(F)c(F)c4F)c4ccc([nH]4)c(-c4c(F)c(F)c(F)c(F)c4F)c4nc(c(-c5c(F)c(F)c(F)c(F)c5F)c5ccc2[nH]5)C=C4)C=C3)cc1
REMARK SMILES IDX 15 1 14 2 13 3 11 4 12 5 4 7 5 8 3 9 2 10 1 11 6 12 7 13
REMARK SMILES IDX 8 14 9 15 10 16 16 17 17 18 18 19 19 21 20 22 21 23 82 24
REMARK SMILES IDX 22 25 81 26 23 27 24 28 25 29 75 30 26 31 80 32 74 33 76 34
REMARK SMILES IDX 27 35 79 36 73 37 72 38 28 40 60 41 40 42 59 43 41 44 44 45
REMARK SMILES IDX 58 46 77 47 42 48 43 49 57 51 78 52 45 53 29 54 30 55 38 56
REMARK SMILES IDX 31 57 32 58 36 59 39 60 33 61 34 62 37 63 35 64 61 65 62 66
REMARK SMILES IDX 70 67 63 68 64 69 68 70 71 71 65 72 66 73 69 74 67 75 46 76
REMARK SMILES IDX 47 77 55 78 48 79 49 80 53 81 56 82 50 83 51 84 54 85 52 86
REMARK H PARENT 13 6 17 20 76 39 44 50
REMARK Flexibility Score: inf
ROOT
ATOM      1  C   UNL A   1      31.416  32.006  26.742  1.00  0.00     0.042 C 
ENDROOT
BRANCH   1   2
ATOM      2  C   UNL A   1      31.743  30.696  26.053  1.00  0.00     0.117 C 
BRANCH   2   3
ATOM      3  N   UNL A   1      32.918  30.037  26.584  1.00  0.00    -0.356 N 
ATOM      4  C   UNL A   1      33.475  28.816  26.396  1.00  0.00     0.226 C 
ATOM      5  O   UNL A   1      34.605  28.684  26.880  1.00  0.00    -0.274 OA
ATOM      6  H   UNL A   1      33.421  30.598  27.219  1.00  0.00     0.163 HD
BRANCH   4   7
ATOM      7  C   UNL A   1      32.799  27.654  25.632  1.00  0.00     0.055 C 
ATOM      8  C   UNL A   1      33.775  26.435  25.748  1.00  0.00     0.022 C 
BRANCH   7   9
ATOM      9  C   UNL A   1      32.718  27.919  24.091  1.00  0.00     0.017 C 
BRANCH   9  10
ATOM     10  C   UNL A   1      33.545  27.094  23.101  1.00  0.00    -0.002 C 
ATOM     11  C   UNL A   1      32.702  26.410  22.031  1.00  0.00     0.004 C 
ENDBRANCH   9  10
ENDBRANCH   7   9
BRANCH   7  12
ATOM     12  C   UNL A   1      31.447  27.206  26.247  1.00  0.00     0.132 C 
BRANCH  12  13
ATOM     13  C   UNL A   1      30.580  26.312  25.372  1.00  0.00     0.390 C 
ATOM     14  F   UNL A   1      31.265  25.276  24.853  1.00  0.00    -0.171 F 
ATOM     15  F   UNL A   1      29.579  25.787  26.120  1.00  0.00    -0.171 F 
ATOM     16  F   UNL A   1      30.001  26.988  24.361  1.00  0.00    -0.171 F 
ENDBRANCH  12  13
ENDBRANCH   7  12
ENDBRANCH   4   7
ENDBRANCH   2   3
ENDBRANCH   1   2
BRANCH   1  17
ATOM     17  C   UNL A   1      32.636  32.683  27.350  1.00  0.00     0.118 C 
BRANCH  17  18
ATOM     18  N   UNL A   1      32.423  34.102  27.627  1.00  0.00    -0.352 N 
ATOM     19  C   UNL A   1      32.998  34.935  28.556  1.00  0.00     0.251 C 
ATOM     20  H   UNL A   1      31.754  34.536  27.049  1.00  0.00     0.163 HD
ATOM     21  O   UNL A   1      32.529  36.053  28.751  1.00  0.00    -0.269 OA
BRANCH  19  22
ATOM     22  C   UNL A   1      34.163  34.480  29.340  1.00  0.00     0.039 A 
ATOM     23  C   UNL A   1      33.968  33.917  30.605  1.00  0.00     0.014 A 
ATOM     24  C   UNL A   1      35.452  34.603  28.825  1.00  0.00     0.014 A 
ATOM     25  C   UNL A   1      35.058  33.390  31.303  1.00  0.00     0.010 A 
ATOM     26  C   UNL A   1      36.511  33.970  29.459  1.00  0.00     0.010 A 
ATOM     27  C   UNL A   1      36.329  33.363  30.709  1.00  0.00    -0.014 A 
BRANCH  27  28
ATOM     28  C   UNL A   1      37.503  32.739  31.371  1.00  0.00     0.031 A 
ATOM     29  C   UNL A   1      38.233  31.620  30.677  1.00  0.00     0.074 A 
ATOM     30  C   UNL A   1      37.846  33.103  32.623  1.00  0.00     0.049 A 
ATOM     31  N   UNL A   1      39.154  30.815  31.142  1.00  0.00    -0.248 NA
ATOM     32  C   UNL A   1      37.839  31.338  29.286  1.00  0.00     0.031 C 
ATOM     33  C   UNL A   1      37.185  34.138  33.421  1.00  0.00     0.029 A 
ATOM     34  N   UNL A   1      38.828  32.624  33.453  1.00  0.00    -0.354 N 
ATOM     35  C   UNL A   1      39.423  29.919  30.114  1.00  0.00     0.074 A 
ATOM     36  C   UNL A   1      38.524  30.235  29.026  1.00  0.00     0.031 C 
ATOM     37  C   UNL A   1      37.795  34.233  34.613  1.00  0.00     0.029 A 
ATOM     38  C   UNL A   1      38.857  33.236  34.685  1.00  0.00     0.049 A 
ATOM     39  H   UNL A   1      39.455  31.911  33.192  1.00  0.00     0.167 HD
ATOM     40  C   UNL A   1      40.358  28.942  30.069  1.00  0.00     0.037 A 
ATOM     41  C   UNL A   1      39.647  33.005  35.751  1.00  0.00     0.037 A 
ATOM     42  C   UNL A   1      41.285  28.667  31.132  1.00  0.00     0.049 A 
ATOM     43  C   UNL A   1      40.692  31.924  35.664  1.00  0.00     0.074 A 
ATOM     44  C   UNL A   1      42.298  27.726  31.174  1.00  0.00     0.029 A 
ATOM     45  N   UNL A   1      41.321  29.351  32.337  1.00  0.00    -0.354 N 
ATOM     46  N   UNL A   1      40.962  31.111  34.671  1.00  0.00    -0.248 NA
ATOM     47  C   UNL A   1      41.546  31.732  36.844  1.00  0.00     0.031 C 
ATOM     48  C   UNL A   1      42.934  27.827  32.414  1.00  0.00     0.029 A 
ATOM     49  C   UNL A   1      42.343  28.856  33.128  1.00  0.00     0.049 A 
ATOM     50  H   UNL A   1      40.711  30.080  32.593  1.00  0.00     0.167 HD
ATOM     51  C   UNL A   1      42.039  30.343  35.091  1.00  0.00     0.074 A 
ATOM     52  C   UNL A   1      42.381  30.794  36.423  1.00  0.00     0.031 C 
ATOM     53  C   UNL A   1      42.687  29.349  34.436  1.00  0.00     0.037 A 
BRANCH  40  54
ATOM     54  C   UNL A   1      40.449  28.123  28.814  1.00  0.00     0.064 A 
ATOM     55  C   UNL A   1      41.250  28.528  27.735  1.00  0.00     0.173 A 
ATOM     56  C   UNL A   1      39.767  26.902  28.704  1.00  0.00     0.173 A 
ATOM     57  F   UNL A   1      41.910  29.694  27.785  1.00  0.00    -0.203 F 
ATOM     58  C   UNL A   1      41.346  27.752  26.584  1.00  0.00     0.198 A 
ATOM     59  C   UNL A   1      39.890  26.115  27.562  1.00  0.00     0.198 A 
ATOM     60  F   UNL A   1      38.990  26.467  29.708  1.00  0.00    -0.203 F 
ATOM     61  F   UNL A   1      42.082  28.182  25.548  1.00  0.00    -0.200 F 
ATOM     62  C   UNL A   1      40.674  26.542  26.501  1.00  0.00     0.200 A 
ATOM     63  F   UNL A   1      39.250  24.938  27.488  1.00  0.00    -0.200 F 
ATOM     64  F   UNL A   1      40.778  25.791  25.396  1.00  0.00    -0.200 F 
ENDBRANCH  40  54
BRANCH  41  65
ATOM     65  C   UNL A   1      39.505  33.821  36.986  1.00  0.00     0.064 A 
ATOM     66  C   UNL A   1      38.734  33.362  38.063  1.00  0.00     0.173 A 
ATOM     67  C   UNL A   1      40.098  35.087  37.104  1.00  0.00     0.173 A 
ATOM     68  F   UNL A   1      38.130  32.165  37.992  1.00  0.00    -0.203 F 
ATOM     69  C   UNL A   1      38.529  34.151  39.193  1.00  0.00     0.198 A 
ATOM     70  C   UNL A   1      39.919  35.861  38.249  1.00  0.00     0.198 A 
ATOM     71  F   UNL A   1      40.853  35.571  36.108  1.00  0.00    -0.203 F 
ATOM     72  F   UNL A   1      37.734  33.711  40.179  1.00  0.00    -0.200 F 
ATOM     73  C   UNL A   1      39.124  35.399  39.286  1.00  0.00     0.200 A 
ATOM     74  F   UNL A   1      40.507  37.062  38.341  1.00  0.00    -0.200 F 
ATOM     75  F   UNL A   1      38.921  36.161  40.370  1.00  0.00    -0.200 F 
ENDBRANCH  41  65
BRANCH  53  76
ATOM     76  C   UNL A   1      43.869  28.730  35.119  1.00  0.00     0.064 A 
ATOM     77  C   UNL A   1      45.166  29.235  34.949  1.00  0.00     0.173 A 
ATOM     78  C   UNL A   1      43.690  27.648  35.994  1.00  0.00     0.173 A 
ATOM     79  F   UNL A   1      45.387  30.259  34.111  1.00  0.00    -0.203 F 
ATOM     80  C   UNL A   1      46.247  28.663  35.614  1.00  0.00     0.198 A 
ATOM     81  C   UNL A   1      44.769  27.098  36.679  1.00  0.00     0.198 A 
ATOM     82  F   UNL A   1      42.467  27.136  36.195  1.00  0.00    -0.203 F 
ATOM     83  F   UNL A   1      47.484  29.132  35.404  1.00  0.00    -0.200 F 
ATOM     84  C   UNL A   1      46.046  27.601  36.484  1.00  0.00     0.200 A 
ATOM     85  F   UNL A   1      44.572  26.082  37.530  1.00  0.00    -0.200 F 
ATOM     86  F   UNL A   1      47.087  27.058  37.130  1.00  0.00    -0.200 F 
ENDBRANCH  53  76
ENDBRANCH  27  28
ENDBRANCH  19  22
ENDBRANCH  17  18
ENDBRANCH   1  17
TORSDOF 14
ENDMDL
