MODEL 1
REMARK VINA RESULT:     -12.2      0.000      0.000
REMARK SMILES C[NH2+][C@]1(C(=O)NCCCNC(=O)c2ccc(-c3c4nc(c(-c5c(F)c(F)c(F)c(F)c5F)c5ccc([nH]5)c(-c5c(F)c(F)c(F)c(F)c5F)c5nc(c(-c6c(F)c(F)c(F)c(F)c6F)c6ccc3[nH]6)C=C5)C=C4)cc2)CCCCC1(C)C
REMARK SMILES IDX 8 1 7 2 6 3 4 4 5 5 3 7 76 8 80 9 77 10 79 11 81 12 82 13
REMARK SMILES IDX 78 14 2 15 1 16 9 19 10 20 11 21 12 23 13 24 14 25 75 26
REMARK SMILES IDX 15 27 74 28 16 29 17 30 18 31 68 32 19 33 73 34 67 35 69 36
REMARK SMILES IDX 20 37 72 38 66 39 65 40 21 42 53 43 33 44 52 45 34 46 37 47
REMARK SMILES IDX 51 48 70 49 35 50 36 51 50 53 71 54 38 55 22 56 23 57 31 58
REMARK SMILES IDX 24 59 25 60 29 61 32 62 26 63 27 64 30 65 28 66 54 67 55 68
REMARK SMILES IDX 63 69 56 70 57 71 61 72 64 73 58 74 59 75 62 76 60 77 39 78
REMARK SMILES IDX 40 79 48 80 41 81 42 82 46 83 49 84 43 85 44 86 47 87 45 88
REMARK H PARENT 6 6 2 17 2 18 10 22 69 41 37 52
REMARK Flexibility Score: inf
ROOT
ATOM      1  C   UNL A   1      31.483  32.188  26.546  1.00  0.00     0.042 C 
ENDROOT
BRANCH   1   2
ATOM      2  C   UNL A   1      31.559  30.674  26.424  1.00  0.00     0.118 C 
BRANCH   2   3
ATOM      3  N   UNL A   1      31.469  30.211  25.046  1.00  0.00    -0.351 N 
ATOM      4  C   UNL A   1      31.936  29.108  24.388  1.00  0.00     0.281 C 
ATOM      5  O   UNL A   1      31.595  29.048  23.201  1.00  0.00    -0.268 OA
ATOM      6  H   UNL A   1      30.964  30.823  24.464  1.00  0.00     0.163 HD
BRANCH   4   7
ATOM      7  C   UNL A   1      32.883  28.003  25.060  1.00  0.00     0.180 C 
ATOM      8  C   UNL A   1      32.162  27.514  26.358  1.00  0.00     0.080 C 
ATOM      9  C   UNL A   1      33.063  26.801  24.023  1.00  0.00     0.029 C 
ATOM     10  C   UNL A   1      30.917  26.647  26.160  1.00  0.00     0.007 C 
ATOM     11  C   UNL A   1      31.715  26.034  23.856  1.00  0.00     0.013 C 
ATOM     12  C   UNL A   1      33.489  27.276  22.616  1.00  0.00     0.018 C 
ATOM     13  C   UNL A   1      34.123  25.761  24.458  1.00  0.00     0.018 C 
ATOM     14  C   UNL A   1      31.147  25.519  25.173  1.00  0.00     0.001 C 
BRANCH   7  15
ATOM     15  N   UNL A   1      34.102  28.749  25.484  1.00  0.00    -0.336 N 
ATOM     16  C   UNL A   1      34.520  28.794  26.869  1.00  0.00     0.331 C 
ATOM     17  H   UNL A   1      34.881  28.347  24.962  1.00  0.00     0.346 HD
ATOM     18  H   UNL A   1      33.839  29.718  25.305  1.00  0.00     0.346 HD
ENDBRANCH   7  15
ENDBRANCH   4   7
ENDBRANCH   2   3
ENDBRANCH   1   2
BRANCH   1  19
ATOM     19  C   UNL A   1      32.589  32.803  27.384  1.00  0.00     0.118 C 
BRANCH  19  20
ATOM     20  N   UNL A   1      32.365  34.215  27.668  1.00  0.00    -0.352 N 
ATOM     21  C   UNL A   1      32.956  35.036  28.599  1.00  0.00     0.251 C 
ATOM     22  H   UNL A   1      31.684  34.648  27.106  1.00  0.00     0.163 HD
ATOM     23  O   UNL A   1      32.491  36.148  28.820  1.00  0.00    -0.269 OA
BRANCH  21  24
ATOM     24  C   UNL A   1      34.135  34.567  29.359  1.00  0.00     0.039 A 
ATOM     25  C   UNL A   1      33.958  34.071  30.653  1.00  0.00     0.014 A 
ATOM     26  C   UNL A   1      35.412  34.613  28.797  1.00  0.00     0.014 A 
ATOM     27  C   UNL A   1      35.050  33.540  31.345  1.00  0.00     0.010 A 
ATOM     28  C   UNL A   1      36.471  33.985  29.439  1.00  0.00     0.010 A 
ATOM     29  C   UNL A   1      36.306  33.448  30.724  1.00  0.00    -0.014 A 
BRANCH  29  30
ATOM     30  C   UNL A   1      37.465  32.808  31.394  1.00  0.00     0.031 A 
ATOM     31  C   UNL A   1      38.150  31.634  30.748  1.00  0.00     0.074 A 
ATOM     32  C   UNL A   1      37.842  33.218  32.620  1.00  0.00     0.049 A 
ATOM     33  N   UNL A   1      39.097  30.863  31.219  1.00  0.00    -0.248 NA
ATOM     34  C   UNL A   1      37.678  31.253  29.407  1.00  0.00     0.031 C 
ATOM     35  C   UNL A   1      37.223  34.307  33.376  1.00  0.00     0.029 A 
ATOM     36  N   UNL A   1      38.826  32.752  33.459  1.00  0.00    -0.354 N 
ATOM     37  C   UNL A   1      39.318  29.899  30.244  1.00  0.00     0.074 A 
ATOM     38  C   UNL A   1      38.361  30.141  29.186  1.00  0.00     0.031 C 
ATOM     39  C   UNL A   1      37.847  34.436  34.556  1.00  0.00     0.029 A 
ATOM     40  C   UNL A   1      38.879  33.408  34.663  1.00  0.00     0.049 A 
ATOM     41  H   UNL A   1      39.435  32.017  33.217  1.00  0.00     0.167 HD
ATOM     42  C   UNL A   1      40.250  28.917  30.221  1.00  0.00     0.037 A 
ATOM     43  C   UNL A   1      39.657  33.194  35.742  1.00  0.00     0.037 A 
ATOM     44  C   UNL A   1      41.211  28.696  31.268  1.00  0.00     0.049 A 
ATOM     45  C   UNL A   1      40.680  32.091  35.699  1.00  0.00     0.074 A 
ATOM     46  C   UNL A   1      42.240  27.773  31.313  1.00  0.00     0.029 A 
ATOM     47  N   UNL A   1      41.254  29.403  32.462  1.00  0.00    -0.354 N 
ATOM     48  N   UNL A   1      40.934  31.234  34.739  1.00  0.00    -0.248 NA
ATOM     49  C   UNL A   1      41.530  31.928  36.886  1.00  0.00     0.031 C 
ATOM     50  C   UNL A   1      42.867  27.880  32.559  1.00  0.00     0.029 A 
ATOM     51  C   UNL A   1      42.272  28.914  33.264  1.00  0.00     0.049 A 
ATOM     52  H   UNL A   1      40.649  30.142  32.703  1.00  0.00     0.167 HD
ATOM     53  C   UNL A   1      41.986  30.451  35.192  1.00  0.00     0.074 A 
ATOM     54  C   UNL A   1      42.333  30.942  36.510  1.00  0.00     0.031 C 
ATOM     55  C   UNL A   1      42.610  29.419  34.572  1.00  0.00     0.037 A 
BRANCH  42  56
ATOM     56  C   UNL A   1      40.267  28.007  29.024  1.00  0.00     0.064 A 
ATOM     57  C   UNL A   1      39.559  26.795  29.005  1.00  0.00     0.173 A 
ATOM     58  C   UNL A   1      40.992  28.358  27.875  1.00  0.00     0.173 A 
ATOM     59  F   UNL A   1      38.857  26.406  30.080  1.00  0.00    -0.203 F 
ATOM     60  C   UNL A   1      39.612  25.949  27.900  1.00  0.00     0.198 A 
ATOM     61  C   UNL A   1      41.010  27.528  26.756  1.00  0.00     0.198 A 
ATOM     62  F   UNL A   1      41.681  29.508  27.832  1.00  0.00    -0.203 F 
ATOM     63  F   UNL A   1      38.982  24.766  27.934  1.00  0.00    -0.200 F 
ATOM     64  C   UNL A   1      40.332  26.319  26.775  1.00  0.00     0.200 A 
ATOM     65  F   UNL A   1      41.694  27.894  25.663  1.00  0.00    -0.200 F 
ATOM     66  F   UNL A   1      40.380  25.505  25.711  1.00  0.00    -0.200 F 
ENDBRANCH  42  56
BRANCH  43  67
ATOM     67  C   UNL A   1      39.500  34.050  36.947  1.00  0.00     0.064 A 
ATOM     68  C   UNL A   1      38.752  33.620  38.049  1.00  0.00     0.173 A 
ATOM     69  C   UNL A   1      40.108  35.313  37.026  1.00  0.00     0.173 A 
ATOM     70  F   UNL A   1      38.136  32.429  38.016  1.00  0.00    -0.203 F 
ATOM     71  C   UNL A   1      38.600  34.424  39.178  1.00  0.00     0.198 A 
ATOM     72  C   UNL A   1      39.983  36.103  38.166  1.00  0.00     0.198 A 
ATOM     73  F   UNL A   1      40.843  35.770  36.002  1.00  0.00    -0.203 F 
ATOM     74  F   UNL A   1      37.842  34.005  40.199  1.00  0.00    -0.200 F 
ATOM     75  C   UNL A   1      39.223  35.662  39.238  1.00  0.00     0.200 A 
ATOM     76  F   UNL A   1      40.600  37.291  38.228  1.00  0.00    -0.200 F 
ATOM     77  F   UNL A   1      39.085  36.431  40.326  1.00  0.00    -0.200 F 
ENDBRANCH  43  67
BRANCH  55  78
ATOM     78  C   UNL A   1      43.757  28.769  35.290  1.00  0.00     0.064 A 
ATOM     79  C   UNL A   1      45.080  29.200  35.114  1.00  0.00     0.173 A 
ATOM     80  C   UNL A   1      43.520  27.738  36.213  1.00  0.00     0.173 A 
ATOM     81  F   UNL A   1      45.362  30.172  34.232  1.00  0.00    -0.203 F 
ATOM     82  C   UNL A   1      46.125  28.611  35.822  1.00  0.00     0.198 A 
ATOM     83  C   UNL A   1      44.563  27.175  36.943  1.00  0.00     0.198 A 
ATOM     84  F   UNL A   1      42.272  27.293  36.424  1.00  0.00    -0.203 F 
ATOM     85  F   UNL A   1      47.386  29.011  35.606  1.00  0.00    -0.200 F 
ATOM     86  C   UNL A   1      45.864  27.607  36.742  1.00  0.00     0.200 A 
ATOM     87  F   UNL A   1      44.307  26.217  37.845  1.00  0.00    -0.200 F 
ATOM     88  F   UNL A   1      46.870  27.053  37.434  1.00  0.00    -0.200 F 
ENDBRANCH  55  78
ENDBRANCH  29  30
ENDBRANCH  21  24
ENDBRANCH  19  20
ENDBRANCH   1  19
TORSDOF 11
ENDMDL
MODEL 2
REMARK VINA RESULT:     -12.2      0.166      1.667
REMARK SMILES C[NH2+][C@]1(C(=O)NCCCNC(=O)c2ccc(-c3c4nc(c(-c5c(F)c(F)c(F)c(F)c5F)c5ccc([nH]5)c(-c5c(F)c(F)c(F)c(F)c5F)c5nc(c(-c6c(F)c(F)c(F)c(F)c6F)c6ccc3[nH]6)C=C5)C=C4)cc2)CCCCC1(C)C
REMARK SMILES IDX 8 1 7 2 6 3 4 4 5 5 3 7 76 8 80 9 77 10 79 11 81 12 82 13
REMARK SMILES IDX 78 14 2 15 1 16 9 19 10 20 11 21 12 23 13 24 14 25 75 26
REMARK SMILES IDX 15 27 74 28 16 29 17 30 18 31 68 32 19 33 73 34 67 35 69 36
REMARK SMILES IDX 20 37 72 38 66 39 65 40 21 42 53 43 33 44 52 45 34 46 37 47
REMARK SMILES IDX 51 48 70 49 35 50 36 51 50 53 71 54 38 55 22 56 23 57 31 58
REMARK SMILES IDX 24 59 25 60 29 61 32 62 26 63 27 64 30 65 28 66 54 67 55 68
REMARK SMILES IDX 63 69 56 70 57 71 61 72 64 73 58 74 59 75 62 76 60 77 39 78
REMARK SMILES IDX 40 79 48 80 41 81 42 82 46 83 49 84 43 85 44 86 47 87 45 88
REMARK H PARENT 6 6 2 17 2 18 10 22 69 41 37 52
REMARK Flexibility Score: inf
ROOT
ATOM      1  C   UNL A   1      31.511  32.218  26.594  1.00  0.00     0.042 C 
ENDROOT
BRANCH   1   2
ATOM      2  C   UNL A   1      31.574  30.702  26.498  1.00  0.00     0.118 C 
BRANCH   2   3
ATOM      3  N   UNL A   1      31.601  30.222  25.123  1.00  0.00    -0.351 N 
ATOM      4  C   UNL A   1      32.143  29.123  24.517  1.00  0.00     0.281 C 
ATOM      5  O   UNL A   1      31.895  29.042  23.308  1.00  0.00    -0.268 OA
ATOM      6  H   UNL A   1      31.127  30.815  24.496  1.00  0.00     0.163 HD
BRANCH   4   7
ATOM      7  C   UNL A   1      33.062  28.050  25.272  1.00  0.00     0.180 C 
ATOM      8  C   UNL A   1      32.359  27.724  26.630  1.00  0.00     0.080 C 
ATOM      9  C   UNL A   1      33.163  26.745  24.357  1.00  0.00     0.029 C 
ATOM     10  C   UNL A   1      31.074  26.897  26.550  1.00  0.00     0.007 C 
ATOM     11  C   UNL A   1      31.781  26.025  24.300  1.00  0.00     0.013 C 
ATOM     12  C   UNL A   1      33.569  27.059  22.900  1.00  0.00     0.018 C 
ATOM     13  C   UNL A   1      34.192  25.708  24.868  1.00  0.00     0.018 C 
ATOM     14  C   UNL A   1      31.230  25.668  25.675  1.00  0.00     0.001 C 
BRANCH   7  15
ATOM     15  N   UNL A   1      34.323  28.780  25.590  1.00  0.00    -0.336 N 
ATOM     16  C   UNL A   1      34.738  29.017  26.957  1.00  0.00     0.331 C 
ATOM     17  H   UNL A   1      35.078  28.256  25.148  1.00  0.00     0.346 HD
ATOM     18  H   UNL A   1      34.119  29.723  25.258  1.00  0.00     0.346 HD
ENDBRANCH   7  15
ENDBRANCH   4   7
ENDBRANCH   2   3
ENDBRANCH   1   2
BRANCH   1  19
ATOM     19  C   UNL A   1      32.650  32.841  27.382  1.00  0.00     0.118 C 
BRANCH  19  20
ATOM     20  N   UNL A   1      32.430  34.250  27.677  1.00  0.00    -0.352 N 
ATOM     21  C   UNL A   1      33.013  35.060  28.623  1.00  0.00     0.251 C 
ATOM     22  H   UNL A   1      31.757  34.692  27.110  1.00  0.00     0.163 HD
ATOM     23  O   UNL A   1      32.550  36.172  28.849  1.00  0.00    -0.269 OA
BRANCH  21  24
ATOM     24  C   UNL A   1      34.180  34.579  29.392  1.00  0.00     0.039 A 
ATOM     25  C   UNL A   1      33.974  33.961  30.628  1.00  0.00     0.014 A 
ATOM     26  C   UNL A   1      35.476  34.731  28.896  1.00  0.00     0.014 A 
ATOM     27  C   UNL A   1      35.061  33.419  31.321  1.00  0.00     0.010 A 
ATOM     28  C   UNL A   1      36.537  34.096  29.528  1.00  0.00     0.010 A 
ATOM     29  C   UNL A   1      36.344  33.440  30.753  1.00  0.00    -0.014 A 
BRANCH  29  30
ATOM     30  C   UNL A   1      37.504  32.794  31.417  1.00  0.00     0.031 A 
ATOM     31  C   UNL A   1      38.178  31.615  30.769  1.00  0.00     0.074 A 
ATOM     32  C   UNL A   1      37.892  33.206  32.639  1.00  0.00     0.049 A 
ATOM     33  N   UNL A   1      39.123  30.840  31.236  1.00  0.00    -0.248 NA
ATOM     34  C   UNL A   1      37.695  31.233  29.433  1.00  0.00     0.031 C 
ATOM     35  C   UNL A   1      37.284  34.301  33.396  1.00  0.00     0.029 A 
ATOM     36  N   UNL A   1      38.878  32.737  33.472  1.00  0.00    -0.354 N 
ATOM     37  C   UNL A   1      39.332  29.872  30.262  1.00  0.00     0.074 A 
ATOM     38  C   UNL A   1      38.370  30.117  29.210  1.00  0.00     0.031 C 
ATOM     39  C   UNL A   1      37.917  34.430  34.572  1.00  0.00     0.029 A 
ATOM     40  C   UNL A   1      38.943  33.396  34.675  1.00  0.00     0.049 A 
ATOM     41  H   UNL A   1      39.481  31.997  33.229  1.00  0.00     0.167 HD
ATOM     42  C   UNL A   1      40.258  28.885  30.235  1.00  0.00     0.037 A 
ATOM     43  C   UNL A   1      39.727  33.180  35.749  1.00  0.00     0.037 A 
ATOM     44  C   UNL A   1      41.225  28.661  31.277  1.00  0.00     0.049 A 
ATOM     45  C   UNL A   1      40.743  32.071  35.702  1.00  0.00     0.074 A 
ATOM     46  C   UNL A   1      42.249  27.732  31.318  1.00  0.00     0.029 A 
ATOM     47  N   UNL A   1      41.280  29.371  32.468  1.00  0.00    -0.354 N 
ATOM     48  N   UNL A   1      40.986  31.210  34.743  1.00  0.00    -0.248 NA
ATOM     49  C   UNL A   1      41.600  31.906  36.884  1.00  0.00     0.031 C 
ATOM     50  C   UNL A   1      42.885  27.839  32.559  1.00  0.00     0.029 A 
ATOM     51  C   UNL A   1      42.301  28.878  33.266  1.00  0.00     0.049 A 
ATOM     52  H   UNL A   1      40.681  30.114  32.712  1.00  0.00     0.167 HD
ATOM     53  C   UNL A   1      42.037  30.422  35.191  1.00  0.00     0.074 A 
ATOM     54  C   UNL A   1      42.395  30.915  36.505  1.00  0.00     0.031 C 
ATOM     55  C   UNL A   1      42.650  29.385  34.570  1.00  0.00     0.037 A 
BRANCH  42  56
ATOM     56  C   UNL A   1      40.263  27.971  29.041  1.00  0.00     0.064 A 
ATOM     57  C   UNL A   1      40.959  28.292  27.866  1.00  0.00     0.173 A 
ATOM     58  C   UNL A   1      39.571  26.751  29.078  1.00  0.00     0.173 A 
ATOM     59  F   UNL A   1      41.630  29.450  27.772  1.00  0.00    -0.203 F 
ATOM     60  C   UNL A   1      40.926  27.449  26.758  1.00  0.00     0.198 A 
ATOM     61  C   UNL A   1      39.573  25.891  27.982  1.00  0.00     0.198 A 
ATOM     62  F   UNL A   1      38.894  26.387  30.178  1.00  0.00    -0.203 F 
ATOM     63  F   UNL A   1      41.544  27.811  25.624  1.00  0.00    -0.200 F 
ATOM     64  C   UNL A   1      40.239  26.247  26.819  1.00  0.00     0.200 A 
ATOM     65  F   UNL A   1      38.922  24.722  28.048  1.00  0.00    -0.200 F 
ATOM     66  F   UNL A   1      40.210  25.435  25.753  1.00  0.00    -0.200 F 
ENDBRANCH  42  56
BRANCH  43  67
ATOM     67  C   UNL A   1      39.583  34.040  36.952  1.00  0.00     0.064 A 
ATOM     68  C   UNL A   1      40.217  35.288  37.031  1.00  0.00     0.173 A 
ATOM     69  C   UNL A   1      38.799  33.639  38.045  1.00  0.00     0.173 A 
ATOM     70  F   UNL A   1      40.993  35.708  36.021  1.00  0.00    -0.203 F 
ATOM     71  C   UNL A   1      40.088  36.093  38.161  1.00  0.00     0.198 A 
ATOM     72  C   UNL A   1      38.644  34.458  39.161  1.00  0.00     0.198 A 
ATOM     73  F   UNL A   1      38.164  32.458  38.018  1.00  0.00    -0.203 F 
ATOM     74  F   UNL A   1      40.740  37.261  38.227  1.00  0.00    -0.200 F 
ATOM     75  C   UNL A   1      39.295  35.681  39.222  1.00  0.00     0.200 A 
ATOM     76  F   UNL A   1      37.863  34.064  40.175  1.00  0.00    -0.200 F 
ATOM     77  F   UNL A   1      39.163  36.459  40.304  1.00  0.00    -0.200 F 
ENDBRANCH  43  67
BRANCH  55  78
ATOM     78  C   UNL A   1      43.799  28.730  35.282  1.00  0.00     0.064 A 
ATOM     79  C   UNL A   1      45.118  29.181  35.129  1.00  0.00     0.173 A 
ATOM     80  C   UNL A   1      43.565  27.673  36.177  1.00  0.00     0.173 A 
ATOM     81  F   UNL A   1      45.396  30.177  34.275  1.00  0.00    -0.203 F 
ATOM     82  C   UNL A   1      46.163  28.586  35.831  1.00  0.00     0.198 A 
ATOM     83  C   UNL A   1      44.608  27.104  36.902  1.00  0.00     0.198 A 
ATOM     84  F   UNL A   1      42.321  27.209  36.365  1.00  0.00    -0.203 F 
ATOM     85  F   UNL A   1      47.422  29.006  35.638  1.00  0.00    -0.200 F 
ATOM     86  C   UNL A   1      45.906  27.556  36.724  1.00  0.00     0.200 A 
ATOM     87  F   UNL A   1      44.355  26.121  37.777  1.00  0.00    -0.200 F 
ATOM     88  F   UNL A   1      46.911  26.996  37.411  1.00  0.00    -0.200 F 
ENDBRANCH  55  78
ENDBRANCH  29  30
ENDBRANCH  21  24
ENDBRANCH  19  20
ENDBRANCH   1  19
TORSDOF 11
ENDMDL
MODEL 3
REMARK VINA RESULT:     -12.2      0.185      2.040
REMARK SMILES C[NH2+][C@]1(C(=O)NCCCNC(=O)c2ccc(-c3c4nc(c(-c5c(F)c(F)c(F)c(F)c5F)c5ccc([nH]5)c(-c5c(F)c(F)c(F)c(F)c5F)c5nc(c(-c6c(F)c(F)c(F)c(F)c6F)c6ccc3[nH]6)C=C5)C=C4)cc2)CCCCC1(C)C
REMARK SMILES IDX 8 1 7 2 6 3 4 4 5 5 3 7 76 8 80 9 77 10 79 11 81 12 82 13
REMARK SMILES IDX 78 14 2 15 1 16 9 19 10 20 11 21 12 23 13 24 14 25 75 26
REMARK SMILES IDX 15 27 74 28 16 29 17 30 18 31 68 32 19 33 73 34 67 35 69 36
REMARK SMILES IDX 20 37 72 38 66 39 65 40 21 42 53 43 33 44 52 45 34 46 37 47
REMARK SMILES IDX 51 48 70 49 35 50 36 51 50 53 71 54 38 55 22 56 23 57 31 58
REMARK SMILES IDX 24 59 25 60 29 61 32 62 26 63 27 64 30 65 28 66 54 67 55 68
REMARK SMILES IDX 63 69 56 70 57 71 61 72 64 73 58 74 59 75 62 76 60 77 39 78
REMARK SMILES IDX 40 79 48 80 41 81 42 82 46 83 49 84 43 85 44 86 47 87 45 88
REMARK H PARENT 6 6 2 17 2 18 10 22 69 41 37 52
REMARK Flexibility Score: inf
ROOT
ATOM      1  C   UNL A   1      31.500  32.152  26.582  1.00  0.00     0.042 C 
ENDROOT
BRANCH   1   2
ATOM      2  C   UNL A   1      31.627  30.646  26.412  1.00  0.00     0.118 C 
BRANCH   2   3
ATOM      3  N   UNL A   1      31.404  30.209  25.040  1.00  0.00    -0.351 N 
ATOM      4  C   UNL A   1      31.779  29.105  24.328  1.00  0.00     0.281 C 
ATOM      5  O   UNL A   1      31.334  29.075  23.175  1.00  0.00    -0.268 OA
ATOM      6  H   UNL A   1      30.867  30.845  24.514  1.00  0.00     0.163 HD
BRANCH   4   7
ATOM      7  C   UNL A   1      32.748  27.964  24.898  1.00  0.00     0.180 C 
ATOM      8  C   UNL A   1      32.041  27.349  26.150  1.00  0.00     0.080 C 
ATOM      9  C   UNL A   1      32.947  26.860  23.760  1.00  0.00     0.029 C 
ATOM     10  C   UNL A   1      30.812  26.480  25.879  1.00  0.00     0.007 C 
ATOM     11  C   UNL A   1      31.613  26.086  23.528  1.00  0.00     0.013 C 
ATOM     12  C   UNL A   1      33.359  27.465  22.399  1.00  0.00     0.018 C 
ATOM     13  C   UNL A   1      34.028  25.806  24.100  1.00  0.00     0.018 C 
ATOM     14  C   UNL A   1      31.059  25.447  24.796  1.00  0.00     0.001 C 
BRANCH   7  15
ATOM     15  N   UNL A   1      33.955  28.691  25.384  1.00  0.00    -0.336 N 
ATOM     16  C   UNL A   1      34.403  28.587  26.757  1.00  0.00     0.331 C 
ATOM     17  H   UNL A   1      34.734  28.378  24.804  1.00  0.00     0.346 HD
ATOM     18  H   UNL A   1      33.661  29.666  25.325  1.00  0.00     0.346 HD
ENDBRANCH   7  15
ENDBRANCH   4   7
ENDBRANCH   2   3
ENDBRANCH   1   2
BRANCH   1  19
ATOM     19  C   UNL A   1      32.660  32.797  27.318  1.00  0.00     0.118 C 
BRANCH  19  20
ATOM     20  N   UNL A   1      32.425  34.201  27.626  1.00  0.00    -0.352 N 
ATOM     21  C   UNL A   1      33.002  35.009  28.577  1.00  0.00     0.251 C 
ATOM     22  H   UNL A   1      31.746  34.640  27.066  1.00  0.00     0.163 HD
ATOM     23  O   UNL A   1      32.528  36.114  28.813  1.00  0.00    -0.269 OA
BRANCH  21  24
ATOM     24  C   UNL A   1      34.178  34.535  29.338  1.00  0.00     0.039 A 
ATOM     25  C   UNL A   1      33.994  34.015  30.621  1.00  0.00     0.014 A 
ATOM     26  C   UNL A   1      35.459  34.597  28.787  1.00  0.00     0.014 A 
ATOM     27  C   UNL A   1      35.084  33.478  31.314  1.00  0.00     0.010 A 
ATOM     28  C   UNL A   1      36.517  33.965  29.427  1.00  0.00     0.010 A 
ATOM     29  C   UNL A   1      36.344  33.405  30.701  1.00  0.00    -0.014 A 
BRANCH  29  30
ATOM     30  C   UNL A   1      37.503  32.760  31.370  1.00  0.00     0.031 A 
ATOM     31  C   UNL A   1      38.203  31.605  30.707  1.00  0.00     0.074 A 
ATOM     32  C   UNL A   1      37.864  33.148  32.608  1.00  0.00     0.049 A 
ATOM     33  N   UNL A   1      39.152  30.832  31.171  1.00  0.00    -0.248 NA
ATOM     34  C   UNL A   1      37.748  31.248  29.353  1.00  0.00     0.031 C 
ATOM     35  C   UNL A   1      37.229  34.216  33.379  1.00  0.00     0.029 A 
ATOM     36  N   UNL A   1      38.843  32.673  33.446  1.00  0.00    -0.354 N 
ATOM     37  C   UNL A   1      39.390  29.891  30.179  1.00  0.00     0.074 A 
ATOM     38  C   UNL A   1      38.442  30.147  29.116  1.00  0.00     0.031 C 
ATOM     39  C   UNL A   1      37.840  34.326  34.569  1.00  0.00     0.029 A 
ATOM     40  C   UNL A   1      38.879  33.304  34.665  1.00  0.00     0.049 A 
ATOM     41  H   UNL A   1      39.460  31.947  33.196  1.00  0.00     0.167 HD
ATOM     42  C   UNL A   1      40.330  28.917  30.145  1.00  0.00     0.037 A 
ATOM     43  C   UNL A   1      39.648  33.074  35.746  1.00  0.00     0.037 A 
ATOM     44  C   UNL A   1      41.282  28.681  31.196  1.00  0.00     0.049 A 
ATOM     45  C   UNL A   1      40.680  31.980  35.692  1.00  0.00     0.074 A 
ATOM     46  C   UNL A   1      42.318  27.766  31.233  1.00  0.00     0.029 A 
ATOM     47  N   UNL A   1      41.308  29.364  32.405  1.00  0.00    -0.354 N 
ATOM     48  N   UNL A   1      40.950  31.145  34.716  1.00  0.00    -0.248 NA
ATOM     49  C   UNL A   1      41.519  31.798  36.883  1.00  0.00     0.031 C 
ATOM     50  C   UNL A   1      42.932  27.852  32.488  1.00  0.00     0.029 A 
ATOM     51  C   UNL A   1      42.322  28.867  33.208  1.00  0.00     0.049 A 
ATOM     52  H   UNL A   1      40.694  30.093  32.656  1.00  0.00     0.167 HD
ATOM     53  C   UNL A   1      42.004  30.361  35.164  1.00  0.00     0.074 A 
ATOM     54  C   UNL A   1      42.334  30.828  36.495  1.00  0.00     0.031 C 
ATOM     55  C   UNL A   1      42.642  29.347  34.529  1.00  0.00     0.037 A 
BRANCH  42  56
ATOM     56  C   UNL A   1      40.367  28.032  28.930  1.00  0.00     0.064 A 
ATOM     57  C   UNL A   1      41.126  28.361  27.796  1.00  0.00     0.173 A 
ATOM     58  C   UNL A   1      39.643  26.829  28.904  1.00  0.00     0.173 A 
ATOM     59  F   UNL A   1      41.830  29.503  27.762  1.00  0.00    -0.203 F 
ATOM     60  C   UNL A   1      41.123  27.545  26.668  1.00  0.00     0.198 A 
ATOM     61  C   UNL A   1      39.674  25.996  27.788  1.00  0.00     0.198 A 
ATOM     62  F   UNL A   1      38.906  26.459  29.963  1.00  0.00    -0.203 F 
ATOM     63  F   UNL A   1      41.802  27.917  25.573  1.00  0.00    -0.200 F 
ATOM     64  C   UNL A   1      40.403  26.361  26.667  1.00  0.00     0.200 A 
ATOM     65  F   UNL A   1      38.990  24.844  27.796  1.00  0.00    -0.200 F 
ATOM     66  F   UNL A   1      40.403  25.575  25.581  1.00  0.00    -0.200 F 
ENDBRANCH  42  56
BRANCH  43  67
ATOM     67  C   UNL A   1      39.472  33.904  36.967  1.00  0.00     0.064 A 
ATOM     68  C   UNL A   1      40.049  35.176  37.066  1.00  0.00     0.173 A 
ATOM     69  C   UNL A   1      38.713  33.446  38.055  1.00  0.00     0.173 A 
ATOM     70  F   UNL A   1      40.799  35.651  36.061  1.00  0.00    -0.203 F 
ATOM     71  C   UNL A   1      39.890  35.954  38.212  1.00  0.00     0.198 A 
ATOM     72  C   UNL A   1      38.528  34.236  39.188  1.00  0.00     0.198 A 
ATOM     73  F   UNL A   1      38.133  32.239  38.009  1.00  0.00    -0.203 F 
ATOM     74  F   UNL A   1      40.490  37.148  38.298  1.00  0.00    -0.200 F 
ATOM     75  C   UNL A   1      39.123  35.486  39.270  1.00  0.00     0.200 A 
ATOM     76  F   UNL A   1      37.772  33.788  40.199  1.00  0.00    -0.200 F 
ATOM     77  F   UNL A   1      38.962  36.237  40.367  1.00  0.00    -0.200 F 
ENDBRANCH  43  67
BRANCH  55  78
ATOM     78  C   UNL A   1      43.788  28.691  35.245  1.00  0.00     0.064 A 
ATOM     79  C   UNL A   1      43.596  27.602  36.107  1.00  0.00     0.173 A 
ATOM     80  C   UNL A   1      45.104  29.125  35.017  1.00  0.00     0.173 A 
ATOM     81  F   UNL A   1      42.357  27.159  36.370  1.00  0.00    -0.203 F 
ATOM     82  C   UNL A   1      44.677  26.982  36.729  1.00  0.00     0.198 A 
ATOM     83  C   UNL A   1      46.184  28.481  35.614  1.00  0.00     0.198 A 
ATOM     84  F   UNL A   1      45.343  30.159  34.197  1.00  0.00    -0.203 F 
ATOM     85  F   UNL A   1      44.466  25.969  37.581  1.00  0.00    -0.200 F 
ATOM     86  C   UNL A   1      45.969  27.415  36.474  1.00  0.00     0.200 A 
ATOM     87  F   UNL A   1      47.434  28.890  35.352  1.00  0.00    -0.200 F 
ATOM     88  F   UNL A   1      47.010  26.806  37.060  1.00  0.00    -0.200 F 
ENDBRANCH  55  78
ENDBRANCH  29  30
ENDBRANCH  21  24
ENDBRANCH  19  20
ENDBRANCH   1  19
TORSDOF 11
ENDMDL
