MODEL 1
REMARK VINA RESULT:     -12.0      0.000      0.000
REMARK SMILES C[C@@H](C(=O)NCCCNC(=O)c1ccc(-c2c3nc(c(-c4c(F)c(F)c(F)c(F)c4F)c4ccc([nH]4)c(-c4c(F)c(F)c(F)c(F)c4F)c4nc(c(-c5c(F)c(F)c(F)c(F)c5F)c5ccc2[nH]5)C=C4)C=C3)cc1)[C@H](C)[S@@](=O)c1ccc(F)c(F)c1
REMARK SMILES IDX 6 1 5 2 3 3 4 4 2 6 1 7 75 8 76 9 77 10 78 11 79 12 80 13
REMARK SMILES IDX 86 14 81 15 84 16 82 17 85 18 83 19 7 20 8 21 9 22 10 23
REMARK SMILES IDX 11 25 12 26 13 27 74 28 14 29 73 30 15 31 16 32 17 33 67 34
REMARK SMILES IDX 18 35 72 36 66 37 68 38 19 39 71 40 65 41 64 42 20 44 52 45
REMARK SMILES IDX 32 46 51 47 33 48 36 49 50 50 69 51 34 52 35 53 49 55 70 56
REMARK SMILES IDX 37 57 21 58 22 59 30 60 23 61 24 62 28 63 31 64 25 65 26 66
REMARK SMILES IDX 29 67 27 68 53 69 54 70 62 71 55 72 56 73 60 74 63 75 57 76
REMARK SMILES IDX 58 77 61 78 59 79 38 80 39 81 47 82 40 83 41 84 45 85 48 86
REMARK SMILES IDX 42 87 43 88 46 89 44 90
REMARK H PARENT 5 5 9 24 68 43 36 54
REMARK Flexibility Score: inf
ROOT
ATOM      1  C   UNL A   1      31.351  30.918  25.745  1.00  0.00     0.117 C 
ENDROOT
BRANCH   1   2
ATOM      2  N   UNL A   1      32.480  30.093  26.129  1.00  0.00    -0.356 N 
ATOM      3  C   UNL A   1      32.488  28.748  26.347  1.00  0.00     0.224 C 
ATOM      4  O   UNL A   1      33.205  28.317  27.248  1.00  0.00    -0.275 OA
ATOM      5  H   UNL A   1      33.340  30.558  26.245  1.00  0.00     0.163 HD
BRANCH   3   6
ATOM      6  C   UNL A   1      31.624  27.851  25.480  1.00  0.00     0.091 C 
ATOM      7  C   UNL A   1      31.035  26.746  26.360  1.00  0.00     0.019 C 
BRANCH   6   8
ATOM      8  C   UNL A   1      32.386  27.269  24.263  1.00  0.00     0.093 C 
ATOM      9  C   UNL A   1      33.642  28.010  23.812  1.00  0.00     0.023 C 
BRANCH   8  10
ATOM     10  S   UNL A   1      31.311  26.773  22.845  1.00  0.00     0.057 S 
ATOM     11  O   UNL A   1      30.584  25.526  23.256  1.00  0.00    -0.254 OA
BRANCH  10  12
ATOM     12  C   UNL A   1      30.069  28.079  22.783  1.00  0.00     0.042 A 
ATOM     13  C   UNL A   1      30.417  29.376  22.376  1.00  0.00     0.021 A 
ATOM     14  C   UNL A   1      28.737  27.807  23.126  1.00  0.00     0.060 A 
ATOM     15  C   UNL A   1      29.473  30.407  22.408  1.00  0.00     0.043 A 
ATOM     16  C   UNL A   1      27.806  28.840  23.163  1.00  0.00     0.160 A 
ATOM     17  C   UNL A   1      28.174  30.134  22.819  1.00  0.00     0.158 A 
ATOM     18  F   UNL A   1      26.553  28.581  23.564  1.00  0.00    -0.204 F 
ATOM     19  F   UNL A   1      27.280  31.131  22.882  1.00  0.00    -0.204 F 
ENDBRANCH  10  12
ENDBRANCH   8  10
ENDBRANCH   6   8
ENDBRANCH   3   6
ENDBRANCH   1   2
BRANCH   1  20
ATOM     20  C   UNL A   1      31.219  32.094  26.716  1.00  0.00     0.042 C 
BRANCH  20  21
ATOM     21  C   UNL A   1      32.545  32.781  27.047  1.00  0.00     0.118 C 
BRANCH  21  22
ATOM     22  N   UNL A   1      32.358  34.102  27.623  1.00  0.00    -0.352 N 
ATOM     23  C   UNL A   1      33.027  34.702  28.656  1.00  0.00     0.251 C 
ATOM     24  H   UNL A   1      31.649  34.644  27.210  1.00  0.00     0.163 HD
ATOM     25  O   UNL A   1      32.603  35.765  29.115  1.00  0.00    -0.269 OA
BRANCH  23  26
ATOM     26  C   UNL A   1      34.235  34.086  29.247  1.00  0.00     0.039 A 
ATOM     27  C   UNL A   1      34.066  33.151  30.272  1.00  0.00     0.014 A 
ATOM     28  C   UNL A   1      35.524  34.456  28.845  1.00  0.00     0.014 A 
ATOM     29  C   UNL A   1      35.181  32.560  30.867  1.00  0.00     0.010 A 
ATOM     30  C   UNL A   1      36.638  33.826  29.406  1.00  0.00     0.010 A 
ATOM     31  C   UNL A   1      36.477  32.876  30.426  1.00  0.00    -0.014 A 
BRANCH  31  32
ATOM     32  C   UNL A   1      37.655  32.204  31.030  1.00  0.00     0.031 A 
ATOM     33  C   UNL A   1      38.121  32.560  32.414  1.00  0.00     0.074 A 
ATOM     34  C   UNL A   1      38.320  31.275  30.316  1.00  0.00     0.049 A 
ATOM     35  N   UNL A   1      39.104  32.047  33.111  1.00  0.00    -0.248 NA
ATOM     36  C   UNL A   1      37.402  33.645  33.096  1.00  0.00     0.031 C 
ATOM     37  C   UNL A   1      38.001  30.879  28.944  1.00  0.00     0.029 A 
ATOM     38  N   UNL A   1      39.396  30.491  30.648  1.00  0.00    -0.354 N 
ATOM     39  C   UNL A   1      39.125  32.749  34.310  1.00  0.00     0.074 A 
ATOM     40  C   UNL A   1      38.086  33.754  34.227  1.00  0.00     0.031 C 
ATOM     41  C   UNL A   1      38.845  29.908  28.561  1.00  0.00     0.029 A 
ATOM     42  C   UNL A   1      39.772  29.626  29.652  1.00  0.00     0.049 A 
ATOM     43  H   UNL A   1      39.855  30.544  31.518  1.00  0.00     0.167 HD
ATOM     44  C   UNL A   1      39.921  32.557  35.388  1.00  0.00     0.037 A 
ATOM     45  C   UNL A   1      40.750  28.700  29.625  1.00  0.00     0.037 A 
ATOM     46  C   UNL A   1      40.940  31.544  35.481  1.00  0.00     0.049 A 
ATOM     47  C   UNL A   1      41.603  28.490  30.844  1.00  0.00     0.074 A 
ATOM     48  C   UNL A   1      41.757  31.233  36.555  1.00  0.00     0.029 A 
ATOM     49  N   UNL A   1      41.282  30.674  34.456  1.00  0.00    -0.354 N 
ATOM     50  N   UNL A   1      41.561  29.108  31.998  1.00  0.00    -0.248 NA
ATOM     51  C   UNL A   1      42.630  27.443  30.760  1.00  0.00     0.031 C 
ATOM     52  C   UNL A   1      42.618  30.199  36.168  1.00  0.00     0.029 A 
ATOM     53  C   UNL A   1      42.311  29.840  34.866  1.00  0.00     0.049 A 
ATOM     54  H   UNL A   1      40.858  30.653  33.568  1.00  0.00     0.167 HD
ATOM     55  C   UNL A   1      42.540  28.516  32.784  1.00  0.00     0.074 A 
ATOM     56  C   UNL A   1      43.146  27.473  31.980  1.00  0.00     0.031 C 
ATOM     57  C   UNL A   1      42.907  28.810  34.055  1.00  0.00     0.037 A 
BRANCH  44  58
ATOM     58  C   UNL A   1      39.717  33.461  36.568  1.00  0.00     0.064 A 
ATOM     59  C   UNL A   1      40.369  34.700  36.663  1.00  0.00     0.173 A 
ATOM     60  C   UNL A   1      38.829  33.105  37.596  1.00  0.00     0.173 A 
ATOM     61  F   UNL A   1      41.233  35.082  35.711  1.00  0.00    -0.203 F 
ATOM     62  C   UNL A   1      40.158  35.539  37.754  1.00  0.00     0.198 A 
ATOM     63  C   UNL A   1      38.602  33.959  38.673  1.00  0.00     0.198 A 
ATOM     64  F   UNL A   1      38.176  31.935  37.550  1.00  0.00    -0.203 F 
ATOM     65  F   UNL A   1      40.822  36.700  37.842  1.00  0.00    -0.200 F 
ATOM     66  C   UNL A   1      39.271  35.171  38.754  1.00  0.00     0.200 A 
ATOM     67  F   UNL A   1      37.736  33.607  39.633  1.00  0.00    -0.200 F 
ATOM     68  F   UNL A   1      39.064  35.983  39.800  1.00  0.00    -0.200 F 
ENDBRANCH  44  58
BRANCH  45  69
ATOM     69  C   UNL A   1      40.943  27.870  28.409  1.00  0.00     0.064 A 
ATOM     70  C   UNL A   1      41.798  28.290  27.382  1.00  0.00     0.173 A 
ATOM     71  C   UNL A   1      40.283  26.643  28.252  1.00  0.00     0.173 A 
ATOM     72  F   UNL A   1      42.434  29.467  27.479  1.00  0.00    -0.203 F 
ATOM     73  C   UNL A   1      41.974  27.521  26.233  1.00  0.00     0.198 A 
ATOM     74  C   UNL A   1      40.479  25.863  27.114  1.00  0.00     0.198 A 
ATOM     75  F   UNL A   1      39.459  26.196  29.211  1.00  0.00    -0.203 F 
ATOM     76  F   UNL A   1      42.767  27.964  25.248  1.00  0.00    -0.200 F 
ATOM     77  C   UNL A   1      41.318  26.306  26.103  1.00  0.00     0.200 A 
ATOM     78  F   UNL A   1      39.853  24.685  26.998  1.00  0.00    -0.200 F 
ATOM     79  F   UNL A   1      41.492  25.564  25.001  1.00  0.00    -0.200 F 
ENDBRANCH  45  69
BRANCH  57  80
ATOM     80  C   UNL A   1      44.003  27.983  34.657  1.00  0.00     0.064 A 
ATOM     81  C   UNL A   1      43.731  26.773  35.312  1.00  0.00     0.173 A 
ATOM     82  C   UNL A   1      45.340  28.396  34.566  1.00  0.00     0.173 A 
ATOM     83  F   UNL A   1      42.466  26.343  35.439  1.00  0.00    -0.203 F 
ATOM     84  C   UNL A   1      44.756  26.020  35.879  1.00  0.00     0.198 A 
ATOM     85  C   UNL A   1      46.365  27.629  35.112  1.00  0.00     0.198 A 
ATOM     86  F   UNL A   1      45.652  29.544  33.947  1.00  0.00    -0.203 F 
ATOM     87  F   UNL A   1      44.468  24.892  36.543  1.00  0.00    -0.200 F 
ATOM     88  C   UNL A   1      46.072  26.446  35.775  1.00  0.00     0.200 A 
ATOM     89  F   UNL A   1      47.637  28.037  35.003  1.00  0.00    -0.200 F 
ATOM     90  F   UNL A   1      47.057  25.722  36.323  1.00  0.00    -0.200 F 
ENDBRANCH  57  80
ENDBRANCH  31  32
ENDBRANCH  23  26
ENDBRANCH  21  22
ENDBRANCH  20  21
ENDBRANCH   1  20
TORSDOF 13
ENDMDL
MODEL 2
REMARK VINA RESULT:     -11.8      0.175      2.058
REMARK SMILES C[C@@H](C(=O)NCCCNC(=O)c1ccc(-c2c3nc(c(-c4c(F)c(F)c(F)c(F)c4F)c4ccc([nH]4)c(-c4c(F)c(F)c(F)c(F)c4F)c4nc(c(-c5c(F)c(F)c(F)c(F)c5F)c5ccc2[nH]5)C=C4)C=C3)cc1)[C@H](C)[S@@](=O)c1ccc(F)c(F)c1
REMARK SMILES IDX 6 1 5 2 3 3 4 4 2 6 1 7 75 8 76 9 77 10 78 11 79 12 80 13
REMARK SMILES IDX 86 14 81 15 84 16 82 17 85 18 83 19 7 20 8 21 9 22 10 23
REMARK SMILES IDX 11 25 12 26 13 27 74 28 14 29 73 30 15 31 16 32 17 33 67 34
REMARK SMILES IDX 18 35 72 36 66 37 68 38 19 39 71 40 65 41 64 42 20 44 52 45
REMARK SMILES IDX 32 46 51 47 33 48 36 49 50 50 69 51 34 52 35 53 49 55 70 56
REMARK SMILES IDX 37 57 21 58 22 59 30 60 23 61 24 62 28 63 31 64 25 65 26 66
REMARK SMILES IDX 29 67 27 68 53 69 54 70 62 71 55 72 56 73 60 74 63 75 57 76
REMARK SMILES IDX 58 77 61 78 59 79 38 80 39 81 47 82 40 83 41 84 45 85 48 86
REMARK SMILES IDX 42 87 43 88 46 89 44 90
REMARK H PARENT 5 5 9 24 68 43 36 54
REMARK Flexibility Score: inf
ROOT
ATOM      1  C   UNL A   1      31.107  31.026  25.662  1.00  0.00     0.117 C 
ENDROOT
BRANCH   1   2
ATOM      2  N   UNL A   1      32.390  30.380  25.861  1.00  0.00    -0.356 N 
ATOM      3  C   UNL A   1      32.624  29.062  26.113  1.00  0.00     0.224 C 
ATOM      4  O   UNL A   1      33.540  28.777  26.882  1.00  0.00    -0.275 OA
ATOM      5  H   UNL A   1      33.184  30.961  25.807  1.00  0.00     0.163 HD
BRANCH   3   6
ATOM      6  C   UNL A   1      31.757  28.013  25.440  1.00  0.00     0.091 C 
ATOM      7  C   UNL A   1      31.344  26.979  26.490  1.00  0.00     0.019 C 
BRANCH   6   8
ATOM      8  C   UNL A   1      32.445  27.349  24.222  1.00  0.00     0.093 C 
ATOM      9  C   UNL A   1      33.654  28.068  23.630  1.00  0.00     0.023 C 
BRANCH   8  10
ATOM     10  S   UNL A   1      31.286  26.733  22.922  1.00  0.00     0.057 S 
ATOM     11  O   UNL A   1      30.573  25.542  23.493  1.00  0.00    -0.254 OA
BRANCH  10  12
ATOM     12  C   UNL A   1      30.052  28.044  22.804  1.00  0.00     0.042 A 
ATOM     13  C   UNL A   1      30.415  29.328  22.368  1.00  0.00     0.021 A 
ATOM     14  C   UNL A   1      28.713  27.789  23.133  1.00  0.00     0.060 A 
ATOM     15  C   UNL A   1      29.477  30.365  22.357  1.00  0.00     0.043 A 
ATOM     16  C   UNL A   1      27.788  28.828  23.127  1.00  0.00     0.160 A 
ATOM     17  C   UNL A   1      28.170  30.110  22.754  1.00  0.00     0.158 A 
ATOM     18  F   UNL A   1      26.528  28.587  23.513  1.00  0.00    -0.204 F 
ATOM     19  F   UNL A   1      27.281  31.113  22.776  1.00  0.00    -0.204 F 
ENDBRANCH  10  12
ENDBRANCH   8  10
ENDBRANCH   6   8
ENDBRANCH   3   6
ENDBRANCH   1   2
BRANCH   1  20
ATOM     20  C   UNL A   1      31.028  32.289  26.525  1.00  0.00     0.042 C 
BRANCH  20  21
ATOM     21  C   UNL A   1      32.377  32.749  27.082  1.00  0.00     0.118 C 
BRANCH  21  22
ATOM     22  N   UNL A   1      32.341  34.119  27.564  1.00  0.00    -0.352 N 
ATOM     23  C   UNL A   1      33.082  34.714  28.549  1.00  0.00     0.251 C 
ATOM     24  H   UNL A   1      31.689  34.705  27.116  1.00  0.00     0.163 HD
ATOM     25  O   UNL A   1      32.781  35.846  28.934  1.00  0.00    -0.269 OA
BRANCH  23  26
ATOM     26  C   UNL A   1      34.223  34.013  29.178  1.00  0.00     0.039 A 
ATOM     27  C   UNL A   1      35.512  34.308  28.724  1.00  0.00     0.014 A 
ATOM     28  C   UNL A   1      34.037  33.035  30.162  1.00  0.00     0.014 A 
ATOM     29  C   UNL A   1      36.613  33.656  29.280  1.00  0.00     0.010 A 
ATOM     30  C   UNL A   1      35.143  32.420  30.753  1.00  0.00     0.010 A 
ATOM     31  C   UNL A   1      36.442  32.720  30.313  1.00  0.00    -0.014 A 
BRANCH  31  32
ATOM     32  C   UNL A   1      37.623  32.069  30.934  1.00  0.00     0.031 A 
ATOM     33  C   UNL A   1      38.067  32.439  32.321  1.00  0.00     0.074 A 
ATOM     34  C   UNL A   1      38.309  31.146  30.234  1.00  0.00     0.049 A 
ATOM     35  N   UNL A   1      39.049  31.945  33.033  1.00  0.00    -0.248 NA
ATOM     36  C   UNL A   1      37.323  33.517  32.989  1.00  0.00     0.031 C 
ATOM     37  C   UNL A   1      38.012  30.738  28.860  1.00  0.00     0.029 A 
ATOM     38  N   UNL A   1      39.393  30.380  30.582  1.00  0.00    -0.354 N 
ATOM     39  C   UNL A   1      39.045  32.653  34.228  1.00  0.00     0.074 A 
ATOM     40  C   UNL A   1      37.993  33.643  34.127  1.00  0.00     0.031 C 
ATOM     41  C   UNL A   1      38.875  29.778  28.492  1.00  0.00     0.029 A 
ATOM     42  C   UNL A   1      39.794  29.515  29.596  1.00  0.00     0.049 A 
ATOM     43  H   UNL A   1      39.840  30.445  31.457  1.00  0.00     0.167 HD
ATOM     44  C   UNL A   1      39.831  32.478  35.317  1.00  0.00     0.037 A 
ATOM     45  C   UNL A   1      40.785  28.604  29.585  1.00  0.00     0.037 A 
ATOM     46  C   UNL A   1      40.864  31.481  35.427  1.00  0.00     0.049 A 
ATOM     47  C   UNL A   1      41.626  28.412  30.815  1.00  0.00     0.074 A 
ATOM     48  C   UNL A   1      41.672  31.188  36.512  1.00  0.00     0.029 A 
ATOM     49  N   UNL A   1      41.231  30.611  34.411  1.00  0.00    -0.354 N 
ATOM     50  N   UNL A   1      41.562  29.036  31.965  1.00  0.00    -0.248 NA
ATOM     51  C   UNL A   1      42.670  27.381  30.748  1.00  0.00     0.031 C 
ATOM     52  C   UNL A   1      42.553  30.165  36.142  1.00  0.00     0.029 A 
ATOM     53  C   UNL A   1      42.266  29.794  34.838  1.00  0.00     0.049 A 
ATOM     54  H   UNL A   1      40.817  30.579  33.518  1.00  0.00     0.167 HD
ATOM     55  C   UNL A   1      42.540  28.463  32.765  1.00  0.00     0.074 A 
ATOM     56  C   UNL A   1      43.170  27.425  31.975  1.00  0.00     0.031 C 
ATOM     57  C   UNL A   1      42.887  28.769  34.039  1.00  0.00     0.037 A 
BRANCH  44  58
ATOM     58  C   UNL A   1      39.599  33.386  36.489  1.00  0.00     0.064 A 
ATOM     59  C   UNL A   1      38.751  33.017  37.544  1.00  0.00     0.173 A 
ATOM     60  C   UNL A   1      40.262  34.620  36.580  1.00  0.00     0.173 A 
ATOM     61  F   UNL A   1      38.088  31.852  37.501  1.00  0.00    -0.203 F 
ATOM     62  C   UNL A   1      38.558  33.859  38.637  1.00  0.00     0.198 A 
ATOM     63  C   UNL A   1      40.085  35.448  37.685  1.00  0.00     0.198 A 
ATOM     64  F   UNL A   1      41.089  35.017  35.601  1.00  0.00    -0.203 F 
ATOM     65  F   UNL A   1      37.712  33.503  39.614  1.00  0.00    -0.200 F 
ATOM     66  C   UNL A   1      39.229  35.071  38.708  1.00  0.00     0.200 A 
ATOM     67  F   UNL A   1      40.743  36.613  37.759  1.00  0.00    -0.200 F 
ATOM     68  F   UNL A   1      39.047  35.877  39.763  1.00  0.00    -0.200 F 
ENDBRANCH  44  58
BRANCH  45  69
ATOM     69  C   UNL A   1      41.005  27.770  28.376  1.00  0.00     0.064 A 
ATOM     70  C   UNL A   1      40.358  26.536  28.228  1.00  0.00     0.173 A 
ATOM     71  C   UNL A   1      41.860  28.189  27.347  1.00  0.00     0.173 A 
ATOM     72  F   UNL A   1      39.547  26.086  29.196  1.00  0.00    -0.203 F 
ATOM     73  C   UNL A   1      40.569  25.744  27.102  1.00  0.00     0.198 A 
ATOM     74  C   UNL A   1      42.053  27.407  26.211  1.00  0.00     0.198 A 
ATOM     75  F   UNL A   1      42.498  29.365  27.442  1.00  0.00    -0.203 F 
ATOM     76  F   UNL A   1      39.968  24.551  27.002  1.00  0.00    -0.200 F 
ATOM     77  C   UNL A   1      41.413  26.183  26.091  1.00  0.00     0.200 A 
ATOM     78  F   UNL A   1      42.858  27.840  25.232  1.00  0.00    -0.200 F 
ATOM     79  F   UNL A   1      41.612  25.423  25.006  1.00  0.00    -0.200 F 
ENDBRANCH  45  69
BRANCH  57  80
ATOM     80  C   UNL A   1      43.988  27.962  34.659  1.00  0.00     0.064 A 
ATOM     81  C   UNL A   1      45.334  28.335  34.524  1.00  0.00     0.173 A 
ATOM     82  C   UNL A   1      43.697  26.812  35.406  1.00  0.00     0.173 A 
ATOM     83  F   UNL A   1      45.665  29.418  33.804  1.00  0.00    -0.203 F 
ATOM     84  C   UNL A   1      46.349  27.571  35.092  1.00  0.00     0.198 A 
ATOM     85  C   UNL A   1      44.712  26.063  35.994  1.00  0.00     0.198 A 
ATOM     86  F   UNL A   1      42.426  26.415  35.567  1.00  0.00    -0.203 F 
ATOM     87  F   UNL A   1      47.630  27.919  34.909  1.00  0.00    -0.200 F 
ATOM     88  C   UNL A   1      46.037  26.438  35.830  1.00  0.00     0.200 A 
ATOM     89  F   UNL A   1      44.410  24.975  36.715  1.00  0.00    -0.200 F 
ATOM     90  F   UNL A   1      47.016  25.702  36.375  1.00  0.00    -0.200 F 
ENDBRANCH  57  80
ENDBRANCH  31  32
ENDBRANCH  23  26
ENDBRANCH  21  22
ENDBRANCH  20  21
ENDBRANCH   1  20
TORSDOF 13
ENDMDL
MODEL 3
REMARK VINA RESULT:     -11.8      6.153     11.382
REMARK SMILES C[C@@H](C(=O)NCCCNC(=O)c1ccc(-c2c3nc(c(-c4c(F)c(F)c(F)c(F)c4F)c4ccc([nH]4)c(-c4c(F)c(F)c(F)c(F)c4F)c4nc(c(-c5c(F)c(F)c(F)c(F)c5F)c5ccc2[nH]5)C=C4)C=C3)cc1)[C@H](C)[S@@](=O)c1ccc(F)c(F)c1
REMARK SMILES IDX 6 1 5 2 3 3 4 4 2 6 1 7 75 8 76 9 77 10 78 11 79 12 80 13
REMARK SMILES IDX 86 14 81 15 84 16 82 17 85 18 83 19 7 20 8 21 9 22 10 23
REMARK SMILES IDX 11 25 12 26 13 27 74 28 14 29 73 30 15 31 16 32 17 33 67 34
REMARK SMILES IDX 18 35 72 36 66 37 68 38 19 39 71 40 65 41 64 42 20 44 52 45
REMARK SMILES IDX 32 46 51 47 33 48 36 49 50 50 69 51 34 52 35 53 49 55 70 56
REMARK SMILES IDX 37 57 21 58 22 59 30 60 23 61 24 62 28 63 31 64 25 65 26 66
REMARK SMILES IDX 29 67 27 68 53 69 54 70 62 71 55 72 56 73 60 74 63 75 57 76
REMARK SMILES IDX 58 77 61 78 59 79 38 80 39 81 47 82 40 83 41 84 45 85 48 86
REMARK SMILES IDX 42 87 43 88 46 89 44 90
REMARK H PARENT 5 5 9 24 68 43 36 54
REMARK Flexibility Score: inf
ROOT
ATOM      1  C   UNL A   1      36.503  20.310  24.998  1.00  0.00     0.117 C 
ENDROOT
BRANCH   1   2
ATOM      2  N   UNL A   1      36.677  21.447  25.880  1.00  0.00    -0.356 N 
ATOM      3  C   UNL A   1      36.148  22.695  25.739  1.00  0.00     0.224 C 
ATOM      4  O   UNL A   1      36.837  23.654  26.080  1.00  0.00    -0.275 OA
ATOM      5  H   UNL A   1      37.242  21.302  26.673  1.00  0.00     0.163 HD
BRANCH   3   6
ATOM      6  C   UNL A   1      34.746  22.846  25.175  1.00  0.00     0.091 C 
ATOM      7  C   UNL A   1      34.728  24.058  24.239  1.00  0.00     0.019 C 
BRANCH   6   8
ATOM      8  C   UNL A   1      33.660  22.956  26.274  1.00  0.00     0.093 C 
ATOM      9  C   UNL A   1      34.057  22.535  27.686  1.00  0.00     0.023 C 
BRANCH   8  10
ATOM     10  S   UNL A   1      32.001  22.309  25.785  1.00  0.00     0.057 S 
ATOM     11  O   UNL A   1      31.455  23.237  24.739  1.00  0.00    -0.254 OA
BRANCH  10  12
ATOM     12  C   UNL A   1      32.385  20.766  24.933  1.00  0.00     0.042 A 
ATOM     13  C   UNL A   1      32.258  20.671  23.539  1.00  0.00     0.021 A 
ATOM     14  C   UNL A   1      32.830  19.650  25.655  1.00  0.00     0.060 A 
ATOM     15  C   UNL A   1      32.476  19.451  22.889  1.00  0.00     0.043 A 
ATOM     16  C   UNL A   1      33.036  18.439  25.002  1.00  0.00     0.160 A 
ATOM     17  C   UNL A   1      32.847  18.337  23.630  1.00  0.00     0.158 A 
ATOM     18  F   UNL A   1      33.391  17.360  25.715  1.00  0.00    -0.204 F 
ATOM     19  F   UNL A   1      33.022  17.161  23.009  1.00  0.00    -0.204 F 
ENDBRANCH  10  12
ENDBRANCH   8  10
ENDBRANCH   6   8
ENDBRANCH   3   6
ENDBRANCH   1   2
BRANCH   1  20
ATOM     20  C   UNL A   1      37.831  19.561  24.856  1.00  0.00     0.042 C 
BRANCH  20  21
ATOM     21  C   UNL A   1      38.951  20.105  25.745  1.00  0.00     0.118 C 
BRANCH  21  22
ATOM     22  N   UNL A   1      40.064  19.179  25.866  1.00  0.00    -0.352 N 
ATOM     23  C   UNL A   1      41.385  19.436  26.117  1.00  0.00     0.251 C 
ATOM     24  H   UNL A   1      39.835  18.229  25.752  1.00  0.00     0.163 HD
ATOM     25  O   UNL A   1      42.210  18.527  26.007  1.00  0.00    -0.269 OA
BRANCH  23  26
ATOM     26  C   UNL A   1      41.844  20.791  26.493  1.00  0.00     0.039 A 
ATOM     27  C   UNL A   1      41.991  21.744  25.481  1.00  0.00     0.014 A 
ATOM     28  C   UNL A   1      42.182  21.117  27.812  1.00  0.00     0.014 A 
ATOM     29  C   UNL A   1      42.438  23.029  25.792  1.00  0.00     0.010 A 
ATOM     30  C   UNL A   1      42.579  22.418  28.130  1.00  0.00     0.010 A 
ATOM     31  C   UNL A   1      42.717  23.384  27.122  1.00  0.00    -0.014 A 
BRANCH  31  32
ATOM     32  C   UNL A   1      43.142  24.768  27.451  1.00  0.00     0.031 A 
ATOM     33  C   UNL A   1      44.544  25.231  27.170  1.00  0.00     0.074 A 
ATOM     34  C   UNL A   1      42.259  25.610  28.022  1.00  0.00     0.049 A 
ATOM     35  N   UNL A   1      45.075  26.415  27.355  1.00  0.00    -0.248 NA
ATOM     36  C   UNL A   1      45.476  24.232  26.628  1.00  0.00     0.031 C 
ATOM     37  C   UNL A   1      40.886  25.265  28.394  1.00  0.00     0.029 A 
ATOM     38  N   UNL A   1      42.382  26.928  28.383  1.00  0.00    -0.354 N 
ATOM     39  C   UNL A   1      46.401  26.301  26.958  1.00  0.00     0.074 A 
ATOM     40  C   UNL A   1      46.607  24.922  26.566  1.00  0.00     0.031 C 
ATOM     41  C   UNL A   1      40.285  26.351  28.906  1.00  0.00     0.029 A 
ATOM     42  C   UNL A   1      41.234  27.461  28.913  1.00  0.00     0.049 A 
ATOM     43  H   UNL A   1      43.214  27.442  28.273  1.00  0.00     0.167 HD
ATOM     44  C   UNL A   1      47.353  27.263  26.904  1.00  0.00     0.037 A 
ATOM     45  C   UNL A   1      40.971  28.708  29.347  1.00  0.00     0.037 A 
ATOM     46  C   UNL A   1      47.145  28.639  27.273  1.00  0.00     0.049 A 
ATOM     47  C   UNL A   1      42.038  29.763  29.252  1.00  0.00     0.074 A 
ATOM     48  C   UNL A   1      48.032  29.699  27.196  1.00  0.00     0.029 A 
ATOM     49  N   UNL A   1      45.962  29.146  27.792  1.00  0.00    -0.354 N 
ATOM     50  N   UNL A   1      43.264  29.660  28.804  1.00  0.00    -0.248 NA
ATOM     51  C   UNL A   1      41.677  31.111  29.713  1.00  0.00     0.031 C 
ATOM     52  C   UNL A   1      47.398  30.841  27.701  1.00  0.00     0.029 A 
ATOM     53  C   UNL A   1      46.103  30.500  28.056  1.00  0.00     0.049 A 
ATOM     54  H   UNL A   1      45.144  28.622  27.949  1.00  0.00     0.167 HD
ATOM     55  C   UNL A   1      43.816  30.929  28.910  1.00  0.00     0.074 A 
ATOM     56  C   UNL A   1      42.782  31.791  29.446  1.00  0.00     0.031 C 
ATOM     57  C   UNL A   1      45.067  31.344  28.594  1.00  0.00     0.037 A 
BRANCH  44  58
ATOM     58  C   UNL A   1      48.715  26.861  26.418  1.00  0.00     0.064 A 
ATOM     59  C   UNL A   1      49.663  26.293  27.282  1.00  0.00     0.173 A 
ATOM     60  C   UNL A   1      49.063  27.008  25.066  1.00  0.00     0.173 A 
ATOM     61  F   UNL A   1      49.382  26.140  28.585  1.00  0.00    -0.203 F 
ATOM     62  C   UNL A   1      50.917  25.908  26.816  1.00  0.00     0.198 A 
ATOM     63  C   UNL A   1      50.309  26.599  24.599  1.00  0.00     0.198 A 
ATOM     64  F   UNL A   1      48.191  27.540  24.197  1.00  0.00    -0.203 F 
ATOM     65  F   UNL A   1      51.821  25.404  27.668  1.00  0.00    -0.200 F 
ATOM     66  C   UNL A   1      51.237  26.055  25.475  1.00  0.00     0.200 A 
ATOM     67  F   UNL A   1      50.613  26.731  23.301  1.00  0.00    -0.200 F 
ATOM     68  F   UNL A   1      52.442  25.678  25.027  1.00  0.00    -0.200 F 
ENDBRANCH  44  58
BRANCH  45  69
ATOM     69  C   UNL A   1      39.621  29.036  29.871  1.00  0.00     0.064 A 
ATOM     70  C   UNL A   1      38.618  29.515  29.018  1.00  0.00     0.173 A 
ATOM     71  C   UNL A   1      39.307  28.875  31.227  1.00  0.00     0.173 A 
ATOM     72  F   UNL A   1      38.881  29.705  27.717  1.00  0.00    -0.203 F 
ATOM     73  C   UNL A   1      37.353  29.836  29.505  1.00  0.00     0.198 A 
ATOM     74  C   UNL A   1      38.034  29.173  31.709  1.00  0.00     0.198 A 
ATOM     75  F   UNL A   1      40.232  28.414  32.081  1.00  0.00    -0.203 F 
ATOM     76  F   UNL A   1      36.423  30.329  28.676  1.00  0.00    -0.200 F 
ATOM     77  C   UNL A   1      37.061  29.660  30.850  1.00  0.00     0.200 A 
ATOM     78  F   UNL A   1      37.752  28.990  33.006  1.00  0.00    -0.200 F 
ATOM     79  F   UNL A   1      35.843  29.963  31.317  1.00  0.00    -0.200 F 
ENDBRANCH  45  69
BRANCH  57  80
ATOM     80  C   UNL A   1      45.379  32.795  28.807  1.00  0.00     0.064 A 
ATOM     81  C   UNL A   1      45.083  33.758  27.831  1.00  0.00     0.173 A 
ATOM     82  C   UNL A   1      45.967  33.229  30.004  1.00  0.00     0.173 A 
ATOM     83  F   UNL A   1      44.536  33.389  26.663  1.00  0.00    -0.203 F 
ATOM     84  C   UNL A   1      45.389  35.101  28.035  1.00  0.00     0.198 A 
ATOM     85  C   UNL A   1      46.249  34.576  30.215  1.00  0.00     0.198 A 
ATOM     86  F   UNL A   1      46.266  32.348  30.969  1.00  0.00    -0.203 F 
ATOM     87  F   UNL A   1      45.143  35.996  27.070  1.00  0.00    -0.200 F 
ATOM     88  C   UNL A   1      45.968  35.509  29.228  1.00  0.00     0.200 A 
ATOM     89  F   UNL A   1      46.799  34.971  31.371  1.00  0.00    -0.200 F 
ATOM     90  F   UNL A   1      46.264  36.801  29.422  1.00  0.00    -0.200 F 
ENDBRANCH  57  80
ENDBRANCH  31  32
ENDBRANCH  23  26
ENDBRANCH  21  22
ENDBRANCH  20  21
ENDBRANCH   1  20
TORSDOF 13
ENDMDL
