MODEL 1
REMARK VINA RESULT:     -14.4      0.000      0.000
REMARK SMILES O=C(NCCCNC(=O)[C@H]1CCCCN1c1cc(-c2ccccc2)nc(-c2cccc(Cl)c2)n1)c1ccc(-c2c3nc(c(-c4c(F)c(F)c(F)c(F)c4F)c4ccc([nH]4)c(-c4c(F)c(F)c(F)c(F)c4F)c4nc(c(-c5c(F)c(F)c(F)c(F)c5F)c5ccc2[nH]5)C=C4)C=C3)cc1
REMARK SMILES IDX 5 1 4 2 3 3 1 4 2 5 35 7 36 8 97 9 37 10 96 11 38 12 39 13
REMARK SMILES IDX 40 14 90 15 41 16 95 17 89 18 91 19 42 20 94 21 88 22 87 23
REMARK SMILES IDX 43 25 75 26 55 27 74 28 56 29 59 30 73 31 92 32 57 33 58 34
REMARK SMILES IDX 72 36 93 37 60 38 44 39 45 40 53 41 46 42 47 43 51 44 54 45
REMARK SMILES IDX 48 46 49 47 52 48 50 49 76 50 77 51 85 52 78 53 79 54 83 55
REMARK SMILES IDX 86 56 80 57 81 58 84 59 82 60 61 61 62 62 70 63 63 64 64 65
REMARK SMILES IDX 68 66 71 67 65 68 66 69 69 70 67 71 6 72 7 73 8 74 9 76
REMARK SMILES IDX 10 77 11 78 15 79 12 80 14 81 13 82 16 83 17 84 34 85 18 86
REMARK SMILES IDX 26 87 25 88 19 89 20 90 24 91 21 92 23 93 22 94 27 95 28 96
REMARK SMILES IDX 33 97 29 98 31 99 30 100 32 101
REMARK H PARENT 3 6 91 24 59 35 7 75
REMARK Flexibility Score: inf
ROOT
ATOM      1  C   UNL A   1      33.167  28.916  24.016  1.00  0.00     0.042 C 
ENDROOT
BRANCH   1   2
ATOM      2  C   UNL A   1      33.181  29.075  25.529  1.00  0.00     0.118 C 
BRANCH   2   3
ATOM      3  N   UNL A   1      32.757  30.403  25.944  1.00  0.00    -0.352 N 
ATOM      4  O   UNL A   1      32.541  32.194  27.280  1.00  0.00    -0.269 OA
ATOM      5  C   UNL A   1      33.215  31.217  26.952  1.00  0.00     0.251 C 
ATOM      6  H   UNL A   1      32.020  30.783  25.413  1.00  0.00     0.163 HD
BRANCH   5   7
ATOM      7  C   UNL A   1      34.485  30.938  27.662  1.00  0.00     0.039 A 
ATOM      8  C   UNL A   1      34.791  29.664  28.141  1.00  0.00     0.014 A 
ATOM      9  C   UNL A   1      35.429  31.963  27.795  1.00  0.00     0.014 A 
ATOM     10  C   UNL A   1      35.943  29.458  28.895  1.00  0.00     0.010 A 
ATOM     11  C   UNL A   1      36.641  31.726  28.457  1.00  0.00     0.010 A 
ATOM     12  C   UNL A   1      36.893  30.481  29.049  1.00  0.00    -0.014 A 
BRANCH  12  13
ATOM     13  C   UNL A   1      38.150  30.198  29.796  1.00  0.00     0.031 A 
ATOM     14  C   UNL A   1      38.334  30.663  31.216  1.00  0.00     0.074 A 
ATOM     15  C   UNL A   1      39.118  29.475  29.198  1.00  0.00     0.049 A 
ATOM     16  N   UNL A   1      39.339  30.453  32.030  1.00  0.00    -0.248 NA
ATOM     17  C   UNL A   1      37.256  31.477  31.798  1.00  0.00     0.031 C 
ATOM     18  C   UNL A   1      39.070  28.986  27.818  1.00  0.00     0.029 A 
ATOM     19  N   UNL A   1      40.315  29.002  29.674  1.00  0.00    -0.354 N 
ATOM     20  C   UNL A   1      39.028  31.126  33.204  1.00  0.00     0.074 A 
ATOM     21  C   UNL A   1      37.754  31.776  32.990  1.00  0.00     0.031 C 
ATOM     22  C   UNL A   1      40.153  28.231  27.580  1.00  0.00     0.029 A 
ATOM     23  C   UNL A   1      41.002  28.233  28.765  1.00  0.00     0.049 A 
ATOM     24  H   UNL A   1      40.649  29.195  30.580  1.00  0.00     0.167 HD
ATOM     25  C   UNL A   1      39.736  31.187  34.359  1.00  0.00     0.037 A 
ATOM     26  C   UNL A   1      42.187  27.604  28.870  1.00  0.00     0.037 A 
ATOM     27  C   UNL A   1      40.994  30.518  34.579  1.00  0.00     0.049 A 
ATOM     28  C   UNL A   1      42.951  27.693  30.161  1.00  0.00     0.074 A 
ATOM     29  C   UNL A   1      41.765  30.484  35.729  1.00  0.00     0.029 A 
ATOM     30  N   UNL A   1      41.669  29.769  33.626  1.00  0.00    -0.354 N 
ATOM     31  N   UNL A   1      42.621  28.294  31.278  1.00  0.00    -0.248 NA
ATOM     32  C   UNL A   1      44.253  27.015  30.204  1.00  0.00     0.031 C 
ATOM     33  C   UNL A   1      42.929  29.756  35.456  1.00  0.00     0.029 A 
ATOM     34  C   UNL A   1      42.857  29.287  34.155  1.00  0.00     0.049 A 
ATOM     35  H   UNL A   1      41.352  29.604  32.709  1.00  0.00     0.167 HD
ATOM     36  C   UNL A   1      43.658  28.044  32.165  1.00  0.00     0.074 A 
ATOM     37  C   UNL A   1      44.620  27.222  31.460  1.00  0.00     0.031 C 
ATOM     38  C   UNL A   1      43.802  28.461  33.447  1.00  0.00     0.037 A 
BRANCH  25  39
ATOM     39  C   UNL A   1      39.179  32.023  35.476  1.00  0.00     0.064 A 
ATOM     40  C   UNL A   1      38.390  31.469  36.495  1.00  0.00     0.173 A 
ATOM     41  C   UNL A   1      39.475  33.394  35.551  1.00  0.00     0.173 A 
ATOM     42  F   UNL A   1      38.068  30.167  36.468  1.00  0.00    -0.203 F 
ATOM     43  C   UNL A   1      37.896  32.260  37.531  1.00  0.00     0.198 A 
ATOM     44  C   UNL A   1      39.005  34.175  36.604  1.00  0.00     0.198 A 
ATOM     45  F   UNL A   1      40.232  33.975  34.608  1.00  0.00    -0.203 F 
ATOM     46  F   UNL A   1      37.105  31.717  38.467  1.00  0.00    -0.200 F 
ATOM     47  C   UNL A   1      38.209  33.609  37.589  1.00  0.00     0.200 A 
ATOM     48  F   UNL A   1      39.321  35.476  36.665  1.00  0.00    -0.200 F 
ATOM     49  F   UNL A   1      37.738  34.367  38.589  1.00  0.00    -0.200 F 
ENDBRANCH  25  39
BRANCH  26  50
ATOM     50  C   UNL A   1      42.715  26.821  27.722  1.00  0.00     0.064 A 
ATOM     51  C   UNL A   1      43.418  27.449  26.683  1.00  0.00     0.173 A 
ATOM     52  C   UNL A   1      42.530  25.433  27.639  1.00  0.00     0.173 A 
ATOM     53  F   UNL A   1      43.604  28.776  26.708  1.00  0.00    -0.203 F 
ATOM     54  C   UNL A   1      43.899  26.720  25.599  1.00  0.00     0.198 A 
ATOM     55  C   UNL A   1      43.039  24.701  26.570  1.00  0.00     0.198 A 
ATOM     56  F   UNL A   1      41.869  24.785  28.610  1.00  0.00    -0.203 F 
ATOM     57  F   UNL A   1      44.527  27.351  24.596  1.00  0.00    -0.200 F 
ATOM     58  C   UNL A   1      43.716  25.346  25.545  1.00  0.00     0.200 A 
ATOM     59  F   UNL A   1      42.875  23.372  26.532  1.00  0.00    -0.200 F 
ATOM     60  F   UNL A   1      44.184  24.645  24.504  1.00  0.00    -0.200 F 
ENDBRANCH  26  50
BRANCH  38  61
ATOM     61  C   UNL A   1      45.022  27.992  34.185  1.00  0.00     0.064 A 
ATOM     62  C   UNL A   1      46.210  28.738  34.202  1.00  0.00     0.173 A 
ATOM     63  C   UNL A   1      44.995  26.784  34.900  1.00  0.00     0.173 A 
ATOM     64  F   UNL A   1      46.292  29.891  33.521  1.00  0.00    -0.203 F 
ATOM     65  C   UNL A   1      47.336  28.275  34.876  1.00  0.00     0.198 A 
ATOM     66  C   UNL A   1      46.113  26.340  35.600  1.00  0.00     0.198 A 
ATOM     67  F   UNL A   1      43.882  26.035  34.921  1.00  0.00    -0.203 F 
ATOM     68  F   UNL A   1      48.478  28.974  34.829  1.00  0.00    -0.200 F 
ATOM     69  C   UNL A   1      47.285  27.080  35.580  1.00  0.00     0.200 A 
ATOM     70  F   UNL A   1      46.058  25.192  36.289  1.00  0.00    -0.200 F 
ATOM     71  F   UNL A   1      48.370  26.637  36.229  1.00  0.00    -0.200 F 
ENDBRANCH  38  61
ENDBRANCH  12  13
ENDBRANCH   5   7
ENDBRANCH   2   3
ENDBRANCH   1   2
BRANCH   1  72
ATOM     72  C   UNL A   1      34.316  28.080  23.462  1.00  0.00     0.117 C 
BRANCH  72  73
ATOM     73  N   UNL A   1      33.891  27.261  22.346  1.00  0.00    -0.354 N 
ATOM     74  C   UNL A   1      33.465  25.962  22.316  1.00  0.00     0.242 C 
ATOM     75  H   UNL A   1      33.912  27.710  21.470  1.00  0.00     0.163 HD
ATOM     76  O   UNL A   1      33.201  25.511  21.195  1.00  0.00    -0.273 OA
BRANCH  74  77
ATOM     77  C   UNL A   1      33.255  25.138  23.623  1.00  0.00     0.173 C 
ATOM     78  C   UNL A   1      32.009  25.630  24.382  1.00  0.00     0.035 C 
ATOM     79  N   UNL A   1      33.125  23.690  23.355  1.00  0.00    -0.344 N 
ATOM     80  C   UNL A   1      30.708  25.210  23.690  1.00  0.00     0.004 C 
ATOM     81  C   UNL A   1      31.906  23.220  22.705  1.00  0.00     0.119 C 
ATOM     82  C   UNL A   1      30.672  23.700  23.465  1.00  0.00     0.022 C 
BRANCH  79  83
ATOM     83  C   UNL A   1      33.885  22.814  24.120  1.00  0.00     0.133 A 
ATOM     84  C   UNL A   1      33.392  21.545  24.360  1.00  0.00     0.076 A 
ATOM     85  N   UNL A   1      35.136  23.139  24.476  1.00  0.00    -0.211 NA
ATOM     86  C   UNL A   1      34.277  20.584  24.804  1.00  0.00     0.076 A 
ATOM     87  C   UNL A   1      35.889  22.171  25.037  1.00  0.00     0.162 A 
ATOM     88  N   UNL A   1      35.530  20.885  25.174  1.00  0.00    -0.228 NA
BRANCH  86  89
ATOM     89  C   UNL A   1      33.940  19.159  24.756  1.00  0.00     0.000 A 
ATOM     90  C   UNL A   1      32.669  18.690  25.111  1.00  0.00     0.010 A 
ATOM     91  C   UNL A   1      34.910  18.215  24.363  1.00  0.00     0.010 A 
ATOM     92  C   UNL A   1      32.370  17.326  25.048  1.00  0.00     0.001 A 
ATOM     93  C   UNL A   1      34.613  16.854  24.299  1.00  0.00     0.001 A 
ATOM     94  C   UNL A   1      33.340  16.410  24.639  1.00  0.00     0.000 A 
ENDBRANCH  86  89
BRANCH  87  95
ATOM     95  C   UNL A   1      37.194  22.541  25.587  1.00  0.00     0.021 A 
ATOM     96  C   UNL A   1      37.426  23.842  26.067  1.00  0.00     0.012 A 
ATOM     97  C   UNL A   1      38.224  21.593  25.713  1.00  0.00     0.032 A 
ATOM     98  C   UNL A   1      38.640  24.184  26.670  1.00  0.00     0.002 A 
ATOM     99  C   UNL A   1      39.441  21.942  26.298  1.00  0.00     0.041 A 
ATOM    100  C   UNL A   1      39.650  23.231  26.784  1.00  0.00     0.020 A 
ATOM    101  Cl  UNL A   1      40.694  20.769  26.431  1.00  0.00    -0.084 Cl
ENDBRANCH  87  95
ENDBRANCH  79  83
ENDBRANCH  74  77
ENDBRANCH  72  73
ENDBRANCH   1  72
TORSDOF 13
ENDMDL
MODEL 2
REMARK VINA RESULT:     -14.2      0.182      1.936
REMARK SMILES O=C(NCCCNC(=O)[C@H]1CCCCN1c1cc(-c2ccccc2)nc(-c2cccc(Cl)c2)n1)c1ccc(-c2c3nc(c(-c4c(F)c(F)c(F)c(F)c4F)c4ccc([nH]4)c(-c4c(F)c(F)c(F)c(F)c4F)c4nc(c(-c5c(F)c(F)c(F)c(F)c5F)c5ccc2[nH]5)C=C4)C=C3)cc1
REMARK SMILES IDX 5 1 4 2 3 3 1 4 2 5 35 7 36 8 97 9 37 10 96 11 38 12 39 13
REMARK SMILES IDX 40 14 90 15 41 16 95 17 89 18 91 19 42 20 94 21 88 22 87 23
REMARK SMILES IDX 43 25 75 26 55 27 74 28 56 29 59 30 73 31 92 32 57 33 58 34
REMARK SMILES IDX 72 36 93 37 60 38 44 39 45 40 53 41 46 42 47 43 51 44 54 45
REMARK SMILES IDX 48 46 49 47 52 48 50 49 76 50 77 51 85 52 78 53 79 54 83 55
REMARK SMILES IDX 86 56 80 57 81 58 84 59 82 60 61 61 62 62 70 63 63 64 64 65
REMARK SMILES IDX 68 66 71 67 65 68 66 69 69 70 67 71 6 72 7 73 8 74 9 76
REMARK SMILES IDX 10 77 11 78 15 79 12 80 14 81 13 82 16 83 17 84 34 85 18 86
REMARK SMILES IDX 26 87 25 88 19 89 20 90 24 91 21 92 23 93 22 94 27 95 28 96
REMARK SMILES IDX 33 97 29 98 31 99 30 100 32 101
REMARK H PARENT 3 6 91 24 59 35 7 75
REMARK Flexibility Score: inf
ROOT
ATOM      1  C   UNL A   1      33.036  28.846  24.154  1.00  0.00     0.042 C 
ENDROOT
BRANCH   1   2
ATOM      2  C   UNL A   1      33.112  29.087  25.654  1.00  0.00     0.118 C 
BRANCH   2   3
ATOM      3  N   UNL A   1      32.762  30.455  26.007  1.00  0.00    -0.352 N 
ATOM      4  O   UNL A   1      32.651  32.317  27.256  1.00  0.00    -0.269 OA
ATOM      5  C   UNL A   1      33.270  31.290  26.972  1.00  0.00     0.251 C 
ATOM      6  H   UNL A   1      32.042  30.847  25.462  1.00  0.00     0.163 HD
BRANCH   5   7
ATOM      7  C   UNL A   1      34.530  30.979  27.687  1.00  0.00     0.039 A 
ATOM      8  C   UNL A   1      34.808  29.694  28.153  1.00  0.00     0.014 A 
ATOM      9  C   UNL A   1      35.492  31.985  27.840  1.00  0.00     0.014 A 
ATOM     10  C   UNL A   1      35.951  29.457  28.912  1.00  0.00     0.010 A 
ATOM     11  C   UNL A   1      36.694  31.717  28.507  1.00  0.00     0.010 A 
ATOM     12  C   UNL A   1      36.919  30.460  29.085  1.00  0.00    -0.014 A 
BRANCH  12  13
ATOM     13  C   UNL A   1      38.164  30.145  29.838  1.00  0.00     0.031 A 
ATOM     14  C   UNL A   1      38.355  30.606  31.258  1.00  0.00     0.074 A 
ATOM     15  C   UNL A   1      39.116  29.396  29.243  1.00  0.00     0.049 A 
ATOM     16  N   UNL A   1      39.351  30.370  32.076  1.00  0.00    -0.248 NA
ATOM     17  C   UNL A   1      37.297  31.449  31.835  1.00  0.00     0.031 C 
ATOM     18  C   UNL A   1      39.060  28.907  27.864  1.00  0.00     0.029 A 
ATOM     19  N   UNL A   1      40.297  28.891  29.725  1.00  0.00    -0.354 N 
ATOM     20  C   UNL A   1      39.053  31.052  33.249  1.00  0.00     0.074 A 
ATOM     21  C   UNL A   1      37.797  31.735  33.029  1.00  0.00     0.031 C 
ATOM     22  C   UNL A   1      40.124  28.123  27.631  1.00  0.00     0.029 A 
ATOM     23  C   UNL A   1      40.967  28.104  28.820  1.00  0.00     0.049 A 
ATOM     24  H   UNL A   1      40.633  29.076  30.632  1.00  0.00     0.167 HD
ATOM     25  C   UNL A   1      39.758  31.095  34.406  1.00  0.00     0.037 A 
ATOM     26  C   UNL A   1      42.135  27.444  28.929  1.00  0.00     0.037 A 
ATOM     27  C   UNL A   1      40.997  30.393  34.631  1.00  0.00     0.049 A 
ATOM     28  C   UNL A   1      42.896  27.514  30.224  1.00  0.00     0.074 A 
ATOM     29  C   UNL A   1      41.762  30.339  35.784  1.00  0.00     0.029 A 
ATOM     30  N   UNL A   1      41.656  29.625  33.682  1.00  0.00    -0.354 N 
ATOM     31  N   UNL A   1      42.578  28.124  31.339  1.00  0.00    -0.248 NA
ATOM     32  C   UNL A   1      44.180  26.801  30.272  1.00  0.00     0.031 C 
ATOM     33  C   UNL A   1      42.907  29.580  35.517  1.00  0.00     0.029 A 
ATOM     34  C   UNL A   1      42.828  29.113  34.216  1.00  0.00     0.049 A 
ATOM     35  H   UNL A   1      41.338  29.468  32.763  1.00  0.00     0.167 HD
ATOM     36  C   UNL A   1      43.604  27.848  32.230  1.00  0.00     0.074 A 
ATOM     37  C   UNL A   1      44.547  26.999  31.529  1.00  0.00     0.031 C 
ATOM     38  C   UNL A   1      43.754  28.262  33.512  1.00  0.00     0.037 A 
BRANCH  25  39
ATOM     39  C   UNL A   1      39.218  31.946  35.521  1.00  0.00     0.064 A 
ATOM     40  C   UNL A   1      39.487  33.321  35.600  1.00  0.00     0.173 A 
ATOM     41  C   UNL A   1      38.382  31.386  36.499  1.00  0.00     0.173 A 
ATOM     42  F   UNL A   1      40.288  33.906  34.698  1.00  0.00    -0.203 F 
ATOM     43  C   UNL A   1      38.964  34.095  36.634  1.00  0.00     0.198 A 
ATOM     44  C   UNL A   1      37.836  32.169  37.513  1.00  0.00     0.198 A 
ATOM     45  F   UNL A   1      38.085  30.078  36.467  1.00  0.00    -0.203 F 
ATOM     46  F   UNL A   1      39.275  35.397  36.717  1.00  0.00    -0.200 F 
ATOM     47  C   UNL A   1      38.133  33.521  37.585  1.00  0.00     0.200 A 
ATOM     48  F   UNL A   1      37.023  31.614  38.423  1.00  0.00    -0.200 F 
ATOM     49  F   UNL A   1      37.626  34.269  38.574  1.00  0.00    -0.200 F 
ENDBRANCH  25  39
BRANCH  26  50
ATOM     50  C   UNL A   1      42.647  26.647  27.784  1.00  0.00     0.064 A 
ATOM     51  C   UNL A   1      42.462  25.258  27.731  1.00  0.00     0.173 A 
ATOM     52  C   UNL A   1      43.331  27.255  26.720  1.00  0.00     0.173 A 
ATOM     53  F   UNL A   1      41.832  24.629  28.733  1.00  0.00    -0.203 F 
ATOM     54  C   UNL A   1      42.956  24.507  26.667  1.00  0.00     0.198 A 
ATOM     55  C   UNL A   1      43.796  26.508  25.642  1.00  0.00     0.198 A 
ATOM     56  F   UNL A   1      43.529  28.582  26.721  1.00  0.00    -0.203 F 
ATOM     57  F   UNL A   1      42.806  23.176  26.664  1.00  0.00    -0.200 F 
ATOM     58  C   UNL A   1      43.617  25.133  25.620  1.00  0.00     0.200 A 
ATOM     59  F   UNL A   1      44.419  27.119  24.625  1.00  0.00    -0.200 F 
ATOM     60  F   UNL A   1      44.087  24.410  24.594  1.00  0.00    -0.200 F 
ENDBRANCH  26  50
BRANCH  38  61
ATOM     61  C   UNL A   1      44.958  27.761  34.256  1.00  0.00     0.064 A 
ATOM     62  C   UNL A   1      44.930  26.566  34.992  1.00  0.00     0.173 A 
ATOM     63  C   UNL A   1      46.163  28.479  34.217  1.00  0.00     0.173 A 
ATOM     64  F   UNL A   1      43.797  25.851  35.073  1.00  0.00    -0.203 F 
ATOM     65  C   UNL A   1      46.052  26.130  35.689  1.00  0.00     0.198 A 
ATOM     66  C   UNL A   1      47.292  28.022  34.890  1.00  0.00     0.198 A 
ATOM     67  F   UNL A   1      46.246  29.624  33.523  1.00  0.00    -0.203 F 
ATOM     68  F   UNL A   1      45.985  25.018  36.434  1.00  0.00    -0.200 F 
ATOM     69  C   UNL A   1      47.234  26.854  35.633  1.00  0.00     0.200 A 
ATOM     70  F   UNL A   1      48.437  28.717  34.824  1.00  0.00    -0.200 F 
ATOM     71  F   UNL A   1      48.313  26.431  36.306  1.00  0.00    -0.200 F 
ENDBRANCH  38  61
ENDBRANCH  12  13
ENDBRANCH   5   7
ENDBRANCH   2   3
ENDBRANCH   1   2
BRANCH   1  72
ATOM     72  C   UNL A   1      34.221  28.074  23.582  1.00  0.00     0.117 C 
BRANCH  72  73
ATOM     73  N   UNL A   1      33.832  27.263  22.447  1.00  0.00    -0.354 N 
ATOM     74  C   UNL A   1      33.444  25.954  22.389  1.00  0.00     0.242 C 
ATOM     75  H   UNL A   1      33.850  27.729  21.579  1.00  0.00     0.163 HD
ATOM     76  O   UNL A   1      33.206  25.515  21.258  1.00  0.00    -0.273 OA
BRANCH  74  77
ATOM     77  C   UNL A   1      33.243  25.100  23.679  1.00  0.00     0.173 C 
ATOM     78  C   UNL A   1      32.006  25.579  24.460  1.00  0.00     0.035 C 
ATOM     79  N   UNL A   1      33.106  23.659  23.380  1.00  0.00    -0.344 N 
ATOM     80  C   UNL A   1      30.697  25.179  23.771  1.00  0.00     0.004 C 
ATOM     81  C   UNL A   1      31.880  23.208  22.730  1.00  0.00     0.119 C 
ATOM     82  C   UNL A   1      30.655  23.675  23.512  1.00  0.00     0.022 C 
BRANCH  79  83
ATOM     83  C   UNL A   1      33.870  22.763  24.117  1.00  0.00     0.133 A 
ATOM     84  C   UNL A   1      33.386  21.484  24.313  1.00  0.00     0.076 A 
ATOM     85  N   UNL A   1      35.117  23.086  24.489  1.00  0.00    -0.211 NA
ATOM     86  C   UNL A   1      34.277  20.516  24.728  1.00  0.00     0.076 A 
ATOM     87  C   UNL A   1      35.876  22.105  25.020  1.00  0.00     0.162 A 
ATOM     88  N   UNL A   1      35.527  20.813  25.112  1.00  0.00    -0.228 NA
BRANCH  86  89
ATOM     89  C   UNL A   1      33.952  19.090  24.630  1.00  0.00     0.000 A 
ATOM     90  C   UNL A   1      34.948  18.106  24.625  1.00  0.00     0.010 A 
ATOM     91  C   UNL A   1      32.610  18.676  24.517  1.00  0.00     0.010 A 
ATOM     92  C   UNL A   1      34.612  16.751  24.538  1.00  0.00     0.001 A 
ATOM     93  C   UNL A   1      32.272  17.325  24.432  1.00  0.00     0.001 A 
ATOM     94  C   UNL A   1      33.275  16.362  24.446  1.00  0.00     0.000 A 
ENDBRANCH  86  89
BRANCH  87  95
ATOM     95  C   UNL A   1      37.176  22.467  25.587  1.00  0.00     0.021 A 
ATOM     96  C   UNL A   1      37.396  23.752  26.112  1.00  0.00     0.012 A 
ATOM     97  C   UNL A   1      38.213  21.523  25.683  1.00  0.00     0.032 A 
ATOM     98  C   UNL A   1      38.605  24.082  26.731  1.00  0.00     0.002 A 
ATOM     99  C   UNL A   1      39.426  21.861  26.285  1.00  0.00     0.041 A 
ATOM    100  C   UNL A   1      39.623  23.134  26.816  1.00  0.00     0.020 A 
ATOM    101  Cl  UNL A   1      40.687  20.695  26.380  1.00  0.00    -0.084 Cl
ENDBRANCH  87  95
ENDBRANCH  79  83
ENDBRANCH  74  77
ENDBRANCH  72  73
ENDBRANCH   1  72
TORSDOF 13
ENDMDL
MODEL 3
REMARK VINA RESULT:     -14.0      4.222      9.930
REMARK SMILES O=C(NCCCNC(=O)[C@H]1CCCCN1c1cc(-c2ccccc2)nc(-c2cccc(Cl)c2)n1)c1ccc(-c2c3nc(c(-c4c(F)c(F)c(F)c(F)c4F)c4ccc([nH]4)c(-c4c(F)c(F)c(F)c(F)c4F)c4nc(c(-c5c(F)c(F)c(F)c(F)c5F)c5ccc2[nH]5)C=C4)C=C3)cc1
REMARK SMILES IDX 5 1 4 2 3 3 1 4 2 5 35 7 36 8 97 9 37 10 96 11 38 12 39 13
REMARK SMILES IDX 40 14 90 15 41 16 95 17 89 18 91 19 42 20 94 21 88 22 87 23
REMARK SMILES IDX 43 25 75 26 55 27 74 28 56 29 59 30 73 31 92 32 57 33 58 34
REMARK SMILES IDX 72 36 93 37 60 38 44 39 45 40 53 41 46 42 47 43 51 44 54 45
REMARK SMILES IDX 48 46 49 47 52 48 50 49 76 50 77 51 85 52 78 53 79 54 83 55
REMARK SMILES IDX 86 56 80 57 81 58 84 59 82 60 61 61 62 62 70 63 63 64 64 65
REMARK SMILES IDX 68 66 71 67 65 68 66 69 69 70 67 71 6 72 7 73 8 74 9 76
REMARK SMILES IDX 10 77 11 78 15 79 12 80 14 81 13 82 16 83 17 84 34 85 18 86
REMARK SMILES IDX 26 87 25 88 19 89 20 90 24 91 21 92 23 93 22 94 27 95 28 96
REMARK SMILES IDX 33 97 29 98 31 99 30 100 32 101
REMARK H PARENT 3 6 91 24 59 35 7 75
REMARK Flexibility Score: inf
ROOT
ATOM      1  C   UNL A   1      34.781  22.462  27.050  1.00  0.00     0.042 C 
ENDROOT
BRANCH   1   2
ATOM      2  C   UNL A   1      35.941  22.806  26.127  1.00  0.00     0.118 C 
BRANCH   2   3
ATOM      3  N   UNL A   1      36.913  21.727  26.044  1.00  0.00    -0.352 N 
ATOM      4  O   UNL A   1      38.911  20.746  25.751  1.00  0.00    -0.269 OA
ATOM      5  C   UNL A   1      38.286  21.751  26.093  1.00  0.00     0.251 C 
ATOM      6  H   UNL A   1      36.522  20.830  25.936  1.00  0.00     0.163 HD
BRANCH   5   7
ATOM      7  C   UNL A   1      39.029  22.957  26.529  1.00  0.00     0.039 A 
ATOM      8  C   UNL A   1      38.694  24.229  26.065  1.00  0.00     0.014 A 
ATOM      9  C   UNL A   1      40.047  22.821  27.480  1.00  0.00     0.014 A 
ATOM     10  C   UNL A   1      39.477  25.328  26.411  1.00  0.00     0.010 A 
ATOM     11  C   UNL A   1      40.762  23.944  27.915  1.00  0.00     0.010 A 
ATOM     12  C   UNL A   1      40.511  25.205  27.354  1.00  0.00    -0.014 A 
BRANCH  12  13
ATOM     13  C   UNL A   1      41.274  26.418  27.757  1.00  0.00     0.031 A 
ATOM     14  C   UNL A   1      42.680  26.652  27.270  1.00  0.00     0.074 A 
ATOM     15  C   UNL A   1      40.674  27.340  28.536  1.00  0.00     0.049 A 
ATOM     16  N   UNL A   1      43.465  27.680  27.477  1.00  0.00    -0.248 NA
ATOM     17  C   UNL A   1      43.290  25.591  26.454  1.00  0.00     0.031 C 
ATOM     18  C   UNL A   1      39.323  27.221  29.091  1.00  0.00     0.029 A 
ATOM     19  N   UNL A   1      41.103  28.568  28.974  1.00  0.00    -0.354 N 
ATOM     20  C   UNL A   1      44.663  27.382  26.842  1.00  0.00     0.074 A 
ATOM     21  C   UNL A   1      44.514  26.064  26.265  1.00  0.00     0.031 C 
ATOM     22  C   UNL A   1      39.012  28.352  29.740  1.00  0.00     0.029 A 
ATOM     23  C   UNL A   1      40.159  29.251  29.703  1.00  0.00     0.049 A 
ATOM     24  H   UNL A   1      42.001  28.924  28.786  1.00  0.00     0.167 HD
ATOM     25  C   UNL A   1      45.781  28.142  26.740  1.00  0.00     0.037 A 
ATOM     26  C   UNL A   1      40.211  30.464  30.283  1.00  0.00     0.037 A 
ATOM     27  C   UNL A   1      45.918  29.466  27.295  1.00  0.00     0.049 A 
ATOM     28  C   UNL A   1      41.465  31.282  30.156  1.00  0.00     0.074 A 
ATOM     29  C   UNL A   1      46.995  30.332  27.206  1.00  0.00     0.029 A 
ATOM     30  N   UNL A   1      44.948  30.114  28.046  1.00  0.00    -0.354 N 
ATOM     31  N   UNL A   1      42.572  31.006  29.512  1.00  0.00    -0.248 NA
ATOM     32  C   UNL A   1      41.474  32.583  30.839  1.00  0.00     0.031 C 
ATOM     33  C   UNL A   1      46.695  31.482  27.945  1.00  0.00     0.029 A 
ATOM     34  C   UNL A   1      45.410  31.358  28.446  1.00  0.00     0.049 A 
ATOM     35  H   UNL A   1      44.063  29.744  28.265  1.00  0.00     0.167 HD
ATOM     36  C   UNL A   1      43.399  32.106  29.687  1.00  0.00     0.074 A 
ATOM     37  C   UNL A   1      42.657  33.062  30.484  1.00  0.00     0.031 C 
ATOM     38  C   UNL A   1      44.660  32.305  29.231  1.00  0.00     0.037 A 
BRANCH  25  39
ATOM     39  C   UNL A   1      46.960  27.556  26.016  1.00  0.00     0.064 A 
ATOM     40  C   UNL A   1      47.089  27.638  24.621  1.00  0.00     0.173 A 
ATOM     41  C   UNL A   1      47.999  26.942  26.734  1.00  0.00     0.173 A 
ATOM     42  F   UNL A   1      46.122  28.205  23.885  1.00  0.00    -0.203 F 
ATOM     43  C   UNL A   1      48.199  27.101  23.971  1.00  0.00     0.198 A 
ATOM     44  C   UNL A   1      49.121  26.434  26.083  1.00  0.00     0.198 A 
ATOM     45  F   UNL A   1      47.932  26.844  28.070  1.00  0.00    -0.203 F 
ATOM     46  F   UNL A   1      48.276  27.148  22.633  1.00  0.00    -0.200 F 
ATOM     47  C   UNL A   1      49.216  26.507  24.702  1.00  0.00     0.200 A 
ATOM     48  F   UNL A   1      50.109  25.873  26.793  1.00  0.00    -0.200 F 
ATOM     49  F   UNL A   1      50.285  25.997  24.075  1.00  0.00    -0.200 F 
ENDBRANCH  25  39
BRANCH  26  50
ATOM     50  C   UNL A   1      39.031  30.983  31.024  1.00  0.00     0.064 A 
ATOM     51  C   UNL A   1      38.853  30.703  32.386  1.00  0.00     0.173 A 
ATOM     52  C   UNL A   1      38.059  31.770  30.387  1.00  0.00     0.173 A 
ATOM     53  F   UNL A   1      39.745  29.939  33.034  1.00  0.00    -0.203 F 
ATOM     54  C   UNL A   1      37.740  31.175  33.077  1.00  0.00     0.198 A 
ATOM     55  C   UNL A   1      36.963  32.267  31.087  1.00  0.00     0.198 A 
ATOM     56  F   UNL A   1      38.186  32.071  29.086  1.00  0.00    -0.203 F 
ATOM     57  F   UNL A   1      37.570  30.853  34.367  1.00  0.00    -0.200 F 
ATOM     58  C   UNL A   1      36.799  31.962  32.430  1.00  0.00     0.200 A 
ATOM     59  F   UNL A   1      36.067  33.042  30.461  1.00  0.00    -0.200 F 
ATOM     60  F   UNL A   1      35.731  32.419  33.097  1.00  0.00    -0.200 F 
ENDBRANCH  26  50
BRANCH  38  61
ATOM     61  C   UNL A   1      45.297  33.629  29.541  1.00  0.00     0.064 A 
ATOM     62  C   UNL A   1      46.069  33.826  30.697  1.00  0.00     0.173 A 
ATOM     63  C   UNL A   1      45.147  34.710  28.660  1.00  0.00     0.173 A 
ATOM     64  F   UNL A   1      46.228  32.828  31.579  1.00  0.00    -0.203 F 
ATOM     65  C   UNL A   1      46.635  35.066  30.975  1.00  0.00     0.198 A 
ATOM     66  C   UNL A   1      45.742  35.940  28.926  1.00  0.00     0.198 A 
ATOM     67  F   UNL A   1      44.425  34.574  27.538  1.00  0.00    -0.203 F 
ATOM     68  F   UNL A   1      47.317  35.248  32.114  1.00  0.00    -0.200 F 
ATOM     69  C   UNL A   1      46.477  36.121  30.088  1.00  0.00     0.200 A 
ATOM     70  F   UNL A   1      45.598  36.953  28.060  1.00  0.00    -0.200 F 
ATOM     71  F   UNL A   1      47.024  37.313  30.358  1.00  0.00    -0.200 F 
ENDBRANCH  38  61
ENDBRANCH  12  13
ENDBRANCH   5   7
ENDBRANCH   2   3
ENDBRANCH   1   2
BRANCH   1  72
ATOM     72  C   UNL A   1      33.560  21.888  26.337  1.00  0.00     0.117 C 
BRANCH  72  73
ATOM     73  N   UNL A   1      32.327  22.426  26.874  1.00  0.00    -0.354 N 
ATOM     74  C   UNL A   1      31.684  23.600  26.599  1.00  0.00     0.242 C 
ATOM     75  H   UNL A   1      31.884  21.856  27.543  1.00  0.00     0.163 HD
ATOM     76  O   UNL A   1      30.654  23.812  27.251  1.00  0.00    -0.273 OA
BRANCH  74  77
ATOM     77  C   UNL A   1      32.181  24.566  25.481  1.00  0.00     0.173 C 
ATOM     78  C   UNL A   1      32.760  23.773  24.296  1.00  0.00     0.035 C 
ATOM     79  N   UNL A   1      31.107  25.458  24.995  1.00  0.00    -0.344 N 
ATOM     80  C   UNL A   1      31.667  23.086  23.471  1.00  0.00     0.004 C 
ATOM     81  C   UNL A   1      30.037  24.870  24.196  1.00  0.00     0.119 C 
ATOM     82  C   UNL A   1      30.613  24.093  23.016  1.00  0.00     0.022 C 
BRANCH  79  83
ATOM     83  C   UNL A   1      31.382  26.816  24.893  1.00  0.00     0.133 A 
ATOM     84  C   UNL A   1      30.655  27.574  23.995  1.00  0.00     0.076 A 
ATOM     85  N   UNL A   1      32.218  27.403  25.762  1.00  0.00    -0.211 NA
ATOM     86  C   UNL A   1      30.679  28.946  24.144  1.00  0.00     0.076 A 
ATOM     87  C   UNL A   1      32.285  28.750  25.742  1.00  0.00     0.162 A 
ATOM     88  N   UNL A   1      31.511  29.557  24.999  1.00  0.00    -0.228 NA
BRANCH  86  89
ATOM     89  C   UNL A   1      29.690  29.801  23.481  1.00  0.00     0.000 A 
ATOM     90  C   UNL A   1      29.419  31.099  23.930  1.00  0.00     0.010 A 
ATOM     91  C   UNL A   1      28.968  29.318  22.372  1.00  0.00     0.010 A 
ATOM     92  C   UNL A   1      28.477  31.898  23.275  1.00  0.00     0.001 A 
ATOM     93  C   UNL A   1      28.028  30.114  21.716  1.00  0.00     0.001 A 
ATOM     94  C   UNL A   1      27.786  31.407  22.167  1.00  0.00     0.000 A 
ENDBRANCH  86  89
BRANCH  87  95
ATOM     95  C   UNL A   1      33.309  29.405  26.557  1.00  0.00     0.021 A 
ATOM     96  C   UNL A   1      34.482  28.720  26.918  1.00  0.00     0.012 A 
ATOM     97  C   UNL A   1      33.178  30.750  26.943  1.00  0.00     0.032 A 
ATOM     98  C   UNL A   1      35.503  29.361  27.626  1.00  0.00     0.002 A 
ATOM     99  C   UNL A   1      34.191  31.382  27.665  1.00  0.00     0.041 A 
ATOM    100  C   UNL A   1      35.355  30.695  28.002  1.00  0.00     0.020 A 
ATOM    101  Cl  UNL A   1      34.005  33.026  28.139  1.00  0.00    -0.084 Cl
ENDBRANCH  87  95
ENDBRANCH  79  83
ENDBRANCH  74  77
ENDBRANCH  72  73
ENDBRANCH   1  72
TORSDOF 13
ENDMDL
