MODEL 1
REMARK VINA RESULT:     -12.4      0.000      0.000
REMARK SMILES O=C(NCCCNC(=O)[C@@H]1CN(c2cccc(Cl)c2)CCO1)c1ccc(-c2c3nc(c(-c4c(F)c(F)c(F)c(F)c4F)c4ccc([nH]4)c(-c4c(F)c(F)c(F)c(F)c4F)c4nc(c(-c5c(F)c(F)c(F)c(F)c5F)c5ccc2[nH]5)C=C4)C=C3)cc1
REMARK SMILES IDX 4 1 3 2 1 3 2 4 23 6 24 7 85 8 25 9 84 10 26 11 27 12 28 13
REMARK SMILES IDX 78 14 29 15 83 16 77 17 79 18 30 19 82 20 76 21 75 22 31 24
REMARK SMILES IDX 63 25 43 26 62 27 44 28 47 29 61 30 80 31 45 32 46 33 60 35
REMARK SMILES IDX 81 36 48 37 32 38 33 39 41 40 34 41 35 42 39 43 42 44 36 45
REMARK SMILES IDX 37 46 40 47 38 48 64 49 65 50 73 51 66 52 67 53 71 54 74 55
REMARK SMILES IDX 68 56 69 57 72 58 70 59 49 60 50 61 58 62 51 63 52 64 56 65
REMARK SMILES IDX 59 66 53 67 54 68 57 69 55 70 5 71 6 72 7 73 8 74 9 76 10 77
REMARK SMILES IDX 11 78 22 79 12 80 21 81 20 82 13 83 14 84 19 85 15 86 17 87
REMARK SMILES IDX 16 88 18 89
REMARK H PARENT 3 5 79 23 47 34 7 75
REMARK Flexibility Score: inf
ROOT
ATOM      1  C   UNL A   1      33.249  29.200  25.284  1.00  0.00     0.118 C 
ENDROOT
BRANCH   1   2
ATOM      2  N   UNL A   1      32.766  30.470  25.813  1.00  0.00    -0.352 N 
ATOM      3  O   UNL A   1      32.546  32.182  27.254  1.00  0.00    -0.269 OA
ATOM      4  C   UNL A   1      33.210  31.221  26.872  1.00  0.00     0.251 C 
ATOM      5  H   UNL A   1      31.997  30.850  25.331  1.00  0.00     0.163 HD
BRANCH   4   6
ATOM      6  C   UNL A   1      34.465  30.874  27.574  1.00  0.00     0.039 A 
ATOM      7  C   UNL A   1      34.683  29.587  28.067  1.00  0.00     0.014 A 
ATOM      8  C   UNL A   1      35.461  31.849  27.708  1.00  0.00     0.014 A 
ATOM      9  C   UNL A   1      35.812  29.322  28.832  1.00  0.00     0.010 A 
ATOM     10  C   UNL A   1      36.642  31.551  28.395  1.00  0.00     0.010 A 
ATOM     11  C   UNL A   1      36.810  30.295  28.997  1.00  0.00    -0.014 A 
BRANCH  11  12
ATOM     12  C   UNL A   1      38.036  29.953  29.765  1.00  0.00     0.031 A 
ATOM     13  C   UNL A   1      38.238  30.448  31.170  1.00  0.00     0.074 A 
ATOM     14  C   UNL A   1      38.954  29.150  29.193  1.00  0.00     0.049 A 
ATOM     15  N   UNL A   1      39.220  30.196  32.000  1.00  0.00    -0.248 NA
ATOM     16  C   UNL A   1      37.211  31.348  31.715  1.00  0.00     0.031 C 
ATOM     17  C   UNL A   1      38.875  28.619  27.831  1.00  0.00     0.029 A 
ATOM     18  N   UNL A   1      40.118  28.619  29.689  1.00  0.00    -0.354 N 
ATOM     19  C   UNL A   1      38.941  30.918  33.153  1.00  0.00     0.074 A 
ATOM     20  C   UNL A   1      37.712  31.644  32.906  1.00  0.00     0.031 C 
ATOM     21  C   UNL A   1      39.909  27.793  27.620  1.00  0.00     0.029 A 
ATOM     22  C   UNL A   1      40.757  27.784  28.806  1.00  0.00     0.049 A 
ATOM     23  H   UNL A   1      40.461  28.818  30.591  1.00  0.00     0.167 HD
ATOM     24  C   UNL A   1      39.641  30.964  34.313  1.00  0.00     0.037 A 
ATOM     25  C   UNL A   1      41.904  27.092  28.933  1.00  0.00     0.037 A 
ATOM     26  C   UNL A   1      40.855  30.226  34.559  1.00  0.00     0.049 A 
ATOM     27  C   UNL A   1      42.671  27.182  30.223  1.00  0.00     0.074 A 
ATOM     28  C   UNL A   1      41.612  30.169  35.717  1.00  0.00     0.029 A 
ATOM     29  N   UNL A   1      41.495  29.423  33.626  1.00  0.00    -0.354 N 
ATOM     30  N   UNL A   1      42.370  27.828  31.322  1.00  0.00    -0.248 NA
ATOM     31  C   UNL A   1      43.940  26.446  30.285  1.00  0.00     0.031 C 
ATOM     32  C   UNL A   1      42.737  29.374  35.467  1.00  0.00     0.029 A 
ATOM     33  C   UNL A   1      42.652  28.889  34.172  1.00  0.00     0.049 A 
ATOM     34  H   UNL A   1      41.173  29.255  32.710  1.00  0.00     0.167 HD
ATOM     35  C   UNL A   1      43.396  27.559  32.215  1.00  0.00     0.074 A 
ATOM     36  C   UNL A   1      44.320  26.674  31.534  1.00  0.00     0.031 C 
ATOM     37  C   UNL A   1      43.560  28.006  33.484  1.00  0.00     0.037 A 
BRANCH  24  38
ATOM     38  C   UNL A   1      39.124  31.858  35.405  1.00  0.00     0.064 A 
ATOM     39  C   UNL A   1      38.322  31.368  36.448  1.00  0.00     0.173 A 
ATOM     40  C   UNL A   1      39.469  33.219  35.430  1.00  0.00     0.173 A 
ATOM     41  F   UNL A   1      37.955  30.078  36.468  1.00  0.00    -0.203 F 
ATOM     42  C   UNL A   1      37.861  32.213  37.455  1.00  0.00     0.198 A 
ATOM     43  C   UNL A   1      39.030  34.053  36.455  1.00  0.00     0.198 A 
ATOM     44  F   UNL A   1      40.239  33.739  34.463  1.00  0.00    -0.203 F 
ATOM     45  F   UNL A   1      37.055  31.732  38.413  1.00  0.00    -0.200 F 
ATOM     46  C   UNL A   1      38.220  33.551  37.462  1.00  0.00     0.200 A 
ATOM     47  F   UNL A   1      39.391  35.344  36.467  1.00  0.00    -0.200 F 
ATOM     48  F   UNL A   1      37.779  34.361  38.435  1.00  0.00    -0.200 F 
ENDBRANCH  24  38
BRANCH  25  49
ATOM     49  C   UNL A   1      42.385  26.245  27.812  1.00  0.00     0.064 A 
ATOM     50  C   UNL A   1      42.007  24.899  27.713  1.00  0.00     0.173 A 
ATOM     51  C   UNL A   1      43.223  26.764  26.814  1.00  0.00     0.173 A 
ATOM     52  F   UNL A   1      41.224  24.353  28.654  1.00  0.00    -0.203 F 
ATOM     53  C   UNL A   1      42.463  24.100  26.667  1.00  0.00     0.198 A 
ATOM     54  C   UNL A   1      43.652  25.973  25.751  1.00  0.00     0.198 A 
ATOM     55  F   UNL A   1      43.608  28.048  26.860  1.00  0.00    -0.203 F 
ATOM     56  F   UNL A   1      42.121  22.805  26.619  1.00  0.00    -0.200 F 
ATOM     57  C   UNL A   1      43.278  24.639  25.683  1.00  0.00     0.200 A 
ATOM     58  F   UNL A   1      44.425  26.502  24.794  1.00  0.00    -0.200 F 
ATOM     59  F   UNL A   1      43.709  23.872  24.673  1.00  0.00    -0.200 F 
ENDBRANCH  25  49
BRANCH  37  60
ATOM     60  C   UNL A   1      44.768  27.515  34.229  1.00  0.00     0.064 A 
ATOM     61  C   UNL A   1      45.978  28.221  34.222  1.00  0.00     0.173 A 
ATOM     62  C   UNL A   1      44.705  26.326  34.973  1.00  0.00     0.173 A 
ATOM     63  F   UNL A   1      46.095  29.353  33.510  1.00  0.00    -0.203 F 
ATOM     64  C   UNL A   1      47.093  27.739  34.903  1.00  0.00     0.198 A 
ATOM     65  C   UNL A   1      45.811  25.864  35.680  1.00  0.00     0.198 A 
ATOM     66  F   UNL A   1      43.568  25.614  35.018  1.00  0.00    -0.203 F 
ATOM     67  F   UNL A   1      48.256  28.401  34.834  1.00  0.00    -0.200 F 
ATOM     68  C   UNL A   1      47.006  26.565  35.637  1.00  0.00     0.200 A 
ATOM     69  F   UNL A   1      45.721  24.737  36.398  1.00  0.00    -0.200 F 
ATOM     70  F   UNL A   1      48.080  26.104  36.294  1.00  0.00    -0.200 F 
ENDBRANCH  37  60
ENDBRANCH  11  12
ENDBRANCH   4   6
ENDBRANCH   1   2
BRANCH   1  71
ATOM     71  C   UNL A   1      32.816  28.954  23.843  1.00  0.00     0.042 C 
BRANCH  71  72
ATOM     72  C   UNL A   1      33.960  28.548  22.923  1.00  0.00     0.117 C 
BRANCH  72  73
ATOM     73  N   UNL A   1      33.541  27.576  21.926  1.00  0.00    -0.354 N 
ATOM     74  C   UNL A   1      33.495  26.214  22.012  1.00  0.00     0.250 C 
ATOM     75  H   UNL A   1      33.250  27.955  21.065  1.00  0.00     0.163 HD
ATOM     76  O   UNL A   1      33.160  25.584  21.005  1.00  0.00    -0.272 OA
BRANCH  74  77
ATOM     77  C   UNL A   1      33.753  25.500  23.345  1.00  0.00     0.226 C 
ATOM     78  C   UNL A   1      34.223  24.069  23.018  1.00  0.00     0.158 C 
ATOM     79  O   UNL A   1      32.611  25.530  24.218  1.00  0.00    -0.365 OA
ATOM     80  N   UNL A   1      34.343  23.261  24.240  1.00  0.00    -0.366 N 
ATOM     81  C   UNL A   1      32.877  24.812  25.435  1.00  0.00     0.182 C 
ATOM     82  C   UNL A   1      33.195  23.335  25.152  1.00  0.00     0.145 C 
BRANCH  80  83
ATOM     83  C   UNL A   1      35.560  22.806  24.702  1.00  0.00     0.038 A 
ATOM     84  C   UNL A   1      35.933  21.458  24.625  1.00  0.00     0.026 A 
ATOM     85  C   UNL A   1      36.472  23.702  25.280  1.00  0.00     0.046 A 
ATOM     86  C   UNL A   1      37.173  21.016  25.099  1.00  0.00     0.004 A 
ATOM     87  C   UNL A   1      37.701  23.262  25.769  1.00  0.00     0.043 A 
ATOM     88  C   UNL A   1      38.059  21.920  25.677  1.00  0.00     0.020 A 
ATOM     89  Cl  UNL A   1      38.780  24.385  26.502  1.00  0.00    -0.084 Cl
ENDBRANCH  80  83
ENDBRANCH  74  77
ENDBRANCH  72  73
ENDBRANCH  71  72
ENDBRANCH   1  71
TORSDOF 11
ENDMDL
MODEL 2
REMARK VINA RESULT:     -12.3      0.062      1.630
REMARK SMILES O=C(NCCCNC(=O)[C@@H]1CN(c2cccc(Cl)c2)CCO1)c1ccc(-c2c3nc(c(-c4c(F)c(F)c(F)c(F)c4F)c4ccc([nH]4)c(-c4c(F)c(F)c(F)c(F)c4F)c4nc(c(-c5c(F)c(F)c(F)c(F)c5F)c5ccc2[nH]5)C=C4)C=C3)cc1
REMARK SMILES IDX 4 1 3 2 1 3 2 4 23 6 24 7 85 8 25 9 84 10 26 11 27 12 28 13
REMARK SMILES IDX 78 14 29 15 83 16 77 17 79 18 30 19 82 20 76 21 75 22 31 24
REMARK SMILES IDX 63 25 43 26 62 27 44 28 47 29 61 30 80 31 45 32 46 33 60 35
REMARK SMILES IDX 81 36 48 37 32 38 33 39 41 40 34 41 35 42 39 43 42 44 36 45
REMARK SMILES IDX 37 46 40 47 38 48 64 49 65 50 73 51 66 52 67 53 71 54 74 55
REMARK SMILES IDX 68 56 69 57 72 58 70 59 49 60 50 61 58 62 51 63 52 64 56 65
REMARK SMILES IDX 59 66 53 67 54 68 57 69 55 70 5 71 6 72 7 73 8 74 9 76 10 77
REMARK SMILES IDX 11 78 22 79 12 80 21 81 20 82 13 83 14 84 19 85 15 86 17 87
REMARK SMILES IDX 16 88 18 89
REMARK H PARENT 3 5 79 23 47 34 7 75
REMARK Flexibility Score: inf
ROOT
ATOM      1  C   UNL A   1      33.263  29.246  25.224  1.00  0.00     0.118 C 
ENDROOT
BRANCH   1   2
ATOM      2  N   UNL A   1      32.763  30.498  25.778  1.00  0.00    -0.352 N 
ATOM      3  O   UNL A   1      32.518  32.176  27.256  1.00  0.00    -0.269 OA
ATOM      4  C   UNL A   1      33.194  31.232  26.856  1.00  0.00     0.251 C 
ATOM      5  H   UNL A   1      31.992  30.880  25.301  1.00  0.00     0.163 HD
BRANCH   4   6
ATOM      6  C   UNL A   1      34.450  30.883  27.555  1.00  0.00     0.039 A 
ATOM      7  C   UNL A   1      34.668  29.595  28.046  1.00  0.00     0.014 A 
ATOM      8  C   UNL A   1      35.445  31.857  27.691  1.00  0.00     0.014 A 
ATOM      9  C   UNL A   1      35.798  29.328  28.809  1.00  0.00     0.010 A 
ATOM     10  C   UNL A   1      36.627  31.558  28.376  1.00  0.00     0.010 A 
ATOM     11  C   UNL A   1      36.796  30.301  28.976  1.00  0.00    -0.014 A 
BRANCH  11  12
ATOM     12  C   UNL A   1      38.022  29.958  29.741  1.00  0.00     0.031 A 
ATOM     13  C   UNL A   1      38.226  30.451  31.147  1.00  0.00     0.074 A 
ATOM     14  C   UNL A   1      38.940  29.155  29.168  1.00  0.00     0.049 A 
ATOM     15  N   UNL A   1      39.210  30.198  31.975  1.00  0.00    -0.248 NA
ATOM     16  C   UNL A   1      37.201  31.350  31.694  1.00  0.00     0.031 C 
ATOM     17  C   UNL A   1      38.859  28.626  27.805  1.00  0.00     0.029 A 
ATOM     18  N   UNL A   1      40.104  28.623  29.661  1.00  0.00    -0.354 N 
ATOM     19  C   UNL A   1      38.932  30.919  33.130  1.00  0.00     0.074 A 
ATOM     20  C   UNL A   1      37.703  31.645  32.885  1.00  0.00     0.031 C 
ATOM     21  C   UNL A   1      39.893  27.800  27.592  1.00  0.00     0.029 A 
ATOM     22  C   UNL A   1      40.742  27.789  28.777  1.00  0.00     0.049 A 
ATOM     23  H   UNL A   1      40.448  28.820  30.563  1.00  0.00     0.167 HD
ATOM     24  C   UNL A   1      39.633  30.962  34.289  1.00  0.00     0.037 A 
ATOM     25  C   UNL A   1      41.889  27.096  28.902  1.00  0.00     0.037 A 
ATOM     26  C   UNL A   1      40.847  30.224  34.532  1.00  0.00     0.049 A 
ATOM     27  C   UNL A   1      42.657  27.185  30.190  1.00  0.00     0.074 A 
ATOM     28  C   UNL A   1      41.606  30.165  35.690  1.00  0.00     0.029 A 
ATOM     29  N   UNL A   1      41.486  29.421  33.598  1.00  0.00    -0.354 N 
ATOM     30  N   UNL A   1      42.357  27.829  31.291  1.00  0.00    -0.248 NA
ATOM     31  C   UNL A   1      43.926  26.448  30.251  1.00  0.00     0.031 C 
ATOM     32  C   UNL A   1      42.730  29.370  35.437  1.00  0.00     0.029 A 
ATOM     33  C   UNL A   1      42.643  28.886  34.142  1.00  0.00     0.049 A 
ATOM     34  H   UNL A   1      41.163  29.255  32.682  1.00  0.00     0.167 HD
ATOM     35  C   UNL A   1      43.385  27.559  32.183  1.00  0.00     0.074 A 
ATOM     36  C   UNL A   1      44.307  26.674  31.499  1.00  0.00     0.031 C 
ATOM     37  C   UNL A   1      43.551  28.004  33.451  1.00  0.00     0.037 A 
BRANCH  24  38
ATOM     38  C   UNL A   1      39.118  31.856  35.382  1.00  0.00     0.064 A 
ATOM     39  C   UNL A   1      38.311  31.366  36.422  1.00  0.00     0.173 A 
ATOM     40  C   UNL A   1      39.470  33.214  35.412  1.00  0.00     0.173 A 
ATOM     41  F   UNL A   1      37.938  30.078  36.437  1.00  0.00    -0.203 F 
ATOM     42  C   UNL A   1      37.852  32.210  37.431  1.00  0.00     0.198 A 
ATOM     43  C   UNL A   1      39.032  34.048  36.440  1.00  0.00     0.198 A 
ATOM     44  F   UNL A   1      40.244  33.734  34.449  1.00  0.00    -0.203 F 
ATOM     45  F   UNL A   1      37.042  31.730  38.385  1.00  0.00    -0.200 F 
ATOM     46  C   UNL A   1      38.217  33.546  37.443  1.00  0.00     0.200 A 
ATOM     47  F   UNL A   1      39.400  35.337  36.456  1.00  0.00    -0.200 F 
ATOM     48  F   UNL A   1      37.778  34.355  38.418  1.00  0.00    -0.200 F 
ENDBRANCH  24  38
BRANCH  25  49
ATOM     49  C   UNL A   1      42.368  26.250  27.779  1.00  0.00     0.064 A 
ATOM     50  C   UNL A   1      43.237  26.766  26.809  1.00  0.00     0.173 A 
ATOM     51  C   UNL A   1      41.977  24.908  27.659  1.00  0.00     0.173 A 
ATOM     52  F   UNL A   1      43.623  28.049  26.871  1.00  0.00    -0.203 F 
ATOM     53  C   UNL A   1      43.683  25.978  25.751  1.00  0.00     0.198 A 
ATOM     54  C   UNL A   1      42.449  24.112  26.618  1.00  0.00     0.198 A 
ATOM     55  F   UNL A   1      41.151  24.365  28.565  1.00  0.00    -0.203 F 
ATOM     56  F   UNL A   1      44.480  26.509  24.812  1.00  0.00    -0.200 F 
ATOM     57  C   UNL A   1      43.295  24.650  25.660  1.00  0.00     0.200 A 
ATOM     58  F   UNL A   1      42.085  22.825  26.545  1.00  0.00    -0.200 F 
ATOM     59  F   UNL A   1      43.731  23.890  24.647  1.00  0.00    -0.200 F 
ENDBRANCH  25  49
BRANCH  37  60
ATOM     60  C   UNL A   1      44.759  27.511  34.195  1.00  0.00     0.064 A 
ATOM     61  C   UNL A   1      44.735  26.322  34.936  1.00  0.00     0.173 A 
ATOM     62  C   UNL A   1      45.961  28.233  34.150  1.00  0.00     0.173 A 
ATOM     63  F   UNL A   1      43.604  25.604  35.025  1.00  0.00    -0.203 F 
ATOM     64  C   UNL A   1      45.859  25.890  35.634  1.00  0.00     0.198 A 
ATOM     65  C   UNL A   1      47.093  27.782  34.822  1.00  0.00     0.198 A 
ATOM     66  F   UNL A   1      46.040  29.376  33.450  1.00  0.00    -0.203 F 
ATOM     67  F   UNL A   1      45.796  24.781  36.383  1.00  0.00    -0.200 F 
ATOM     68  C   UNL A   1      47.039  26.617  35.572  1.00  0.00     0.200 A 
ATOM     69  F   UNL A   1      48.235  28.479  34.750  1.00  0.00    -0.200 F 
ATOM     70  F   UNL A   1      48.121  26.198  36.242  1.00  0.00    -0.200 F 
ENDBRANCH  37  60
ENDBRANCH  11  12
ENDBRANCH   4   6
ENDBRANCH   1   2
BRANCH   1  71
ATOM     71  C   UNL A   1      32.837  29.025  23.777  1.00  0.00     0.042 C 
BRANCH  71  72
ATOM     72  C   UNL A   1      33.962  28.527  22.879  1.00  0.00     0.117 C 
BRANCH  72  73
ATOM     73  N   UNL A   1      33.492  27.563  21.897  1.00  0.00    -0.354 N 
ATOM     74  C   UNL A   1      33.398  26.204  21.996  1.00  0.00     0.250 C 
ATOM     75  H   UNL A   1      33.201  27.945  21.038  1.00  0.00     0.163 HD
ATOM     76  O   UNL A   1      33.024  25.578  21.001  1.00  0.00    -0.272 OA
BRANCH  74  77
ATOM     77  C   UNL A   1      33.654  25.492  23.331  1.00  0.00     0.226 C 
ATOM     78  C   UNL A   1      34.127  24.061  23.008  1.00  0.00     0.158 C 
ATOM     79  O   UNL A   1      32.508  25.521  24.200  1.00  0.00    -0.365 OA
ATOM     80  N   UNL A   1      34.245  23.256  24.231  1.00  0.00    -0.366 N 
ATOM     81  C   UNL A   1      32.771  24.805  25.419  1.00  0.00     0.182 C 
ATOM     82  C   UNL A   1      33.093  23.328  25.138  1.00  0.00     0.145 C 
BRANCH  80  83
ATOM     83  C   UNL A   1      35.461  22.804  24.697  1.00  0.00     0.038 A 
ATOM     84  C   UNL A   1      35.836  21.456  24.626  1.00  0.00     0.026 A 
ATOM     85  C   UNL A   1      36.370  23.702  25.275  1.00  0.00     0.046 A 
ATOM     86  C   UNL A   1      37.075  21.017  25.105  1.00  0.00     0.004 A 
ATOM     87  C   UNL A   1      37.599  23.265  25.769  1.00  0.00     0.043 A 
ATOM     88  C   UNL A   1      37.959  21.924  25.682  1.00  0.00     0.020 A 
ATOM     89  Cl  UNL A   1      38.674  24.393  26.501  1.00  0.00    -0.084 Cl
ENDBRANCH  80  83
ENDBRANCH  74  77
ENDBRANCH  72  73
ENDBRANCH  71  72
ENDBRANCH   1  71
TORSDOF 11
ENDMDL
MODEL 3
REMARK VINA RESULT:     -12.2      4.174      7.420
REMARK SMILES O=C(NCCCNC(=O)[C@@H]1CN(c2cccc(Cl)c2)CCO1)c1ccc(-c2c3nc(c(-c4c(F)c(F)c(F)c(F)c4F)c4ccc([nH]4)c(-c4c(F)c(F)c(F)c(F)c4F)c4nc(c(-c5c(F)c(F)c(F)c(F)c5F)c5ccc2[nH]5)C=C4)C=C3)cc1
REMARK SMILES IDX 4 1 3 2 1 3 2 4 23 6 24 7 85 8 25 9 84 10 26 11 27 12 28 13
REMARK SMILES IDX 78 14 29 15 83 16 77 17 79 18 30 19 82 20 76 21 75 22 31 24
REMARK SMILES IDX 63 25 43 26 62 27 44 28 47 29 61 30 80 31 45 32 46 33 60 35
REMARK SMILES IDX 81 36 48 37 32 38 33 39 41 40 34 41 35 42 39 43 42 44 36 45
REMARK SMILES IDX 37 46 40 47 38 48 64 49 65 50 73 51 66 52 67 53 71 54 74 55
REMARK SMILES IDX 68 56 69 57 72 58 70 59 49 60 50 61 58 62 51 63 52 64 56 65
REMARK SMILES IDX 59 66 53 67 54 68 57 69 55 70 5 71 6 72 7 73 8 74 9 76 10 77
REMARK SMILES IDX 11 78 22 79 12 80 21 81 20 82 13 83 14 84 19 85 15 86 17 87
REMARK SMILES IDX 16 88 18 89
REMARK H PARENT 3 5 79 23 47 34 7 75
REMARK Flexibility Score: inf
ROOT
ATOM      1  C   UNL A   1      34.635  32.381  28.961  1.00  0.00     0.118 C 
ENDROOT
BRANCH   1   2
ATOM      2  N   UNL A   1      34.067  31.142  28.443  1.00  0.00    -0.352 N 
ATOM      3  O   UNL A   1      34.022  29.099  27.504  1.00  0.00    -0.269 OA
ATOM      4  C   UNL A   1      34.674  29.965  28.081  1.00  0.00     0.251 C 
ATOM      5  H   UNL A   1      33.089  31.150  28.337  1.00  0.00     0.163 HD
BRANCH   4   6
ATOM      6  C   UNL A   1      36.110  29.738  28.358  1.00  0.00     0.039 A 
ATOM      7  C   UNL A   1      37.082  30.025  27.399  1.00  0.00     0.014 A 
ATOM      8  C   UNL A   1      36.493  29.260  29.616  1.00  0.00     0.014 A 
ATOM      9  C   UNL A   1      38.408  29.683  27.635  1.00  0.00     0.010 A 
ATOM     10  C   UNL A   1      37.841  29.009  29.888  1.00  0.00     0.010 A 
ATOM     11  C   UNL A   1      38.807  29.181  28.884  1.00  0.00    -0.014 A 
BRANCH  11  12
ATOM     12  C   UNL A   1      40.244  28.891  29.124  1.00  0.00     0.031 A 
ATOM     13  C   UNL A   1      41.100  29.817  29.942  1.00  0.00     0.074 A 
ATOM     14  C   UNL A   1      40.766  27.753  28.627  1.00  0.00     0.049 A 
ATOM     15  N   UNL A   1      42.355  29.685  30.296  1.00  0.00    -0.248 NA
ATOM     16  C   UNL A   1      40.472  31.057  30.422  1.00  0.00     0.031 C 
ATOM     17  C   UNL A   1      40.038  26.783  27.805  1.00  0.00     0.029 A 
ATOM     18  N   UNL A   1      42.017  27.204  28.758  1.00  0.00    -0.354 N 
ATOM     19  C   UNL A   1      42.670  30.828  31.020  1.00  0.00     0.074 A 
ATOM     20  C   UNL A   1      41.485  31.659  31.030  1.00  0.00     0.031 C 
ATOM     21  C   UNL A   1      40.834  25.734  27.556  1.00  0.00     0.029 A 
ATOM     22  C   UNL A   1      42.144  25.982  28.145  1.00  0.00     0.049 A 
ATOM     23  H   UNL A   1      42.751  27.645  29.244  1.00  0.00     0.167 HD
ATOM     24  C   UNL A   1      43.839  31.148  31.627  1.00  0.00     0.037 A 
ATOM     25  C   UNL A   1      43.202  25.155  28.060  1.00  0.00     0.037 A 
ATOM     26  C   UNL A   1      45.012  30.309  31.627  1.00  0.00     0.049 A 
ATOM     27  C   UNL A   1      44.492  25.549  28.722  1.00  0.00     0.074 A 
ATOM     28  C   UNL A   1      46.228  30.524  32.253  1.00  0.00     0.029 A 
ATOM     29  N   UNL A   1      45.117  29.097  30.961  1.00  0.00    -0.354 N 
ATOM     30  N   UNL A   1      44.762  26.608  29.445  1.00  0.00    -0.248 NA
ATOM     31  C   UNL A   1      45.625  24.631  28.553  1.00  0.00     0.031 C 
ATOM     32  C   UNL A   1      47.085  29.468  31.921  1.00  0.00     0.029 A 
ATOM     33  C   UNL A   1      46.385  28.566  31.136  1.00  0.00     0.049 A 
ATOM     34  H   UNL A   1      44.395  28.674  30.440  1.00  0.00     0.167 HD
ATOM     35  C   UNL A   1      46.085  26.474  29.838  1.00  0.00     0.074 A 
ATOM     36  C   UNL A   1      46.558  25.220  29.287  1.00  0.00     0.031 C 
ATOM     37  C   UNL A   1      46.841  27.314  30.585  1.00  0.00     0.037 A 
BRANCH  24  38
ATOM     38  C   UNL A   1      43.920  32.475  32.328  1.00  0.00     0.064 A 
ATOM     39  C   UNL A   1      43.601  32.617  33.688  1.00  0.00     0.173 A 
ATOM     40  C   UNL A   1      44.361  33.616  31.638  1.00  0.00     0.173 A 
ATOM     41  F   UNL A   1      43.166  31.561  34.392  1.00  0.00    -0.203 F 
ATOM     42  C   UNL A   1      43.691  33.854  34.321  1.00  0.00     0.198 A 
ATOM     43  C   UNL A   1      44.479  34.845  32.283  1.00  0.00     0.198 A 
ATOM     44  F   UNL A   1      44.687  33.537  30.340  1.00  0.00    -0.203 F 
ATOM     45  F   UNL A   1      43.333  33.974  35.607  1.00  0.00    -0.200 F 
ATOM     46  C   UNL A   1      44.135  34.965  33.621  1.00  0.00     0.200 A 
ATOM     47  F   UNL A   1      44.922  35.914  31.607  1.00  0.00    -0.200 F 
ATOM     48  F   UNL A   1      44.227  36.154  34.234  1.00  0.00    -0.200 F 
ENDBRANCH  24  38
BRANCH  25  49
ATOM     49  C   UNL A   1      43.077  23.867  27.330  1.00  0.00     0.064 A 
ATOM     50  C   UNL A   1      43.470  23.758  25.990  1.00  0.00     0.173 A 
ATOM     51  C   UNL A   1      42.573  22.718  27.958  1.00  0.00     0.173 A 
ATOM     52  F   UNL A   1      43.939  24.834  25.341  1.00  0.00    -0.203 F 
ATOM     53  C   UNL A   1      43.347  22.555  25.300  1.00  0.00     0.198 A 
ATOM     54  C   UNL A   1      42.480  21.507  27.277  1.00  0.00     0.198 A 
ATOM     55  F   UNL A   1      42.188  22.769  29.243  1.00  0.00    -0.203 F 
ATOM     56  F   UNL A   1      43.690  22.489  24.006  1.00  0.00    -0.200 F 
ATOM     57  C   UNL A   1      42.860  21.428  25.946  1.00  0.00     0.200 A 
ATOM     58  F   UNL A   1      42.026  20.419  27.911  1.00  0.00    -0.200 F 
ATOM     59  F   UNL A   1      42.750  20.269  25.284  1.00  0.00    -0.200 F 
ENDBRANCH  25  49
BRANCH  37  60
ATOM     60  C   UNL A   1      48.250  26.885  30.879  1.00  0.00     0.064 A 
ATOM     61  C   UNL A   1      49.331  27.314  30.097  1.00  0.00     0.173 A 
ATOM     62  C   UNL A   1      48.520  26.043  31.969  1.00  0.00     0.173 A 
ATOM     63  F   UNL A   1      49.124  28.104  29.033  1.00  0.00    -0.203 F 
ATOM     64  C   UNL A   1      50.628  26.889  30.374  1.00  0.00     0.198 A 
ATOM     65  C   UNL A   1      49.822  25.647  32.263  1.00  0.00     0.198 A 
ATOM     66  F   UNL A   1      47.521  25.608  32.753  1.00  0.00    -0.203 F 
ATOM     67  F   UNL A   1      51.639  27.265  29.579  1.00  0.00    -0.200 F 
ATOM     68  C   UNL A   1      50.873  26.062  31.461  1.00  0.00     0.200 A 
ATOM     69  F   UNL A   1      50.057  24.858  33.320  1.00  0.00    -0.200 F 
ATOM     70  F   UNL A   1      52.122  25.656  31.727  1.00  0.00    -0.200 F 
ENDBRANCH  37  60
ENDBRANCH  11  12
ENDBRANCH   4   6
ENDBRANCH   1   2
BRANCH   1  71
ATOM     71  C   UNL A   1      35.174  33.290  27.862  1.00  0.00     0.042 C 
BRANCH  71  72
ATOM     72  C   UNL A   1      35.154  34.768  28.230  1.00  0.00     0.117 C 
BRANCH  72  73
ATOM     73  N   UNL A   1      33.821  35.340  28.132  1.00  0.00    -0.354 N 
ATOM     74  C   UNL A   1      33.088  35.992  29.081  1.00  0.00     0.250 C 
ATOM     75  H   UNL A   1      33.385  35.243  27.254  1.00  0.00     0.163 HD
ATOM     76  O   UNL A   1      31.941  36.341  28.786  1.00  0.00    -0.272 OA
BRANCH  74  77
ATOM     77  C   UNL A   1      33.706  36.365  30.435  1.00  0.00     0.226 C 
ATOM     78  C   UNL A   1      33.634  35.116  31.335  1.00  0.00     0.158 C 
ATOM     79  O   UNL A   1      33.084  37.519  31.026  1.00  0.00    -0.365 OA
ATOM     80  N   UNL A   1      34.062  35.428  32.706  1.00  0.00    -0.366 N 
ATOM     81  C   UNL A   1      33.659  37.808  32.313  1.00  0.00     0.182 C 
ATOM     82  C   UNL A   1      33.462  36.635  33.286  1.00  0.00     0.145 C 
BRANCH  80  83
ATOM     83  C   UNL A   1      35.212  34.899  33.254  1.00  0.00     0.038 A 
ATOM     84  C   UNL A   1      35.245  34.361  34.547  1.00  0.00     0.026 A 
ATOM     85  C   UNL A   1      36.404  34.894  32.515  1.00  0.00     0.046 A 
ATOM     86  C   UNL A   1      36.422  33.828  35.085  1.00  0.00     0.004 A 
ATOM     87  C   UNL A   1      37.582  34.379  33.055  1.00  0.00     0.043 A 
ATOM     88  C   UNL A   1      37.596  33.841  34.338  1.00  0.00     0.020 A 
ATOM     89  Cl  UNL A   1      39.034  34.421  32.130  1.00  0.00    -0.084 Cl
ENDBRANCH  80  83
ENDBRANCH  74  77
ENDBRANCH  72  73
ENDBRANCH  71  72
ENDBRANCH   1  71
TORSDOF 11
ENDMDL
