MODEL 1
REMARK VINA RESULT:     -13.7      0.000      0.000
REMARK SMILES Cc1ccccc1CCNc1ccc(C(=O)NCCCNC(=O)c2ccc(-c3c4nc(c(-c5c(F)c(F)c(F)c(F)c5F)c5ccc([nH]5)c(-c5c(F)c(F)c(F)c(F)c5F)c5nc(c(-c6c(F)c(F)c(F)c(F)c6F)c6ccc3[nH]6)C=C5)C=C4)cc2)cc1N
REMARK SMILES IDX 18 1 17 2 15 3 16 4 14 6 11 7 12 8 88 9 13 10 87 11 10 12
REMARK SMILES IDX 9 14 8 15 7 16 1 17 2 18 3 19 4 20 6 21 5 22 89 23 19 26
REMARK SMILES IDX 20 27 21 28 22 29 23 31 24 32 25 33 86 34 26 35 85 36 27 37
REMARK SMILES IDX 28 38 29 39 79 40 30 41 84 42 78 43 80 44 31 45 83 46 77 47
REMARK SMILES IDX 76 48 32 50 64 51 44 52 63 53 45 54 48 55 62 56 81 57 46 58
REMARK SMILES IDX 47 59 61 61 82 62 49 63 33 64 34 65 42 66 35 67 36 68 40 69
REMARK SMILES IDX 43 70 37 71 38 72 41 73 39 74 65 75 66 76 74 77 67 78 68 79
REMARK SMILES IDX 72 80 75 81 69 82 70 83 73 84 71 85 50 86 51 87 59 88 52 89
REMARK SMILES IDX 53 90 57 91 60 92 54 93 55 94 58 95 56 96
REMARK H PARENT 17 5 10 13 89 24 89 25 21 30 80 49 48 60
REMARK Flexibility Score: inf
ROOT
ATOM      1  C   UNL A   1      32.621  29.896  25.412  1.00  0.00     0.118 C 
ENDROOT
BRANCH   1   2
ATOM      2  N   UNL A   1      31.381  30.138  24.690  1.00  0.00    -0.352 N 
ATOM      3  C   UNL A   1      30.546  29.326  23.956  1.00  0.00     0.251 C 
ATOM      4  O   UNL A   1      29.527  29.858  23.510  1.00  0.00    -0.269 OA
ATOM      5  H   UNL A   1      31.076  31.072  24.737  1.00  0.00     0.163 HD
BRANCH   3   6
ATOM      6  C   UNL A   1      30.783  27.872  23.683  1.00  0.00     0.041 A 
ATOM      7  C   UNL A   1      31.263  25.160  22.979  1.00  0.00     0.057 A 
ATOM      8  C   UNL A   1      30.877  25.511  24.267  1.00  0.00     0.029 A 
ATOM      9  C   UNL A   1      31.403  26.185  22.018  1.00  0.00     0.056 A 
ATOM     10  C   UNL A   1      30.642  26.842  24.610  1.00  0.00     0.016 A 
ATOM     11  C   UNL A   1      31.199  27.523  22.388  1.00  0.00     0.041 A 
BRANCH   7  12
ATOM     12  N   UNL A   1      31.467  23.836  22.634  1.00  0.00    -0.383 N 
ATOM     13  H   UNL A   1      30.786  23.387  22.082  1.00  0.00     0.160 HD
BRANCH  12  14
ATOM     14  C   UNL A   1      32.637  23.074  23.046  1.00  0.00     0.117 C 
BRANCH  14  15
ATOM     15  C   UNL A   1      33.927  23.858  22.749  1.00  0.00     0.057 C 
BRANCH  15  16
ATOM     16  C   UNL A   1      35.014  23.601  23.774  1.00  0.00    -0.043 A 
ATOM     17  C   UNL A   1      34.202  25.415  25.412  1.00  0.00     0.044 C 
ATOM     18  C   UNL A   1      35.170  24.358  24.952  1.00  0.00    -0.048 A 
ATOM     19  C   UNL A   1      36.260  24.078  25.800  1.00  0.00     0.004 A 
ATOM     20  C   UNL A   1      37.190  23.089  25.485  1.00  0.00     0.000 A 
ATOM     21  C   UNL A   1      35.942  22.578  23.499  1.00  0.00     0.004 A 
ATOM     22  C   UNL A   1      37.028  22.334  24.333  1.00  0.00     0.000 A 
ENDBRANCH  15  16
ENDBRANCH  14  15
ENDBRANCH  12  14
ENDBRANCH   7  12
BRANCH   9  23
ATOM     23  N   UNL A   1      31.847  25.882  20.729  1.00  0.00    -0.397 N 
ATOM     24  H   UNL A   1      32.527  25.183  20.593  1.00  0.00     0.156 HD
ATOM     25  H   UNL A   1      31.479  26.368  19.955  1.00  0.00     0.156 HD
ENDBRANCH   9  23
ENDBRANCH   3   6
ENDBRANCH   1   2
BRANCH   1  26
ATOM     26  C   UNL A   1      32.643  30.622  26.760  1.00  0.00     0.042 C 
BRANCH  26  27
ATOM     27  C   UNL A   1      33.731  30.138  27.699  1.00  0.00     0.118 C 
BRANCH  27  28
ATOM     28  N   UNL A   1      34.392  31.218  28.430  1.00  0.00    -0.352 N 
ATOM     29  C   UNL A   1      35.640  31.191  29.039  1.00  0.00     0.251 C 
ATOM     30  H   UNL A   1      33.894  32.063  28.500  1.00  0.00     0.163 HD
ATOM     31  O   UNL A   1      36.092  32.153  29.618  1.00  0.00    -0.269 OA
BRANCH  29  32
ATOM     32  C   UNL A   1      36.441  29.963  28.850  1.00  0.00     0.039 A 
ATOM     33  C   UNL A   1      36.814  29.258  29.998  1.00  0.00     0.014 A 
ATOM     34  C   UNL A   1      37.070  29.748  27.626  1.00  0.00     0.014 A 
ATOM     35  C   UNL A   1      37.988  28.514  29.971  1.00  0.00     0.010 A 
ATOM     36  C   UNL A   1      38.281  29.082  27.624  1.00  0.00     0.010 A 
ATOM     37  C   UNL A   1      38.774  28.535  28.816  1.00  0.00    -0.014 A 
BRANCH  37  38
ATOM     38  C   UNL A   1      40.178  28.139  28.824  1.00  0.00     0.031 A 
ATOM     39  C   UNL A   1      40.583  26.804  28.346  1.00  0.00     0.074 A 
ATOM     40  C   UNL A   1      41.114  29.027  29.230  1.00  0.00     0.049 A 
ATOM     41  N   UNL A   1      41.660  26.193  28.708  1.00  0.00    -0.248 NA
ATOM     42  C   UNL A   1      39.753  26.022  27.440  1.00  0.00     0.031 C 
ATOM     43  C   UNL A   1      42.563  28.917  29.082  1.00  0.00     0.029 A 
ATOM     44  N   UNL A   1      40.931  30.145  30.064  1.00  0.00    -0.354 N 
ATOM     45  C   UNL A   1      41.806  25.083  27.903  1.00  0.00     0.074 A 
ATOM     46  C   UNL A   1      40.557  24.988  27.182  1.00  0.00     0.031 C 
ATOM     47  C   UNL A   1      43.150  29.697  30.005  1.00  0.00     0.029 A 
ATOM     48  C   UNL A   1      42.097  30.210  30.863  1.00  0.00     0.049 A 
ATOM     49  H   UNL A   1      40.157  30.753  30.087  1.00  0.00     0.167 HD
ATOM     50  C   UNL A   1      43.018  24.457  27.841  1.00  0.00     0.037 A 
ATOM     51  C   UNL A   1      42.051  30.057  32.217  1.00  0.00     0.037 A 
ATOM     52  C   UNL A   1      43.964  25.038  28.792  1.00  0.00     0.049 A 
ATOM     53  C   UNL A   1      42.912  28.933  32.740  1.00  0.00     0.074 A 
ATOM     54  C   UNL A   1      44.976  25.975  28.650  1.00  0.00     0.029 A 
ATOM     55  N   UNL A   1      43.746  24.901  30.160  1.00  0.00    -0.354 N 
ATOM     56  N   UNL A   1      43.322  27.936  32.010  1.00  0.00    -0.248 NA
ATOM     57  C   UNL A   1      43.320  28.817  34.137  1.00  0.00     0.031 C 
ATOM     58  C   UNL A   1      45.330  26.440  29.938  1.00  0.00     0.029 A 
ATOM     59  C   UNL A   1      44.546  25.778  30.866  1.00  0.00     0.049 A 
ATOM     60  H   UNL A   1      43.111  24.268  30.567  1.00  0.00     0.167 HD
ATOM     61  C   UNL A   1      43.993  27.043  32.804  1.00  0.00     0.074 A 
ATOM     62  C   UNL A   1      43.986  27.650  34.122  1.00  0.00     0.031 C 
ATOM     63  C   UNL A   1      44.477  25.866  32.316  1.00  0.00     0.037 A 
BRANCH  50  64
ATOM     64  C   UNL A   1      43.435  23.551  26.696  1.00  0.00     0.064 A 
ATOM     65  C   UNL A   1      43.024  22.198  26.656  1.00  0.00     0.173 A 
ATOM     66  C   UNL A   1      44.303  23.922  25.654  1.00  0.00     0.173 A 
ATOM     67  F   UNL A   1      42.089  21.723  27.488  1.00  0.00    -0.203 F 
ATOM     68  C   UNL A   1      43.559  21.274  25.753  1.00  0.00     0.198 A 
ATOM     69  C   UNL A   1      44.884  22.990  24.787  1.00  0.00     0.198 A 
ATOM     70  F   UNL A   1      44.566  25.209  25.396  1.00  0.00    -0.203 F 
ATOM     71  F   UNL A   1      43.141  20.000  25.779  1.00  0.00    -0.200 F 
ATOM     72  C   UNL A   1      44.526  21.659  24.849  1.00  0.00     0.200 A 
ATOM     73  F   UNL A   1      45.794  23.394  23.889  1.00  0.00    -0.200 F 
ATOM     74  F   UNL A   1      45.081  20.765  24.021  1.00  0.00    -0.200 F 
ENDBRANCH  50  64
BRANCH  51  75
ATOM     75  C   UNL A   1      40.758  30.466  32.826  1.00  0.00     0.064 A 
ATOM     76  C   UNL A   1      40.444  31.837  32.892  1.00  0.00     0.173 A 
ATOM     77  C   UNL A   1      39.715  29.553  33.018  1.00  0.00     0.173 A 
ATOM     78  F   UNL A   1      41.406  32.756  32.709  1.00  0.00    -0.203 F 
ATOM     79  C   UNL A   1      39.128  32.273  33.033  1.00  0.00     0.198 A 
ATOM     80  C   UNL A   1      38.400  29.994  33.174  1.00  0.00     0.198 A 
ATOM     81  F   UNL A   1      39.945  28.234  32.946  1.00  0.00    -0.203 F 
ATOM     82  F   UNL A   1      38.848  33.583  32.976  1.00  0.00    -0.200 F 
ATOM     83  C   UNL A   1      38.104  31.349  33.150  1.00  0.00     0.200 A 
ATOM     84  F   UNL A   1      37.403  29.100  33.251  1.00  0.00    -0.200 F 
ATOM     85  F   UNL A   1      36.830  31.761  33.191  1.00  0.00    -0.200 F 
ENDBRANCH  51  75
BRANCH  63  86
ATOM     86  C   UNL A   1      45.021  24.740  33.154  1.00  0.00     0.064 A 
ATOM     87  C   UNL A   1      44.318  23.550  33.402  1.00  0.00     0.173 A 
ATOM     88  C   UNL A   1      46.353  24.778  33.627  1.00  0.00     0.173 A 
ATOM     89  F   UNL A   1      43.092  23.349  32.900  1.00  0.00    -0.203 F 
ATOM     90  C   UNL A   1      44.880  22.500  34.134  1.00  0.00     0.198 A 
ATOM     91  C   UNL A   1      46.928  23.708  34.311  1.00  0.00     0.198 A 
ATOM     92  F   UNL A   1      47.137  25.847  33.419  1.00  0.00    -0.203 F 
ATOM     93  F   UNL A   1      44.153  21.402  34.383  1.00  0.00    -0.200 F 
ATOM     94  C   UNL A   1      46.186  22.576  34.581  1.00  0.00     0.200 A 
ATOM     95  F   UNL A   1      48.212  23.774  34.693  1.00  0.00    -0.200 F 
ATOM     96  F   UNL A   1      46.734  21.553  35.248  1.00  0.00    -0.200 F 
ENDBRANCH  63  86
ENDBRANCH  37  38
ENDBRANCH  29  32
ENDBRANCH  27  28
ENDBRANCH  26  27
ENDBRANCH   1  26
TORSDOF 15
ENDMDL
MODEL 2
REMARK VINA RESULT:     -13.5      1.189      1.830
REMARK SMILES Cc1ccccc1CCNc1ccc(C(=O)NCCCNC(=O)c2ccc(-c3c4nc(c(-c5c(F)c(F)c(F)c(F)c5F)c5ccc([nH]5)c(-c5c(F)c(F)c(F)c(F)c5F)c5nc(c(-c6c(F)c(F)c(F)c(F)c6F)c6ccc3[nH]6)C=C5)C=C4)cc2)cc1N
REMARK SMILES IDX 18 1 17 2 15 3 16 4 14 6 11 7 12 8 88 9 13 10 87 11 10 12
REMARK SMILES IDX 9 14 8 15 7 16 1 17 2 18 3 19 4 20 6 21 5 22 89 23 19 26
REMARK SMILES IDX 20 27 21 28 22 29 23 31 24 32 25 33 86 34 26 35 85 36 27 37
REMARK SMILES IDX 28 38 29 39 79 40 30 41 84 42 78 43 80 44 31 45 83 46 77 47
REMARK SMILES IDX 76 48 32 50 64 51 44 52 63 53 45 54 48 55 62 56 81 57 46 58
REMARK SMILES IDX 47 59 61 61 82 62 49 63 33 64 34 65 42 66 35 67 36 68 40 69
REMARK SMILES IDX 43 70 37 71 38 72 41 73 39 74 65 75 66 76 74 77 67 78 68 79
REMARK SMILES IDX 72 80 75 81 69 82 70 83 73 84 71 85 50 86 51 87 59 88 52 89
REMARK SMILES IDX 53 90 57 91 60 92 54 93 55 94 58 95 56 96
REMARK H PARENT 17 5 10 13 89 24 89 25 21 30 80 49 48 60
REMARK Flexibility Score: inf
ROOT
ATOM      1  C   UNL A   1      31.804  30.074  25.794  1.00  0.00     0.118 C 
ENDROOT
BRANCH   1   2
ATOM      2  N   UNL A   1      32.852  29.770  24.831  1.00  0.00    -0.352 N 
ATOM      3  C   UNL A   1      33.373  28.591  24.349  1.00  0.00     0.251 C 
ATOM      4  O   UNL A   1      34.242  28.697  23.482  1.00  0.00    -0.269 OA
ATOM      5  H   UNL A   1      33.273  30.571  24.445  1.00  0.00     0.163 HD
BRANCH   3   6
ATOM      6  C   UNL A   1      32.954  27.222  24.790  1.00  0.00     0.041 A 
ATOM      7  C   UNL A   1      31.988  24.654  25.535  1.00  0.00     0.057 A 
ATOM      8  C   UNL A   1      33.222  25.113  25.976  1.00  0.00     0.029 A 
ATOM      9  C   UNL A   1      31.213  25.499  24.712  1.00  0.00     0.056 A 
ATOM     10  C   UNL A   1      33.694  26.374  25.610  1.00  0.00     0.016 A 
ATOM     11  C   UNL A   1      31.717  26.749  24.321  1.00  0.00     0.041 A 
BRANCH   7  12
ATOM     12  N   UNL A   1      31.509  23.416  25.925  1.00  0.00    -0.383 N 
ATOM     13  H   UNL A   1      30.535  23.289  25.982  1.00  0.00     0.160 HD
BRANCH  12  14
ATOM     14  C   UNL A   1      32.375  22.292  26.255  1.00  0.00     0.117 C 
BRANCH  14  15
ATOM     15  C   UNL A   1      32.854  21.584  24.976  1.00  0.00     0.057 C 
BRANCH  15  16
ATOM     16  C   UNL A   1      34.305  21.884  24.653  1.00  0.00    -0.043 A 
ATOM     17  C   UNL A   1      33.768  23.479  22.703  1.00  0.00     0.044 C 
ATOM     18  C   UNL A   1      34.712  22.696  23.575  1.00  0.00    -0.048 A 
ATOM     19  C   UNL A   1      36.090  22.850  23.324  1.00  0.00     0.004 A 
ATOM     20  C   UNL A   1      37.047  22.201  24.102  1.00  0.00     0.000 A 
ATOM     21  C   UNL A   1      35.291  21.274  25.451  1.00  0.00     0.004 A 
ATOM     22  C   UNL A   1      36.647  21.413  25.170  1.00  0.00     0.000 A 
ENDBRANCH  15  16
ENDBRANCH  14  15
ENDBRANCH  12  14
ENDBRANCH   7  12
BRANCH   9  23
ATOM     23  N   UNL A   1      29.993  25.052  24.198  1.00  0.00    -0.397 N 
ATOM     24  H   UNL A   1      29.379  25.686  23.761  1.00  0.00     0.156 HD
ATOM     25  H   UNL A   1      29.746  24.101  24.274  1.00  0.00     0.156 HD
ENDBRANCH   9  23
ENDBRANCH   3   6
ENDBRANCH   1   2
BRANCH   1  26
ATOM     26  C   UNL A   1      32.311  30.987  26.914  1.00  0.00     0.042 C 
BRANCH  26  27
ATOM     27  C   UNL A   1      33.603  30.514  27.554  1.00  0.00     0.118 C 
BRANCH  27  28
ATOM     28  N   UNL A   1      34.215  31.508  28.433  1.00  0.00    -0.352 N 
ATOM     29  C   UNL A   1      35.419  31.409  29.118  1.00  0.00     0.251 C 
ATOM     30  H   UNL A   1      33.715  32.347  28.554  1.00  0.00     0.163 HD
ATOM     31  O   UNL A   1      35.833  32.303  29.821  1.00  0.00    -0.269 OA
BRANCH  29  32
ATOM     32  C   UNL A   1      36.228  30.198  28.860  1.00  0.00     0.039 A 
ATOM     33  C   UNL A   1      36.614  29.438  29.967  1.00  0.00     0.014 A 
ATOM     34  C   UNL A   1      36.849  30.052  27.622  1.00  0.00     0.014 A 
ATOM     35  C   UNL A   1      37.794  28.706  29.894  1.00  0.00     0.010 A 
ATOM     36  C   UNL A   1      38.065  29.397  27.577  1.00  0.00     0.010 A 
ATOM     37  C   UNL A   1      38.571  28.792  28.736  1.00  0.00    -0.014 A 
BRANCH  37  38
ATOM     38  C   UNL A   1      39.978  28.408  28.714  1.00  0.00     0.031 A 
ATOM     39  C   UNL A   1      40.375  27.039  28.333  1.00  0.00     0.074 A 
ATOM     40  C   UNL A   1      40.922  29.333  28.999  1.00  0.00     0.049 A 
ATOM     41  N   UNL A   1      41.474  26.469  28.696  1.00  0.00    -0.248 NA
ATOM     42  C   UNL A   1      39.513  26.178  27.536  1.00  0.00     0.031 C 
ATOM     43  C   UNL A   1      42.364  29.221  28.796  1.00  0.00     0.029 A 
ATOM     44  N   UNL A   1      40.765  30.518  29.743  1.00  0.00    -0.354 N 
ATOM     45  C   UNL A   1      41.595  25.295  27.984  1.00  0.00     0.074 A 
ATOM     46  C   UNL A   1      40.316  25.130  27.330  1.00  0.00     0.031 C 
ATOM     47  C   UNL A   1      42.983  30.080  29.621  1.00  0.00     0.029 A 
ATOM     48  C   UNL A   1      41.965  30.658  30.479  1.00  0.00     0.049 A 
ATOM     49  H   UNL A   1      39.987  31.120  29.749  1.00  0.00     0.167 HD
ATOM     50  C   UNL A   1      42.809  24.674  27.920  1.00  0.00     0.037 A 
ATOM     51  C   UNL A   1      41.981  30.622  31.842  1.00  0.00     0.037 A 
ATOM     52  C   UNL A   1      43.791  25.340  28.774  1.00  0.00     0.049 A 
ATOM     53  C   UNL A   1      42.876  29.552  32.419  1.00  0.00     0.074 A 
ATOM     54  C   UNL A   1      44.785  26.268  28.507  1.00  0.00     0.029 A 
ATOM     55  N   UNL A   1      43.636  25.319  30.157  1.00  0.00    -0.354 N 
ATOM     56  N   UNL A   1      43.264  28.498  31.759  1.00  0.00    -0.248 NA
ATOM     57  C   UNL A   1      43.348  29.559  33.801  1.00  0.00     0.031 C 
ATOM     58  C   UNL A   1      45.192  26.844  29.733  1.00  0.00     0.029 A 
ATOM     59  C   UNL A   1      44.457  26.259  30.749  1.00  0.00     0.049 A 
ATOM     60  H   UNL A   1      43.026  24.719  30.644  1.00  0.00     0.167 HD
ATOM     61  C   UNL A   1      43.978  27.682  32.595  1.00  0.00     0.074 A 
ATOM     62  C   UNL A   1      44.024  28.399  33.855  1.00  0.00     0.031 C 
ATOM     63  C   UNL A   1      44.453  26.470  32.187  1.00  0.00     0.037 A 
BRANCH  50  64
ATOM     64  C   UNL A   1      43.183  23.676  26.838  1.00  0.00     0.064 A 
ATOM     65  C   UNL A   1      42.887  22.301  26.987  1.00  0.00     0.173 A 
ATOM     66  C   UNL A   1      43.908  23.988  25.674  1.00  0.00     0.173 A 
ATOM     67  F   UNL A   1      42.085  21.857  27.962  1.00  0.00    -0.203 F 
ATOM     68  C   UNL A   1      43.405  21.321  26.133  1.00  0.00     0.198 A 
ATOM     69  C   UNL A   1      44.475  23.008  24.852  1.00  0.00     0.198 A 
ATOM     70  F   UNL A   1      44.033  25.253  25.254  1.00  0.00    -0.203 F 
ATOM     71  F   UNL A   1      43.101  20.031  26.340  1.00  0.00    -0.200 F 
ATOM     72  C   UNL A   1      44.239  21.671  25.093  1.00  0.00     0.200 A 
ATOM     73  F   UNL A   1      45.253  23.372  23.822  1.00  0.00    -0.200 F 
ATOM     74  F   UNL A   1      44.781  20.730  24.309  1.00  0.00    -0.200 F 
ENDBRANCH  50  64
BRANCH  51  75
ATOM     75  C   UNL A   1      40.712  31.073  32.472  1.00  0.00     0.064 A 
ATOM     76  C   UNL A   1      40.388  32.442  32.436  1.00  0.00     0.173 A 
ATOM     77  C   UNL A   1      39.689  30.173  32.788  1.00  0.00     0.173 A 
ATOM     78  F   UNL A   1      41.331  33.349  32.132  1.00  0.00    -0.203 F 
ATOM     79  C   UNL A   1      39.076  32.880  32.599  1.00  0.00     0.198 A 
ATOM     80  C   UNL A   1      38.377  30.617  32.965  1.00  0.00     0.198 A 
ATOM     81  F   UNL A   1      39.928  28.854  32.817  1.00  0.00    -0.203 F 
ATOM     82  F   UNL A   1      38.780  34.179  32.444  1.00  0.00    -0.200 F 
ATOM     83  C   UNL A   1      38.067  31.963  32.840  1.00  0.00     0.200 A 
ATOM     84  F   UNL A   1      37.394  29.726  33.163  1.00  0.00    -0.200 F 
ATOM     85  F   UNL A   1      36.792  32.370  32.904  1.00  0.00    -0.200 F 
ENDBRANCH  51  75
BRANCH  63  86
ATOM     86  C   UNL A   1      45.045  25.424  33.093  1.00  0.00     0.064 A 
ATOM     87  C   UNL A   1      46.422  25.158  33.172  1.00  0.00     0.173 A 
ATOM     88  C   UNL A   1      44.233  24.741  34.027  1.00  0.00     0.173 A 
ATOM     89  F   UNL A   1      47.305  25.832  32.421  1.00  0.00    -0.203 F 
ATOM     90  C   UNL A   1      46.943  24.223  34.069  1.00  0.00     0.198 A 
ATOM     91  C   UNL A   1      44.761  23.847  34.956  1.00  0.00     0.198 A 
ATOM     92  F   UNL A   1      42.907  24.939  34.073  1.00  0.00    -0.203 F 
ATOM     93  F   UNL A   1      48.259  23.971  34.077  1.00  0.00    -0.200 F 
ATOM     94  C   UNL A   1      46.114  23.574  34.967  1.00  0.00     0.200 A 
ATOM     95  F   UNL A   1      43.953  23.265  35.855  1.00  0.00    -0.200 F 
ATOM     96  F   UNL A   1      46.621  22.707  35.852  1.00  0.00    -0.200 F 
ENDBRANCH  63  86
ENDBRANCH  37  38
ENDBRANCH  29  32
ENDBRANCH  27  28
ENDBRANCH  26  27
ENDBRANCH   1  26
TORSDOF 15
ENDMDL
MODEL 3
REMARK VINA RESULT:     -13.4      1.499      1.882
REMARK SMILES Cc1ccccc1CCNc1ccc(C(=O)NCCCNC(=O)c2ccc(-c3c4nc(c(-c5c(F)c(F)c(F)c(F)c5F)c5ccc([nH]5)c(-c5c(F)c(F)c(F)c(F)c5F)c5nc(c(-c6c(F)c(F)c(F)c(F)c6F)c6ccc3[nH]6)C=C5)C=C4)cc2)cc1N
REMARK SMILES IDX 18 1 17 2 15 3 16 4 14 6 11 7 12 8 88 9 13 10 87 11 10 12
REMARK SMILES IDX 9 14 8 15 7 16 1 17 2 18 3 19 4 20 6 21 5 22 89 23 19 26
REMARK SMILES IDX 20 27 21 28 22 29 23 31 24 32 25 33 86 34 26 35 85 36 27 37
REMARK SMILES IDX 28 38 29 39 79 40 30 41 84 42 78 43 80 44 31 45 83 46 77 47
REMARK SMILES IDX 76 48 32 50 64 51 44 52 63 53 45 54 48 55 62 56 81 57 46 58
REMARK SMILES IDX 47 59 61 61 82 62 49 63 33 64 34 65 42 66 35 67 36 68 40 69
REMARK SMILES IDX 43 70 37 71 38 72 41 73 39 74 65 75 66 76 74 77 67 78 68 79
REMARK SMILES IDX 72 80 75 81 69 82 70 83 73 84 71 85 50 86 51 87 59 88 52 89
REMARK SMILES IDX 53 90 57 91 60 92 54 93 55 94 58 95 56 96
REMARK H PARENT 17 5 10 13 89 24 89 25 21 30 80 49 48 60
REMARK Flexibility Score: inf
ROOT
ATOM      1  C   UNL A   1      32.099  30.073  27.105  1.00  0.00     0.118 C 
ENDROOT
BRANCH   1   2
ATOM      2  N   UNL A   1      31.665  29.936  25.723  1.00  0.00    -0.352 N 
ATOM      3  C   UNL A   1      31.492  28.850  24.895  1.00  0.00     0.251 C 
ATOM      4  O   UNL A   1      31.052  29.092  23.768  1.00  0.00    -0.269 OA
ATOM      5  H   UNL A   1      31.450  30.794  25.293  1.00  0.00     0.163 HD
BRANCH   3   6
ATOM      6  C   UNL A   1      31.782  27.429  25.268  1.00  0.00     0.041 A 
ATOM      7  C   UNL A   1      32.147  24.715  26.033  1.00  0.00     0.057 A 
ATOM      8  C   UNL A   1      33.214  25.486  25.588  1.00  0.00     0.029 A 
ATOM      9  C   UNL A   1      30.872  25.315  26.108  1.00  0.00     0.056 A 
ATOM     10  C   UNL A   1      33.032  26.818  25.214  1.00  0.00     0.016 A 
ATOM     11  C   UNL A   1      30.698  26.644  25.693  1.00  0.00     0.041 A 
BRANCH   7  12
ATOM     12  N   UNL A   1      32.336  23.404  26.432  1.00  0.00    -0.383 N 
ATOM     13  H   UNL A   1      31.962  22.687  25.871  1.00  0.00     0.160 HD
BRANCH  12  14
ATOM     14  C   UNL A   1      33.060  23.033  27.640  1.00  0.00     0.117 C 
BRANCH  14  15
ATOM     15  C   UNL A   1      34.060  21.902  27.345  1.00  0.00     0.057 C 
BRANCH  15  16
ATOM     16  C   UNL A   1      35.049  22.267  26.256  1.00  0.00    -0.043 A 
ATOM     17  C   UNL A   1      34.268  20.431  24.627  1.00  0.00     0.044 C 
ATOM     18  C   UNL A   1      35.181  21.551  25.049  1.00  0.00    -0.048 A 
ATOM     19  C   UNL A   1      36.183  21.936  24.137  1.00  0.00     0.004 A 
ATOM     20  C   UNL A   1      37.052  22.989  24.415  1.00  0.00     0.000 A 
ATOM     21  C   UNL A   1      35.911  23.355  26.495  1.00  0.00     0.004 A 
ATOM     22  C   UNL A   1      36.914  23.703  25.596  1.00  0.00     0.000 A 
ENDBRANCH  15  16
ENDBRANCH  14  15
ENDBRANCH  12  14
ENDBRANCH   7  12
BRANCH   9  23
ATOM     23  N   UNL A   1      29.763  24.557  26.493  1.00  0.00    -0.397 N 
ATOM     24  H   UNL A   1      29.822  23.575  26.522  1.00  0.00     0.156 HD
ATOM     25  H   UNL A   1      28.920  25.007  26.736  1.00  0.00     0.156 HD
ENDBRANCH   9  23
ENDBRANCH   3   6
ENDBRANCH   1   2
BRANCH   1  26
ATOM     26  C   UNL A   1      33.190  31.137  27.252  1.00  0.00     0.042 C 
BRANCH  26  27
ATOM     27  C   UNL A   1      34.543  30.578  27.653  1.00  0.00     0.118 C 
BRANCH  27  28
ATOM     28  N   UNL A   1      35.310  31.470  28.519  1.00  0.00    -0.352 N 
ATOM     29  C   UNL A   1      36.509  31.203  29.165  1.00  0.00     0.251 C 
ATOM     30  H   UNL A   1      34.931  32.367  28.661  1.00  0.00     0.163 HD
ATOM     31  O   UNL A   1      37.061  32.025  29.860  1.00  0.00    -0.269 OA
BRANCH  29  32
ATOM     32  C   UNL A   1      37.140  29.897  28.873  1.00  0.00     0.039 A 
ATOM     33  C   UNL A   1      37.391  29.051  29.956  1.00  0.00     0.014 A 
ATOM     34  C   UNL A   1      37.758  29.706  27.639  1.00  0.00     0.014 A 
ATOM     35  C   UNL A   1      38.454  28.159  29.873  1.00  0.00     0.010 A 
ATOM     36  C   UNL A   1      38.867  28.884  27.587  1.00  0.00     0.010 A 
ATOM     37  C   UNL A   1      39.257  28.172  28.730  1.00  0.00    -0.014 A 
BRANCH  37  38
ATOM     38  C   UNL A   1      40.595  27.589  28.713  1.00  0.00     0.031 A 
ATOM     39  C   UNL A   1      40.784  26.157  28.410  1.00  0.00     0.074 A 
ATOM     40  C   UNL A   1      41.667  28.383  28.931  1.00  0.00     0.049 A 
ATOM     41  N   UNL A   1      41.797  25.456  28.793  1.00  0.00    -0.248 NA
ATOM     42  C   UNL A   1      39.791  25.384  27.677  1.00  0.00     0.031 C 
ATOM     43  C   UNL A   1      43.074  28.053  28.717  1.00  0.00     0.029 A 
ATOM     44  N   UNL A   1      41.696  29.619  29.604  1.00  0.00    -0.354 N 
ATOM     45  C   UNL A   1      41.734  24.239  28.151  1.00  0.00     0.074 A 
ATOM     46  C   UNL A   1      40.432  24.222  27.524  1.00  0.00     0.031 C 
ATOM     47  C   UNL A   1      43.826  28.861  29.481  1.00  0.00     0.029 A 
ATOM     48  C   UNL A   1      42.919  29.628  30.316  1.00  0.00     0.049 A 
ATOM     49  H   UNL A   1      41.012  30.327  29.584  1.00  0.00     0.167 HD
ATOM     50  C   UNL A   1      42.846  23.447  28.110  1.00  0.00     0.037 A 
ATOM     51  C   UNL A   1      42.958  29.667  31.679  1.00  0.00     0.037 A 
ATOM     52  C   UNL A   1      43.931  24.013  28.910  1.00  0.00     0.049 A 
ATOM     53  C   UNL A   1      43.703  28.515  32.307  1.00  0.00     0.074 A 
ATOM     54  C   UNL A   1      45.041  24.771  28.575  1.00  0.00     0.029 A 
ATOM     55  N   UNL A   1      43.803  24.094  30.293  1.00  0.00    -0.354 N 
ATOM     56  N   UNL A   1      43.922  27.381  31.706  1.00  0.00    -0.248 NA
ATOM     57  C   UNL A   1      44.199  28.533  33.680  1.00  0.00     0.031 C 
ATOM     58  C   UNL A   1      45.552  25.353  29.759  1.00  0.00     0.029 A 
ATOM     59  C   UNL A   1      44.762  24.939  30.818  1.00  0.00     0.049 A 
ATOM     60  H   UNL A   1      43.124  23.617  30.824  1.00  0.00     0.167 HD
ATOM     61  C   UNL A   1      44.530  26.519  32.581  1.00  0.00     0.074 A 
ATOM     62  C   UNL A   1      44.704  27.293  33.796  1.00  0.00     0.031 C 
ATOM     63  C   UNL A   1      44.818  25.230  32.241  1.00  0.00     0.037 A 
BRANCH  50  64
ATOM     64  C   UNL A   1      43.051  22.344  27.085  1.00  0.00     0.064 A 
ATOM     65  C   UNL A   1      42.334  21.129  27.174  1.00  0.00     0.173 A 
ATOM     66  C   UNL A   1      43.996  22.383  26.044  1.00  0.00     0.173 A 
ATOM     67  F   UNL A   1      41.303  20.983  28.016  1.00  0.00    -0.203 F 
ATOM     68  C   UNL A   1      42.646  20.009  26.397  1.00  0.00     0.198 A 
ATOM     69  C   UNL A   1      44.351  21.248  25.305  1.00  0.00     0.198 A 
ATOM     70  F   UNL A   1      44.559  23.534  25.660  1.00  0.00    -0.203 F 
ATOM     71  F   UNL A   1      41.939  18.879  26.543  1.00  0.00    -0.200 F 
ATOM     72  C   UNL A   1      43.688  20.054  25.495  1.00  0.00     0.200 A 
ATOM     73  F   UNL A   1      45.342  21.324  24.405  1.00  0.00    -0.200 F 
ATOM     74  F   UNL A   1      44.026  18.967  24.790  1.00  0.00    -0.200 F 
ENDBRANCH  50  64
BRANCH  51  75
ATOM     75  C   UNL A   1      41.780  30.332  32.296  1.00  0.00     0.064 A 
ATOM     76  C   UNL A   1      41.686  31.735  32.237  1.00  0.00     0.173 A 
ATOM     77  C   UNL A   1      40.621  29.618  32.622  1.00  0.00     0.173 A 
ATOM     78  F   UNL A   1      42.766  32.469  31.922  1.00  0.00    -0.203 F 
ATOM     79  C   UNL A   1      40.464  32.386  32.387  1.00  0.00     0.198 A 
ATOM     80  C   UNL A   1      39.401  30.275  32.787  1.00  0.00     0.198 A 
ATOM     81  F   UNL A   1      40.640  28.278  32.673  1.00  0.00    -0.203 F 
ATOM     82  F   UNL A   1      40.387  33.713  32.210  1.00  0.00    -0.200 F 
ATOM     83  C   UNL A   1      39.317  31.652  32.638  1.00  0.00     0.200 A 
ATOM     84  F   UNL A   1      38.284  29.562  32.994  1.00  0.00    -0.200 F 
ATOM     85  F   UNL A   1      38.126  32.264  32.691  1.00  0.00    -0.200 F 
ENDBRANCH  51  75
BRANCH  63  86
ATOM     86  C   UNL A   1      45.274  24.164  33.200  1.00  0.00     0.064 A 
ATOM     87  C   UNL A   1      44.480  23.066  33.572  1.00  0.00     0.173 A 
ATOM     88  C   UNL A   1      46.606  24.148  33.674  1.00  0.00     0.173 A 
ATOM     89  F   UNL A   1      43.240  22.909  33.088  1.00  0.00    -0.203 F 
ATOM     90  C   UNL A   1      44.959  22.062  34.417  1.00  0.00     0.198 A 
ATOM     91  C   UNL A   1      47.097  23.118  34.474  1.00  0.00     0.198 A 
ATOM     92  F   UNL A   1      47.471  25.123  33.356  1.00  0.00    -0.203 F 
ATOM     93  F   UNL A   1      44.149  21.057  34.779  1.00  0.00    -0.200 F 
ATOM     94  C   UNL A   1      46.269  22.084  34.861  1.00  0.00     0.200 A 
ATOM     95  F   UNL A   1      48.383  23.124  34.854  1.00  0.00    -0.200 F 
ATOM     96  F   UNL A   1      46.736  21.099  35.639  1.00  0.00    -0.200 F 
ENDBRANCH  63  86
ENDBRANCH  37  38
ENDBRANCH  29  32
ENDBRANCH  27  28
ENDBRANCH  26  27
ENDBRANCH   1  26
TORSDOF 15
ENDMDL
