MODEL 1
REMARK VINA RESULT:     -13.2      0.000      0.000
REMARK SMILES C[C@]1(O)CC[C@H]2[C@H]3CCC4=C/C(=N\OCC(=O)N[C@@H](CO)C(=O)NCCCNC(=O)c5ccc(-c6c7nc(c(-c8c(F)c(F)c(F)c(F)c8F)c8ccc([nH]8)c(-c8c(F)c(F)c(F)c(F)c8F)c8nc(c(-c9c(F)c(F)c(F)c(F)c9F)c9ccc6[nH]9)C=C8)C=C7)cc5)CC[C@@]4(C)[C@@H]3CC[C@]21C
REMARK SMILES IDX 22 1 23 2 24 3 19 5 18 6 16 7 17 8 15 10 14 11 13 12 97 13
REMARK SMILES IDX 96 14 95 15 10 16 98 17 94 18 11 19 9 20 7 21 99 22 12 23
REMARK SMILES IDX 8 24 6 25 100 26 101 27 5 28 2 29 102 30 4 31 1 32 3 33
REMARK SMILES IDX 20 35 21 36 25 38 26 39 27 40 28 41 29 42 30 44 31 45 32 46
REMARK SMILES IDX 93 47 33 48 92 49 34 50 35 51 36 52 86 53 37 54 91 55 85 56
REMARK SMILES IDX 87 57 38 58 90 59 84 60 83 61 39 63 71 64 51 65 70 66 52 67
REMARK SMILES IDX 55 68 69 69 88 70 53 71 54 72 68 74 89 75 56 76 40 77 41 78
REMARK SMILES IDX 49 79 42 80 43 81 47 82 50 83 44 84 45 85 48 86 46 87 72 88
REMARK SMILES IDX 73 89 81 90 74 91 75 92 79 93 82 94 76 95 77 96 80 97 78 98
REMARK SMILES IDX 57 99 58 100 66 101 59 102 60 103 64 104 67 105 61 106
REMARK SMILES IDX 62 107 65 108 63 109
REMARK H PARENT 24 4 18 9 3 34 21 37 28 43 87 62 55 73
REMARK Flexibility Score: inf
ROOT
ATOM      1  C   UNL A   1      36.125  33.710  28.531  1.00  0.00     0.244 C 
ATOM      2  O   UNL A   1      37.310  33.663  28.869  1.00  0.00    -0.273 OA
ATOM      3  N   UNL A   1      35.517  34.931  28.519  1.00  0.00    -0.354 N 
ATOM      4  H   UNL A   1      36.059  35.666  28.887  1.00  0.00     0.163 HD
ENDROOT
BRANCH   1   5
ATOM      5  C   UNL A   1      35.403  32.461  28.005  1.00  0.00     0.197 C 
BRANCH   5   6
ATOM      6  N   UNL A   1      36.325  31.319  27.958  1.00  0.00    -0.339 N 
ATOM      7  C   UNL A   1      36.116  30.007  27.692  1.00  0.00     0.261 C 
ATOM      8  O   UNL A   1      37.110  29.279  27.629  1.00  0.00    -0.271 OA
ATOM      9  H   UNL A   1      37.262  31.548  28.156  1.00  0.00     0.164 HD
BRANCH   7  10
ATOM     10  C   UNL A   1      34.729  29.473  27.381  1.00  0.00     0.363 C 
BRANCH  10  11
ATOM     11  O   UNL A   1      34.434  29.256  25.997  1.00  0.00    -0.385 OA
BRANCH  11  12
ATOM     12  N   UNL A   1      33.062  29.398  25.820  1.00  0.00    -0.091 NA
ATOM     13  C   UNL A   1      33.953  26.298  24.983  1.00  0.00     0.016 C 
ATOM     14  C   UNL A   1      32.537  26.359  24.306  1.00  0.00    -0.008 C 
ATOM     15  C   UNL A   1      31.366  27.052  25.126  1.00  0.00     0.018 C 
ATOM     16  C   UNL A   1      32.883  27.204  23.087  1.00  0.00    -0.062 C 
ATOM     17  C   UNL A   1      32.090  24.891  24.073  1.00  0.00     0.002 C 
ATOM     18  C   UNL A   1      31.154  28.546  24.847  1.00  0.00     0.061 C 
ATOM     19  C   UNL A   1      33.118  28.524  23.349  1.00  0.00     0.027 C 
ATOM     20  C   UNL A   1      33.229  26.455  21.806  1.00  0.00     0.032 C 
ATOM     21  C   UNL A   1      33.059  24.202  23.097  1.00  0.00    -0.003 C 
ATOM     22  C   UNL A   1      31.884  24.235  25.452  1.00  0.00     0.005 C 
ATOM     23  C   UNL A   1      32.570  29.000  24.690  1.00  0.00     0.080 C 
ATOM     24  C   UNL A   1      32.894  24.916  21.737  1.00  0.00     0.008 C 
ATOM     25  C   UNL A   1      33.085  22.663  23.186  1.00  0.00     0.001 C 
ATOM     26  C   UNL A   1      31.937  22.742  25.469  1.00  0.00     0.010 C 
ATOM     27  C   UNL A   1      33.104  22.135  24.663  1.00  0.00    -0.001 C 
ATOM     28  C   UNL A   1      31.988  21.823  22.557  1.00  0.00     0.007 C 
ATOM     29  C   UNL A   1      32.839  20.592  24.527  1.00  0.00     0.068 C 
ATOM     30  C   UNL A   1      34.455  22.495  25.323  1.00  0.00     0.015 C 
ATOM     31  C   UNL A   1      32.348  20.414  23.072  1.00  0.00     0.036 C 
ATOM     32  C   UNL A   1      34.020  19.692  24.892  1.00  0.00     0.042 C 
BRANCH  29  33
ATOM     33  O   UNL A   1      31.776  20.182  25.404  1.00  0.00    -0.390 OA
ATOM     34  H   UNL A   1      30.960  20.067  24.891  1.00  0.00     0.211 HD
ENDBRANCH  29  33
ENDBRANCH  11  12
ENDBRANCH  10  11
ENDBRANCH   7  10
ENDBRANCH   5   6
BRANCH   5  35
ATOM     35  C   UNL A   1      34.121  32.275  28.848  1.00  0.00     0.191 C 
BRANCH  35  36
ATOM     36  O   UNL A   1      34.337  32.417  30.251  1.00  0.00    -0.394 OA
ATOM     37  H   UNL A   1      33.717  31.848  30.733  1.00  0.00     0.210 HD
ENDBRANCH  35  36
ENDBRANCH   5  35
ENDBRANCH   1   5
BRANCH   3  38
ATOM     38  C   UNL A   1      34.196  35.322  28.051  1.00  0.00     0.117 C 
BRANCH  38  39
ATOM     39  C   UNL A   1      33.513  36.249  29.041  1.00  0.00     0.042 C 
BRANCH  39  40
ATOM     40  C   UNL A   1      32.649  35.495  30.037  1.00  0.00     0.118 C 
BRANCH  40  41
ATOM     41  N   UNL A   1      32.438  36.258  31.261  1.00  0.00    -0.352 N 
ATOM     42  C   UNL A   1      32.979  36.086  32.511  1.00  0.00     0.251 C 
ATOM     43  H   UNL A   1      31.812  37.013  31.177  1.00  0.00     0.163 HD
ATOM     44  O   UNL A   1      32.487  36.650  33.478  1.00  0.00    -0.269 OA
BRANCH  42  45
ATOM     45  C   UNL A   1      34.147  35.200  32.680  1.00  0.00     0.039 A 
ATOM     46  C   UNL A   1      35.387  35.608  32.185  1.00  0.00     0.014 A 
ATOM     47  C   UNL A   1      34.017  33.974  33.333  1.00  0.00     0.014 A 
ATOM     48  C   UNL A   1      36.510  34.815  32.417  1.00  0.00     0.010 A 
ATOM     49  C   UNL A   1      35.150  33.245  33.662  1.00  0.00     0.010 A 
ATOM     50  C   UNL A   1      36.408  33.653  33.200  1.00  0.00    -0.014 A 
BRANCH  50  51
ATOM     51  C   UNL A   1      37.604  32.848  33.547  1.00  0.00     0.031 A 
ATOM     52  C   UNL A   1      38.370  33.145  34.805  1.00  0.00     0.074 A 
ATOM     53  C   UNL A   1      38.034  31.899  32.694  1.00  0.00     0.049 A 
ATOM     54  N   UNL A   1      39.484  32.612  35.241  1.00  0.00    -0.248 NA
ATOM     55  C   UNL A   1      37.833  34.204  35.677  1.00  0.00     0.031 C 
ATOM     56  C   UNL A   1      37.406  31.563  31.414  1.00  0.00     0.029 A 
ATOM     57  N   UNL A   1      39.109  31.051  32.766  1.00  0.00    -0.354 N 
ATOM     58  C   UNL A   1      39.778  33.271  36.427  1.00  0.00     0.074 A 
ATOM     59  C   UNL A   1      38.770  34.292  36.609  1.00  0.00     0.031 C 
ATOM     60  C   UNL A   1      38.091  30.565  30.835  1.00  0.00     0.029 A 
ATOM     61  C   UNL A   1      39.233  30.224  31.675  1.00  0.00     0.049 A 
ATOM     62  H   UNL A   1      39.734  31.036  33.527  1.00  0.00     0.167 HD
ATOM     63  C   UNL A   1      40.782  33.026  37.302  1.00  0.00     0.037 A 
ATOM     64  C   UNL A   1      40.172  29.304  31.383  1.00  0.00     0.037 A 
ATOM     65  C   UNL A   1      41.771  31.997  37.123  1.00  0.00     0.049 A 
ATOM     66  C   UNL A   1      41.289  29.069  32.362  1.00  0.00     0.074 A 
ATOM     67  C   UNL A   1      42.801  31.635  37.972  1.00  0.00     0.029 A 
ATOM     68  N   UNL A   1      41.853  31.166  36.014  1.00  0.00    -0.354 N 
ATOM     69  N   UNL A   1      41.517  29.649  33.517  1.00  0.00    -0.248 NA
ATOM     70  C   UNL A   1      42.279  28.044  32.003  1.00  0.00     0.031 C 
ATOM     71  C   UNL A   1      43.539  30.621  37.354  1.00  0.00     0.029 A 
ATOM     72  C   UNL A   1      42.933  30.309  36.147  1.00  0.00     0.049 A 
ATOM     73  H   UNL A   1      41.236  31.183  35.248  1.00  0.00     0.167 HD
ATOM     74  C   UNL A   1      42.655  29.045  34.031  1.00  0.00     0.074 A 
ATOM     75  C   UNL A   1      43.058  28.035  33.074  1.00  0.00     0.031 C 
ATOM     76  C   UNL A   1      43.313  29.304  35.187  1.00  0.00     0.037 A 
BRANCH  63  77
ATOM     77  C   UNL A   1      40.851  33.873  38.540  1.00  0.00     0.064 A 
ATOM     78  C   UNL A   1      40.135  33.537  39.700  1.00  0.00     0.173 A 
ATOM     79  C   UNL A   1      41.681  35.003  38.587  1.00  0.00     0.173 A 
ATOM     80  F   UNL A   1      39.317  32.474  39.705  1.00  0.00    -0.203 F 
ATOM     81  C   UNL A   1      40.230  34.314  40.851  1.00  0.00     0.198 A 
ATOM     82  C   UNL A   1      41.799  35.758  39.751  1.00  0.00     0.198 A 
ATOM     83  F   UNL A   1      42.390  35.368  37.508  1.00  0.00    -0.203 F 
ATOM     84  F   UNL A   1      39.502  34.000  41.932  1.00  0.00    -0.200 F 
ATOM     85  C   UNL A   1      41.069  35.418  40.879  1.00  0.00     0.200 A 
ATOM     86  F   UNL A   1      42.621  36.816  39.781  1.00  0.00    -0.200 F 
ATOM     87  F   UNL A   1      41.170  36.156  41.993  1.00  0.00    -0.200 F 
ENDBRANCH  63  77
BRANCH  64  88
ATOM     88  C   UNL A   1      40.099  28.540  30.109  1.00  0.00     0.064 A 
ATOM     89  C   UNL A   1      39.460  27.292  30.049  1.00  0.00     0.173 A 
ATOM     90  C   UNL A   1      40.688  29.025  28.931  1.00  0.00     0.173 A 
ATOM     91  F   UNL A   1      38.898  26.775  31.151  1.00  0.00    -0.203 F 
ATOM     92  C   UNL A   1      39.444  26.546  28.872  1.00  0.00     0.198 A 
ATOM     93  C   UNL A   1      40.641  28.294  27.746  1.00  0.00     0.198 A 
ATOM     94  F   UNL A   1      41.306  30.216  28.931  1.00  0.00    -0.203 F 
ATOM     95  F   UNL A   1      38.883  25.330  28.861  1.00  0.00    -0.200 F 
ATOM     96  C   UNL A   1      40.031  27.049  27.721  1.00  0.00     0.200 A 
ATOM     97  F   UNL A   1      41.194  28.793  26.633  1.00  0.00    -0.200 F 
ATOM     98  F   UNL A   1      40.019  26.330  26.590  1.00  0.00    -0.200 F 
ENDBRANCH  64  88
BRANCH  76  99
ATOM     99  C   UNL A   1      44.517  28.462  35.498  1.00  0.00     0.064 A 
ATOM    100  C   UNL A   1      45.800  28.819  35.059  1.00  0.00     0.173 A 
ATOM    101  C   UNL A   1      44.388  27.302  36.278  1.00  0.00     0.173 A 
ATOM    102  F   UNL A   1      45.975  29.911  34.298  1.00  0.00    -0.203 F 
ATOM    103  C   UNL A   1      46.906  28.031  35.365  1.00  0.00     0.198 A 
ATOM    104  C   UNL A   1      45.501  26.536  36.612  1.00  0.00     0.198 A 
ATOM    105  F   UNL A   1      43.184  26.920  36.731  1.00  0.00    -0.203 F 
ATOM    106  F   UNL A   1      48.114  28.362  34.890  1.00  0.00    -0.200 F 
ATOM    107  C   UNL A   1      46.756  26.895  36.148  1.00  0.00     0.200 A 
ATOM    108  F   UNL A   1      45.357  25.449  37.383  1.00  0.00    -0.200 F 
ATOM    109  F   UNL A   1      47.824  26.144  36.449  1.00  0.00    -0.200 F 
ENDBRANCH  76  99
ENDBRANCH  50  51
ENDBRANCH  42  45
ENDBRANCH  40  41
ENDBRANCH  39  40
ENDBRANCH  38  39
ENDBRANCH   3  38
TORSDOF 17
ENDMDL
MODEL 2
REMARK VINA RESULT:     -12.9      6.777     12.249
REMARK SMILES C[C@]1(O)CC[C@H]2[C@H]3CCC4=C/C(=N\OCC(=O)N[C@@H](CO)C(=O)NCCCNC(=O)c5ccc(-c6c7nc(c(-c8c(F)c(F)c(F)c(F)c8F)c8ccc([nH]8)c(-c8c(F)c(F)c(F)c(F)c8F)c8nc(c(-c9c(F)c(F)c(F)c(F)c9F)c9ccc6[nH]9)C=C8)C=C7)cc5)CC[C@@]4(C)[C@@H]3CC[C@]21C
REMARK SMILES IDX 22 1 23 2 24 3 19 5 18 6 16 7 17 8 15 10 14 11 13 12 97 13
REMARK SMILES IDX 96 14 95 15 10 16 98 17 94 18 11 19 9 20 7 21 99 22 12 23
REMARK SMILES IDX 8 24 6 25 100 26 101 27 5 28 2 29 102 30 4 31 1 32 3 33
REMARK SMILES IDX 20 35 21 36 25 38 26 39 27 40 28 41 29 42 30 44 31 45 32 46
REMARK SMILES IDX 93 47 33 48 92 49 34 50 35 51 36 52 86 53 37 54 91 55 85 56
REMARK SMILES IDX 87 57 38 58 90 59 84 60 83 61 39 63 71 64 51 65 70 66 52 67
REMARK SMILES IDX 55 68 69 69 88 70 53 71 54 72 68 74 89 75 56 76 40 77 41 78
REMARK SMILES IDX 49 79 42 80 43 81 47 82 50 83 44 84 45 85 48 86 46 87 72 88
REMARK SMILES IDX 73 89 81 90 74 91 75 92 79 93 82 94 76 95 77 96 80 97 78 98
REMARK SMILES IDX 57 99 58 100 66 101 59 102 60 103 64 104 67 105 61 106
REMARK SMILES IDX 62 107 65 108 63 109
REMARK H PARENT 24 4 18 9 3 34 21 37 28 43 87 62 55 73
REMARK Flexibility Score: inf
ROOT
ATOM      1  C   UNL A   1      42.004  21.653  27.882  1.00  0.00     0.244 C 
ATOM      2  O   UNL A   1      42.711  22.477  28.466  1.00  0.00    -0.273 OA
ATOM      3  N   UNL A   1      42.490  20.386  27.745  1.00  0.00    -0.354 N 
ATOM      4  H   UNL A   1      43.423  20.267  28.038  1.00  0.00     0.163 HD
ENDROOT
BRANCH   1   5
ATOM      5  C   UNL A   1      40.571  22.001  27.456  1.00  0.00     0.197 C 
BRANCH   5   6
ATOM      6  N   UNL A   1      40.150  23.269  28.066  1.00  0.00    -0.339 N 
ATOM      7  C   UNL A   1      39.273  24.216  27.654  1.00  0.00     0.261 C 
ATOM      8  O   UNL A   1      39.043  25.148  28.430  1.00  0.00    -0.271 OA
ATOM      9  H   UNL A   1      40.582  23.466  28.929  1.00  0.00     0.164 HD
BRANCH   7  10
ATOM     10  C   UNL A   1      38.526  24.085  26.338  1.00  0.00     0.363 C 
BRANCH  10  11
ATOM     11  O   UNL A   1      37.106  23.936  26.434  1.00  0.00    -0.385 OA
BRANCH  11  12
ATOM     12  N   UNL A   1      36.715  22.939  25.546  1.00  0.00    -0.091 NA
ATOM     13  C   UNL A   1      34.361  25.296  25.644  1.00  0.00     0.016 C 
ATOM     14  C   UNL A   1      33.543  24.132  24.976  1.00  0.00    -0.008 C 
ATOM     15  C   UNL A   1      34.280  23.268  23.865  1.00  0.00     0.018 C 
ATOM     16  C   UNL A   1      33.285  23.276  26.209  1.00  0.00    -0.062 C 
ATOM     17  C   UNL A   1      32.324  24.788  24.275  1.00  0.00     0.002 C 
ATOM     18  C   UNL A   1      34.974  21.995  24.366  1.00  0.00     0.061 C 
ATOM     19  C   UNL A   1      34.376  22.606  26.684  1.00  0.00     0.027 C 
ATOM     20  C   UNL A   1      31.966  23.499  26.939  1.00  0.00     0.032 C 
ATOM     21  C   UNL A   1      31.425  25.466  25.323  1.00  0.00    -0.003 C 
ATOM     22  C   UNL A   1      32.855  25.662  23.122  1.00  0.00     0.005 C 
ATOM     23  C   UNL A   1      35.513  22.473  25.676  1.00  0.00     0.080 C 
ATOM     24  C   UNL A   1      30.849  24.335  26.206  1.00  0.00     0.008 C 
ATOM     25  C   UNL A   1      30.516  26.584  24.773  1.00  0.00     0.001 C 
ATOM     26  C   UNL A   1      31.930  26.735  22.649  1.00  0.00     0.010 C 
ATOM     27  C   UNL A   1      31.258  27.543  23.779  1.00  0.00    -0.001 C 
ATOM     28  C   UNL A   1      29.241  26.255  24.016  1.00  0.00     0.007 C 
ATOM     29  C   UNL A   1      30.107  28.399  23.134  1.00  0.00     0.068 C 
ATOM     30  C   UNL A   1      32.313  28.369  24.548  1.00  0.00     0.015 C 
ATOM     31  C   UNL A   1      28.810  27.652  23.522  1.00  0.00     0.036 C 
ATOM     32  C   UNL A   1      30.102  29.879  23.517  1.00  0.00     0.042 C 
BRANCH  29  33
ATOM     33  O   UNL A   1      30.210  28.386  21.700  1.00  0.00    -0.390 OA
ATOM     34  H   UNL A   1      31.087  28.704  21.436  1.00  0.00     0.211 HD
ENDBRANCH  29  33
ENDBRANCH  11  12
ENDBRANCH  10  11
ENDBRANCH   7  10
ENDBRANCH   5   6
BRANCH   5  35
ATOM     35  C   UNL A   1      40.514  21.931  25.913  1.00  0.00     0.191 C 
BRANCH  35  36
ATOM     36  O   UNL A   1      41.775  22.160  25.286  1.00  0.00    -0.394 OA
ATOM     37  H   UNL A   1      42.297  22.776  25.824  1.00  0.00     0.210 HD
ENDBRANCH  35  36
ENDBRANCH   5  35
ENDBRANCH   1   5
BRANCH   3  38
ATOM     38  C   UNL A   1      41.852  19.182  27.234  1.00  0.00     0.117 C 
BRANCH  38  39
ATOM     39  C   UNL A   1      42.527  18.698  25.963  1.00  0.00     0.042 C 
BRANCH  39  40
ATOM     40  C   UNL A   1      44.036  18.613  26.107  1.00  0.00     0.118 C 
BRANCH  40  41
ATOM     41  N   UNL A   1      44.707  18.604  24.812  1.00  0.00    -0.352 N 
ATOM     42  C   UNL A   1      45.066  19.651  23.999  1.00  0.00     0.251 C 
ATOM     43  H   UNL A   1      44.939  17.711  24.470  1.00  0.00     0.163 HD
ATOM     44  O   UNL A   1      45.377  19.447  22.835  1.00  0.00    -0.269 OA
BRANCH  42  45
ATOM     45  C   UNL A   1      45.055  21.025  24.538  1.00  0.00     0.039 A 
ATOM     46  C   UNL A   1      45.470  21.243  25.853  1.00  0.00     0.014 A 
ATOM     47  C   UNL A   1      44.642  22.094  23.742  1.00  0.00     0.014 A 
ATOM     48  C   UNL A   1      45.544  22.547  26.339  1.00  0.00     0.010 A 
ATOM     49  C   UNL A   1      44.824  23.395  24.187  1.00  0.00     0.010 A 
ATOM     50  C   UNL A   1      45.270  23.635  25.494  1.00  0.00    -0.014 A 
BRANCH  50  51
ATOM     51  C   UNL A   1      45.438  25.034  25.956  1.00  0.00     0.031 A 
ATOM     52  C   UNL A   1      46.796  25.678  25.922  1.00  0.00     0.074 A 
ATOM     53  C   UNL A   1      44.383  25.695  26.468  1.00  0.00     0.049 A 
ATOM     54  N   UNL A   1      47.165  26.857  26.356  1.00  0.00    -0.248 NA
ATOM     55  C   UNL A   1      47.896  24.881  25.352  1.00  0.00     0.031 C 
ATOM     56  C   UNL A   1      43.030  25.152  26.608  1.00  0.00     0.029 A 
ATOM     57  N   UNL A   1      44.283  26.963  26.980  1.00  0.00    -0.354 N 
ATOM     58  C   UNL A   1      48.530  26.937  26.117  1.00  0.00     0.074 A 
ATOM     59  C   UNL A   1      48.941  25.665  25.566  1.00  0.00     0.031 C 
ATOM     60  C   UNL A   1      42.231  26.087  27.144  1.00  0.00     0.029 A 
ATOM     61  C   UNL A   1      43.023  27.278  27.432  1.00  0.00     0.049 A 
ATOM     62  H   UNL A   1      45.042  27.590  27.021  1.00  0.00     0.167 HD
ATOM     63  C   UNL A   1      49.360  27.989  26.310  1.00  0.00     0.037 A 
ATOM     64  C   UNL A   1      42.566  28.397  28.024  1.00  0.00     0.037 A 
ATOM     65  C   UNL A   1      48.939  29.258  26.842  1.00  0.00     0.049 A 
ATOM     66  C   UNL A   1      43.516  29.542  28.247  1.00  0.00     0.074 A 
ATOM     67  C   UNL A   1      49.689  30.404  27.033  1.00  0.00     0.029 A 
ATOM     68  N   UNL A   1      47.651  29.546  27.270  1.00  0.00    -0.354 N 
ATOM     69  N   UNL A   1      44.790  29.633  27.950  1.00  0.00    -0.248 NA
ATOM     70  C   UNL A   1      42.963  30.747  28.883  1.00  0.00     0.031 C 
ATOM     71  C   UNL A   1      48.870  31.368  27.626  1.00  0.00     0.029 A 
ATOM     72  C   UNL A   1      47.592  30.844  27.749  1.00  0.00     0.049 A 
ATOM     73  H   UNL A   1      46.892  28.920  27.239  1.00  0.00     0.167 HD
ATOM     74  C   UNL A   1      45.183  30.906  28.337  1.00  0.00     0.074 A 
ATOM     75  C   UNL A   1      44.006  31.562  28.868  1.00  0.00     0.031 C 
ATOM     76  C   UNL A   1      46.408  31.482  28.266  1.00  0.00     0.037 A 
BRANCH  63  77
ATOM     77  C   UNL A   1      50.801  27.819  25.929  1.00  0.00     0.064 A 
ATOM     78  C   UNL A   1      51.780  27.499  26.883  1.00  0.00     0.173 A 
ATOM     79  C   UNL A   1      51.204  27.924  24.588  1.00  0.00     0.173 A 
ATOM     80  F   UNL A   1      51.453  27.400  28.180  1.00  0.00    -0.203 F 
ATOM     81  C   UNL A   1      53.110  27.315  26.512  1.00  0.00     0.198 A 
ATOM     82  C   UNL A   1      52.528  27.707  24.218  1.00  0.00     0.198 A 
ATOM     83  F   UNL A   1      50.309  28.225  23.635  1.00  0.00    -0.203 F 
ATOM     84  F   UNL A   1      54.034  27.056  27.448  1.00  0.00    -0.200 F 
ATOM     85  C   UNL A   1      53.481  27.409  25.180  1.00  0.00     0.200 A 
ATOM     86  F   UNL A   1      52.883  27.783  22.928  1.00  0.00    -0.200 F 
ATOM     87  F   UNL A   1      54.758  27.217  24.824  1.00  0.00    -0.200 F 
ENDBRANCH  63  77
BRANCH  64  88
ATOM     88  C   UNL A   1      41.143  28.491  28.449  1.00  0.00     0.064 A 
ATOM     89  C   UNL A   1      40.158  28.975  27.576  1.00  0.00     0.173 A 
ATOM     90  C   UNL A   1      40.742  28.123  29.742  1.00  0.00     0.173 A 
ATOM     91  F   UNL A   1      40.492  29.357  26.335  1.00  0.00    -0.203 F 
ATOM     92  C   UNL A   1      38.836  29.122  27.992  1.00  0.00     0.198 A 
ATOM     93  C   UNL A   1      39.413  28.237  30.146  1.00  0.00     0.198 A 
ATOM     94  F   UNL A   1      41.643  27.647  30.615  1.00  0.00    -0.203 F 
ATOM     95  F   UNL A   1      37.929  29.648  27.157  1.00  0.00    -0.200 F 
ATOM     96  C   UNL A   1      38.463  28.749  29.274  1.00  0.00     0.200 A 
ATOM     97  F   UNL A   1      39.056  27.859  31.380  1.00  0.00    -0.200 F 
ATOM     98  F   UNL A   1      37.193  28.893  29.675  1.00  0.00    -0.200 F 
ENDBRANCH  64  88
BRANCH  76  99
ATOM     99  C   UNL A   1      46.531  32.900  28.743  1.00  0.00     0.064 A 
ATOM    100  C   UNL A   1      46.875  33.206  30.067  1.00  0.00     0.173 A 
ATOM    101  C   UNL A   1      46.339  33.967  27.850  1.00  0.00     0.173 A 
ATOM    102  F   UNL A   1      47.055  32.222  30.963  1.00  0.00    -0.203 F 
ATOM    103  C   UNL A   1      46.994  34.527  30.489  1.00  0.00     0.198 A 
ATOM    104  C   UNL A   1      46.494  35.286  28.267  1.00  0.00     0.198 A 
ATOM    105  F   UNL A   1      46.018  33.730  26.569  1.00  0.00    -0.203 F 
ATOM    106  F   UNL A   1      47.270  34.796  31.772  1.00  0.00    -0.200 F 
ATOM    107  C   UNL A   1      46.812  35.565  29.587  1.00  0.00     0.200 A 
ATOM    108  F   UNL A   1      46.336  36.287  27.390  1.00  0.00    -0.200 F 
ATOM    109  F   UNL A   1      46.936  36.836  29.993  1.00  0.00    -0.200 F 
ENDBRANCH  76  99
ENDBRANCH  50  51
ENDBRANCH  42  45
ENDBRANCH  40  41
ENDBRANCH  39  40
ENDBRANCH  38  39
ENDBRANCH   3  38
TORSDOF 17
ENDMDL
MODEL 3
REMARK VINA RESULT:     -12.8      5.581      9.035
REMARK SMILES C[C@]1(O)CC[C@H]2[C@H]3CCC4=C/C(=N\OCC(=O)N[C@@H](CO)C(=O)NCCCNC(=O)c5ccc(-c6c7nc(c(-c8c(F)c(F)c(F)c(F)c8F)c8ccc([nH]8)c(-c8c(F)c(F)c(F)c(F)c8F)c8nc(c(-c9c(F)c(F)c(F)c(F)c9F)c9ccc6[nH]9)C=C8)C=C7)cc5)CC[C@@]4(C)[C@@H]3CC[C@]21C
REMARK SMILES IDX 22 1 23 2 24 3 19 5 18 6 16 7 17 8 15 10 14 11 13 12 97 13
REMARK SMILES IDX 96 14 95 15 10 16 98 17 94 18 11 19 9 20 7 21 99 22 12 23
REMARK SMILES IDX 8 24 6 25 100 26 101 27 5 28 2 29 102 30 4 31 1 32 3 33
REMARK SMILES IDX 20 35 21 36 25 38 26 39 27 40 28 41 29 42 30 44 31 45 32 46
REMARK SMILES IDX 93 47 33 48 92 49 34 50 35 51 36 52 86 53 37 54 91 55 85 56
REMARK SMILES IDX 87 57 38 58 90 59 84 60 83 61 39 63 71 64 51 65 70 66 52 67
REMARK SMILES IDX 55 68 69 69 88 70 53 71 54 72 68 74 89 75 56 76 40 77 41 78
REMARK SMILES IDX 49 79 42 80 43 81 47 82 50 83 44 84 45 85 48 86 46 87 72 88
REMARK SMILES IDX 73 89 81 90 74 91 75 92 79 93 82 94 76 95 77 96 80 97 78 98
REMARK SMILES IDX 57 99 58 100 66 101 59 102 60 103 64 104 67 105 61 106
REMARK SMILES IDX 62 107 65 108 63 109
REMARK H PARENT 24 4 18 9 3 34 21 37 28 43 87 62 55 73
REMARK Flexibility Score: inf
ROOT
ATOM      1  C   UNL A   1      32.907  35.195  32.391  1.00  0.00     0.244 C 
ATOM      2  O   UNL A   1      31.695  34.994  32.502  1.00  0.00    -0.273 OA
ATOM      3  N   UNL A   1      33.706  34.846  33.439  1.00  0.00    -0.354 N 
ATOM      4  H   UNL A   1      33.223  34.555  34.247  1.00  0.00     0.163 HD
ENDROOT
BRANCH   1   5
ATOM      5  C   UNL A   1      33.509  35.684  31.066  1.00  0.00     0.197 C 
BRANCH   5   6
ATOM      6  N   UNL A   1      32.891  34.982  29.933  1.00  0.00    -0.339 N 
ATOM      7  C   UNL A   1      33.427  34.444  28.811  1.00  0.00     0.261 C 
ATOM      8  O   UNL A   1      32.666  33.819  28.066  1.00  0.00    -0.271 OA
ATOM      9  H   UNL A   1      31.913  34.884  30.002  1.00  0.00     0.164 HD
BRANCH   7  10
ATOM     10  C   UNL A   1      34.917  34.515  28.531  1.00  0.00     0.363 C 
BRANCH  10  11
ATOM     11  O   UNL A   1      35.693  33.392  28.961  1.00  0.00    -0.385 OA
BRANCH  11  12
ATOM     12  N   UNL A   1      36.478  33.794  30.037  1.00  0.00    -0.091 NA
ATOM     13  C   UNL A   1      37.723  30.973  28.773  1.00  0.00     0.016 C 
ATOM     14  C   UNL A   1      38.450  30.983  30.166  1.00  0.00    -0.008 C 
ATOM     15  C   UNL A   1      39.014  32.375  30.684  1.00  0.00     0.018 C 
ATOM     16  C   UNL A   1      37.294  30.534  31.049  1.00  0.00    -0.062 C 
ATOM     17  C   UNL A   1      39.677  30.042  30.036  1.00  0.00     0.002 C 
ATOM     18  C   UNL A   1      38.070  33.180  31.587  1.00  0.00     0.061 C 
ATOM     19  C   UNL A   1      36.319  31.471  31.242  1.00  0.00     0.027 C 
ATOM     20  C   UNL A   1      37.195  29.044  31.349  1.00  0.00     0.032 C 
ATOM     21  C   UNL A   1      39.203  28.606  29.753  1.00  0.00    -0.003 C 
ATOM     22  C   UNL A   1      40.657  30.679  29.031  1.00  0.00     0.005 C 
ATOM     23  C   UNL A   1      36.756  32.899  30.931  1.00  0.00     0.080 C 
ATOM     24  C   UNL A   1      38.441  28.139  31.013  1.00  0.00     0.008 C 
ATOM     25  C   UNL A   1      40.250  27.699  29.076  1.00  0.00     0.001 C 
ATOM     26  C   UNL A   1      41.634  29.739  28.401  1.00  0.00     0.010 C 
ATOM     27  C   UNL A   1      41.018  28.413  27.910  1.00  0.00    -0.001 C 
ATOM     28  C   UNL A   1      41.381  27.077  29.876  1.00  0.00     0.007 C 
ATOM     29  C   UNL A   1      42.201  27.435  27.569  1.00  0.00     0.068 C 
ATOM     30  C   UNL A   1      40.048  28.674  26.736  1.00  0.00     0.015 C 
ATOM     31  C   UNL A   1      42.236  26.446  28.757  1.00  0.00     0.036 C 
ATOM     32  C   UNL A   1      42.111  26.753  26.203  1.00  0.00     0.042 C 
BRANCH  29  33
ATOM     33  O   UNL A   1      43.452  28.142  27.548  1.00  0.00    -0.390 OA
ATOM     34  H   UNL A   1      43.289  29.091  27.662  1.00  0.00     0.211 HD
ENDBRANCH  29  33
ENDBRANCH  11  12
ENDBRANCH  10  11
ENDBRANCH   7  10
ENDBRANCH   5   6
BRANCH   5  35
ATOM     35  C   UNL A   1      33.411  37.226  31.052  1.00  0.00     0.191 C 
BRANCH  35  36
ATOM     36  O   UNL A   1      32.907  37.776  32.268  1.00  0.00    -0.394 OA
ATOM     37  H   UNL A   1      32.046  37.379  32.470  1.00  0.00     0.210 HD
ENDBRANCH  35  36
ENDBRANCH   5  35
ENDBRANCH   1   5
BRANCH   3  38
ATOM     38  C   UNL A   1      35.156  34.836  33.557  1.00  0.00     0.117 C 
BRANCH  38  39
ATOM     39  C   UNL A   1      35.636  33.626  34.341  1.00  0.00     0.042 C 
BRANCH  39  40
ATOM     40  C   UNL A   1      36.973  33.870  35.017  1.00  0.00     0.118 C 
BRANCH  40  41
ATOM     41  N   UNL A   1      37.125  33.071  36.227  1.00  0.00    -0.352 N 
ATOM     42  C   UNL A   1      37.925  31.981  36.469  1.00  0.00     0.251 C 
ATOM     43  H   UNL A   1      36.570  33.358  36.987  1.00  0.00     0.163 HD
ATOM     44  O   UNL A   1      37.727  31.278  37.449  1.00  0.00    -0.269 OA
BRANCH  42  45
ATOM     45  C   UNL A   1      39.013  31.657  35.526  1.00  0.00     0.039 A 
ATOM     46  C   UNL A   1      40.278  32.211  35.732  1.00  0.00     0.014 A 
ATOM     47  C   UNL A   1      38.784  30.802  34.448  1.00  0.00     0.014 A 
ATOM     48  C   UNL A   1      41.331  31.841  34.895  1.00  0.00     0.010 A 
ATOM     49  C   UNL A   1      39.852  30.347  33.690  1.00  0.00     0.010 A 
ATOM     50  C   UNL A   1      41.137  30.868  33.900  1.00  0.00    -0.014 A 
BRANCH  50  51
ATOM     51  C   UNL A   1      42.261  30.383  33.064  1.00  0.00     0.031 A 
ATOM     52  C   UNL A   1      42.933  29.079  33.394  1.00  0.00     0.074 A 
ATOM     53  C   UNL A   1      42.717  31.149  32.056  1.00  0.00     0.049 A 
ATOM     54  N   UNL A   1      43.981  28.525  32.839  1.00  0.00    -0.248 NA
ATOM     55  C   UNL A   1      42.375  28.308  34.518  1.00  0.00     0.031 C 
ATOM     56  C   UNL A   1      42.183  32.460  31.680  1.00  0.00     0.029 A 
ATOM     57  N   UNL A   1      43.743  30.945  31.169  1.00  0.00    -0.354 N 
ATOM     58  C   UNL A   1      44.205  27.351  33.546  1.00  0.00     0.074 A 
ATOM     59  C   UNL A   1      43.233  27.305  34.615  1.00  0.00     0.031 C 
ATOM     60  C   UNL A   1      42.867  32.931  30.626  1.00  0.00     0.029 A 
ATOM     61  C   UNL A   1      43.919  31.980  30.282  1.00  0.00     0.049 A 
ATOM     62  H   UNL A   1      44.301  30.134  31.167  1.00  0.00     0.167 HD
ATOM     63  C   UNL A   1      45.121  26.383  33.305  1.00  0.00     0.037 A 
ATOM     64  C   UNL A   1      44.835  32.147  29.310  1.00  0.00     0.037 A 
ATOM     65  C   UNL A   1      46.074  26.428  32.227  1.00  0.00     0.049 A 
ATOM     66  C   UNL A   1      45.856  31.066  29.080  1.00  0.00     0.074 A 
ATOM     67  C   UNL A   1      47.012  25.478  31.867  1.00  0.00     0.029 A 
ATOM     68  N   UNL A   1      46.210  27.484  31.338  1.00  0.00    -0.354 N 
ATOM     69  N   UNL A   1      46.013  29.926  29.709  1.00  0.00    -0.248 NA
ATOM     70  C   UNL A   1      46.824  31.290  27.997  1.00  0.00     0.031 C 
ATOM     71  C   UNL A   1      47.752  25.981  30.793  1.00  0.00     0.029 A 
ATOM     72  C   UNL A   1      47.235  27.219  30.444  1.00  0.00     0.049 A 
ATOM     73  H   UNL A   1      45.660  28.300  31.341  1.00  0.00     0.167 HD
ATOM     74  C   UNL A   1      47.076  29.288  29.086  1.00  0.00     0.074 A 
ATOM     75  C   UNL A   1      47.511  30.157  28.012  1.00  0.00     0.031 C 
ATOM     76  C   UNL A   1      47.647  28.093  29.376  1.00  0.00     0.037 A 
BRANCH  63  77
ATOM     77  C   UNL A   1      45.126  25.186  34.211  1.00  0.00     0.064 A 
ATOM     78  C   UNL A   1      44.473  23.995  33.857  1.00  0.00     0.173 A 
ATOM     79  C   UNL A   1      45.833  25.210  35.422  1.00  0.00     0.173 A 
ATOM     80  F   UNL A   1      43.772  23.922  32.716  1.00  0.00    -0.203 F 
ATOM     81  C   UNL A   1      44.509  22.881  34.692  1.00  0.00     0.198 A 
ATOM     82  C   UNL A   1      45.894  24.084  36.239  1.00  0.00     0.198 A 
ATOM     83  F   UNL A   1      46.477  26.322  35.808  1.00  0.00    -0.203 F 
ATOM     84  F   UNL A   1      43.840  21.770  34.354  1.00  0.00    -0.200 F 
ATOM     85  C   UNL A   1      45.228  22.924  35.877  1.00  0.00     0.200 A 
ATOM     86  F   UNL A   1      46.601  24.121  37.377  1.00  0.00    -0.200 F 
ATOM     87  F   UNL A   1      45.273  21.847  36.673  1.00  0.00    -0.200 F 
ENDBRANCH  63  77
BRANCH  64  88
ATOM     88  C   UNL A   1      44.834  33.385  28.485  1.00  0.00     0.064 A 
ATOM     89  C   UNL A   1      45.493  34.545  28.919  1.00  0.00     0.173 A 
ATOM     90  C   UNL A   1      44.155  33.443  27.258  1.00  0.00     0.173 A 
ATOM     91  F   UNL A   1      46.141  34.547  30.092  1.00  0.00    -0.203 F 
ATOM     92  C   UNL A   1      45.441  35.723  28.176  1.00  0.00     0.198 A 
ATOM     93  C   UNL A   1      44.133  34.612  26.500  1.00  0.00     0.198 A 
ATOM     94  F   UNL A   1      43.514  32.360  26.793  1.00  0.00    -0.203 F 
ATOM     95  F   UNL A   1      46.025  36.834  28.647  1.00  0.00    -0.200 F 
ATOM     96  C   UNL A   1      44.765  35.755  26.966  1.00  0.00     0.200 A 
ATOM     97  F   UNL A   1      43.494  34.632  25.323  1.00  0.00    -0.200 F 
ATOM     98  F   UNL A   1      44.713  36.889  26.254  1.00  0.00    -0.200 F 
ENDBRANCH  64  88
BRANCH  76  99
ATOM     99  C   UNL A   1      48.781  27.641  28.502  1.00  0.00     0.064 A 
ATOM    100  C   UNL A   1      50.116  27.941  28.811  1.00  0.00     0.173 A 
ATOM    101  C   UNL A   1      48.529  26.864  27.361  1.00  0.00     0.173 A 
ATOM    102  F   UNL A   1      50.408  28.694  29.884  1.00  0.00    -0.203 F 
ATOM    103  C   UNL A   1      51.154  27.506  27.994  1.00  0.00     0.198 A 
ATOM    104  C   UNL A   1      49.573  26.399  26.566  1.00  0.00     0.198 A 
ATOM    105  F   UNL A   1      47.270  26.540  27.025  1.00  0.00    -0.203 F 
ATOM    106  F   UNL A   1      52.418  27.850  28.278  1.00  0.00    -0.200 F 
ATOM    107  C   UNL A   1      50.883  26.728  26.878  1.00  0.00     0.200 A 
ATOM    108  F   UNL A   1      49.310  25.633  25.498  1.00  0.00    -0.200 F 
ATOM    109  F   UNL A   1      51.886  26.301  26.098  1.00  0.00    -0.200 F 
ENDBRANCH  76  99
ENDBRANCH  50  51
ENDBRANCH  42  45
ENDBRANCH  40  41
ENDBRANCH  39  40
ENDBRANCH  38  39
ENDBRANCH   3  38
TORSDOF 17
ENDMDL
