MODEL 1
REMARK VINA RESULT:     -12.7      0.000      0.000
REMARK SMILES Cc1cc2c(c(C)c1Cl)C=C(C(=O)NCCCNC(=O)c1ccc(-c3c4nc(c(-c5c(F)c(F)c(F)c(F)c5F)c5ccc([nH]5)c(-c5c(F)c(F)c(F)c(F)c5F)c5nc(c(-c6c(F)c(F)c(F)c(F)c6F)c6ccc3[nH]6)C=C5)C=C4)cc1)[C@H](C(F)(F)F)O2
REMARK SMILES IDX 16 1 15 2 14 3 12 4 13 5 11 7 1 8 2 9 3 10 8 11 4 12 6 13
REMARK SMILES IDX 9 14 5 15 89 16 7 17 10 18 84 19 85 20 86 21 87 22 88 23
REMARK SMILES IDX 17 24 18 25 19 26 20 28 21 29 22 30 83 31 23 32 82 33 24 34
REMARK SMILES IDX 25 35 26 36 76 37 27 38 81 39 75 40 77 41 28 42 80 43 74 44
REMARK SMILES IDX 73 45 29 47 61 48 41 49 60 50 42 51 45 52 59 53 78 54 43 55
REMARK SMILES IDX 44 56 58 58 79 59 46 60 30 61 31 62 39 63 32 64 33 65 37 66
REMARK SMILES IDX 40 67 34 68 35 69 38 70 36 71 62 72 63 73 71 74 64 75 65 76
REMARK SMILES IDX 69 77 72 78 66 79 67 80 70 81 68 82 47 83 48 84 56 85 49 86
REMARK SMILES IDX 50 87 54 88 57 89 51 90 52 91 55 92 53 93
REMARK H PARENT 14 6 18 27 77 46 45 57
REMARK Flexibility Score: inf
ROOT
ATOM      1  C   UNL A   1      34.066  28.301  25.915  1.00  0.00     0.042 C 
ENDROOT
BRANCH   1   2
ATOM      2  C   UNL A   1      33.142  29.024  24.942  1.00  0.00     0.118 C 
BRANCH   2   3
ATOM      3  N   UNL A   1      33.628  28.900  23.579  1.00  0.00    -0.352 N 
ATOM      4  C   UNL A   1      33.703  27.940  22.634  1.00  0.00     0.251 C 
ATOM      5  O   UNL A   1      34.234  28.300  21.578  1.00  0.00    -0.270 OA
ATOM      6  H   UNL A   1      34.009  29.749  23.257  1.00  0.00     0.163 HD
BRANCH   4   7
ATOM      7  C   UNL A   1      33.203  26.542  22.769  1.00  0.00     0.067 C 
ATOM      8  C   UNL A   1      32.398  20.176  23.843  1.00  0.00     0.046 C 
ATOM      9  C   UNL A   1      32.909  21.590  23.772  1.00  0.00    -0.028 A 
ATOM     10  C   UNL A   1      32.097  22.527  23.123  1.00  0.00     0.052 A 
ATOM     11  C   UNL A   1      34.163  22.003  24.264  1.00  0.00     0.047 A 
ATOM     12  C   UNL A   1      32.504  23.848  22.989  1.00  0.00     0.128 A 
ATOM     13  C   UNL A   1      34.590  23.350  24.136  1.00  0.00    -0.021 A 
ATOM     14  Cl  UNL A   1      35.199  20.826  25.015  1.00  0.00    -0.084 Cl
ATOM     15  C   UNL A   1      33.742  24.273  23.475  1.00  0.00     0.022 A 
ATOM     16  O   UNL A   1      31.642  24.664  22.315  1.00  0.00    -0.475 OA
ATOM     17  C   UNL A   1      35.923  23.820  24.672  1.00  0.00     0.047 C 
ATOM     18  C   UNL A   1      34.119  25.666  23.225  1.00  0.00     0.026 C 
ATOM     19  C   UNL A   1      31.792  26.093  22.525  1.00  0.00     0.314 C 
BRANCH  19  20
ATOM     20  C   UNL A   1      30.785  26.588  23.581  1.00  0.00     0.429 C 
ATOM     21  F   UNL A   1      31.245  26.454  24.846  1.00  0.00    -0.167 F 
ATOM     22  F   UNL A   1      30.440  27.885  23.417  1.00  0.00    -0.167 F 
ATOM     23  F   UNL A   1      29.638  25.864  23.508  1.00  0.00    -0.167 F 
ENDBRANCH  19  20
ENDBRANCH   4   7
ENDBRANCH   2   3
ENDBRANCH   1   2
BRANCH   1  24
ATOM     24  C   UNL A   1      33.692  28.551  27.373  1.00  0.00     0.118 C 
BRANCH  24  25
ATOM     25  N   UNL A   1      33.682  29.972  27.693  1.00  0.00    -0.352 N 
ATOM     26  C   UNL A   1      34.603  30.740  28.361  1.00  0.00     0.251 C 
ATOM     27  H   UNL A   1      32.886  30.460  27.382  1.00  0.00     0.163 HD
ATOM     28  O   UNL A   1      34.276  31.851  28.771  1.00  0.00    -0.269 OA
BRANCH  26  29
ATOM     29  C   UNL A   1      35.980  30.252  28.595  1.00  0.00     0.039 A 
ATOM     30  C   UNL A   1      36.282  29.645  29.819  1.00  0.00     0.014 A 
ATOM     31  C   UNL A   1      36.994  30.464  27.658  1.00  0.00     0.014 A 
ATOM     32  C   UNL A   1      37.587  29.221  30.083  1.00  0.00     0.010 A 
ATOM     33  C   UNL A   1      38.271  29.958  27.882  1.00  0.00     0.010 A 
ATOM     34  C   UNL A   1      38.589  29.358  29.108  1.00  0.00    -0.014 A 
BRANCH  34  35
ATOM     35  C   UNL A   1      39.988  28.945  29.379  1.00  0.00     0.031 A 
ATOM     36  C   UNL A   1      40.879  29.820  30.219  1.00  0.00     0.074 A 
ATOM     37  C   UNL A   1      40.470  27.809  28.844  1.00  0.00     0.049 A 
ATOM     38  N   UNL A   1      42.139  29.662  30.534  1.00  0.00    -0.248 NA
ATOM     39  C   UNL A   1      40.279  31.054  30.753  1.00  0.00     0.031 C 
ATOM     40  C   UNL A   1      39.716  26.894  27.987  1.00  0.00     0.029 A 
ATOM     41  N   UNL A   1      41.709  27.226  28.946  1.00  0.00    -0.354 N 
ATOM     42  C   UNL A   1      42.481  30.775  31.290  1.00  0.00     0.074 A 
ATOM     43  C   UNL A   1      41.319  31.635  31.329  1.00  0.00     0.031 C 
ATOM     44  C   UNL A   1      40.494  25.845  27.675  1.00  0.00     0.029 A 
ATOM     45  C   UNL A   1      41.811  26.031  28.279  1.00  0.00     0.049 A 
ATOM     46  H   UNL A   1      42.453  27.629  29.450  1.00  0.00     0.167 HD
ATOM     47  C   UNL A   1      43.646  31.042  31.925  1.00  0.00     0.037 A 
ATOM     48  C   UNL A   1      42.848  25.179  28.174  1.00  0.00     0.037 A 
ATOM     49  C   UNL A   1      44.790  30.170  31.910  1.00  0.00     0.049 A 
ATOM     50  C   UNL A   1      44.143  25.508  28.863  1.00  0.00     0.074 A 
ATOM     51  C   UNL A   1      45.998  30.320  32.566  1.00  0.00     0.029 A 
ATOM     52  N   UNL A   1      44.863  28.981  31.200  1.00  0.00    -0.354 N 
ATOM     53  N   UNL A   1      44.439  26.538  29.616  1.00  0.00    -0.248 NA
ATOM     54  C   UNL A   1      45.249  24.556  28.683  1.00  0.00     0.031 C 
ATOM     55  C   UNL A   1      46.818  29.241  32.221  1.00  0.00     0.029 A 
ATOM     56  C   UNL A   1      46.107  28.398  31.382  1.00  0.00     0.049 A 
ATOM     57  H   UNL A   1      44.139  28.606  30.649  1.00  0.00     0.167 HD
ATOM     58  C   UNL A   1      45.758  26.357  30.011  1.00  0.00     0.074 A 
ATOM     59  C   UNL A   1      46.200  25.107  29.427  1.00  0.00     0.031 C 
ATOM     60  C   UNL A   1      46.532  27.157  30.784  1.00  0.00     0.037 A 
BRANCH  47  61
ATOM     61  C   UNL A   1      43.731  32.324  32.702  1.00  0.00     0.064 A 
ATOM     62  C   UNL A   1      43.352  32.387  34.051  1.00  0.00     0.173 A 
ATOM     63  C   UNL A   1      44.208  33.497  32.100  1.00  0.00     0.173 A 
ATOM     64  F   UNL A   1      42.875  31.296  34.670  1.00  0.00    -0.203 F 
ATOM     65  C   UNL A   1      43.414  33.584  34.759  1.00  0.00     0.198 A 
ATOM     66  C   UNL A   1      44.299  34.686  32.820  1.00  0.00     0.198 A 
ATOM     67  F   UNL A   1      44.590  33.490  30.814  1.00  0.00    -0.203 F 
ATOM     68  F   UNL A   1      42.991  33.632  36.031  1.00  0.00    -0.200 F 
ATOM     69  C   UNL A   1      43.892  34.731  34.145  1.00  0.00     0.200 A 
ATOM     70  F   UNL A   1      44.773  35.791  32.228  1.00  0.00    -0.200 F 
ATOM     71  F   UNL A   1      43.953  35.883  34.827  1.00  0.00    -0.200 F 
ENDBRANCH  47  61
BRANCH  48  72
ATOM     72  C   UNL A   1      42.674  23.909  27.425  1.00  0.00     0.064 A 
ATOM     73  C   UNL A   1      43.024  23.829  26.070  1.00  0.00     0.173 A 
ATOM     74  C   UNL A   1      42.211  22.743  28.051  1.00  0.00     0.173 A 
ATOM     75  F   UNL A   1      43.455  24.923  25.426  1.00  0.00    -0.203 F 
ATOM     76  C   UNL A   1      42.922  22.630  25.371  1.00  0.00     0.198 A 
ATOM     77  C   UNL A   1      42.128  21.539  27.355  1.00  0.00     0.198 A 
ATOM     78  F   UNL A   1      41.867  22.769  29.347  1.00  0.00    -0.203 F 
ATOM     79  F   UNL A   1      43.248  22.584  24.071  1.00  0.00    -0.200 F 
ATOM     80  C   UNL A   1      42.481  21.483  26.015  1.00  0.00     0.200 A 
ATOM     81  F   UNL A   1      41.716  20.430  27.985  1.00  0.00    -0.200 F 
ATOM     82  F   UNL A   1      42.401  20.326  25.346  1.00  0.00    -0.200 F 
ENDBRANCH  48  72
BRANCH  60  83
ATOM     83  C   UNL A   1      47.942  26.716  31.044  1.00  0.00     0.064 A 
ATOM     84  C   UNL A   1      48.242  25.811  32.072  1.00  0.00     0.173 A 
ATOM     85  C   UNL A   1      48.987  27.132  30.206  1.00  0.00     0.173 A 
ATOM     86  F   UNL A   1      47.277  25.394  32.907  1.00  0.00    -0.203 F 
ATOM     87  C   UNL A   1      49.539  25.344  32.257  1.00  0.00     0.198 A 
ATOM     88  C   UNL A   1      50.278  26.644  30.378  1.00  0.00     0.198 A 
ATOM     89  F   UNL A   1      48.748  27.992  29.204  1.00  0.00    -0.203 F 
ATOM     90  F   UNL A   1      49.810  24.499  33.261  1.00  0.00    -0.200 F 
ATOM     91  C   UNL A   1      50.554  25.752  31.403  1.00  0.00     0.200 A 
ATOM     92  F   UNL A   1      51.255  27.028  29.544  1.00  0.00    -0.200 F 
ATOM     93  F   UNL A   1      51.799  25.286  31.570  1.00  0.00    -0.200 F 
ENDBRANCH  60  83
ENDBRANCH  34  35
ENDBRANCH  26  29
ENDBRANCH  24  25
ENDBRANCH   1  24
TORSDOF 11
ENDMDL
MODEL 2
REMARK VINA RESULT:     -12.5      2.753      3.974
REMARK SMILES Cc1cc2c(c(C)c1Cl)C=C(C(=O)NCCCNC(=O)c1ccc(-c3c4nc(c(-c5c(F)c(F)c(F)c(F)c5F)c5ccc([nH]5)c(-c5c(F)c(F)c(F)c(F)c5F)c5nc(c(-c6c(F)c(F)c(F)c(F)c6F)c6ccc3[nH]6)C=C5)C=C4)cc1)[C@H](C(F)(F)F)O2
REMARK SMILES IDX 16 1 15 2 14 3 12 4 13 5 11 7 1 8 2 9 3 10 8 11 4 12 6 13
REMARK SMILES IDX 9 14 5 15 89 16 7 17 10 18 84 19 85 20 86 21 87 22 88 23
REMARK SMILES IDX 17 24 18 25 19 26 20 28 21 29 22 30 83 31 23 32 82 33 24 34
REMARK SMILES IDX 25 35 26 36 76 37 27 38 81 39 75 40 77 41 28 42 80 43 74 44
REMARK SMILES IDX 73 45 29 47 61 48 41 49 60 50 42 51 45 52 59 53 78 54 43 55
REMARK SMILES IDX 44 56 58 58 79 59 46 60 30 61 31 62 39 63 32 64 33 65 37 66
REMARK SMILES IDX 40 67 34 68 35 69 38 70 36 71 62 72 63 73 71 74 64 75 65 76
REMARK SMILES IDX 69 77 72 78 66 79 67 80 70 81 68 82 47 83 48 84 56 85 49 86
REMARK SMILES IDX 50 87 54 88 57 89 51 90 52 91 55 92 53 93
REMARK H PARENT 14 6 18 27 77 46 45 57
REMARK Flexibility Score: inf
ROOT
ATOM      1  C   UNL A   1      32.320  29.728  25.479  1.00  0.00     0.042 C 
ENDROOT
BRANCH   1   2
ATOM      2  C   UNL A   1      33.515  28.816  25.224  1.00  0.00     0.118 C 
BRANCH   2   3
ATOM      3  N   UNL A   1      33.833  28.769  23.808  1.00  0.00    -0.352 N 
ATOM      4  C   UNL A   1      33.779  27.867  22.806  1.00  0.00     0.251 C 
ATOM      5  O   UNL A   1      34.186  28.286  21.716  1.00  0.00    -0.270 OA
ATOM      6  H   UNL A   1      34.185  29.633  23.492  1.00  0.00     0.163 HD
BRANCH   4   7
ATOM      7  C   UNL A   1      33.278  26.468  22.918  1.00  0.00     0.067 C 
ATOM      8  C   UNL A   1      32.462  20.087  23.892  1.00  0.00     0.046 C 
ATOM      9  C   UNL A   1      32.975  21.501  23.844  1.00  0.00    -0.028 A 
ATOM     10  C   UNL A   1      32.166  22.449  23.207  1.00  0.00     0.052 A 
ATOM     11  C   UNL A   1      34.228  21.906  24.345  1.00  0.00     0.047 A 
ATOM     12  C   UNL A   1      32.575  23.772  23.095  1.00  0.00     0.128 A 
ATOM     13  C   UNL A   1      34.657  23.253  24.239  1.00  0.00    -0.021 A 
ATOM     14  Cl  UNL A   1      35.261  20.716  25.081  1.00  0.00    -0.084 Cl
ATOM     15  C   UNL A   1      33.812  24.187  23.591  1.00  0.00     0.022 A 
ATOM     16  O   UNL A   1      31.715  24.599  22.431  1.00  0.00    -0.475 OA
ATOM     17  C   UNL A   1      35.989  23.713  24.786  1.00  0.00     0.047 C 
ATOM     18  C   UNL A   1      34.191  25.584  23.363  1.00  0.00     0.026 C 
ATOM     19  C   UNL A   1      31.867  26.024  22.664  1.00  0.00     0.314 C 
BRANCH  19  20
ATOM     20  C   UNL A   1      30.857  26.504  23.724  1.00  0.00     0.429 C 
ATOM     21  F   UNL A   1      31.331  26.390  24.987  1.00  0.00    -0.167 F 
ATOM     22  F   UNL A   1      30.482  27.791  23.555  1.00  0.00    -0.167 F 
ATOM     23  F   UNL A   1      29.726  25.754  23.666  1.00  0.00    -0.167 F 
ENDBRANCH  19  20
ENDBRANCH   4   7
ENDBRANCH   2   3
ENDBRANCH   1   2
BRANCH   1  24
ATOM     24  C   UNL A   1      32.332  30.328  26.883  1.00  0.00     0.118 C 
BRANCH  24  25
ATOM     25  N   UNL A   1      32.471  31.777  26.851  1.00  0.00    -0.352 N 
ATOM     26  C   UNL A   1      33.364  32.599  27.492  1.00  0.00     0.251 C 
ATOM     27  H   UNL A   1      31.819  32.242  26.279  1.00  0.00     0.163 HD
ATOM     28  O   UNL A   1      33.134  33.804  27.554  1.00  0.00    -0.269 OA
BRANCH  26  29
ATOM     29  C   UNL A   1      34.595  32.058  28.109  1.00  0.00     0.039 A 
ATOM     30  C   UNL A   1      34.634  30.705  28.465  1.00  0.00     0.014 A 
ATOM     31  C   UNL A   1      35.676  32.887  28.420  1.00  0.00     0.014 A 
ATOM     32  C   UNL A   1      35.765  30.182  29.094  1.00  0.00     0.010 A 
ATOM     33  C   UNL A   1      36.839  32.347  28.961  1.00  0.00     0.010 A 
ATOM     34  C   UNL A   1      36.885  30.996  29.332  1.00  0.00    -0.014 A 
BRANCH  34  35
ATOM     35  C   UNL A   1      38.086  30.470  30.028  1.00  0.00     0.031 A 
ATOM     36  C   UNL A   1      38.373  30.889  31.444  1.00  0.00     0.074 A 
ATOM     37  C   UNL A   1      38.933  29.650  29.382  1.00  0.00     0.049 A 
ATOM     38  N   UNL A   1      39.388  30.581  32.211  1.00  0.00    -0.248 NA
ATOM     39  C   UNL A   1      37.404  31.802  32.073  1.00  0.00     0.031 C 
ATOM     40  C   UNL A   1      38.781  29.198  27.999  1.00  0.00     0.029 A 
ATOM     41  N   UNL A   1      40.091  29.046  29.804  1.00  0.00    -0.354 N 
ATOM     42  C   UNL A   1      39.183  31.266  33.401  1.00  0.00     0.074 A 
ATOM     43  C   UNL A   1      37.987  32.060  33.233  1.00  0.00     0.031 C 
ATOM     44  C   UNL A   1      39.783  28.357  27.700  1.00  0.00     0.029 A 
ATOM     45  C   UNL A   1      40.667  28.237  28.857  1.00  0.00     0.049 A 
ATOM     46  H   UNL A   1      40.471  29.180  30.703  1.00  0.00     0.167 HD
ATOM     47  C   UNL A   1      39.906  31.210  34.545  1.00  0.00     0.037 A 
ATOM     48  C   UNL A   1      41.779  27.481  28.917  1.00  0.00     0.037 A 
ATOM     49  C   UNL A   1      41.078  30.395  34.719  1.00  0.00     0.049 A 
ATOM     50  C   UNL A   1      42.583  27.456  30.187  1.00  0.00     0.074 A 
ATOM     51  C   UNL A   1      41.849  30.225  35.854  1.00  0.00     0.029 A 
ATOM     52  N   UNL A   1      41.645  29.611  33.726  1.00  0.00    -0.354 N 
ATOM     53  N   UNL A   1      42.353  28.067  31.323  1.00  0.00    -0.248 NA
ATOM     54  C   UNL A   1      43.805  26.638  30.182  1.00  0.00     0.031 C 
ATOM     55  C   UNL A   1      42.908  29.368  35.536  1.00  0.00     0.029 A 
ATOM     56  C   UNL A   1      42.773  28.973  34.215  1.00  0.00     0.049 A 
ATOM     57  H   UNL A   1      41.298  29.520  32.809  1.00  0.00     0.167 HD
ATOM     58  C   UNL A   1      43.389  27.703  32.171  1.00  0.00     0.074 A 
ATOM     59  C   UNL A   1      44.242  26.801  31.425  1.00  0.00     0.031 C 
ATOM     60  C   UNL A   1      43.615  28.085  33.453  1.00  0.00     0.037 A 
BRANCH  47  61
ATOM     61  C   UNL A   1      39.435  32.046  35.699  1.00  0.00     0.064 A 
ATOM     62  C   UNL A   1      39.907  33.353  35.896  1.00  0.00     0.173 A 
ATOM     63  C   UNL A   1      38.493  31.546  36.609  1.00  0.00     0.173 A 
ATOM     64  F   UNL A   1      40.819  33.874  35.062  1.00  0.00    -0.203 F 
ATOM     65  C   UNL A   1      39.480  34.114  36.981  1.00  0.00     0.198 A 
ATOM     66  C   UNL A   1      38.044  32.321  37.676  1.00  0.00     0.198 A 
ATOM     67  F   UNL A   1      38.004  30.304  36.464  1.00  0.00    -0.203 F 
ATOM     68  F   UNL A   1      39.989  35.338  37.180  1.00  0.00    -0.200 F 
ATOM     69  C   UNL A   1      38.546  33.600  37.867  1.00  0.00     0.200 A 
ATOM     70  F   UNL A   1      37.132  31.827  38.525  1.00  0.00    -0.200 F 
ATOM     71  F   UNL A   1      38.134  34.334  38.910  1.00  0.00    -0.200 F 
ENDBRANCH  47  61
BRANCH  48  72
ATOM     72  C   UNL A   1      42.157  26.646  27.750  1.00  0.00     0.064 A 
ATOM     73  C   UNL A   1      43.090  27.113  26.814  1.00  0.00     0.173 A 
ATOM     74  C   UNL A   1      41.642  25.354  27.571  1.00  0.00     0.173 A 
ATOM     75  F   UNL A   1      43.595  28.349  26.935  1.00  0.00    -0.203 F 
ATOM     76  C   UNL A   1      43.497  26.318  25.746  1.00  0.00     0.198 A 
ATOM     77  C   UNL A   1      42.066  24.552  26.514  1.00  0.00     0.198 A 
ATOM     78  F   UNL A   1      40.750  24.861  28.442  1.00  0.00    -0.203 F 
ATOM     79  F   UNL A   1      44.379  26.796  24.857  1.00  0.00    -0.200 F 
ATOM     80  C   UNL A   1      42.992  25.035  25.601  1.00  0.00     0.200 A 
ATOM     81  F   UNL A   1      41.586  23.307  26.384  1.00  0.00    -0.200 F 
ATOM     82  F   UNL A   1      43.399  24.265  24.583  1.00  0.00    -0.200 F 
ENDBRANCH  48  72
BRANCH  60  83
ATOM     83  C   UNL A   1      44.834  27.538  34.134  1.00  0.00     0.064 A 
ATOM     84  C   UNL A   1      46.045  28.245  34.134  1.00  0.00     0.173 A 
ATOM     85  C   UNL A   1      44.768  26.344  34.866  1.00  0.00     0.173 A 
ATOM     86  F   UNL A   1      46.159  29.387  33.438  1.00  0.00    -0.203 F 
ATOM     87  C   UNL A   1      47.149  27.771  34.835  1.00  0.00     0.198 A 
ATOM     88  C   UNL A   1      45.867  25.885  35.587  1.00  0.00     0.198 A 
ATOM     89  F   UNL A   1      43.629  25.635  34.903  1.00  0.00    -0.203 F 
ATOM     90  F   UNL A   1      48.305  28.449  34.801  1.00  0.00    -0.200 F 
ATOM     91  C   UNL A   1      47.056  26.598  35.570  1.00  0.00     0.200 A 
ATOM     92  F   UNL A   1      45.771  24.759  36.307  1.00  0.00    -0.200 F 
ATOM     93  F   UNL A   1      48.114  26.153  36.261  1.00  0.00    -0.200 F 
ENDBRANCH  60  83
ENDBRANCH  34  35
ENDBRANCH  26  29
ENDBRANCH  24  25
ENDBRANCH   1  24
TORSDOF 11
ENDMDL
MODEL 3
REMARK VINA RESULT:     -12.4      3.589      8.771
REMARK SMILES Cc1cc2c(c(C)c1Cl)C=C(C(=O)NCCCNC(=O)c1ccc(-c3c4nc(c(-c5c(F)c(F)c(F)c(F)c5F)c5ccc([nH]5)c(-c5c(F)c(F)c(F)c(F)c5F)c5nc(c(-c6c(F)c(F)c(F)c(F)c6F)c6ccc3[nH]6)C=C5)C=C4)cc1)[C@H](C(F)(F)F)O2
REMARK SMILES IDX 16 1 15 2 14 3 12 4 13 5 11 7 1 8 2 9 3 10 8 11 4 12 6 13
REMARK SMILES IDX 9 14 5 15 89 16 7 17 10 18 84 19 85 20 86 21 87 22 88 23
REMARK SMILES IDX 17 24 18 25 19 26 20 28 21 29 22 30 83 31 23 32 82 33 24 34
REMARK SMILES IDX 25 35 26 36 76 37 27 38 81 39 75 40 77 41 28 42 80 43 74 44
REMARK SMILES IDX 73 45 29 47 61 48 41 49 60 50 42 51 45 52 59 53 78 54 43 55
REMARK SMILES IDX 44 56 58 58 79 59 46 60 30 61 31 62 39 63 32 64 33 65 37 66
REMARK SMILES IDX 40 67 34 68 35 69 38 70 36 71 62 72 63 73 71 74 64 75 65 76
REMARK SMILES IDX 69 77 72 78 66 79 67 80 70 81 68 82 47 83 48 84 56 85 49 86
REMARK SMILES IDX 50 87 54 88 57 89 51 90 52 91 55 92 53 93
REMARK H PARENT 14 6 18 27 77 46 45 57
REMARK Flexibility Score: inf
ROOT
ATOM      1  C   UNL A   1      35.745  23.476  25.454  1.00  0.00     0.042 C 
ENDROOT
BRANCH   1   2
ATOM      2  C   UNL A   1      35.389  22.033  25.793  1.00  0.00     0.118 C 
BRANCH   2   3
ATOM      3  N   UNL A   1      34.455  21.981  26.904  1.00  0.00    -0.352 N 
ATOM      4  C   UNL A   1      33.230  22.464  27.197  1.00  0.00     0.251 C 
ATOM      5  O   UNL A   1      32.814  22.161  28.320  1.00  0.00    -0.270 OA
ATOM      6  H   UNL A   1      34.815  21.446  27.648  1.00  0.00     0.163 HD
BRANCH   4   7
ATOM      7  C   UNL A   1      32.381  23.293  26.295  1.00  0.00     0.067 C 
ATOM      8  C   UNL A   1      29.323  28.044  23.067  1.00  0.00     0.046 C 
ATOM      9  C   UNL A   1      30.233  27.229  23.948  1.00  0.00    -0.028 A 
ATOM     10  C   UNL A   1      30.020  25.847  23.977  1.00  0.00     0.052 A 
ATOM     11  C   UNL A   1      31.234  27.780  24.774  1.00  0.00     0.047 A 
ATOM     12  C   UNL A   1      30.797  25.024  24.782  1.00  0.00     0.128 A 
ATOM     13  C   UNL A   1      32.036  26.951  25.600  1.00  0.00    -0.021 A 
ATOM     14  Cl  UNL A   1      31.458  29.503  24.786  1.00  0.00    -0.084 Cl
ATOM     15  C   UNL A   1      31.794  25.555  25.603  1.00  0.00     0.022 A 
ATOM     16  O   UNL A   1      30.480  23.697  24.748  1.00  0.00    -0.475 OA
ATOM     17  C   UNL A   1      33.127  27.517  26.480  1.00  0.00     0.047 C 
ATOM     18  C   UNL A   1      32.515  24.621  26.472  1.00  0.00     0.026 C 
ATOM     19  C   UNL A   1      31.500  22.768  25.199  1.00  0.00     0.314 C 
BRANCH  19  20
ATOM     20  C   UNL A   1      32.271  22.193  23.996  1.00  0.00     0.429 C 
ATOM     21  F   UNL A   1      32.847  20.998  24.265  1.00  0.00    -0.167 F 
ATOM     22  F   UNL A   1      31.497  22.024  22.901  1.00  0.00    -0.167 F 
ATOM     23  F   UNL A   1      33.276  23.035  23.639  1.00  0.00    -0.167 F 
ENDBRANCH  19  20
ENDBRANCH   4   7
ENDBRANCH   2   3
ENDBRANCH   1   2
BRANCH   1  24
ATOM     24  C   UNL A   1      37.178  23.621  24.948  1.00  0.00     0.118 C 
BRANCH  24  25
ATOM     25  N   UNL A   1      38.070  22.646  25.560  1.00  0.00    -0.352 N 
ATOM     26  C   UNL A   1      39.212  22.825  26.299  1.00  0.00     0.251 C 
ATOM     27  H   UNL A   1      37.812  21.706  25.420  1.00  0.00     0.163 HD
ATOM     28  O   UNL A   1      39.967  21.874  26.481  1.00  0.00    -0.269 OA
BRANCH  26  29
ATOM     29  C   UNL A   1      39.548  24.145  26.879  1.00  0.00     0.039 A 
ATOM     30  C   UNL A   1      40.217  25.082  26.083  1.00  0.00     0.014 A 
ATOM     31  C   UNL A   1      39.289  24.435  28.220  1.00  0.00     0.014 A 
ATOM     32  C   UNL A   1      40.589  26.315  26.622  1.00  0.00     0.010 A 
ATOM     33  C   UNL A   1      39.576  25.698  28.731  1.00  0.00     0.010 A 
ATOM     34  C   UNL A   1      40.256  26.640  27.947  1.00  0.00    -0.014 A 
BRANCH  34  35
ATOM     35  C   UNL A   1      40.669  27.931  28.551  1.00  0.00     0.031 A 
ATOM     36  C   UNL A   1      42.117  28.173  28.882  1.00  0.00     0.074 A 
ATOM     37  C   UNL A   1      39.747  28.868  28.834  1.00  0.00     0.049 A 
ATOM     38  N   UNL A   1      42.676  29.211  29.452  1.00  0.00    -0.248 NA
ATOM     39  C   UNL A   1      43.060  27.091  28.554  1.00  0.00     0.031 C 
ATOM     40  C   UNL A   1      38.310  28.739  28.591  1.00  0.00     0.029 A 
ATOM     41  N   UNL A   1      39.881  30.118  29.386  1.00  0.00    -0.354 N 
ATOM     42  C   UNL A   1      44.025  28.901  29.557  1.00  0.00     0.074 A 
ATOM     43  C   UNL A   1      44.192  27.555  29.059  1.00  0.00     0.031 C 
ATOM     44  C   UNL A   1      37.700  29.878  28.953  1.00  0.00     0.029 A 
ATOM     45  C   UNL A   1      38.696  30.804  29.486  1.00  0.00     0.049 A 
ATOM     46  H   UNL A   1      40.744  30.486  29.681  1.00  0.00     0.167 HD
ATOM     47  C   UNL A   1      45.040  29.681  29.998  1.00  0.00     0.037 A 
ATOM     48  C   UNL A   1      38.445  32.043  29.949  1.00  0.00     0.037 A 
ATOM     49  C   UNL A   1      44.876  31.031  30.465  1.00  0.00     0.049 A 
ATOM     50  C   UNL A   1      39.582  32.882  30.461  1.00  0.00     0.074 A 
ATOM     51  C   UNL A   1      45.845  31.925  30.879  1.00  0.00     0.029 A 
ATOM     52  N   UNL A   1      43.655  31.681  30.577  1.00  0.00    -0.354 N 
ATOM     53  N   UNL A   1      40.861  32.599  30.509  1.00  0.00    -0.248 NA
ATOM     54  C   UNL A   1      39.241  34.213  30.984  1.00  0.00     0.031 C 
ATOM     55  C   UNL A   1      45.208  33.104  31.280  1.00  0.00     0.029 A 
ATOM     56  C   UNL A   1      43.845  32.959  31.078  1.00  0.00     0.049 A 
ATOM     57  H   UNL A   1      42.783  31.293  30.335  1.00  0.00     0.167 HD
ATOM     58  C   UNL A   1      41.479  33.714  31.057  1.00  0.00     0.074 A 
ATOM     59  C   UNL A   1      40.437  34.688  31.308  1.00  0.00     0.031 C 
ATOM     60  C   UNL A   1      42.793  33.911  31.330  1.00  0.00     0.037 A 
BRANCH  47  61
ATOM     61  C   UNL A   1      46.421  29.092  29.978  1.00  0.00     0.064 A 
ATOM     62  C   UNL A   1      47.239  29.186  28.842  1.00  0.00     0.173 A 
ATOM     63  C   UNL A   1      46.939  28.440  31.106  1.00  0.00     0.173 A 
ATOM     64  F   UNL A   1      46.786  29.787  27.731  1.00  0.00    -0.203 F 
ATOM     65  C   UNL A   1      48.511  28.620  28.825  1.00  0.00     0.198 A 
ATOM     66  C   UNL A   1      48.223  27.901  31.096  1.00  0.00     0.198 A 
ATOM     67  F   UNL A   1      46.201  28.327  32.221  1.00  0.00    -0.203 F 
ATOM     68  F   UNL A   1      49.251  28.673  27.708  1.00  0.00    -0.200 F 
ATOM     69  C   UNL A   1      49.004  27.983  29.952  1.00  0.00     0.200 A 
ATOM     70  F   UNL A   1      48.703  27.296  32.191  1.00  0.00    -0.200 F 
ATOM     71  F   UNL A   1      50.228  27.438  29.935  1.00  0.00    -0.200 F 
ENDBRANCH  47  61
BRANCH  48  72
ATOM     72  C   UNL A   1      37.059  32.573  29.896  1.00  0.00     0.064 A 
ATOM     73  C   UNL A   1      36.191  32.404  30.982  1.00  0.00     0.173 A 
ATOM     74  C   UNL A   1      36.592  33.301  28.792  1.00  0.00     0.173 A 
ATOM     75  F   UNL A   1      36.588  31.699  32.052  1.00  0.00    -0.203 F 
ATOM     76  C   UNL A   1      34.909  32.946  30.970  1.00  0.00     0.198 A 
ATOM     77  C   UNL A   1      35.317  33.861  28.789  1.00  0.00     0.198 A 
ATOM     78  F   UNL A   1      37.388  33.494  27.730  1.00  0.00    -0.203 F 
ATOM     79  F   UNL A   1      34.092  32.756  32.015  1.00  0.00    -0.200 F 
ATOM     80  C   UNL A   1      34.475  33.682  29.877  1.00  0.00     0.200 A 
ATOM     81  F   UNL A   1      34.906  34.584  27.738  1.00  0.00    -0.200 F 
ATOM     82  F   UNL A   1      33.247  34.219  29.873  1.00  0.00    -0.200 F 
ENDBRANCH  48  72
BRANCH  60  83
ATOM     83  C   UNL A   1      43.185  35.225  31.938  1.00  0.00     0.064 A 
ATOM     84  C   UNL A   1      43.636  36.287  31.142  1.00  0.00     0.173 A 
ATOM     85  C   UNL A   1      43.027  35.451  33.313  1.00  0.00     0.173 A 
ATOM     86  F   UNL A   1      43.815  36.114  29.823  1.00  0.00    -0.203 F 
ATOM     87  C   UNL A   1      43.922  37.528  31.703  1.00  0.00     0.198 A 
ATOM     88  C   UNL A   1      43.290  36.701  33.867  1.00  0.00     0.198 A 
ATOM     89  F   UNL A   1      42.591  34.467  34.115  1.00  0.00    -0.203 F 
ATOM     90  F   UNL A   1      44.377  38.524  30.929  1.00  0.00    -0.200 F 
ATOM     91  C   UNL A   1      43.738  37.737  33.062  1.00  0.00     0.200 A 
ATOM     92  F   UNL A   1      43.098  36.905  35.177  1.00  0.00    -0.200 F 
ATOM     93  F   UNL A   1      43.995  38.938  33.597  1.00  0.00    -0.200 F 
ENDBRANCH  60  83
ENDBRANCH  34  35
ENDBRANCH  26  29
ENDBRANCH  24  25
ENDBRANCH   1  24
TORSDOF 11
ENDMDL
