MODEL 1
REMARK VINA RESULT:     -11.5      0.000      0.000
REMARK SMILES CCN(C(=O)NCC(=O)NCCCNC(=O)c1ccc(-c2c3nc(c(-c4c(F)c(F)c(F)c(F)c4F)c4ccc([nH]4)c(-c4c(F)c(F)c(F)c(F)c4F)c4nc(c(-c5c(F)c(F)c(F)c(F)c5F)c5ccc2[nH]5)C=C4)C=C3)cc1)C1CCCCC1
REMARK SMILES IDX 11 1 10 2 8 3 9 4 7 6 6 7 4 8 5 9 3 11 2 12 1 13 80 14 81 15
REMARK SMILES IDX 85 16 82 17 84 18 83 19 12 20 13 21 14 22 15 23 16 25 17 26
REMARK SMILES IDX 18 27 79 28 19 29 78 30 20 31 21 32 22 33 72 34 23 35 77 36
REMARK SMILES IDX 71 37 73 38 24 39 76 40 70 41 69 42 25 44 57 45 37 46 56 47
REMARK SMILES IDX 38 48 41 49 55 50 74 51 39 52 40 53 54 55 75 56 42 57 26 58
REMARK SMILES IDX 27 59 35 60 28 61 29 62 33 63 36 64 30 65 31 66 34 67 32 68
REMARK SMILES IDX 58 69 59 70 67 71 60 72 61 73 65 74 68 75 62 76 63 77 66 78
REMARK SMILES IDX 64 79 43 80 44 81 52 82 45 83 46 84 50 85 53 86 47 87 48 88
REMARK SMILES IDX 51 89 49 90
REMARK H PARENT 10 5 6 10 14 24 73 43 41 54
REMARK Flexibility Score: inf
ROOT
ATOM      1  C   UNL A   1      31.601  30.956  26.022  1.00  0.00     0.117 C 
ENDROOT
BRANCH   1   2
ATOM      2  N   UNL A   1      32.699  30.138  26.480  1.00  0.00    -0.355 N 
ATOM      3  C   UNL A   1      32.714  28.943  27.125  1.00  0.00     0.239 C 
ATOM      4  O   UNL A   1      33.820  28.397  27.231  1.00  0.00    -0.273 OA
ATOM      5  H   UNL A   1      33.591  30.510  26.292  1.00  0.00     0.163 HD
BRANCH   3   6
ATOM      6  C   UNL A   1      31.450  28.183  27.568  1.00  0.00     0.217 C 
BRANCH   6   7
ATOM      7  N   UNL A   1      31.043  26.979  26.859  1.00  0.00    -0.329 N 
ATOM      8  C   UNL A   1      30.941  26.461  25.628  1.00  0.00     0.318 C 
ATOM      9  O   UNL A   1      30.612  25.272  25.669  1.00  0.00    -0.249 OA
ATOM     10  H   UNL A   1      30.736  26.310  27.513  1.00  0.00     0.165 HD
BRANCH   8  11
ATOM     11  N   UNL A   1      31.114  27.163  24.456  1.00  0.00    -0.322 N 
BRANCH  11  12
ATOM     12  C   UNL A   1      32.106  26.806  23.428  1.00  0.00     0.118 C 
ATOM     13  C   UNL A   1      33.537  26.889  23.928  1.00  0.00     0.027 C 
ENDBRANCH  11  12
BRANCH  11  14
ATOM     14  C   UNL A   1      30.102  28.228  24.048  1.00  0.00     0.087 C 
ATOM     15  C   UNL A   1      30.589  29.275  23.010  1.00  0.00     0.025 C 
ATOM     16  C   UNL A   1      28.787  27.592  23.514  1.00  0.00     0.025 C 
ATOM     17  C   UNL A   1      29.513  30.254  22.546  1.00  0.00     0.002 C 
ATOM     18  C   UNL A   1      27.738  28.595  23.047  1.00  0.00     0.002 C 
ATOM     19  C   UNL A   1      28.292  29.542  22.000  1.00  0.00     0.000 C 
ENDBRANCH  11  14
ENDBRANCH   8  11
ENDBRANCH   6   7
ENDBRANCH   3   6
ENDBRANCH   1   2
BRANCH   1  20
ATOM     20  C   UNL A   1      31.375  32.192  26.876  1.00  0.00     0.042 C 
BRANCH  20  21
ATOM     21  C   UNL A   1      32.666  32.929  27.206  1.00  0.00     0.118 C 
BRANCH  21  22
ATOM     22  N   UNL A   1      32.432  34.299  27.654  1.00  0.00    -0.352 N 
ATOM     23  C   UNL A   1      32.998  35.004  28.684  1.00  0.00     0.251 C 
ATOM     24  H   UNL A   1      31.762  34.795  27.131  1.00  0.00     0.163 HD
ATOM     25  O   UNL A   1      32.535  36.092  29.002  1.00  0.00    -0.269 OA
BRANCH  23  26
ATOM     26  C   UNL A   1      34.151  34.448  29.424  1.00  0.00     0.039 A 
ATOM     27  C   UNL A   1      33.921  33.819  30.650  1.00  0.00     0.014 A 
ATOM     28  C   UNL A   1      35.452  34.559  28.928  1.00  0.00     0.014 A 
ATOM     29  C   UNL A   1      34.988  33.248  31.345  1.00  0.00     0.010 A 
ATOM     30  C   UNL A   1      36.499  33.909  29.572  1.00  0.00     0.010 A 
ATOM     31  C   UNL A   1      36.279  33.255  30.793  1.00  0.00    -0.014 A 
BRANCH  31  32
ATOM     32  C   UNL A   1      37.407  32.581  31.482  1.00  0.00     0.031 A 
ATOM     33  C   UNL A   1      38.116  31.427  30.831  1.00  0.00     0.074 A 
ATOM     34  C   UNL A   1      37.756  32.977  32.721  1.00  0.00     0.049 A 
ATOM     35  N   UNL A   1      39.105  30.699  31.287  1.00  0.00    -0.248 NA
ATOM     36  C   UNL A   1      37.633  31.013  29.504  1.00  0.00     0.031 C 
ATOM     37  C   UNL A   1      37.102  34.041  33.483  1.00  0.00     0.029 A 
ATOM     38  N   UNL A   1      38.744  32.527  33.560  1.00  0.00    -0.354 N 
ATOM     39  C   UNL A   1      39.349  29.740  30.313  1.00  0.00     0.074 A 
ATOM     40  C   UNL A   1      38.365  29.935  29.271  1.00  0.00     0.031 C 
ATOM     41  C   UNL A   1      37.724  34.186  34.663  1.00  0.00     0.029 A 
ATOM     42  C   UNL A   1      38.795  33.198  34.759  1.00  0.00     0.049 A 
ATOM     43  H   UNL A   1      39.357  31.793  33.328  1.00  0.00     0.167 HD
ATOM     44  C   UNL A   1      40.322  28.798  30.279  1.00  0.00     0.037 A 
ATOM     45  C   UNL A   1      39.612  33.033  35.816  1.00  0.00     0.037 A 
ATOM     46  C   UNL A   1      41.310  28.621  31.312  1.00  0.00     0.049 A 
ATOM     47  C   UNL A   1      40.687  31.983  35.753  1.00  0.00     0.074 A 
ATOM     48  C   UNL A   1      42.379  27.745  31.342  1.00  0.00     0.029 A 
ATOM     49  N   UNL A   1      41.341  29.332  32.503  1.00  0.00    -0.354 N 
ATOM     50  N   UNL A   1      40.966  31.140  34.788  1.00  0.00    -0.248 NA
ATOM     51  C   UNL A   1      41.568  31.867  36.924  1.00  0.00     0.031 C 
ATOM     52  C   UNL A   1      43.022  27.881  32.576  1.00  0.00     0.029 A 
ATOM     53  C   UNL A   1      42.395  28.892  33.289  1.00  0.00     0.049 A 
ATOM     54  H   UNL A   1      40.710  30.045  32.754  1.00  0.00     0.167 HD
ATOM     55  C   UNL A   1      42.069  30.416  35.220  1.00  0.00     0.074 A 
ATOM     56  C   UNL A   1      42.418  30.930  36.528  1.00  0.00     0.031 C 
ATOM     57  C   UNL A   1      42.734  29.417  34.588  1.00  0.00     0.037 A 
BRANCH  44  58
ATOM     58  C   UNL A   1      40.364  27.883  29.086  1.00  0.00     0.064 A 
ATOM     59  C   UNL A   1      41.130  28.184  27.950  1.00  0.00     0.173 A 
ATOM     60  C   UNL A   1      39.648  26.676  29.091  1.00  0.00     0.173 A 
ATOM     61  F   UNL A   1      41.826  29.330  27.888  1.00  0.00    -0.203 F 
ATOM     62  C   UNL A   1      41.149  27.330  26.849  1.00  0.00     0.198 A 
ATOM     63  C   UNL A   1      39.698  25.807  28.003  1.00  0.00     0.198 A 
ATOM     64  F   UNL A   1      38.905  26.333  30.154  1.00  0.00    -0.203 F 
ATOM     65  F   UNL A   1      41.840  27.670  25.752  1.00  0.00    -0.200 F 
ATOM     66  C   UNL A   1      40.439  26.141  26.880  1.00  0.00     0.200 A 
ATOM     67  F   UNL A   1      39.025  24.650  28.041  1.00  0.00    -0.200 F 
ATOM     68  F   UNL A   1      40.463  25.317  25.823  1.00  0.00    -0.200 F 
ENDBRANCH  44  58
BRANCH  45  69
ATOM     69  C   UNL A   1      39.462  33.907  37.009  1.00  0.00     0.064 A 
ATOM     70  C   UNL A   1      38.714  33.491  38.119  1.00  0.00     0.173 A 
ATOM     71  C   UNL A   1      40.069  35.170  37.069  1.00  0.00     0.173 A 
ATOM     72  F   UNL A   1      38.098  32.299  38.104  1.00  0.00    -0.203 F 
ATOM     73  C   UNL A   1      38.562  34.313  39.235  1.00  0.00     0.198 A 
ATOM     74  C   UNL A   1      39.943  35.978  38.197  1.00  0.00     0.198 A 
ATOM     75  F   UNL A   1      40.803  35.613  36.036  1.00  0.00    -0.203 F 
ATOM     76  F   UNL A   1      37.803  33.909  40.263  1.00  0.00    -0.200 F 
ATOM     77  C   UNL A   1      39.182  35.552  39.275  1.00  0.00     0.200 A 
ATOM     78  F   UNL A   1      40.559  37.167  38.239  1.00  0.00    -0.200 F 
ATOM     79  F   UNL A   1      39.042  36.339  40.351  1.00  0.00    -0.200 F 
ENDBRANCH  45  69
BRANCH  57  80
ATOM     80  C   UNL A   1      43.934  28.839  35.283  1.00  0.00     0.064 A 
ATOM     81  C   UNL A   1      43.825  27.765  36.179  1.00  0.00     0.173 A 
ATOM     82  C   UNL A   1      45.216  29.341  35.015  1.00  0.00     0.173 A 
ATOM     83  F   UNL A   1      42.621  27.256  36.480  1.00  0.00    -0.203 F 
ATOM     84  C   UNL A   1      44.952  27.235  36.801  1.00  0.00     0.198 A 
ATOM     85  C   UNL A   1      46.345  28.786  35.612  1.00  0.00     0.198 A 
ATOM     86  F   UNL A   1      45.378  30.363  34.160  1.00  0.00    -0.203 F 
ATOM     87  F   UNL A   1      44.818  26.243  37.693  1.00  0.00    -0.200 F 
ATOM     88  C   UNL A   1      46.211  27.740  36.511  1.00  0.00     0.200 A 
ATOM     89  F   UNL A   1      47.561  29.265  35.316  1.00  0.00    -0.200 F 
ATOM     90  F   UNL A   1      47.296  27.221  37.103  1.00  0.00    -0.200 F 
ENDBRANCH  57  80
ENDBRANCH  31  32
ENDBRANCH  23  26
ENDBRANCH  21  22
ENDBRANCH  20  21
ENDBRANCH   1  20
TORSDOF 14
ENDMDL
MODEL 2
REMARK VINA RESULT:     -11.5      0.063      1.631
REMARK SMILES CCN(C(=O)NCC(=O)NCCCNC(=O)c1ccc(-c2c3nc(c(-c4c(F)c(F)c(F)c(F)c4F)c4ccc([nH]4)c(-c4c(F)c(F)c(F)c(F)c4F)c4nc(c(-c5c(F)c(F)c(F)c(F)c5F)c5ccc2[nH]5)C=C4)C=C3)cc1)C1CCCCC1
REMARK SMILES IDX 11 1 10 2 8 3 9 4 7 6 6 7 4 8 5 9 3 11 2 12 1 13 80 14 81 15
REMARK SMILES IDX 85 16 82 17 84 18 83 19 12 20 13 21 14 22 15 23 16 25 17 26
REMARK SMILES IDX 18 27 79 28 19 29 78 30 20 31 21 32 22 33 72 34 23 35 77 36
REMARK SMILES IDX 71 37 73 38 24 39 76 40 70 41 69 42 25 44 57 45 37 46 56 47
REMARK SMILES IDX 38 48 41 49 55 50 74 51 39 52 40 53 54 55 75 56 42 57 26 58
REMARK SMILES IDX 27 59 35 60 28 61 29 62 33 63 36 64 30 65 31 66 34 67 32 68
REMARK SMILES IDX 58 69 59 70 67 71 60 72 61 73 65 74 68 75 62 76 63 77 66 78
REMARK SMILES IDX 64 79 43 80 44 81 52 82 45 83 46 84 50 85 53 86 47 87 48 88
REMARK SMILES IDX 51 89 49 90
REMARK H PARENT 10 5 6 10 14 24 73 43 41 54
REMARK Flexibility Score: inf
ROOT
ATOM      1  C   UNL A   1      31.599  30.946  25.999  1.00  0.00     0.117 C 
ENDROOT
BRANCH   1   2
ATOM      2  N   UNL A   1      32.697  30.120  26.439  1.00  0.00    -0.355 N 
ATOM      3  C   UNL A   1      32.712  28.928  27.090  1.00  0.00     0.239 C 
ATOM      4  O   UNL A   1      33.815  28.371  27.177  1.00  0.00    -0.273 OA
ATOM      5  H   UNL A   1      33.589  30.482  26.232  1.00  0.00     0.163 HD
BRANCH   3   6
ATOM      6  C   UNL A   1      31.450  28.182  27.560  1.00  0.00     0.217 C 
BRANCH   6   7
ATOM      7  N   UNL A   1      31.028  26.968  26.876  1.00  0.00    -0.329 N 
ATOM      8  C   UNL A   1      30.913  26.429  25.655  1.00  0.00     0.318 C 
ATOM      9  O   UNL A   1      30.575  25.244  25.721  1.00  0.00    -0.249 OA
ATOM     10  H   UNL A   1      30.720  26.314  27.545  1.00  0.00     0.165 HD
BRANCH   8  11
ATOM     11  N   UNL A   1      31.083  27.108  24.470  1.00  0.00    -0.322 N 
BRANCH  11  12
ATOM     12  C   UNL A   1      32.054  26.716  23.435  1.00  0.00     0.118 C 
ATOM     13  C   UNL A   1      33.493  26.773  23.917  1.00  0.00     0.027 C 
ENDBRANCH  11  12
BRANCH  11  14
ATOM     14  C   UNL A   1      30.084  28.184  24.057  1.00  0.00     0.087 C 
ATOM     15  C   UNL A   1      30.589  29.227  23.024  1.00  0.00     0.025 C 
ATOM     16  C   UNL A   1      28.766  27.563  23.515  1.00  0.00     0.025 C 
ATOM     17  C   UNL A   1      29.527  30.219  22.554  1.00  0.00     0.002 C 
ATOM     18  C   UNL A   1      27.731  28.578  23.042  1.00  0.00     0.002 C 
ATOM     19  C   UNL A   1      28.301  29.520  22.001  1.00  0.00     0.000 C 
ENDBRANCH  11  14
ENDBRANCH   8  11
ENDBRANCH   6   7
ENDBRANCH   3   6
ENDBRANCH   1   2
BRANCH   1  20
ATOM     20  C   UNL A   1      31.378  32.169  26.873  1.00  0.00     0.042 C 
BRANCH  20  21
ATOM     21  C   UNL A   1      32.669  32.911  27.192  1.00  0.00     0.118 C 
BRANCH  21  22
ATOM     22  N   UNL A   1      32.434  34.280  27.640  1.00  0.00    -0.352 N 
ATOM     23  C   UNL A   1      33.003  34.986  28.669  1.00  0.00     0.251 C 
ATOM     24  H   UNL A   1      31.760  34.775  27.121  1.00  0.00     0.163 HD
ATOM     25  O   UNL A   1      32.538  36.074  28.989  1.00  0.00    -0.269 OA
BRANCH  23  26
ATOM     26  C   UNL A   1      34.160  34.433  29.404  1.00  0.00     0.039 A 
ATOM     27  C   UNL A   1      33.938  33.821  30.640  1.00  0.00     0.014 A 
ATOM     28  C   UNL A   1      35.455  34.530  28.893  1.00  0.00     0.014 A 
ATOM     29  C   UNL A   1      35.009  33.252  31.331  1.00  0.00     0.010 A 
ATOM     30  C   UNL A   1      36.505  33.881  29.535  1.00  0.00     0.010 A 
ATOM     31  C   UNL A   1      36.294  33.244  30.766  1.00  0.00    -0.014 A 
BRANCH  31  32
ATOM     32  C   UNL A   1      37.425  32.572  31.452  1.00  0.00     0.031 A 
ATOM     33  C   UNL A   1      38.129  31.414  30.803  1.00  0.00     0.074 A 
ATOM     34  C   UNL A   1      37.782  32.974  32.687  1.00  0.00     0.049 A 
ATOM     35  N   UNL A   1      39.119  30.686  31.257  1.00  0.00    -0.248 NA
ATOM     36  C   UNL A   1      37.637  30.994  29.482  1.00  0.00     0.031 C 
ATOM     37  C   UNL A   1      37.134  34.044  33.447  1.00  0.00     0.029 A 
ATOM     38  N   UNL A   1      38.774  32.527  33.523  1.00  0.00    -0.354 N 
ATOM     39  C   UNL A   1      39.356  29.722  30.287  1.00  0.00     0.074 A 
ATOM     40  C   UNL A   1      38.367  29.913  29.250  1.00  0.00     0.031 C 
ATOM     41  C   UNL A   1      37.763  34.193  34.623  1.00  0.00     0.029 A 
ATOM     42  C   UNL A   1      38.833  33.204  34.718  1.00  0.00     0.049 A 
ATOM     43  H   UNL A   1      39.384  31.791  33.291  1.00  0.00     0.167 HD
ATOM     44  C   UNL A   1      40.327  28.778  30.252  1.00  0.00     0.037 A 
ATOM     45  C   UNL A   1      39.655  33.044  35.771  1.00  0.00     0.037 A 
ATOM     46  C   UNL A   1      41.321  28.606  31.280  1.00  0.00     0.049 A 
ATOM     47  C   UNL A   1      40.728  31.991  35.708  1.00  0.00     0.074 A 
ATOM     48  C   UNL A   1      42.389  27.728  31.309  1.00  0.00     0.029 A 
ATOM     49  N   UNL A   1      41.360  29.323  32.468  1.00  0.00    -0.354 N 
ATOM     50  N   UNL A   1      41.001  31.143  34.746  1.00  0.00    -0.248 NA
ATOM     51  C   UNL A   1      41.616  31.881  36.874  1.00  0.00     0.031 C 
ATOM     52  C   UNL A   1      43.039  27.870  32.539  1.00  0.00     0.029 A 
ATOM     53  C   UNL A   1      42.418  28.886  33.250  1.00  0.00     0.049 A 
ATOM     54  H   UNL A   1      40.731  30.038  32.718  1.00  0.00     0.167 HD
ATOM     55  C   UNL A   1      42.106  30.420  35.175  1.00  0.00     0.074 A 
ATOM     56  C   UNL A   1      42.463  30.940  36.478  1.00  0.00     0.031 C 
ATOM     57  C   UNL A   1      42.765  29.417  34.544  1.00  0.00     0.037 A 
BRANCH  44  58
ATOM     58  C   UNL A   1      40.361  27.858  29.064  1.00  0.00     0.064 A 
ATOM     59  C   UNL A   1      39.631  26.660  29.036  1.00  0.00     0.173 A 
ATOM     60  C   UNL A   1      41.112  28.192  27.927  1.00  0.00     0.173 A 
ATOM     61  F   UNL A   1      38.903  26.286  30.100  1.00  0.00    -0.203 F 
ATOM     62  C   UNL A   1      39.682  25.813  27.931  1.00  0.00     0.198 A 
ATOM     63  C   UNL A   1      41.131  27.361  26.809  1.00  0.00     0.198 A 
ATOM     64  F   UNL A   1      41.823  29.329  27.895  1.00  0.00    -0.203 F 
ATOM     65  F   UNL A   1      39.024  24.645  27.953  1.00  0.00    -0.200 F 
ATOM     66  C   UNL A   1      40.426  26.168  26.817  1.00  0.00     0.200 A 
ATOM     67  F   UNL A   1      41.838  27.713  25.727  1.00  0.00    -0.200 F 
ATOM     68  F   UNL A   1      40.468  25.355  25.752  1.00  0.00    -0.200 F 
ENDBRANCH  44  58
BRANCH  45  69
ATOM     69  C   UNL A   1      39.514  33.924  36.960  1.00  0.00     0.064 A 
ATOM     70  C   UNL A   1      38.785  33.509  38.083  1.00  0.00     0.173 A 
ATOM     71  C   UNL A   1      40.110  35.193  37.004  1.00  0.00     0.173 A 
ATOM     72  F   UNL A   1      38.179  32.311  38.084  1.00  0.00    -0.203 F 
ATOM     73  C   UNL A   1      38.640  34.336  39.195  1.00  0.00     0.198 A 
ATOM     74  C   UNL A   1      39.992  36.007  38.129  1.00  0.00     0.198 A 
ATOM     75  F   UNL A   1      40.826  35.635  35.959  1.00  0.00    -0.203 F 
ATOM     76  F   UNL A   1      37.899  33.933  40.236  1.00  0.00    -0.200 F 
ATOM     77  C   UNL A   1      39.249  35.581  39.219  1.00  0.00     0.200 A 
ATOM     78  F   UNL A   1      40.597  37.202  38.155  1.00  0.00    -0.200 F 
ATOM     79  F   UNL A   1      39.117  36.374  40.292  1.00  0.00    -0.200 F 
ENDBRANCH  45  69
BRANCH  57  80
ATOM     80  C   UNL A   1      43.968  28.840  35.236  1.00  0.00     0.064 A 
ATOM     81  C   UNL A   1      45.258  29.348  35.024  1.00  0.00     0.173 A 
ATOM     82  C   UNL A   1      43.819  27.790  36.155  1.00  0.00     0.173 A 
ATOM     83  F   UNL A   1      45.457  30.342  34.145  1.00  0.00    -0.203 F 
ATOM     84  C   UNL A   1      46.357  28.808  35.686  1.00  0.00     0.198 A 
ATOM     85  C   UNL A   1      44.915  27.276  36.842  1.00  0.00     0.198 A 
ATOM     86  F   UNL A   1      42.606  27.272  36.401  1.00  0.00    -0.203 F 
ATOM     87  F   UNL A   1      47.587  29.275  35.429  1.00  0.00    -0.200 F 
ATOM     88  C   UNL A   1      46.184  27.779  36.600  1.00  0.00     0.200 A 
ATOM     89  F   UNL A   1      44.743  26.294  37.737  1.00  0.00    -0.200 F 
ATOM     90  F   UNL A   1      47.243  27.268  37.244  1.00  0.00    -0.200 F 
ENDBRANCH  57  80
ENDBRANCH  31  32
ENDBRANCH  23  26
ENDBRANCH  21  22
ENDBRANCH  20  21
ENDBRANCH   1  20
TORSDOF 14
ENDMDL
MODEL 3
REMARK VINA RESULT:     -11.4      3.446      9.921
REMARK SMILES CCN(C(=O)NCC(=O)NCCCNC(=O)c1ccc(-c2c3nc(c(-c4c(F)c(F)c(F)c(F)c4F)c4ccc([nH]4)c(-c4c(F)c(F)c(F)c(F)c4F)c4nc(c(-c5c(F)c(F)c(F)c(F)c5F)c5ccc2[nH]5)C=C4)C=C3)cc1)C1CCCCC1
REMARK SMILES IDX 11 1 10 2 8 3 9 4 7 6 6 7 4 8 5 9 3 11 2 12 1 13 80 14 81 15
REMARK SMILES IDX 85 16 82 17 84 18 83 19 12 20 13 21 14 22 15 23 16 25 17 26
REMARK SMILES IDX 18 27 79 28 19 29 78 30 20 31 21 32 22 33 72 34 23 35 77 36
REMARK SMILES IDX 71 37 73 38 24 39 76 40 70 41 69 42 25 44 57 45 37 46 56 47
REMARK SMILES IDX 38 48 41 49 55 50 74 51 39 52 40 53 54 55 75 56 42 57 26 58
REMARK SMILES IDX 27 59 35 60 28 61 29 62 33 63 36 64 30 65 31 66 34 67 32 68
REMARK SMILES IDX 58 69 59 70 67 71 60 72 61 73 65 74 68 75 62 76 63 77 66 78
REMARK SMILES IDX 64 79 43 80 44 81 52 82 45 83 46 84 50 85 53 86 47 87 48 88
REMARK SMILES IDX 51 89 49 90
REMARK H PARENT 10 5 6 10 14 24 73 43 41 54
REMARK Flexibility Score: inf
ROOT
ATOM      1  C   UNL A   1      34.324  35.248  28.597  1.00  0.00     0.117 C 
ENDROOT
BRANCH   1   2
ATOM      2  N   UNL A   1      33.426  36.138  29.293  1.00  0.00    -0.355 N 
ATOM      3  C   UNL A   1      33.245  36.366  30.620  1.00  0.00     0.239 C 
ATOM      4  O   UNL A   1      32.519  37.325  30.912  1.00  0.00    -0.273 OA
ATOM      5  H   UNL A   1      32.844  36.674  28.706  1.00  0.00     0.163 HD
BRANCH   3   6
ATOM      6  C   UNL A   1      34.002  35.623  31.736  1.00  0.00     0.217 C 
BRANCH   6   7
ATOM      7  N   UNL A   1      34.105  34.171  31.700  1.00  0.00    -0.329 N 
ATOM      8  C   UNL A   1      34.905  33.159  32.058  1.00  0.00     0.318 C 
ATOM      9  O   UNL A   1      34.369  32.068  31.844  1.00  0.00    -0.249 OA
ATOM     10  H   UNL A   1      33.305  33.804  31.257  1.00  0.00     0.165 HD
BRANCH   8  11
ATOM     11  N   UNL A   1      36.187  33.296  32.542  1.00  0.00    -0.322 N 
BRANCH  11  12
ATOM     12  C   UNL A   1      36.530  33.245  33.973  1.00  0.00     0.118 C 
ATOM     13  C   UNL A   1      37.505  32.132  34.312  1.00  0.00     0.027 C 
ENDBRANCH  11  12
BRANCH  11  14
ATOM     14  C   UNL A   1      37.372  33.268  31.583  1.00  0.00     0.087 C 
ATOM     15  C   UNL A   1      37.028  33.299  30.069  1.00  0.00     0.025 C 
ATOM     16  C   UNL A   1      38.373  34.420  31.877  1.00  0.00     0.025 C 
ATOM     17  C   UNL A   1      38.243  33.382  29.146  1.00  0.00     0.002 C 
ATOM     18  C   UNL A   1      39.568  34.484  30.931  1.00  0.00     0.002 C 
ATOM     19  C   UNL A   1      39.133  34.562  29.480  1.00  0.00     0.000 C 
ENDBRANCH  11  14
ENDBRANCH   8  11
ENDBRANCH   6   7
ENDBRANCH   3   6
ENDBRANCH   1   2
BRANCH   1  20
ATOM     20  C   UNL A   1      33.648  33.983  28.097  1.00  0.00     0.042 C 
BRANCH  20  21
ATOM     21  C   UNL A   1      34.474  32.729  28.350  1.00  0.00     0.118 C 
BRANCH  21  22
ATOM     22  N   UNL A   1      33.927  31.551  27.684  1.00  0.00    -0.352 N 
ATOM     23  C   UNL A   1      34.502  30.335  27.419  1.00  0.00     0.251 C 
ATOM     24  H   UNL A   1      32.997  31.646  27.375  1.00  0.00     0.163 HD
ATOM     25  O   UNL A   1      33.926  29.537  26.689  1.00  0.00    -0.269 OA
BRANCH  23  26
ATOM     26  C   UNL A   1      35.820  29.992  27.993  1.00  0.00     0.039 A 
ATOM     27  C   UNL A   1      35.878  29.538  29.314  1.00  0.00     0.014 A 
ATOM     28  C   UNL A   1      36.993  30.129  27.249  1.00  0.00     0.014 A 
ATOM     29  C   UNL A   1      37.105  29.166  29.863  1.00  0.00     0.010 A 
ATOM     30  C   UNL A   1      38.201  29.669  27.764  1.00  0.00     0.010 A 
ATOM     31  C   UNL A   1      38.271  29.192  29.080  1.00  0.00    -0.014 A 
BRANCH  31  32
ATOM     32  C   UNL A   1      39.568  28.722  29.626  1.00  0.00     0.031 A 
ATOM     33  C   UNL A   1      40.248  29.482  30.730  1.00  0.00     0.074 A 
ATOM     34  C   UNL A   1      40.159  27.639  29.087  1.00  0.00     0.049 A 
ATOM     35  N   UNL A   1      41.394  29.241  31.317  1.00  0.00    -0.248 NA
ATOM     36  C   UNL A   1      39.570  30.692  31.220  1.00  0.00     0.031 C 
ATOM     37  C   UNL A   1      39.628  26.856  27.970  1.00  0.00     0.029 A 
ATOM     38  N   UNL A   1      41.337  27.011  29.402  1.00  0.00    -0.354 N 
ATOM     39  C   UNL A   1      41.575  30.270  32.231  1.00  0.00     0.074 A 
ATOM     40  C   UNL A   1      40.457  31.174  32.076  1.00  0.00     0.031 C 
ATOM     41  C   UNL A   1      40.460  25.834  27.714  1.00  0.00     0.029 A 
ATOM     42  C   UNL A   1      41.602  25.912  28.620  1.00  0.00     0.049 A 
ATOM     43  H   UNL A   1      41.937  27.318  30.119  1.00  0.00     0.167 HD
ATOM     44  C   UNL A   1      42.571  30.434  33.135  1.00  0.00     0.037 A 
ATOM     45  C   UNL A   1      42.648  25.066  28.631  1.00  0.00     0.037 A 
ATOM     46  C   UNL A   1      43.672  29.519  33.295  1.00  0.00     0.049 A 
ATOM     47  C   UNL A   1      43.740  25.266  29.646  1.00  0.00     0.074 A 
ATOM     48  C   UNL A   1      44.694  29.554  34.226  1.00  0.00     0.029 A 
ATOM     49  N   UNL A   1      43.896  28.406  32.496  1.00  0.00    -0.354 N 
ATOM     50  N   UNL A   1      43.857  26.193  30.566  1.00  0.00    -0.248 NA
ATOM     51  C   UNL A   1      44.843  24.294  29.631  1.00  0.00     0.031 C 
ATOM     52  C   UNL A   1      45.571  28.500  33.953  1.00  0.00     0.029 A 
ATOM     53  C   UNL A   1      45.059  27.765  32.895  1.00  0.00     0.049 A 
ATOM     54  H   UNL A   1      43.316  28.115  31.756  1.00  0.00     0.167 HD
ATOM     55  C   UNL A   1      45.025  25.901  31.257  1.00  0.00     0.074 A 
ATOM     56  C   UNL A   1      45.573  24.701  30.660  1.00  0.00     0.031 C 
ATOM     57  C   UNL A   1      45.590  26.568  32.294  1.00  0.00     0.037 A 
BRANCH  44  58
ATOM     58  C   UNL A   1      42.517  31.649  34.018  1.00  0.00     0.064 A 
ATOM     59  C   UNL A   1      43.210  32.826  33.700  1.00  0.00     0.173 A 
ATOM     60  C   UNL A   1      41.738  31.644  35.185  1.00  0.00     0.173 A 
ATOM     61  F   UNL A   1      43.978  32.883  32.600  1.00  0.00    -0.203 F 
ATOM     62  C   UNL A   1      43.157  33.940  34.535  1.00  0.00     0.198 A 
ATOM     63  C   UNL A   1      41.658  32.772  35.999  1.00  0.00     0.198 A 
ATOM     64  F   UNL A   1      41.047  30.549  35.535  1.00  0.00    -0.203 F 
ATOM     65  F   UNL A   1      43.877  35.032  34.240  1.00  0.00    -0.200 F 
ATOM     66  C   UNL A   1      42.376  33.914  35.679  1.00  0.00     0.200 A 
ATOM     67  F   UNL A   1      40.890  32.750  37.097  1.00  0.00    -0.200 F 
ATOM     68  F   UNL A   1      42.321  34.988  36.479  1.00  0.00    -0.200 F 
ENDBRANCH  44  58
BRANCH  45  69
ATOM     69  C   UNL A   1      42.693  23.934  27.668  1.00  0.00     0.064 A 
ATOM     70  C   UNL A   1      43.251  24.093  26.392  1.00  0.00     0.173 A 
ATOM     71  C   UNL A   1      42.189  22.669  28.005  1.00  0.00     0.173 A 
ATOM     72  F   UNL A   1      43.730  25.289  26.015  1.00  0.00    -0.203 F 
ATOM     73  C   UNL A   1      43.284  23.038  25.483  1.00  0.00     0.198 A 
ATOM     74  C   UNL A   1      42.252  21.605  27.107  1.00  0.00     0.198 A 
ATOM     75  F   UNL A   1      41.652  22.460  29.217  1.00  0.00    -0.203 F 
ATOM     76  F   UNL A   1      43.782  23.231  24.253  1.00  0.00    -0.200 F 
ATOM     77  C   UNL A   1      42.791  21.793  25.844  1.00  0.00     0.200 A 
ATOM     78  F   UNL A   1      41.790  20.400  27.466  1.00  0.00    -0.200 F 
ATOM     79  F   UNL A   1      42.831  20.776  24.972  1.00  0.00    -0.200 F 
ENDBRANCH  45  69
BRANCH  57  80
ATOM     80  C   UNL A   1      46.849  25.992  32.880  1.00  0.00     0.064 A 
ATOM     81  C   UNL A   1      48.115  26.302  32.364  1.00  0.00     0.173 A 
ATOM     82  C   UNL A   1      46.786  25.151  34.002  1.00  0.00     0.173 A 
ATOM     83  F   UNL A   1      48.231  27.090  31.284  1.00  0.00    -0.203 F 
ATOM     84  C   UNL A   1      49.269  25.768  32.931  1.00  0.00     0.198 A 
ATOM     85  C   UNL A   1      47.943  24.648  34.588  1.00  0.00     0.198 A 
ATOM     86  F   UNL A   1      45.600  24.829  34.540  1.00  0.00    -0.203 F 
ATOM     87  F   UNL A   1      50.466  26.036  32.389  1.00  0.00    -0.200 F 
ATOM     88  C   UNL A   1      49.183  24.949  34.047  1.00  0.00     0.200 A 
ATOM     89  F   UNL A   1      47.858  23.871  35.676  1.00  0.00    -0.200 F 
ATOM     90  F   UNL A   1      50.297  24.446  34.598  1.00  0.00    -0.200 F 
ENDBRANCH  57  80
ENDBRANCH  31  32
ENDBRANCH  23  26
ENDBRANCH  21  22
ENDBRANCH  20  21
ENDBRANCH   1  20
TORSDOF 14
ENDMDL
