MODEL 1
REMARK VINA RESULT:     -14.4      0.000      0.000
REMARK SMILES O=C(NCCCNC(=O)c1ccccc1-c1ccc(/C=C2\C(=O)N(c3cccc(Br)c3)C(=O)N=C2O)o1)c1ccc(-c2c3nc(c(-c4c(F)c(F)c(F)c(F)c4F)c4ccc([nH]4)c(-c4c(F)c(F)c(F)c(F)c4F)c4nc(c(-c5c(F)c(F)c(F)c(F)c5F)c5ccc2[nH]5)C=C4)C=C3)cc1
REMARK SMILES IDX 5 1 4 2 3 3 1 4 2 5 38 7 39 8 100 9 40 10 99 11 41 12 42 13
REMARK SMILES IDX 43 14 93 15 44 16 98 17 92 18 94 19 45 20 97 21 91 22 90 23
REMARK SMILES IDX 46 25 78 26 58 27 77 28 59 29 62 30 76 31 95 32 60 33 61 34
REMARK SMILES IDX 75 36 96 37 63 38 47 39 48 40 56 41 49 42 50 43 54 44 57 45
REMARK SMILES IDX 51 46 52 47 55 48 53 49 79 50 80 51 88 52 81 53 82 54 86 55
REMARK SMILES IDX 89 56 83 57 84 58 87 59 85 60 64 61 65 62 73 63 66 64 67 65
REMARK SMILES IDX 71 66 74 67 68 68 69 69 72 70 70 71 6 72 7 73 8 74 9 76
REMARK SMILES IDX 10 77 11 78 15 79 12 80 14 81 13 82 16 83 17 84 37 85 18 86
REMARK SMILES IDX 19 87 20 88 21 89 22 90 35 91 23 92 24 93 34 94 32 95 33 96
REMARK SMILES IDX 36 97 25 99 26 100 31 101 27 102 29 103 28 104 30 105
REMARK H PARENT 3 6 94 24 62 35 7 75 36 98
REMARK Flexibility Score: inf
ROOT
ATOM      1  C   UNL A   1      31.552  31.597  26.774  1.00  0.00     0.042 C 
ENDROOT
BRANCH   1   2
ATOM      2  C   UNL A   1      32.784  32.427  27.072  1.00  0.00     0.118 C 
BRANCH   2   3
ATOM      3  N   UNL A   1      32.492  33.800  27.484  1.00  0.00    -0.352 N 
ATOM      4  O   UNL A   1      32.554  35.669  28.751  1.00  0.00    -0.269 OA
ATOM      5  C   UNL A   1      33.046  34.579  28.475  1.00  0.00     0.251 C 
ATOM      6  H   UNL A   1      31.780  34.241  26.966  1.00  0.00     0.163 HD
BRANCH   5   7
ATOM      7  C   UNL A   1      34.208  34.079  29.242  1.00  0.00     0.039 A 
ATOM      8  C   UNL A   1      35.500  34.425  28.861  1.00  0.00     0.014 A 
ATOM      9  C   UNL A   1      34.012  33.219  30.328  1.00  0.00     0.014 A 
ATOM     10  C   UNL A   1      36.576  33.719  29.370  1.00  0.00     0.010 A 
ATOM     11  C   UNL A   1      35.116  32.634  30.959  1.00  0.00     0.010 A 
ATOM     12  C   UNL A   1      36.406  32.839  30.451  1.00  0.00    -0.014 A 
BRANCH  12  13
ATOM     13  C   UNL A   1      37.621  32.230  31.054  1.00  0.00     0.031 A 
ATOM     14  C   UNL A   1      38.082  32.586  32.440  1.00  0.00     0.074 A 
ATOM     15  C   UNL A   1      38.262  31.275  30.349  1.00  0.00     0.049 A 
ATOM     16  N   UNL A   1      39.093  32.098  33.118  1.00  0.00    -0.248 NA
ATOM     17  C   UNL A   1      37.327  33.623  33.159  1.00  0.00     0.031 C 
ATOM     18  C   UNL A   1      37.908  30.857  28.987  1.00  0.00     0.029 A 
ATOM     19  N   UNL A   1      39.307  30.453  30.681  1.00  0.00    -0.354 N 
ATOM     20  C   UNL A   1      39.107  32.780  34.328  1.00  0.00     0.074 A 
ATOM     21  C   UNL A   1      38.020  33.735  34.286  1.00  0.00     0.031 C 
ATOM     22  C   UNL A   1      38.660  29.808  28.636  1.00  0.00     0.029 A 
ATOM     23  C   UNL A   1      39.616  29.540  29.702  1.00  0.00     0.049 A 
ATOM     24  H   UNL A   1      39.789  30.511  31.537  1.00  0.00     0.167 HD
ATOM     25  C   UNL A   1      39.950  32.616  35.377  1.00  0.00     0.037 A 
ATOM     26  C   UNL A   1      40.580  28.604  29.650  1.00  0.00     0.037 A 
ATOM     27  C   UNL A   1      41.018  31.647  35.417  1.00  0.00     0.049 A 
ATOM     28  C   UNL A   1      41.504  28.461  30.823  1.00  0.00     0.074 A 
ATOM     29  C   UNL A   1      41.917  31.393  36.439  1.00  0.00     0.029 A 
ATOM     30  N   UNL A   1      41.330  30.769  34.387  1.00  0.00    -0.354 N 
ATOM     31  N   UNL A   1      41.498  29.109  31.962  1.00  0.00    -0.248 NA
ATOM     32  C   UNL A   1      42.574  27.465  30.698  1.00  0.00     0.031 C 
ATOM     33  C   UNL A   1      42.798  30.394  36.012  1.00  0.00     0.029 A 
ATOM     34  C   UNL A   1      42.418  29.987  34.743  1.00  0.00     0.049 A 
ATOM     35  H   UNL A   1      40.848  30.711  33.530  1.00  0.00     0.167 HD
ATOM     36  C   UNL A   1      42.558  28.596  32.694  1.00  0.00     0.074 A 
ATOM     37  C   UNL A   1      43.159  27.556  31.883  1.00  0.00     0.031 C 
ATOM     38  C   UNL A   1      43.004  28.962  33.920  1.00  0.00     0.037 A 
BRANCH  25  39
ATOM     39  C   UNL A   1      39.769  33.504  36.574  1.00  0.00     0.064 A 
ATOM     40  C   UNL A   1      40.392  34.759  36.662  1.00  0.00     0.173 A 
ATOM     41  C   UNL A   1      38.899  33.132  37.610  1.00  0.00     0.173 A 
ATOM     42  F   UNL A   1      41.240  35.160  35.704  1.00  0.00    -0.203 F 
ATOM     43  C   UNL A   1      40.158  35.601  37.748  1.00  0.00     0.198 A 
ATOM     44  C   UNL A   1      38.647  33.987  38.681  1.00  0.00     0.198 A 
ATOM     45  F   UNL A   1      38.272  31.946  37.573  1.00  0.00    -0.203 F 
ATOM     46  F   UNL A   1      40.784  36.784  37.824  1.00  0.00    -0.200 F 
ATOM     47  C   UNL A   1      39.278  35.219  38.751  1.00  0.00     0.200 A 
ATOM     48  F   UNL A   1      37.784  33.622  39.640  1.00  0.00    -0.200 F 
ATOM     49  F   UNL A   1      39.040  36.039  39.784  1.00  0.00    -0.200 F 
ENDBRANCH  25  39
BRANCH  26  50
ATOM     50  C   UNL A   1      40.735  27.762  28.435  1.00  0.00     0.064 A 
ATOM     51  C   UNL A   1      41.487  28.201  27.339  1.00  0.00     0.173 A 
ATOM     52  C   UNL A   1      40.126  26.500  28.348  1.00  0.00     0.173 A 
ATOM     53  F   UNL A   1      42.074  29.406  27.368  1.00  0.00    -0.203 F 
ATOM     54  C   UNL A   1      41.606  27.420  26.190  1.00  0.00     0.198 A 
ATOM     55  C   UNL A   1      40.278  25.705  27.215  1.00  0.00     0.198 A 
ATOM     56  F   UNL A   1      39.402  26.029  29.372  1.00  0.00    -0.203 F 
ATOM     57  F   UNL A   1      42.286  27.886  25.134  1.00  0.00    -0.200 F 
ATOM     58  C   UNL A   1      41.007  26.170  26.133  1.00  0.00     0.200 A 
ATOM     59  F   UNL A   1      39.717  24.488  27.175  1.00  0.00    -0.200 F 
ATOM     60  F   UNL A   1      41.127  25.418  25.030  1.00  0.00    -0.200 F 
ENDBRANCH  26  50
BRANCH  38  61
ATOM     61  C   UNL A   1      44.188  28.211  34.455  1.00  0.00     0.064 A 
ATOM     62  C   UNL A   1      44.037  26.995  35.138  1.00  0.00     0.173 A 
ATOM     63  C   UNL A   1      45.485  28.715  34.285  1.00  0.00     0.173 A 
ATOM     64  F   UNL A   1      42.814  26.482  35.342  1.00  0.00    -0.203 F 
ATOM     65  C   UNL A   1      45.140  26.331  35.667  1.00  0.00     0.198 A 
ATOM     66  C   UNL A   1      46.589  28.032  34.787  1.00  0.00     0.198 A 
ATOM     67  F   UNL A   1      45.683  29.871  33.636  1.00  0.00    -0.203 F 
ATOM     68  F   UNL A   1      44.966  25.205  36.373  1.00  0.00    -0.200 F 
ATOM     69  C   UNL A   1      46.414  26.847  35.487  1.00  0.00     0.200 A 
ATOM     70  F   UNL A   1      47.821  28.524  34.604  1.00  0.00    -0.200 F 
ATOM     71  F   UNL A   1      47.474  26.208  36.002  1.00  0.00    -0.200 F 
ENDBRANCH  38  61
ENDBRANCH  12  13
ENDBRANCH   5   7
ENDBRANCH   2   3
ENDBRANCH   1   2
BRANCH   1  72
ATOM     72  C   UNL A   1      31.798  30.109  26.881  1.00  0.00     0.118 C 
BRANCH  72  73
ATOM     73  N   UNL A   1      32.924  29.635  26.093  1.00  0.00    -0.352 N 
ATOM     74  C   UNL A   1      32.879  28.949  24.906  1.00  0.00     0.252 C 
ATOM     75  H   UNL A   1      33.819  29.829  26.453  1.00  0.00     0.163 HD
ATOM     76  O   UNL A   1      33.916  28.661  24.317  1.00  0.00    -0.269 OA
BRANCH  74  77
ATOM     77  C   UNL A   1      31.578  28.493  24.375  1.00  0.00     0.050 A 
ATOM     78  C   UNL A   1      30.843  29.457  23.666  1.00  0.00     0.014 A 
ATOM     79  C   UNL A   1      31.113  27.170  24.500  1.00  0.00     0.030 A 
ATOM     80  C   UNL A   1      29.653  29.100  23.041  1.00  0.00     0.001 A 
ATOM     81  C   UNL A   1      29.917  26.830  23.850  1.00  0.00     0.013 A 
ATOM     82  C   UNL A   1      29.195  27.787  23.126  1.00  0.00     0.001 A 
BRANCH  79  83
ATOM     83  C   UNL A   1      31.862  26.143  25.215  1.00  0.00     0.135 A 
ATOM     84  C   UNL A   1      31.732  25.527  26.438  1.00  0.00     0.051 A 
ATOM     85  O   UNL A   1      33.045  25.774  24.643  1.00  0.00    -0.457 OA
ATOM     86  C   UNL A   1      32.934  24.806  26.644  1.00  0.00     0.051 A 
ATOM     87  C   UNL A   1      33.766  25.028  25.549  1.00  0.00     0.128 A 
BRANCH  87  88
ATOM     88  C   UNL A   1      35.106  24.580  25.368  1.00  0.00     0.066 C 
ATOM     89  C   UNL A   1      35.488  23.370  24.914  1.00  0.00     0.106 C 
ATOM     90  C   UNL A   1      34.624  22.257  24.443  1.00  0.00     0.272 C 
ATOM     91  C   UNL A   1      36.907  23.040  24.880  1.00  0.00     0.228 C 
ATOM     92  O   UNL A   1      33.547  22.483  23.905  1.00  0.00    -0.268 OA
ATOM     93  N   UNL A   1      35.183  20.988  24.627  1.00  0.00    -0.226 N 
ATOM     94  N   UNL A   1      37.411  21.872  24.829  1.00  0.00    -0.156 NA
ATOM     95  C   UNL A   1      36.563  20.788  24.850  1.00  0.00     0.358 C 
ATOM     96  O   UNL A   1      37.054  19.676  25.007  1.00  0.00    -0.245 OA
BRANCH  91  97
ATOM     97  O   UNL A   1      37.750  24.079  24.870  1.00  0.00    -0.493 OA
ATOM     98  H   UNL A   1      38.618  23.982  25.212  1.00  0.00     0.295 HD
ENDBRANCH  91  97
BRANCH  93  99
ATOM     99  C   UNL A   1      34.324  19.833  24.525  1.00  0.00     0.055 A 
ATOM    100  C   UNL A   1      32.984  19.977  24.129  1.00  0.00     0.027 A 
ATOM    101  C   UNL A   1      34.801  18.537  24.777  1.00  0.00     0.042 A 
ATOM    102  C   UNL A   1      32.153  18.862  23.968  1.00  0.00     0.003 A 
ATOM    103  C   UNL A   1      33.964  17.428  24.630  1.00  0.00     0.020 A 
ATOM    104  C   UNL A   1      32.644  17.584  24.219  1.00  0.00     0.016 A 
ATOM    105  Br  UNL A   1      34.631  15.697  25.001  1.00  0.00    -0.051 Br
ENDBRANCH  93  99
ENDBRANCH  87  88
ENDBRANCH  79  83
ENDBRANCH  74  77
ENDBRANCH  72  73
ENDBRANCH   1  72
TORSDOF 14
ENDMDL
MODEL 2
REMARK VINA RESULT:     -14.3      4.616      9.382
REMARK SMILES O=C(NCCCNC(=O)c1ccccc1-c1ccc(/C=C2\C(=O)N(c3cccc(Br)c3)C(=O)N=C2O)o1)c1ccc(-c2c3nc(c(-c4c(F)c(F)c(F)c(F)c4F)c4ccc([nH]4)c(-c4c(F)c(F)c(F)c(F)c4F)c4nc(c(-c5c(F)c(F)c(F)c(F)c5F)c5ccc2[nH]5)C=C4)C=C3)cc1
REMARK SMILES IDX 5 1 4 2 3 3 1 4 2 5 38 7 39 8 100 9 40 10 99 11 41 12 42 13
REMARK SMILES IDX 43 14 93 15 44 16 98 17 92 18 94 19 45 20 97 21 91 22 90 23
REMARK SMILES IDX 46 25 78 26 58 27 77 28 59 29 62 30 76 31 95 32 60 33 61 34
REMARK SMILES IDX 75 36 96 37 63 38 47 39 48 40 56 41 49 42 50 43 54 44 57 45
REMARK SMILES IDX 51 46 52 47 55 48 53 49 79 50 80 51 88 52 81 53 82 54 86 55
REMARK SMILES IDX 89 56 83 57 84 58 87 59 85 60 64 61 65 62 73 63 66 64 67 65
REMARK SMILES IDX 71 66 74 67 68 68 69 69 72 70 70 71 6 72 7 73 8 74 9 76
REMARK SMILES IDX 10 77 11 78 15 79 12 80 14 81 13 82 16 83 17 84 37 85 18 86
REMARK SMILES IDX 19 87 20 88 21 89 22 90 35 91 23 92 24 93 34 94 32 95 33 96
REMARK SMILES IDX 36 97 25 99 26 100 31 101 27 102 29 103 28 104 30 105
REMARK H PARENT 3 6 94 24 62 35 7 75 36 98
REMARK Flexibility Score: inf
ROOT
ATOM      1  C   UNL A   1      35.129  33.060  31.811  1.00  0.00     0.042 C 
ENDROOT
BRANCH   1   2
ATOM      2  C   UNL A   1      35.747  31.999  32.700  1.00  0.00     0.118 C 
BRANCH   2   3
ATOM      3  N   UNL A   1      36.537  32.536  33.808  1.00  0.00    -0.352 N 
ATOM      4  O   UNL A   1      38.329  32.860  35.145  1.00  0.00    -0.269 OA
ATOM      5  C   UNL A   1      37.885  32.454  34.074  1.00  0.00     0.251 C 
ATOM      6  H   UNL A   1      36.017  33.041  34.475  1.00  0.00     0.163 HD
BRANCH   5   7
ATOM      7  C   UNL A   1      38.794  31.832  33.088  1.00  0.00     0.039 A 
ATOM      8  C   UNL A   1      39.542  30.711  33.434  1.00  0.00     0.014 A 
ATOM      9  C   UNL A   1      38.937  32.394  31.815  1.00  0.00     0.014 A 
ATOM     10  C   UNL A   1      40.606  30.325  32.637  1.00  0.00     0.010 A 
ATOM     11  C   UNL A   1      39.903  31.890  30.936  1.00  0.00     0.010 A 
ATOM     12  C   UNL A   1      40.782  30.883  31.360  1.00  0.00    -0.014 A 
BRANCH  12  13
ATOM     13  C   UNL A   1      41.847  30.318  30.492  1.00  0.00     0.031 A 
ATOM     14  C   UNL A   1      41.677  29.003  29.783  1.00  0.00     0.074 A 
ATOM     15  C   UNL A   1      42.953  31.063  30.286  1.00  0.00     0.049 A 
ATOM     16  N   UNL A   1      42.498  28.409  28.950  1.00  0.00    -0.248 NA
ATOM     17  C   UNL A   1      40.440  28.250  30.038  1.00  0.00     0.031 C 
ATOM     18  C   UNL A   1      43.229  32.351  30.932  1.00  0.00     0.029 A 
ATOM     19  N   UNL A   1      44.025  30.880  29.452  1.00  0.00    -0.354 N 
ATOM     20  C   UNL A   1      41.889  27.209  28.602  1.00  0.00     0.074 A 
ATOM     21  C   UNL A   1      40.640  27.145  29.330  1.00  0.00     0.031 C 
ATOM     22  C   UNL A   1      44.344  32.878  30.412  1.00  0.00     0.029 A 
ATOM     23  C   UNL A   1      44.916  31.926  29.471  1.00  0.00     0.049 A 
ATOM     24  H   UNL A   1      44.146  30.077  28.896  1.00  0.00     0.167 HD
ATOM     25  C   UNL A   1      42.335  26.255  27.748  1.00  0.00     0.037 A 
ATOM     26  C   UNL A   1      46.082  32.094  28.822  1.00  0.00     0.037 A 
ATOM     27  C   UNL A   1      43.573  26.339  27.012  1.00  0.00     0.049 A 
ATOM     28  C   UNL A   1      46.551  31.011  27.897  1.00  0.00     0.074 A 
ATOM     29  C   UNL A   1      44.104  25.432  26.112  1.00  0.00     0.029 A 
ATOM     30  N   UNL A   1      44.471  27.394  27.090  1.00  0.00    -0.354 N 
ATOM     31  N   UNL A   1      45.959  29.888  27.574  1.00  0.00    -0.248 NA
ATOM     32  C   UNL A   1      47.854  31.215  27.256  1.00  0.00     0.031 C 
ATOM     33  C   UNL A   1      45.343  25.916  25.679  1.00  0.00     0.029 A 
ATOM     34  C   UNL A   1      45.561  27.151  26.269  1.00  0.00     0.049 A 
ATOM     35  H   UNL A   1      44.351  28.197  27.647  1.00  0.00     0.167 HD
ATOM     36  C   UNL A   1      46.813  29.252  26.686  1.00  0.00     0.074 A 
ATOM     37  C   UNL A   1      47.946  30.135  26.493  1.00  0.00     0.031 C 
ATOM     38  C   UNL A   1      46.680  28.040  26.095  1.00  0.00     0.037 A 
BRANCH  25  39
ATOM     39  C   UNL A   1      41.492  25.026  27.561  1.00  0.00     0.064 A 
ATOM     40  C   UNL A   1      40.376  25.020  26.709  1.00  0.00     0.173 A 
ATOM     41  C   UNL A   1      41.851  23.818  28.177  1.00  0.00     0.173 A 
ATOM     42  F   UNL A   1      39.984  26.150  26.102  1.00  0.00    -0.203 F 
ATOM     43  C   UNL A   1      39.647  23.853  26.493  1.00  0.00     0.198 A 
ATOM     44  C   UNL A   1      41.135  22.647  27.938  1.00  0.00     0.198 A 
ATOM     45  F   UNL A   1      42.913  23.766  28.995  1.00  0.00    -0.203 F 
ATOM     46  F   UNL A   1      38.569  23.876  25.696  1.00  0.00    -0.200 F 
ATOM     47  C   UNL A   1      40.032  22.666  27.099  1.00  0.00     0.200 A 
ATOM     48  F   UNL A   1      41.519  21.498  28.512  1.00  0.00    -0.200 F 
ATOM     49  F   UNL A   1      39.340  21.540  26.873  1.00  0.00    -0.200 F 
ENDBRANCH  25  39
BRANCH  26  50
ATOM     50  C   UNL A   1      46.892  33.317  29.057  1.00  0.00     0.064 A 
ATOM     51  C   UNL A   1      46.728  34.461  28.266  1.00  0.00     0.173 A 
ATOM     52  C   UNL A   1      47.854  33.363  30.079  1.00  0.00     0.173 A 
ATOM     53  F   UNL A   1      45.834  34.462  27.267  1.00  0.00    -0.203 F 
ATOM     54  C   UNL A   1      47.511  35.596  28.471  1.00  0.00     0.198 A 
ATOM     55  C   UNL A   1      48.608  34.510  30.308  1.00  0.00     0.198 A 
ATOM     56  F   UNL A   1      48.046  32.298  30.870  1.00  0.00    -0.203 F 
ATOM     57  F   UNL A   1      47.372  36.657  27.666  1.00  0.00    -0.200 F 
ATOM     58  C   UNL A   1      48.444  35.621  29.497  1.00  0.00     0.200 A 
ATOM     59  F   UNL A   1      49.492  34.537  31.315  1.00  0.00    -0.200 F 
ATOM     60  F   UNL A   1      49.193  36.715  29.697  1.00  0.00    -0.200 F 
ENDBRANCH  26  50
BRANCH  38  61
ATOM     61  C   UNL A   1      47.786  27.619  25.172  1.00  0.00     0.064 A 
ATOM     62  C   UNL A   1      48.963  27.031  25.659  1.00  0.00     0.173 A 
ATOM     63  C   UNL A   1      47.668  27.809  23.788  1.00  0.00     0.173 A 
ATOM     64  F   UNL A   1      49.130  26.846  26.978  1.00  0.00    -0.203 F 
ATOM     65  C   UNL A   1      49.999  26.685  24.797  1.00  0.00     0.198 A 
ATOM     66  C   UNL A   1      48.693  27.432  22.925  1.00  0.00     0.198 A 
ATOM     67  F   UNL A   1      46.561  28.363  23.273  1.00  0.00    -0.203 F 
ATOM     68  F   UNL A   1      51.141  26.186  25.290  1.00  0.00    -0.200 F 
ATOM     69  C   UNL A   1      49.861  26.881  23.431  1.00  0.00     0.200 A 
ATOM     70  F   UNL A   1      48.555  27.611  21.605  1.00  0.00    -0.200 F 
ATOM     71  F   UNL A   1      50.862  26.552  22.603  1.00  0.00    -0.200 F 
ENDBRANCH  38  61
ENDBRANCH  12  13
ENDBRANCH   5   7
ENDBRANCH   2   3
ENDBRANCH   1   2
BRANCH   1  72
ATOM     72  C   UNL A   1      34.412  32.486  30.611  1.00  0.00     0.118 C 
BRANCH  72  73
ATOM     73  N   UNL A   1      34.523  33.295  29.409  1.00  0.00    -0.352 N 
ATOM     74  C   UNL A   1      35.083  32.933  28.211  1.00  0.00     0.252 C 
ATOM     75  H   UNL A   1      34.154  34.206  29.462  1.00  0.00     0.163 HD
ATOM     76  O   UNL A   1      35.055  33.701  27.255  1.00  0.00    -0.269 OA
BRANCH  74  77
ATOM     77  C   UNL A   1      35.787  31.639  28.095  1.00  0.00     0.050 A 
ATOM     78  C   UNL A   1      37.096  31.616  28.602  1.00  0.00     0.014 A 
ATOM     79  C   UNL A   1      35.186  30.475  27.578  1.00  0.00     0.030 A 
ATOM     80  C   UNL A   1      37.807  30.420  28.632  1.00  0.00     0.001 A 
ATOM     81  C   UNL A   1      35.918  29.279  27.630  1.00  0.00     0.013 A 
ATOM     82  C   UNL A   1      37.216  29.253  28.154  1.00  0.00     0.001 A 
BRANCH  79  83
ATOM     83  C   UNL A   1      33.823  30.464  27.060  1.00  0.00     0.135 A 
ATOM     84  C   UNL A   1      32.575  30.614  27.620  1.00  0.00     0.051 A 
ATOM     85  O   UNL A   1      33.694  30.091  25.753  1.00  0.00    -0.457 OA
ATOM     86  C   UNL A   1      31.648  30.240  26.616  1.00  0.00     0.051 A 
ATOM     87  C   UNL A   1      32.364  29.851  25.486  1.00  0.00     0.128 A 
BRANCH  87  88
ATOM     88  C   UNL A   1      31.851  29.314  24.271  1.00  0.00     0.066 C 
ATOM     89  C   UNL A   1      31.834  28.013  23.918  1.00  0.00     0.106 C 
ATOM     90  C   UNL A   1      32.280  26.844  24.718  1.00  0.00     0.272 C 
ATOM     91  C   UNL A   1      31.356  27.644  22.592  1.00  0.00     0.228 C 
ATOM     92  O   UNL A   1      32.198  26.851  25.941  1.00  0.00    -0.268 OA
ATOM     93  N   UNL A   1      32.729  25.767  23.947  1.00  0.00    -0.226 N 
ATOM     94  N   UNL A   1      31.595  26.555  21.978  1.00  0.00    -0.156 NA
ATOM     95  C   UNL A   1      32.420  25.630  22.576  1.00  0.00     0.358 C 
ATOM     96  O   UNL A   1      32.810  24.684  21.901  1.00  0.00    -0.245 OA
BRANCH  91  97
ATOM     97  O   UNL A   1      30.561  28.534  21.986  1.00  0.00    -0.493 OA
ATOM     98  H   UNL A   1      30.833  29.428  21.907  1.00  0.00     0.295 HD
ENDBRANCH  91  97
BRANCH  93  99
ATOM     99  C   UNL A   1      33.489  24.723  24.593  1.00  0.00     0.055 A 
ATOM    100  C   UNL A   1      34.784  24.981  25.072  1.00  0.00     0.027 A 
ATOM    101  C   UNL A   1      32.952  23.443  24.798  1.00  0.00     0.042 A 
ATOM    102  C   UNL A   1      35.512  23.999  25.753  1.00  0.00     0.003 A 
ATOM    103  C   UNL A   1      33.689  22.461  25.466  1.00  0.00     0.020 A 
ATOM    104  C   UNL A   1      34.964  22.735  25.950  1.00  0.00     0.016 A 
ATOM    105  Br  UNL A   1      32.947  20.737  25.705  1.00  0.00    -0.051 Br
ENDBRANCH  93  99
ENDBRANCH  87  88
ENDBRANCH  79  83
ENDBRANCH  74  77
ENDBRANCH  72  73
ENDBRANCH   1  72
TORSDOF 14
ENDMDL
MODEL 3
REMARK VINA RESULT:     -14.1      4.577      7.477
REMARK SMILES O=C(NCCCNC(=O)c1ccccc1-c1ccc(/C=C2\C(=O)N(c3cccc(Br)c3)C(=O)N=C2O)o1)c1ccc(-c2c3nc(c(-c4c(F)c(F)c(F)c(F)c4F)c4ccc([nH]4)c(-c4c(F)c(F)c(F)c(F)c4F)c4nc(c(-c5c(F)c(F)c(F)c(F)c5F)c5ccc2[nH]5)C=C4)C=C3)cc1
REMARK SMILES IDX 5 1 4 2 3 3 1 4 2 5 38 7 39 8 100 9 40 10 99 11 41 12 42 13
REMARK SMILES IDX 43 14 93 15 44 16 98 17 92 18 94 19 45 20 97 21 91 22 90 23
REMARK SMILES IDX 46 25 78 26 58 27 77 28 59 29 62 30 76 31 95 32 60 33 61 34
REMARK SMILES IDX 75 36 96 37 63 38 47 39 48 40 56 41 49 42 50 43 54 44 57 45
REMARK SMILES IDX 51 46 52 47 55 48 53 49 79 50 80 51 88 52 81 53 82 54 86 55
REMARK SMILES IDX 89 56 83 57 84 58 87 59 85 60 64 61 65 62 73 63 66 64 67 65
REMARK SMILES IDX 71 66 74 67 68 68 69 69 72 70 70 71 6 72 7 73 8 74 9 76
REMARK SMILES IDX 10 77 11 78 15 79 12 80 14 81 13 82 16 83 17 84 37 85 18 86
REMARK SMILES IDX 19 87 20 88 21 89 22 90 35 91 23 92 24 93 34 94 32 95 33 96
REMARK SMILES IDX 36 97 25 99 26 100 31 101 27 102 29 103 28 104 30 105
REMARK H PARENT 3 6 94 24 62 35 7 75 36 98
REMARK Flexibility Score: inf
ROOT
ATOM      1  C   UNL A   1      34.486  32.838  31.373  1.00  0.00     0.042 C 
ENDROOT
BRANCH   1   2
ATOM      2  C   UNL A   1      35.478  31.886  32.012  1.00  0.00     0.118 C 
BRANCH   2   3
ATOM      3  N   UNL A   1      35.901  32.280  33.357  1.00  0.00    -0.352 N 
ATOM      4  O   UNL A   1      37.264  32.523  35.141  1.00  0.00    -0.269 OA
ATOM      5  C   UNL A   1      37.147  32.285  33.942  1.00  0.00     0.251 C 
ATOM      6  H   UNL A   1      35.173  32.596  33.940  1.00  0.00     0.163 HD
BRANCH   5   7
ATOM      7  C   UNL A   1      38.341  31.954  33.135  1.00  0.00     0.039 A 
ATOM      8  C   UNL A   1      38.551  32.573  31.907  1.00  0.00     0.014 A 
ATOM      9  C   UNL A   1      39.242  30.983  33.584  1.00  0.00     0.014 A 
ATOM     10  C   UNL A   1      39.477  32.046  31.024  1.00  0.00     0.010 A 
ATOM     11  C   UNL A   1      40.290  30.569  32.753  1.00  0.00     0.010 A 
ATOM     12  C   UNL A   1      40.385  31.061  31.444  1.00  0.00    -0.014 A 
BRANCH  12  13
ATOM     13  C   UNL A   1      41.454  30.647  30.498  1.00  0.00     0.031 A 
ATOM     14  C   UNL A   1      42.696  31.471  30.296  1.00  0.00     0.074 A 
ATOM     15  C   UNL A   1      41.321  29.457  29.879  1.00  0.00     0.049 A 
ATOM     16  N   UNL A   1      43.738  31.212  29.544  1.00  0.00    -0.248 NA
ATOM     17  C   UNL A   1      42.785  32.751  31.015  1.00  0.00     0.031 C 
ATOM     18  C   UNL A   1      40.151  28.578  29.993  1.00  0.00     0.029 A 
ATOM     19  N   UNL A   1      42.178  28.755  29.072  1.00  0.00    -0.354 N 
ATOM     20  C   UNL A   1      44.592  32.299  29.683  1.00  0.00     0.074 A 
ATOM     21  C   UNL A   1      43.938  33.236  30.572  1.00  0.00     0.031 C 
ATOM     22  C   UNL A   1      40.398  27.427  29.357  1.00  0.00     0.029 A 
ATOM     23  C   UNL A   1      41.697  27.521  28.706  1.00  0.00     0.049 A 
ATOM     24  H   UNL A   1      43.052  29.102  28.782  1.00  0.00     0.167 HD
ATOM     25  C   UNL A   1      45.811  32.490  29.122  1.00  0.00     0.037 A 
ATOM     26  C   UNL A   1      42.229  26.574  27.913  1.00  0.00     0.037 A 
ATOM     27  C   UNL A   1      46.462  31.540  28.253  1.00  0.00     0.049 A 
ATOM     28  C   UNL A   1      43.573  26.826  27.297  1.00  0.00     0.074 A 
ATOM     29  C   UNL A   1      47.703  31.635  27.646  1.00  0.00     0.029 A 
ATOM     30  N   UNL A   1      45.924  30.319  27.869  1.00  0.00    -0.354 N 
ATOM     31  N   UNL A   1      44.369  27.856  27.445  1.00  0.00    -0.248 NA
ATOM     32  C   UNL A   1      44.086  25.790  26.394  1.00  0.00     0.031 C 
ATOM     33  C   UNL A   1      47.897  30.493  26.861  1.00  0.00     0.029 A 
ATOM     34  C   UNL A   1      46.800  29.661  27.019  1.00  0.00     0.049 A 
ATOM     35  H   UNL A   1      45.049  29.972  28.158  1.00  0.00     0.167 HD
ATOM     36  C   UNL A   1      45.481  27.591  26.661  1.00  0.00     0.074 A 
ATOM     37  C   UNL A   1      45.271  26.284  26.071  1.00  0.00     0.031 C 
ATOM     38  C   UNL A   1      46.571  28.364  26.438  1.00  0.00     0.037 A 
BRANCH  25  39
ATOM     39  C   UNL A   1      46.529  33.776  29.414  1.00  0.00     0.064 A 
ATOM     40  C   UNL A   1      47.485  33.871  30.438  1.00  0.00     0.173 A 
ATOM     41  C   UNL A   1      46.318  34.906  28.609  1.00  0.00     0.173 A 
ATOM     42  F   UNL A   1      47.719  32.824  31.242  1.00  0.00    -0.203 F 
ATOM     43  C   UNL A   1      48.192  35.053  30.650  1.00  0.00     0.198 A 
ATOM     44  C   UNL A   1      47.046  36.077  28.808  1.00  0.00     0.198 A 
ATOM     45  F   UNL A   1      45.421  34.868  27.612  1.00  0.00    -0.203 F 
ATOM     46  F   UNL A   1      49.081  35.129  31.651  1.00  0.00    -0.200 F 
ATOM     47  C   UNL A   1      47.980  36.151  29.829  1.00  0.00     0.200 A 
ATOM     48  F   UNL A   1      46.851  37.132  28.003  1.00  0.00    -0.200 F 
ATOM     49  F   UNL A   1      48.676  37.280  30.024  1.00  0.00    -0.200 F 
ENDBRANCH  25  39
BRANCH  26  50
ATOM     50  C   UNL A   1      41.471  25.327  27.635  1.00  0.00     0.064 A 
ATOM     51  C   UNL A   1      40.395  25.315  26.739  1.00  0.00     0.173 A 
ATOM     52  C   UNL A   1      41.809  24.119  28.266  1.00  0.00     0.173 A 
ATOM     53  F   UNL A   1      40.023  26.447  26.123  1.00  0.00    -0.203 F 
ATOM     54  C   UNL A   1      39.669  24.149  26.503  1.00  0.00     0.198 A 
ATOM     55  C   UNL A   1      41.107  22.946  28.000  1.00  0.00     0.198 A 
ATOM     56  F   UNL A   1      42.836  24.074  29.126  1.00  0.00    -0.203 F 
ATOM     57  F   UNL A   1      38.610  24.176  25.683  1.00  0.00    -0.200 F 
ATOM     58  C   UNL A   1      40.031  22.965  27.128  1.00  0.00     0.200 A 
ATOM     59  F   UNL A   1      41.477  21.800  28.589  1.00  0.00    -0.200 F 
ATOM     60  F   UNL A   1      39.336  21.842  26.895  1.00  0.00    -0.200 F 
ENDBRANCH  26  50
BRANCH  38  61
ATOM     61  C   UNL A   1      47.621  27.797  25.529  1.00  0.00     0.064 A 
ATOM     62  C   UNL A   1      48.766  27.166  26.037  1.00  0.00     0.173 A 
ATOM     63  C   UNL A   1      47.482  27.888  24.137  1.00  0.00     0.173 A 
ATOM     64  F   UNL A   1      48.954  27.072  27.363  1.00  0.00    -0.203 F 
ATOM     65  C   UNL A   1      49.754  26.682  25.184  1.00  0.00     0.198 A 
ATOM     66  C   UNL A   1      48.456  27.374  23.286  1.00  0.00     0.198 A 
ATOM     67  F   UNL A   1      46.403  28.478  23.601  1.00  0.00    -0.203 F 
ATOM     68  F   UNL A   1      50.871  26.143  25.693  1.00  0.00    -0.200 F 
ATOM     69  C   UNL A   1      49.596  26.783  23.810  1.00  0.00     0.200 A 
ATOM     70  F   UNL A   1      48.298  27.461  21.959  1.00  0.00    -0.200 F 
ATOM     71  F   UNL A   1      50.550  26.321  22.991  1.00  0.00    -0.200 F 
ENDBRANCH  38  61
ENDBRANCH  12  13
ENDBRANCH   5   7
ENDBRANCH   2   3
ENDBRANCH   1   2
BRANCH   1  72
ATOM     72  C   UNL A   1      34.955  33.379  30.043  1.00  0.00     0.118 C 
BRANCH  72  73
ATOM     73  N   UNL A   1      33.988  33.234  28.968  1.00  0.00    -0.352 N 
ATOM     74  C   UNL A   1      33.948  32.254  28.010  1.00  0.00     0.252 C 
ATOM     75  H   UNL A   1      33.281  33.918  28.923  1.00  0.00     0.163 HD
ATOM     76  O   UNL A   1      33.033  32.221  27.193  1.00  0.00    -0.269 OA
BRANCH  74  77
ATOM     77  C   UNL A   1      35.052  31.277  27.919  1.00  0.00     0.050 A 
ATOM     78  C   UNL A   1      36.302  31.733  28.368  1.00  0.00     0.014 A 
ATOM     79  C   UNL A   1      34.878  29.951  27.477  1.00  0.00     0.030 A 
ATOM     80  C   UNL A   1      37.383  30.859  28.418  1.00  0.00     0.001 A 
ATOM     81  C   UNL A   1      35.979  29.084  27.548  1.00  0.00     0.013 A 
ATOM     82  C   UNL A   1      37.219  29.535  28.016  1.00  0.00     0.001 A 
BRANCH  79  83
ATOM     83  C   UNL A   1      33.589  29.444  27.020  1.00  0.00     0.135 A 
ATOM     84  C   UNL A   1      32.518  28.835  27.632  1.00  0.00     0.051 A 
ATOM     85  O   UNL A   1      33.413  29.423  25.667  1.00  0.00    -0.457 OA
ATOM     86  C   UNL A   1      31.689  28.358  26.586  1.00  0.00     0.051 A 
ATOM     87  C   UNL A   1      32.297  28.671  25.373  1.00  0.00     0.128 A 
BRANCH  87  88
ATOM     88  C   UNL A   1      31.869  28.307  24.064  1.00  0.00     0.066 C 
ATOM     89  C   UNL A   1      31.968  27.086  23.503  1.00  0.00     0.106 C 
ATOM     90  C   UNL A   1      32.479  25.836  24.120  1.00  0.00     0.272 C 
ATOM     91  C   UNL A   1      31.565  26.909  22.114  1.00  0.00     0.228 C 
ATOM     92  O   UNL A   1      32.356  25.634  25.323  1.00  0.00    -0.268 OA
ATOM     93  N   UNL A   1      33.038  24.938  23.205  1.00  0.00    -0.226 N 
ATOM     94  N   UNL A   1      31.911  25.958  21.341  1.00  0.00    -0.156 NA
ATOM     95  C   UNL A   1      32.787  25.009  21.818  1.00  0.00     0.358 C 
ATOM     96  O   UNL A   1      33.274  24.220  21.016  1.00  0.00    -0.245 OA
BRANCH  91  97
ATOM     97  O   UNL A   1      30.722  27.827  21.626  1.00  0.00    -0.493 OA
ATOM     98  H   UNL A   1      29.799  27.735  21.763  1.00  0.00     0.295 HD
ENDBRANCH  91  97
BRANCH  93  99
ATOM     99  C   UNL A   1      33.857  23.861  23.706  1.00  0.00     0.055 A 
ATOM    100  C   UNL A   1      35.225  24.064  23.954  1.00  0.00     0.027 A 
ATOM    101  C   UNL A   1      33.316  22.599  23.997  1.00  0.00     0.042 A 
ATOM    102  C   UNL A   1      36.022  23.049  24.495  1.00  0.00     0.003 A 
ATOM    103  C   UNL A   1      34.119  21.583  24.523  1.00  0.00     0.020 A 
ATOM    104  C   UNL A   1      35.467  21.805  24.780  1.00  0.00     0.016 A 
ATOM    105  Br  UNL A   1      33.362  19.886  24.881  1.00  0.00    -0.051 Br
ENDBRANCH  93  99
ENDBRANCH  87  88
ENDBRANCH  79  83
ENDBRANCH  74  77
ENDBRANCH  72  73
ENDBRANCH   1  72
TORSDOF 14
ENDMDL
