MODEL 1
REMARK VINA RESULT:     -13.0      0.000      0.000
REMARK SMILES Cc1cc(OC(F)(F)F)cc2c1O[C@H](C(F)(F)F)C(C(=O)NCCCNC(=O)c1ccc(-c3c4nc(c(-c5c(F)c(F)c(F)c(F)c5F)c5ccc([nH]5)c(-c5c(F)c(F)c(F)c(F)c5F)c5nc(c(-c6c(F)c(F)c(F)c(F)c6F)c6ccc3[nH]6)C=C5)C=C4)cc1)=C2
REMARK SMILES IDX 24 1 23 2 22 3 20 4 21 5 19 7 1 8 2 9 3 10 12 11 4 12 11 13
REMARK SMILES IDX 13 14 10 15 92 16 14 17 5 18 6 19 7 20 8 21 9 22 15 23 16 24
REMARK SMILES IDX 17 25 18 26 25 27 26 28 27 29 28 31 29 32 30 33 91 34 31 35
REMARK SMILES IDX 90 36 32 37 33 38 34 39 84 40 35 41 89 42 83 43 85 44 36 45
REMARK SMILES IDX 88 46 82 47 81 48 37 50 69 51 49 52 68 53 50 54 53 55 67 56
REMARK SMILES IDX 86 57 51 58 52 59 66 61 87 62 54 63 38 64 39 65 47 66 40 67
REMARK SMILES IDX 41 68 45 69 48 70 42 71 43 72 46 73 44 74 70 75 71 76 79 77
REMARK SMILES IDX 72 78 73 79 77 80 80 81 74 82 75 83 78 84 76 85 55 86 56 87
REMARK SMILES IDX 64 88 57 89 58 90 62 91 65 92 59 93 60 94 63 95 61 96
REMARK H PARENT 22 6 26 30 85 49 53 60
REMARK Flexibility Score: inf
ROOT
ATOM      1  C   UNL A   1      31.334  31.929  26.556  1.00  0.00     0.042 C 
ENDROOT
BRANCH   1   2
ATOM      2  C   UNL A   1      31.460  30.423  26.375  1.00  0.00     0.118 C 
BRANCH   2   3
ATOM      3  N   UNL A   1      32.288  30.087  25.226  1.00  0.00    -0.352 N 
ATOM      4  C   UNL A   1      32.734  28.965  24.617  1.00  0.00     0.251 C 
ATOM      5  O   UNL A   1      33.462  29.155  23.638  1.00  0.00    -0.270 OA
ATOM      6  H   UNL A   1      32.609  30.896  24.767  1.00  0.00     0.163 HD
BRANCH   4   7
ATOM      7  C   UNL A   1      32.412  27.572  25.041  1.00  0.00     0.067 C 
ATOM      8  C   UNL A   1      30.275  23.297  26.876  1.00  0.00     0.048 C 
ATOM      9  C   UNL A   1      31.653  23.679  26.410  1.00  0.00    -0.005 A 
ATOM     10  C   UNL A   1      32.680  22.726  26.369  1.00  0.00     0.054 A 
ATOM     11  C   UNL A   1      31.933  24.993  26.023  1.00  0.00     0.131 A 
ATOM     12  C   UNL A   1      33.964  23.079  25.945  1.00  0.00     0.130 A 
ATOM     13  C   UNL A   1      33.208  25.361  25.588  1.00  0.00     0.021 A 
ATOM     14  O   UNL A   1      30.922  25.908  26.131  1.00  0.00    -0.475 OA
ATOM     15  C   UNL A   1      34.220  24.398  25.552  1.00  0.00     0.058 A 
ATOM     16  C   UNL A   1      33.463  26.746  25.208  1.00  0.00     0.025 C 
ATOM     17  C   UNL A   1      31.017  27.057  25.251  1.00  0.00     0.314 C 
BRANCH  12  18
ATOM     18  O   UNL A   1      35.046  22.247  25.867  1.00  0.00    -0.406 OA
BRANCH  18  19
ATOM     19  C   UNL A   1      35.260  21.558  24.646  1.00  0.00     0.573 C 
ATOM     20  F   UNL A   1      34.152  21.576  23.875  1.00  0.00    -0.132 F 
ATOM     21  F   UNL A   1      36.295  22.091  23.963  1.00  0.00    -0.132 F 
ATOM     22  F   UNL A   1      35.557  20.269  24.922  1.00  0.00    -0.132 F 
ENDBRANCH  18  19
ENDBRANCH  12  18
BRANCH  17  23
ATOM     23  C   UNL A   1      30.284  26.754  23.930  1.00  0.00     0.429 C 
ATOM     24  F   UNL A   1      29.688  27.878  23.456  1.00  0.00    -0.167 F 
ATOM     25  F   UNL A   1      31.122  26.325  22.957  1.00  0.00    -0.167 F 
ATOM     26  F   UNL A   1      29.326  25.811  24.064  1.00  0.00    -0.167 F 
ENDBRANCH  17  23
ENDBRANCH   4   7
ENDBRANCH   2   3
ENDBRANCH   1   2
BRANCH   1  27
ATOM     27  C   UNL A   1      32.673  32.573  26.895  1.00  0.00     0.118 C 
BRANCH  27  28
ATOM     28  N   UNL A   1      32.497  33.946  27.364  1.00  0.00    -0.352 N 
ATOM     29  C   UNL A   1      33.042  34.569  28.456  1.00  0.00     0.251 C 
ATOM     30  H   UNL A   1      31.901  34.505  26.816  1.00  0.00     0.163 HD
ATOM     31  O   UNL A   1      32.560  35.620  28.875  1.00  0.00    -0.269 OA
BRANCH  29  32
ATOM     32  C   UNL A   1      34.214  33.979  29.125  1.00  0.00     0.039 A 
ATOM     33  C   UNL A   1      35.498  34.380  28.752  1.00  0.00     0.014 A 
ATOM     34  C   UNL A   1      34.033  32.995  30.102  1.00  0.00     0.014 A 
ATOM     35  C   UNL A   1      36.606  33.830  29.399  1.00  0.00     0.010 A 
ATOM     36  C   UNL A   1      35.129  32.504  30.796  1.00  0.00     0.010 A 
ATOM     37  C   UNL A   1      36.424  32.903  30.437  1.00  0.00    -0.014 A 
BRANCH  37  38
ATOM     38  C   UNL A   1      37.575  32.282  31.129  1.00  0.00     0.031 A 
ATOM     39  C   UNL A   1      38.309  31.154  30.463  1.00  0.00     0.074 A 
ATOM     40  C   UNL A   1      37.908  32.685  32.368  1.00  0.00     0.049 A 
ATOM     41  N   UNL A   1      39.285  30.416  30.925  1.00  0.00    -0.248 NA
ATOM     42  C   UNL A   1      37.868  30.787  29.107  1.00  0.00     0.031 C 
ATOM     43  C   UNL A   1      37.238  33.745  33.122  1.00  0.00     0.029 A 
ATOM     44  N   UNL A   1      38.887  32.239  33.218  1.00  0.00    -0.354 N 
ATOM     45  C   UNL A   1      39.565  29.498  29.923  1.00  0.00     0.074 A 
ATOM     46  C   UNL A   1      38.621  29.729  28.853  1.00  0.00     0.031 C 
ATOM     47  C   UNL A   1      37.836  33.879  34.317  1.00  0.00     0.029 A 
ATOM     48  C   UNL A   1      38.909  32.894  34.424  1.00  0.00     0.049 A 
ATOM     49  H   UNL A   1      39.515  31.517  32.986  1.00  0.00     0.167 HD
ATOM     50  C   UNL A   1      40.545  28.566  29.888  1.00  0.00     0.037 A 
ATOM     51  C   UNL A   1      39.707  32.716  35.493  1.00  0.00     0.037 A 
ATOM     52  C   UNL A   1      41.498  28.364  30.945  1.00  0.00     0.049 A 
ATOM     53  C   UNL A   1      40.781  31.662  35.435  1.00  0.00     0.074 A 
ATOM     54  C   UNL A   1      42.566  27.487  30.986  1.00  0.00     0.029 A 
ATOM     55  N   UNL A   1      41.497  29.055  32.148  1.00  0.00    -0.354 N 
ATOM     56  N   UNL A   1      41.078  30.840  34.459  1.00  0.00    -0.248 NA
ATOM     57  C   UNL A   1      41.631  31.514  36.624  1.00  0.00     0.031 C 
ATOM     58  C   UNL A   1      43.187  27.618  32.231  1.00  0.00     0.029 A 
ATOM     59  C   UNL A   1      42.534  28.608  32.948  1.00  0.00     0.049 A 
ATOM     60  H   UNL A   1      40.853  29.758  32.396  1.00  0.00     0.167 HD
ATOM     61  C   UNL A   1      42.162  30.094  34.903  1.00  0.00     0.074 A 
ATOM     62  C   UNL A   1      42.477  30.570  36.234  1.00  0.00     0.031 C 
ATOM     63  C   UNL A   1      42.833  29.103  34.268  1.00  0.00     0.037 A 
BRANCH  50  64
ATOM     64  C   UNL A   1      40.652  27.711  28.661  1.00  0.00     0.064 A 
ATOM     65  C   UNL A   1      39.935  26.511  28.544  1.00  0.00     0.173 A 
ATOM     66  C   UNL A   1      41.435  28.119  27.571  1.00  0.00     0.173 A 
ATOM     67  F   UNL A   1      39.184  26.070  29.565  1.00  0.00    -0.203 F 
ATOM     68  C   UNL A   1      40.012  25.740  27.386  1.00  0.00     0.198 A 
ATOM     69  C   UNL A   1      41.488  27.360  26.405  1.00  0.00     0.198 A 
ATOM     70  F   UNL A   1      42.138  29.260  27.633  1.00  0.00    -0.203 F 
ATOM     71  F   UNL A   1      39.349  24.578  27.312  1.00  0.00    -0.200 F 
ATOM     72  C   UNL A   1      40.780  26.171  26.315  1.00  0.00     0.200 A 
ATOM     73  F   UNL A   1      42.221  27.781  25.366  1.00  0.00    -0.200 F 
ATOM     74  F   UNL A   1      40.842  25.435  25.197  1.00  0.00    -0.200 F 
ENDBRANCH  50  64
BRANCH  51  75
ATOM     75  C   UNL A   1      39.544  33.581  36.690  1.00  0.00     0.064 A 
ATOM     76  C   UNL A   1      40.175  34.830  36.762  1.00  0.00     0.173 A 
ATOM     77  C   UNL A   1      38.743  33.190  37.773  1.00  0.00     0.173 A 
ATOM     78  F   UNL A   1      40.965  35.239  35.758  1.00  0.00    -0.203 F 
ATOM     79  C   UNL A   1      40.021  35.652  37.877  1.00  0.00     0.198 A 
ATOM     80  C   UNL A   1      38.571  34.024  38.877  1.00  0.00     0.198 A 
ATOM     81  F   UNL A   1      38.113  32.006  37.751  1.00  0.00    -0.203 F 
ATOM     82  F   UNL A   1      40.663  36.827  37.932  1.00  0.00    -0.200 F 
ATOM     83  C   UNL A   1      39.215  35.250  38.930  1.00  0.00     0.200 A 
ATOM     84  F   UNL A   1      37.778  33.639  39.886  1.00  0.00    -0.200 F 
ATOM     85  F   UNL A   1      39.059  36.045  39.997  1.00  0.00    -0.200 F 
ENDBRANCH  51  75
BRANCH  63  86
ATOM     86  C   UNL A   1      43.986  28.472  34.989  1.00  0.00     0.064 A 
ATOM     87  C   UNL A   1      45.276  29.015  34.918  1.00  0.00     0.173 A 
ATOM     88  C   UNL A   1      43.778  27.368  35.831  1.00  0.00     0.173 A 
ATOM     89  F   UNL A   1      45.524  30.063  34.117  1.00  0.00    -0.203 F 
ATOM     90  C   UNL A   1      46.322  28.468  35.657  1.00  0.00     0.198 A 
ATOM     91  C   UNL A   1      44.820  26.843  36.589  1.00  0.00     0.198 A 
ATOM     92  F   UNL A   1      42.559  26.820  35.939  1.00  0.00    -0.203 F 
ATOM     93  F   UNL A   1      47.554  28.985  35.552  1.00  0.00    -0.200 F 
ATOM     94  C   UNL A   1      46.091  27.392  36.499  1.00  0.00     0.200 A 
ATOM     95  F   UNL A   1      44.592  25.811  37.415  1.00  0.00    -0.200 F 
ATOM     96  F   UNL A   1      47.094  26.880  37.225  1.00  0.00    -0.200 F 
ENDBRANCH  63  86
ENDBRANCH  37  38
ENDBRANCH  29  32
ENDBRANCH  27  28
ENDBRANCH   1  27
TORSDOF 13
ENDMDL
MODEL 2
REMARK VINA RESULT:     -13.0      5.383     10.854
REMARK SMILES Cc1cc(OC(F)(F)F)cc2c1O[C@H](C(F)(F)F)C(C(=O)NCCCNC(=O)c1ccc(-c3c4nc(c(-c5c(F)c(F)c(F)c(F)c5F)c5ccc([nH]5)c(-c5c(F)c(F)c(F)c(F)c5F)c5nc(c(-c6c(F)c(F)c(F)c(F)c6F)c6ccc3[nH]6)C=C5)C=C4)cc1)=C2
REMARK SMILES IDX 24 1 23 2 22 3 20 4 21 5 19 7 1 8 2 9 3 10 12 11 4 12 11 13
REMARK SMILES IDX 13 14 10 15 92 16 14 17 5 18 6 19 7 20 8 21 9 22 15 23 16 24
REMARK SMILES IDX 17 25 18 26 25 27 26 28 27 29 28 31 29 32 30 33 91 34 31 35
REMARK SMILES IDX 90 36 32 37 33 38 34 39 84 40 35 41 89 42 83 43 85 44 36 45
REMARK SMILES IDX 88 46 82 47 81 48 37 50 69 51 49 52 68 53 50 54 53 55 67 56
REMARK SMILES IDX 86 57 51 58 52 59 66 61 87 62 54 63 38 64 39 65 47 66 40 67
REMARK SMILES IDX 41 68 45 69 48 70 42 71 43 72 46 73 44 74 70 75 71 76 79 77
REMARK SMILES IDX 72 78 73 79 77 80 80 81 74 82 75 83 78 84 76 85 55 86 56 87
REMARK SMILES IDX 64 88 57 89 58 90 62 91 65 92 59 93 60 94 63 95 61 96
REMARK H PARENT 22 6 26 30 85 49 53 60
REMARK Flexibility Score: inf
ROOT
ATOM      1  C   UNL A   1      37.875  19.554  24.982  1.00  0.00     0.042 C 
ENDROOT
BRANCH   1   2
ATOM      2  C   UNL A   1      36.805  20.583  24.645  1.00  0.00     0.118 C 
BRANCH   2   3
ATOM      3  N   UNL A   1      35.888  20.790  25.755  1.00  0.00    -0.352 N 
ATOM      4  C   UNL A   1      34.886  21.641  26.071  1.00  0.00     0.251 C 
ATOM      5  O   UNL A   1      34.371  21.456  27.177  1.00  0.00    -0.270 OA
ATOM      6  H   UNL A   1      36.038  20.130  26.471  1.00  0.00     0.163 HD
BRANCH   4   7
ATOM      7  C   UNL A   1      34.387  22.742  25.198  1.00  0.00     0.067 C 
ATOM      8  C   UNL A   1      32.903  25.730  21.315  1.00  0.00     0.048 C 
ATOM      9  C   UNL A   1      33.187  25.951  22.774  1.00  0.00    -0.005 A 
ATOM     10  C   UNL A   1      32.995  27.212  23.354  1.00  0.00     0.054 A 
ATOM     11  C   UNL A   1      33.659  24.904  23.573  1.00  0.00     0.131 A 
ATOM     12  C   UNL A   1      33.268  27.424  24.708  1.00  0.00     0.130 A 
ATOM     13  C   UNL A   1      33.928  25.096  24.930  1.00  0.00     0.021 A 
ATOM     14  O   UNL A   1      33.889  23.702  22.960  1.00  0.00    -0.475 OA
ATOM     15  C   UNL A   1      33.730  26.360  25.492  1.00  0.00     0.058 A 
ATOM     16  C   UNL A   1      34.434  23.982  25.724  1.00  0.00     0.025 C 
ATOM     17  C   UNL A   1      33.826  22.536  23.821  1.00  0.00     0.314 C 
BRANCH  12  18
ATOM     18  O   UNL A   1      33.128  28.604  25.385  1.00  0.00    -0.406 OA
BRANCH  18  19
ATOM     19  C   UNL A   1      31.815  29.016  25.727  1.00  0.00     0.573 C 
ATOM     20  F   UNL A   1      30.975  27.961  25.796  1.00  0.00    -0.132 F 
ATOM     21  F   UNL A   1      31.803  29.680  26.902  1.00  0.00    -0.132 F 
ATOM     22  F   UNL A   1      31.359  29.851  24.767  1.00  0.00    -0.132 F 
ENDBRANCH  18  19
ENDBRANCH  12  18
BRANCH  17  23
ATOM     23  C   UNL A   1      32.387  21.986  23.835  1.00  0.00     0.429 C 
ATOM     24  F   UNL A   1      32.404  20.630  23.883  1.00  0.00    -0.167 F 
ATOM     25  F   UNL A   1      31.683  22.399  24.915  1.00  0.00    -0.167 F 
ATOM     26  F   UNL A   1      31.675  22.346  22.744  1.00  0.00    -0.167 F 
ENDBRANCH  17  23
ENDBRANCH   4   7
ENDBRANCH   2   3
ENDBRANCH   1   2
BRANCH   1  27
ATOM     27  C   UNL A   1      39.041  20.175  25.741  1.00  0.00     0.118 C 
BRANCH  27  28
ATOM     28  N   UNL A   1      40.114  19.206  25.952  1.00  0.00    -0.352 N 
ATOM     29  C   UNL A   1      41.461  19.414  26.092  1.00  0.00     0.251 C 
ATOM     30  H   UNL A   1      39.827  18.266  26.001  1.00  0.00     0.163 HD
ATOM     31  O   UNL A   1      42.250  18.481  25.959  1.00  0.00    -0.269 OA
BRANCH  29  32
ATOM     32  C   UNL A   1      41.962  20.763  26.411  1.00  0.00     0.039 A 
ATOM     33  C   UNL A   1      42.278  21.088  27.731  1.00  0.00     0.014 A 
ATOM     34  C   UNL A   1      42.081  21.716  25.396  1.00  0.00     0.014 A 
ATOM     35  C   UNL A   1      42.768  22.361  28.027  1.00  0.00     0.010 A 
ATOM     36  C   UNL A   1      42.638  22.956  25.677  1.00  0.00     0.010 A 
ATOM     37  C   UNL A   1      42.967  23.294  26.997  1.00  0.00    -0.014 A 
BRANCH  37  38
ATOM     38  C   UNL A   1      43.462  24.660  27.276  1.00  0.00     0.031 A 
ATOM     39  C   UNL A   1      42.510  25.689  27.814  1.00  0.00     0.074 A 
ATOM     40  C   UNL A   1      44.734  24.984  26.983  1.00  0.00     0.049 A 
ATOM     41  N   UNL A   1      42.711  26.960  28.047  1.00  0.00    -0.248 NA
ATOM     42  C   UNL A   1      41.139  25.235  28.102  1.00  0.00     0.031 C 
ATOM     43  C   UNL A   1      45.731  24.073  26.421  1.00  0.00     0.029 A 
ATOM     44  N   UNL A   1      45.401  26.176  27.104  1.00  0.00    -0.354 N 
ATOM     45  C   UNL A   1      41.495  27.454  28.498  1.00  0.00     0.074 A 
ATOM     46  C   UNL A   1      40.545  26.366  28.451  1.00  0.00     0.031 C 
ATOM     47  C   UNL A   1      46.889  24.734  26.262  1.00  0.00     0.029 A 
ATOM     48  C   UNL A   1      46.706  26.122  26.680  1.00  0.00     0.049 A 
ATOM     49  H   UNL A   1      44.985  26.993  27.461  1.00  0.00     0.167 HD
ATOM     50  C   UNL A   1      41.208  28.699  28.943  1.00  0.00     0.037 A 
ATOM     51  C   UNL A   1      47.643  27.086  26.635  1.00  0.00     0.037 A 
ATOM     52  C   UNL A   1      42.167  29.767  29.013  1.00  0.00     0.049 A 
ATOM     53  C   UNL A   1      47.294  28.468  27.121  1.00  0.00     0.074 A 
ATOM     54  C   UNL A   1      41.994  31.049  29.501  1.00  0.00     0.029 A 
ATOM     55  N   UNL A   1      43.483  29.671  28.585  1.00  0.00    -0.354 N 
ATOM     56  N   UNL A   1      46.159  28.910  27.604  1.00  0.00    -0.248 NA
ATOM     57  C   UNL A   1      48.355  29.481  27.059  1.00  0.00     0.031 C 
ATOM     58  C   UNL A   1      43.195  31.743  29.330  1.00  0.00     0.029 A 
ATOM     59  C   UNL A   1      44.129  30.881  28.778  1.00  0.00     0.049 A 
ATOM     60  H   UNL A   1      43.897  28.865  28.201  1.00  0.00     0.167 HD
ATOM     61  C   UNL A   1      46.373  30.243  27.926  1.00  0.00     0.074 A 
ATOM     62  C   UNL A   1      47.753  30.535  27.594  1.00  0.00     0.031 C 
ATOM     63  C   UNL A   1      45.506  31.145  28.446  1.00  0.00     0.037 A 
BRANCH  50  64
ATOM     64  C   UNL A   1      39.808  28.968  29.407  1.00  0.00     0.064 A 
ATOM     65  C   UNL A   1      38.821  29.428  28.523  1.00  0.00     0.173 A 
ATOM     66  C   UNL A   1      39.435  28.714  30.735  1.00  0.00     0.173 A 
ATOM     67  F   UNL A   1      39.132  29.700  27.246  1.00  0.00    -0.203 F 
ATOM     68  C   UNL A   1      37.515  29.641  28.954  1.00  0.00     0.198 A 
ATOM     69  C   UNL A   1      38.121  28.903  31.157  1.00  0.00     0.198 A 
ATOM     70  F   UNL A   1      40.341  28.272  31.620  1.00  0.00    -0.203 F 
ATOM     71  F   UNL A   1      36.598  30.118  28.101  1.00  0.00    -0.200 F 
ATOM     72  C   UNL A   1      37.164  29.369  30.268  1.00  0.00     0.200 A 
ATOM     73  F   UNL A   1      37.780  28.630  32.423  1.00  0.00    -0.200 F 
ATOM     74  F   UNL A   1      35.903  29.562  30.679  1.00  0.00    -0.200 F 
ENDBRANCH  50  64
BRANCH  51  75
ATOM     75  C   UNL A   1      49.010  26.766  26.147  1.00  0.00     0.064 A 
ATOM     76  C   UNL A   1      49.357  26.977  24.805  1.00  0.00     0.173 A 
ATOM     77  C   UNL A   1      49.998  26.265  27.006  1.00  0.00     0.173 A 
ATOM     78  F   UNL A   1      48.441  27.438  23.941  1.00  0.00    -0.203 F 
ATOM     79  C   UNL A   1      50.638  26.687  24.340  1.00  0.00     0.198 A 
ATOM     80  C   UNL A   1      51.285  25.999  26.545  1.00  0.00     0.198 A 
ATOM     81  F   UNL A   1      49.717  26.051  28.300  1.00  0.00    -0.203 F 
ATOM     82  F   UNL A   1      50.933  26.867  23.045  1.00  0.00    -0.200 F 
ATOM     83  C   UNL A   1      51.602  26.205  25.211  1.00  0.00     0.200 A 
ATOM     84  F   UNL A   1      52.218  25.547  27.393  1.00  0.00    -0.200 F 
ATOM     85  F   UNL A   1      52.837  25.937  24.764  1.00  0.00    -0.200 F 
ENDBRANCH  51  75
BRANCH  63  86
ATOM     86  C   UNL A   1      46.018  32.530  28.708  1.00  0.00     0.064 A 
ATOM     87  C   UNL A   1      45.891  33.547  27.753  1.00  0.00     0.173 A 
ATOM     88  C   UNL A   1      46.559  32.862  29.959  1.00  0.00     0.173 A 
ATOM     89  F   UNL A   1      45.390  33.274  26.538  1.00  0.00    -0.203 F 
ATOM     90  C   UNL A   1      46.297  34.848  28.037  1.00  0.00     0.198 A 
ATOM     91  C   UNL A   1      46.938  34.169  30.249  1.00  0.00     0.198 A 
ATOM     92  F   UNL A   1      46.693  31.924  30.909  1.00  0.00    -0.203 F 
ATOM     93  F   UNL A   1      46.192  35.800  27.100  1.00  0.00    -0.200 F 
ATOM     94  C   UNL A   1      46.808  35.160  29.287  1.00  0.00     0.200 A 
ATOM     95  F   UNL A   1      47.418  34.472  31.464  1.00  0.00    -0.200 F 
ATOM     96  F   UNL A   1      47.179  36.417  29.567  1.00  0.00    -0.200 F 
ENDBRANCH  63  86
ENDBRANCH  37  38
ENDBRANCH  29  32
ENDBRANCH  27  28
ENDBRANCH   1  27
TORSDOF 13
ENDMDL
MODEL 3
REMARK VINA RESULT:     -13.0      0.359      1.285
REMARK SMILES Cc1cc(OC(F)(F)F)cc2c1O[C@H](C(F)(F)F)C(C(=O)NCCCNC(=O)c1ccc(-c3c4nc(c(-c5c(F)c(F)c(F)c(F)c5F)c5ccc([nH]5)c(-c5c(F)c(F)c(F)c(F)c5F)c5nc(c(-c6c(F)c(F)c(F)c(F)c6F)c6ccc3[nH]6)C=C5)C=C4)cc1)=C2
REMARK SMILES IDX 24 1 23 2 22 3 20 4 21 5 19 7 1 8 2 9 3 10 12 11 4 12 11 13
REMARK SMILES IDX 13 14 10 15 92 16 14 17 5 18 6 19 7 20 8 21 9 22 15 23 16 24
REMARK SMILES IDX 17 25 18 26 25 27 26 28 27 29 28 31 29 32 30 33 91 34 31 35
REMARK SMILES IDX 90 36 32 37 33 38 34 39 84 40 35 41 89 42 83 43 85 44 36 45
REMARK SMILES IDX 88 46 82 47 81 48 37 50 69 51 49 52 68 53 50 54 53 55 67 56
REMARK SMILES IDX 86 57 51 58 52 59 66 61 87 62 54 63 38 64 39 65 47 66 40 67
REMARK SMILES IDX 41 68 45 69 48 70 42 71 43 72 46 73 44 74 70 75 71 76 79 77
REMARK SMILES IDX 72 78 73 79 77 80 80 81 74 82 75 83 78 84 76 85 55 86 56 87
REMARK SMILES IDX 64 88 57 89 58 90 62 91 65 92 59 93 60 94 63 95 61 96
REMARK H PARENT 22 6 26 30 85 49 53 60
REMARK Flexibility Score: inf
ROOT
ATOM      1  C   UNL A   1      31.279  31.841  26.507  1.00  0.00     0.042 C 
ENDROOT
BRANCH   1   2
ATOM      2  C   UNL A   1      31.407  30.347  26.250  1.00  0.00     0.118 C 
BRANCH   2   3
ATOM      3  N   UNL A   1      32.074  30.073  24.986  1.00  0.00    -0.352 N 
ATOM      4  C   UNL A   1      32.544  28.991  24.325  1.00  0.00     0.251 C 
ATOM      5  O   UNL A   1      33.080  29.233  23.239  1.00  0.00    -0.270 OA
ATOM      6  H   UNL A   1      32.224  30.900  24.474  1.00  0.00     0.163 HD
BRANCH   4   7
ATOM      7  C   UNL A   1      32.455  27.583  24.808  1.00  0.00     0.067 C 
ATOM      8  C   UNL A   1      31.058  23.103  26.855  1.00  0.00     0.048 C 
ATOM      9  C   UNL A   1      32.349  23.678  26.341  1.00  0.00    -0.005 A 
ATOM     10  C   UNL A   1      33.513  22.899  26.311  1.00  0.00     0.054 A 
ATOM     11  C   UNL A   1      32.410  25.003  25.898  1.00  0.00     0.131 A 
ATOM     12  C   UNL A   1      34.717  23.433  25.844  1.00  0.00     0.130 A 
ATOM     13  C   UNL A   1      33.602  25.550  25.419  1.00  0.00     0.021 A 
ATOM     14  O   UNL A   1      31.268  25.751  25.996  1.00  0.00    -0.475 OA
ATOM     15  C   UNL A   1      34.753  24.759  25.395  1.00  0.00     0.058 A 
ATOM     16  C   UNL A   1      33.626  26.941  24.981  1.00  0.00     0.025 C 
ATOM     17  C   UNL A   1      31.164  26.863  25.071  1.00  0.00     0.314 C 
BRANCH  12  18
ATOM     18  O   UNL A   1      35.916  22.780  25.772  1.00  0.00    -0.406 OA
BRANCH  18  19
ATOM     19  C   UNL A   1      36.058  21.770  24.786  1.00  0.00     0.573 C 
ATOM     20  F   UNL A   1      36.078  20.542  25.347  1.00  0.00    -0.132 F 
ATOM     21  F   UNL A   1      35.063  21.835  23.877  1.00  0.00    -0.132 F 
ATOM     22  F   UNL A   1      37.231  21.955  24.141  1.00  0.00    -0.132 F 
ENDBRANCH  18  19
ENDBRANCH  12  18
BRANCH  17  23
ATOM     23  C   UNL A   1      30.464  26.394  23.781  1.00  0.00     0.429 C 
ATOM     24  F   UNL A   1      29.592  25.391  24.058  1.00  0.00    -0.167 F 
ATOM     25  F   UNL A   1      29.742  27.377  23.194  1.00  0.00    -0.167 F 
ATOM     26  F   UNL A   1      31.329  25.935  22.850  1.00  0.00    -0.167 F 
ENDBRANCH  17  23
ENDBRANCH   4   7
ENDBRANCH   2   3
ENDBRANCH   1   2
BRANCH   1  27
ATOM     27  C   UNL A   1      32.616  32.468  26.884  1.00  0.00     0.118 C 
BRANCH  27  28
ATOM     28  N   UNL A   1      32.449  33.852  27.322  1.00  0.00    -0.352 N 
ATOM     29  C   UNL A   1      33.011  34.502  28.390  1.00  0.00     0.251 C 
ATOM     30  H   UNL A   1      31.845  34.397  26.769  1.00  0.00     0.163 HD
ATOM     31  O   UNL A   1      32.536  35.563  28.790  1.00  0.00    -0.269 OA
BRANCH  29  32
ATOM     32  C   UNL A   1      34.193  33.927  29.055  1.00  0.00     0.039 A 
ATOM     33  C   UNL A   1      35.469  34.376  28.707  1.00  0.00     0.014 A 
ATOM     34  C   UNL A   1      34.031  32.910  30.001  1.00  0.00     0.014 A 
ATOM     35  C   UNL A   1      36.585  33.841  29.350  1.00  0.00     0.010 A 
ATOM     36  C   UNL A   1      35.134  32.432  30.693  1.00  0.00     0.010 A 
ATOM     37  C   UNL A   1      36.420  32.879  30.360  1.00  0.00    -0.014 A 
BRANCH  37  38
ATOM     38  C   UNL A   1      37.582  32.273  31.047  1.00  0.00     0.031 A 
ATOM     39  C   UNL A   1      38.336  31.164  30.372  1.00  0.00     0.074 A 
ATOM     40  C   UNL A   1      37.907  32.670  32.290  1.00  0.00     0.049 A 
ATOM     41  N   UNL A   1      39.325  30.439  30.827  1.00  0.00    -0.248 NA
ATOM     42  C   UNL A   1      37.902  30.802  29.012  1.00  0.00     0.031 C 
ATOM     43  C   UNL A   1      37.217  33.711  33.053  1.00  0.00     0.029 A 
ATOM     44  N   UNL A   1      38.893  32.234  33.136  1.00  0.00    -0.354 N 
ATOM     45  C   UNL A   1      39.622  29.536  29.817  1.00  0.00     0.074 A 
ATOM     46  C   UNL A   1      38.675  29.759  28.748  1.00  0.00     0.031 C 
ATOM     47  C   UNL A   1      37.813  33.845  34.249  1.00  0.00     0.029 A 
ATOM     48  C   UNL A   1      38.904  32.879  34.349  1.00  0.00     0.049 A 
ATOM     49  H   UNL A   1      39.534  31.525  32.899  1.00  0.00     0.167 HD
ATOM     50  C   UNL A   1      40.619  28.622  29.774  1.00  0.00     0.037 A 
ATOM     51  C   UNL A   1      39.704  32.705  35.416  1.00  0.00     0.037 A 
ATOM     52  C   UNL A   1      41.575  28.428  30.829  1.00  0.00     0.049 A 
ATOM     53  C   UNL A   1      40.797  31.671  35.349  1.00  0.00     0.074 A 
ATOM     54  C   UNL A   1      42.658  27.569  30.863  1.00  0.00     0.029 A 
ATOM     55  N   UNL A   1      41.560  29.108  32.039  1.00  0.00    -0.354 N 
ATOM     56  N   UNL A   1      41.109  30.863  34.366  1.00  0.00    -0.248 NA
ATOM     57  C   UNL A   1      41.648  31.527  36.538  1.00  0.00     0.031 C 
ATOM     58  C   UNL A   1      43.276  27.700  32.110  1.00  0.00     0.029 A 
ATOM     59  C   UNL A   1      42.605  28.671  32.835  1.00  0.00     0.049 A 
ATOM     60  H   UNL A   1      40.904  29.796  32.293  1.00  0.00     0.167 HD
ATOM     61  C   UNL A   1      42.205  30.132  34.803  1.00  0.00     0.074 A 
ATOM     62  C   UNL A   1      42.512  30.602  36.139  1.00  0.00     0.031 C 
ATOM     63  C   UNL A   1      42.894  29.160  34.160  1.00  0.00     0.037 A 
BRANCH  50  64
ATOM     64  C   UNL A   1      40.741  27.781  28.539  1.00  0.00     0.064 A 
ATOM     65  C   UNL A   1      40.063  26.558  28.419  1.00  0.00     0.173 A 
ATOM     66  C   UNL A   1      41.499  28.222  27.445  1.00  0.00     0.173 A 
ATOM     67  F   UNL A   1      39.337  26.085  29.444  1.00  0.00    -0.203 F 
ATOM     68  C   UNL A   1      40.153  25.799  27.255  1.00  0.00     0.198 A 
ATOM     69  C   UNL A   1      41.566  27.474  26.273  1.00  0.00     0.198 A 
ATOM     70  F   UNL A   1      42.165  29.385  27.509  1.00  0.00    -0.203 F 
ATOM     71  F   UNL A   1      39.528  24.617  27.178  1.00  0.00    -0.200 F 
ATOM     72  C   UNL A   1      40.897  26.263  26.181  1.00  0.00     0.200 A 
ATOM     73  F   UNL A   1      42.275  27.927  25.230  1.00  0.00    -0.200 F 
ATOM     74  F   UNL A   1      40.972  25.538  25.056  1.00  0.00    -0.200 F 
ENDBRANCH  50  64
BRANCH  51  75
ATOM     75  C   UNL A   1      39.525  33.555  36.621  1.00  0.00     0.064 A 
ATOM     76  C   UNL A   1      40.132  34.816  36.704  1.00  0.00     0.173 A 
ATOM     77  C   UNL A   1      38.732  33.140  37.701  1.00  0.00     0.173 A 
ATOM     78  F   UNL A   1      40.915  35.248  35.704  1.00  0.00    -0.203 F 
ATOM     79  C   UNL A   1      39.964  35.624  37.826  1.00  0.00     0.198 A 
ATOM     80  C   UNL A   1      38.544  33.960  38.812  1.00  0.00     0.198 A 
ATOM     81  F   UNL A   1      38.124  31.945  37.668  1.00  0.00    -0.203 F 
ATOM     82  F   UNL A   1      40.584  36.810  37.893  1.00  0.00    -0.200 F 
ATOM     83  C   UNL A   1      39.165  35.198  38.876  1.00  0.00     0.200 A 
ATOM     84  F   UNL A   1      37.759  33.552  39.818  1.00  0.00    -0.200 F 
ATOM     85  F   UNL A   1      38.994  35.981  39.950  1.00  0.00    -0.200 F 
ENDBRANCH  51  75
BRANCH  63  86
ATOM     86  C   UNL A   1      44.059  28.543  34.876  1.00  0.00     0.064 A 
ATOM     87  C   UNL A   1      43.910  27.380  35.644  1.00  0.00     0.173 A 
ATOM     88  C   UNL A   1      45.349  29.071  34.718  1.00  0.00     0.173 A 
ATOM     89  F   UNL A   1      42.693  26.847  35.832  1.00  0.00    -0.203 F 
ATOM     90  C   UNL A   1      45.013  26.772  36.237  1.00  0.00     0.198 A 
ATOM     91  C   UNL A   1      46.452  28.444  35.290  1.00  0.00     0.198 A 
ATOM     92  F   UNL A   1      45.543  30.178  33.985  1.00  0.00    -0.203 F 
ATOM     93  F   UNL A   1      44.845  25.677  36.991  1.00  0.00    -0.200 F 
ATOM     94  C   UNL A   1      46.282  27.297  36.051  1.00  0.00     0.200 A 
ATOM     95  F   UNL A   1      47.681  28.944  35.096  1.00  0.00    -0.200 F 
ATOM     96  F   UNL A   1      47.345  26.698  36.606  1.00  0.00    -0.200 F 
ENDBRANCH  63  86
ENDBRANCH  37  38
ENDBRANCH  29  32
ENDBRANCH  27  28
ENDBRANCH   1  27
TORSDOF 13
ENDMDL
