MODEL 1
REMARK VINA RESULT:     -13.4      0.000      0.000
REMARK SMILES Cn1cc([C@@H]2CC(NCCCNC(=O)c3ccc(-c4c5nc(c(-c6c(F)c(F)c(F)c(F)c6F)c6ccc([nH]6)c(-c6c(F)c(F)c(F)c(F)c6F)c6nc(c(-c7c(F)c(F)c(F)c(F)c7F)c7ccc4[nH]7)C=C6)C=C5)cc3)=[NH+]c3c2sc(C(=O)[O-])c3-c2ccc(Cl)cc2)cn1
REMARK SMILES IDX 11 1 10 2 9 3 8 4 5 5 6 6 80 7 7 8 79 9 81 10 78 11 86 12
REMARK SMILES IDX 82 13 4 16 1 17 2 18 3 19 95 20 94 21 87 22 88 23 93 24
REMARK SMILES IDX 89 25 92 26 90 27 91 28 83 29 84 30 85 31 12 32 13 33 14 35
REMARK SMILES IDX 15 36 16 37 77 38 17 39 76 40 18 41 19 42 20 43 70 44 21 45
REMARK SMILES IDX 75 46 69 47 71 48 22 49 74 50 68 51 67 52 23 54 55 55 35 56
REMARK SMILES IDX 54 57 36 58 39 59 53 60 72 61 37 62 38 63 52 65 73 66 40 67
REMARK SMILES IDX 24 68 25 69 33 70 26 71 27 72 31 73 34 74 28 75 29 76 32 77
REMARK SMILES IDX 30 78 56 79 57 80 65 81 58 82 59 83 63 84 66 85 60 86 61 87
REMARK SMILES IDX 64 88 62 89 41 90 42 91 50 92 43 93 44 94 48 95 51 96 45 97
REMARK SMILES IDX 46 98 49 99 47 100
REMARK H PARENT 8 14 78 15 12 34 71 53 39 64
REMARK Flexibility Score: inf
ROOT
ATOM      1  C   UNL A   1      36.019  31.240  28.175  1.00  0.00     0.120 C 
ENDROOT
BRANCH   1   2
ATOM      2  C   UNL A   1      35.687  29.760  28.166  1.00  0.00     0.067 C 
BRANCH   2   3
ATOM      3  C   UNL A   1      35.313  29.259  26.770  1.00  0.00     0.235 C 
BRANCH   3   4
ATOM      4  N   UNL A   1      34.068  29.854  26.285  1.00  0.00    -0.278 N 
ATOM      5  C   UNL A   1      30.576  28.992  24.872  1.00  0.00     0.079 C 
ATOM      6  C   UNL A   1      31.729  29.836  25.447  1.00  0.00     0.142 C 
ATOM      7  C   UNL A   1      30.981  27.563  24.744  1.00  0.00     0.061 A 
ATOM      8  C   UNL A   1      33.051  29.107  25.721  1.00  0.00     0.248 C 
ATOM      9  C   UNL A   1      32.222  27.075  25.016  1.00  0.00     0.147 A 
ATOM     10  S   UNL A   1      29.932  26.318  24.250  1.00  0.00    -0.133 S 
ATOM     11  N   UNL A   1      33.275  27.848  25.486  1.00  0.00    -0.243 N 
ATOM     12  C   UNL A   1      32.363  25.670  24.819  1.00  0.00     0.049 A 
ATOM     13  C   UNL A   1      31.167  25.110  24.374  1.00  0.00     0.062 A 
ATOM     14  H   UNL A   1      33.950  30.828  26.366  1.00  0.00     0.304 HD
ATOM     15  H   UNL A   1      34.164  27.455  25.637  1.00  0.00     0.312 HD
BRANCH   5  16
ATOM     16  C   UNL A   1      30.060  29.532  23.566  1.00  0.00    -0.001 A 
ATOM     17  C   UNL A   1      28.242  31.687  21.318  1.00  0.00     0.173 C 
ATOM     18  N   UNL A   1      29.044  30.708  22.011  1.00  0.00    -0.276 N 
ATOM     19  C   UNL A   1      29.050  30.453  23.349  1.00  0.00     0.112 A 
ATOM     20  N   UNL A   1      29.928  29.966  21.322  1.00  0.00    -0.182 NA
ATOM     21  C   UNL A   1      30.562  29.273  22.268  1.00  0.00     0.139 A 
ENDBRANCH   5  16
BRANCH  12  22
ATOM     22  C   UNL A   1      33.578  24.911  25.105  1.00  0.00    -0.012 A 
ATOM     23  C   UNL A   1      33.789  24.314  26.354  1.00  0.00     0.010 A 
ATOM     24  C   UNL A   1      34.536  24.745  24.092  1.00  0.00     0.010 A 
ATOM     25  C   UNL A   1      34.974  23.616  26.605  1.00  0.00     0.021 A 
ATOM     26  C   UNL A   1      35.712  24.034  24.338  1.00  0.00     0.021 A 
ATOM     27  C   UNL A   1      35.931  23.488  25.600  1.00  0.00     0.041 A 
ATOM     28  Cl  UNL A   1      37.400  22.649  25.921  1.00  0.00    -0.084 Cl
ENDBRANCH  12  22
BRANCH  13  29
ATOM     29  C   UNL A   1      30.779  23.757  24.039  1.00  0.00     0.082 C 
ATOM     30  O   UNL A   1      30.483  23.302  22.935  1.00  0.00    -0.544 OA
ATOM     31  O   UNL A   1      30.747  22.929  25.101  1.00  0.00    -0.544 OA
ENDBRANCH  13  29
ENDBRANCH   3   4
ENDBRANCH   2   3
ENDBRANCH   1   2
BRANCH   1  32
ATOM     32  N   UNL A   1      35.623  31.930  29.413  1.00  0.00    -0.352 N 
ATOM     33  C   UNL A   1      35.971  31.616  30.719  1.00  0.00     0.251 C 
ATOM     34  H   UNL A   1      35.037  32.713  29.301  1.00  0.00     0.163 HD
ATOM     35  O   UNL A   1      35.339  32.051  31.672  1.00  0.00    -0.269 OA
BRANCH  33  36
ATOM     36  C   UNL A   1      37.145  30.753  30.932  1.00  0.00     0.039 A 
ATOM     37  C   UNL A   1      37.051  29.396  31.253  1.00  0.00     0.014 A 
ATOM     38  C   UNL A   1      38.380  31.349  30.722  1.00  0.00     0.014 A 
ATOM     39  C   UNL A   1      38.226  28.646  31.291  1.00  0.00     0.010 A 
ATOM     40  C   UNL A   1      39.462  30.566  30.470  1.00  0.00     0.010 A 
ATOM     41  C   UNL A   1      39.427  29.246  30.882  1.00  0.00    -0.014 A 
BRANCH  41  42
ATOM     42  C   UNL A   1      40.682  28.520  30.774  1.00  0.00     0.031 A 
ATOM     43  C   UNL A   1      41.353  28.333  32.080  1.00  0.00     0.074 A 
ATOM     44  C   UNL A   1      41.038  27.867  29.642  1.00  0.00     0.049 A 
ATOM     45  N   UNL A   1      42.423  28.918  32.498  1.00  0.00    -0.248 NA
ATOM     46  C   UNL A   1      40.664  27.549  33.120  1.00  0.00     0.031 C 
ATOM     47  C   UNL A   1      40.249  27.698  28.408  1.00  0.00     0.029 A 
ATOM     48  N   UNL A   1      42.150  27.123  29.378  1.00  0.00    -0.354 N 
ATOM     49  C   UNL A   1      42.684  28.370  33.752  1.00  0.00     0.074 A 
ATOM     50  C   UNL A   1      41.467  27.735  34.171  1.00  0.00     0.031 C 
ATOM     51  C   UNL A   1      40.794  26.731  27.637  1.00  0.00     0.029 A 
ATOM     52  C   UNL A   1      42.066  26.351  28.218  1.00  0.00     0.049 A 
ATOM     53  H   UNL A   1      42.946  27.130  29.957  1.00  0.00     0.167 HD
ATOM     54  C   UNL A   1      43.973  28.207  34.163  1.00  0.00     0.037 A 
ATOM     55  C   UNL A   1      42.991  25.469  27.764  1.00  0.00     0.037 A 
ATOM     56  C   UNL A   1      44.863  28.920  33.279  1.00  0.00     0.049 A 
ATOM     57  C   UNL A   1      44.275  25.823  28.408  1.00  0.00     0.074 A 
ATOM     58  C   UNL A   1      45.237  30.229  33.077  1.00  0.00     0.029 A 
ATOM     59  N   UNL A   1      45.161  28.225  32.135  1.00  0.00    -0.354 N 
ATOM     60  N   UNL A   1      44.906  26.939  28.171  1.00  0.00    -0.248 NA
ATOM     61  C   UNL A   1      44.675  25.120  29.621  1.00  0.00     0.031 C 
ATOM     62  C   UNL A   1      45.627  30.323  31.706  1.00  0.00     0.029 A 
ATOM     63  C   UNL A   1      45.546  29.061  31.123  1.00  0.00     0.049 A 
ATOM     64  H   UNL A   1      45.106  27.246  32.052  1.00  0.00     0.167 HD
ATOM     65  C   UNL A   1      45.453  27.286  29.391  1.00  0.00     0.074 A 
ATOM     66  C   UNL A   1      45.430  26.066  30.188  1.00  0.00     0.031 C 
ATOM     67  C   UNL A   1      45.558  28.597  29.754  1.00  0.00     0.037 A 
BRANCH  54  68
ATOM     68  C   UNL A   1      44.493  27.049  34.990  1.00  0.00     0.064 A 
ATOM     69  C   UNL A   1      44.299  25.734  34.511  1.00  0.00     0.173 A 
ATOM     70  C   UNL A   1      44.878  27.142  36.345  1.00  0.00     0.173 A 
ATOM     71  F   UNL A   1      43.917  25.518  33.243  1.00  0.00    -0.203 F 
ATOM     72  C   UNL A   1      44.411  24.615  35.344  1.00  0.00     0.198 A 
ATOM     73  C   UNL A   1      45.036  26.021  37.160  1.00  0.00     0.198 A 
ATOM     74  F   UNL A   1      45.008  28.314  36.974  1.00  0.00    -0.203 F 
ATOM     75  F   UNL A   1      44.102  23.400  34.872  1.00  0.00    -0.200 F 
ATOM     76  C   UNL A   1      44.773  24.760  36.669  1.00  0.00     0.200 A 
ATOM     77  F   UNL A   1      45.365  26.186  38.449  1.00  0.00    -0.200 F 
ATOM     78  F   UNL A   1      44.825  23.699  37.484  1.00  0.00    -0.200 F 
ENDBRANCH  54  68
BRANCH  55  79
ATOM     79  C   UNL A   1      42.806  24.200  27.025  1.00  0.00     0.064 A 
ATOM     80  C   UNL A   1      43.271  24.038  25.710  1.00  0.00     0.173 A 
ATOM     81  C   UNL A   1      42.445  23.027  27.713  1.00  0.00     0.173 A 
ATOM     82  F   UNL A   1      43.674  25.103  25.002  1.00  0.00    -0.203 F 
ATOM     83  C   UNL A   1      43.400  22.771  25.128  1.00  0.00     0.198 A 
ATOM     84  C   UNL A   1      42.580  21.762  27.134  1.00  0.00     0.198 A 
ATOM     85  F   UNL A   1      42.058  23.084  28.996  1.00  0.00    -0.203 F 
ATOM     86  F   UNL A   1      43.909  22.649  23.894  1.00  0.00    -0.200 F 
ATOM     87  C   UNL A   1      43.070  21.634  25.847  1.00  0.00     0.200 A 
ATOM     88  F   UNL A   1      42.301  20.668  27.857  1.00  0.00    -0.200 F 
ATOM     89  F   UNL A   1      43.264  20.417  25.319  1.00  0.00    -0.200 F 
ENDBRANCH  55  79
BRANCH  67  90
ATOM     90  C   UNL A   1      45.549  29.619  28.660  1.00  0.00     0.064 A 
ATOM     91  C   UNL A   1      44.399  30.255  28.164  1.00  0.00     0.173 A 
ATOM     92  C   UNL A   1      46.786  30.024  28.144  1.00  0.00     0.173 A 
ATOM     93  F   UNL A   1      43.188  29.973  28.657  1.00  0.00    -0.203 F 
ATOM     94  C   UNL A   1      44.488  31.229  27.169  1.00  0.00     0.198 A 
ATOM     95  C   UNL A   1      46.876  31.019  27.178  1.00  0.00     0.198 A 
ATOM     96  F   UNL A   1      47.918  29.476  28.611  1.00  0.00    -0.203 F 
ATOM     97  F   UNL A   1      43.376  31.812  26.697  1.00  0.00    -0.200 F 
ATOM     98  C   UNL A   1      45.728  31.614  26.683  1.00  0.00     0.200 A 
ATOM     99  F   UNL A   1      48.080  31.415  26.743  1.00  0.00    -0.200 F 
ATOM    100  F   UNL A   1      45.818  32.572  25.750  1.00  0.00    -0.200 F 
ENDBRANCH  67  90
ENDBRANCH  41  42
ENDBRANCH  33  36
ENDBRANCH   1  32
TORSDOF 12
ENDMDL
MODEL 2
REMARK VINA RESULT:     -13.3      4.121      9.316
REMARK SMILES Cn1cc([C@@H]2CC(NCCCNC(=O)c3ccc(-c4c5nc(c(-c6c(F)c(F)c(F)c(F)c6F)c6ccc([nH]6)c(-c6c(F)c(F)c(F)c(F)c6F)c6nc(c(-c7c(F)c(F)c(F)c(F)c7F)c7ccc4[nH]7)C=C6)C=C5)cc3)=[NH+]c3c2sc(C(=O)[O-])c3-c2ccc(Cl)cc2)cn1
REMARK SMILES IDX 11 1 10 2 9 3 8 4 5 5 6 6 80 7 7 8 79 9 81 10 78 11 86 12
REMARK SMILES IDX 82 13 4 16 1 17 2 18 3 19 95 20 94 21 87 22 88 23 93 24
REMARK SMILES IDX 89 25 92 26 90 27 91 28 83 29 84 30 85 31 12 32 13 33 14 35
REMARK SMILES IDX 15 36 16 37 77 38 17 39 76 40 18 41 19 42 20 43 70 44 21 45
REMARK SMILES IDX 75 46 69 47 71 48 22 49 74 50 68 51 67 52 23 54 55 55 35 56
REMARK SMILES IDX 54 57 36 58 39 59 53 60 72 61 37 62 38 63 52 65 73 66 40 67
REMARK SMILES IDX 24 68 25 69 33 70 26 71 27 72 31 73 34 74 28 75 29 76 32 77
REMARK SMILES IDX 30 78 56 79 57 80 65 81 58 82 59 83 63 84 66 85 60 86 61 87
REMARK SMILES IDX 64 88 62 89 41 90 42 91 50 92 43 93 44 94 48 95 51 96 45 97
REMARK SMILES IDX 46 98 49 99 47 100
REMARK H PARENT 8 14 78 15 12 34 71 53 39 64
REMARK Flexibility Score: inf
ROOT
ATOM      1  C   UNL A   1      40.064  23.438  27.402  1.00  0.00     0.120 C 
ENDROOT
BRANCH   1   2
ATOM      2  C   UNL A   1      39.213  24.385  26.578  1.00  0.00     0.067 C 
BRANCH   2   3
ATOM      3  C   UNL A   1      37.717  24.123  26.756  1.00  0.00     0.235 C 
BRANCH   3   4
ATOM      4  N   UNL A   1      37.330  22.791  26.296  1.00  0.00    -0.278 N 
ATOM      5  C   UNL A   1      34.727  20.894  24.161  1.00  0.00     0.079 C 
ATOM      6  C   UNL A   1      35.995  21.146  24.998  1.00  0.00     0.142 C 
ATOM      7  C   UNL A   1      33.914  22.139  24.044  1.00  0.00     0.061 A 
ATOM      8  C   UNL A   1      36.166  22.551  25.589  1.00  0.00     0.248 C 
ATOM      9  C   UNL A   1      34.202  23.319  24.659  1.00  0.00     0.147 A 
ATOM     10  S   UNL A   1      32.505  22.270  23.102  1.00  0.00    -0.133 S 
ATOM     11  N   UNL A   1      35.320  23.529  25.455  1.00  0.00    -0.243 N 
ATOM     12  C   UNL A   1      33.274  24.369  24.390  1.00  0.00     0.049 A 
ATOM     13  C   UNL A   1      32.258  23.927  23.546  1.00  0.00     0.062 A 
ATOM     14  H   UNL A   1      37.924  22.032  26.498  1.00  0.00     0.304 HD
ATOM     15  H   UNL A   1      35.467  24.392  25.904  1.00  0.00     0.312 HD
BRANCH   5  16
ATOM     16  C   UNL A   1      33.901  19.752  24.690  1.00  0.00    -0.001 A 
ATOM     17  C   UNL A   1      32.877  16.342  25.257  1.00  0.00     0.173 C 
ATOM     18  N   UNL A   1      33.092  17.766  25.173  1.00  0.00    -0.276 N 
ATOM     19  C   UNL A   1      33.932  18.419  24.322  1.00  0.00     0.112 A 
ATOM     20  N   UNL A   1      32.454  18.585  26.027  1.00  0.00    -0.182 NA
ATOM     21  C   UNL A   1      32.965  19.786  25.751  1.00  0.00     0.139 A 
ENDBRANCH   5  16
BRANCH  12  22
ATOM     22  C   UNL A   1      33.407  25.737  24.883  1.00  0.00    -0.012 A 
ATOM     23  C   UNL A   1      33.912  26.760  24.071  1.00  0.00     0.010 A 
ATOM     24  C   UNL A   1      32.981  26.040  26.186  1.00  0.00     0.010 A 
ATOM     25  C   UNL A   1      34.050  28.055  24.580  1.00  0.00     0.021 A 
ATOM     26  C   UNL A   1      33.105  27.336  26.689  1.00  0.00     0.021 A 
ATOM     27  C   UNL A   1      33.654  28.333  25.888  1.00  0.00     0.041 A 
ATOM     28  Cl  UNL A   1      33.850  29.922  26.520  1.00  0.00    -0.084 Cl
ENDBRANCH  12  22
BRANCH  13  29
ATOM     29  C   UNL A   1      31.100  24.580  22.975  1.00  0.00     0.082 C 
ATOM     30  O   UNL A   1      29.913  24.385  23.233  1.00  0.00    -0.544 OA
ATOM     31  O   UNL A   1      31.410  25.505  22.045  1.00  0.00    -0.544 OA
ENDBRANCH  13  29
ENDBRANCH   3   4
ENDBRANCH   2   3
ENDBRANCH   1   2
BRANCH   1  32
ATOM     32  N   UNL A   1      41.337  23.073  26.761  1.00  0.00    -0.352 N 
ATOM     33  C   UNL A   1      42.304  23.916  26.233  1.00  0.00     0.251 C 
ATOM     34  H   UNL A   1      41.527  22.109  26.700  1.00  0.00     0.163 HD
ATOM     35  O   UNL A   1      43.153  23.506  25.451  1.00  0.00    -0.269 OA
BRANCH  33  36
ATOM     36  C   UNL A   1      42.295  25.327  26.654  1.00  0.00     0.039 A 
ATOM     37  C   UNL A   1      41.785  26.360  25.864  1.00  0.00     0.014 A 
ATOM     38  C   UNL A   1      42.763  25.578  27.936  1.00  0.00     0.014 A 
ATOM     39  C   UNL A   1      41.698  27.635  26.422  1.00  0.00     0.010 A 
ATOM     40  C   UNL A   1      42.403  26.730  28.561  1.00  0.00     0.010 A 
ATOM     41  C   UNL A   1      42.001  27.800  27.783  1.00  0.00    -0.014 A 
BRANCH  41  42
ATOM     42  C   UNL A   1      41.831  29.061  28.487  1.00  0.00     0.031 A 
ATOM     43  C   UNL A   1      42.893  30.044  28.174  1.00  0.00     0.074 A 
ATOM     44  C   UNL A   1      40.682  29.372  29.136  1.00  0.00     0.049 A 
ATOM     45  N   UNL A   1      43.848  30.433  28.946  1.00  0.00    -0.248 NA
ATOM     46  C   UNL A   1      43.028  30.515  26.784  1.00  0.00     0.031 C 
ATOM     47  C   UNL A   1      39.433  28.592  29.186  1.00  0.00     0.029 A 
ATOM     48  N   UNL A   1      40.345  30.505  29.816  1.00  0.00    -0.354 N 
ATOM     49  C   UNL A   1      44.545  31.398  28.224  1.00  0.00     0.074 A 
ATOM     50  C   UNL A   1      44.154  31.230  26.853  1.00  0.00     0.031 C 
ATOM     51  C   UNL A   1      38.424  29.362  29.650  1.00  0.00     0.029 A 
ATOM     52  C   UNL A   1      38.985  30.616  30.112  1.00  0.00     0.049 A 
ATOM     53  H   UNL A   1      41.005  31.187  30.077  1.00  0.00     0.167 HD
ATOM     54  C   UNL A   1      45.111  32.452  28.876  1.00  0.00     0.037 A 
ATOM     55  C   UNL A   1      38.371  31.667  30.709  1.00  0.00     0.037 A 
ATOM     56  C   UNL A   1      45.106  32.209  30.298  1.00  0.00     0.049 A 
ATOM     57  C   UNL A   1      39.419  32.428  31.424  1.00  0.00     0.074 A 
ATOM     58  C   UNL A   1      45.831  31.446  31.186  1.00  0.00     0.029 A 
ATOM     59  N   UNL A   1      43.909  32.509  30.895  1.00  0.00    -0.354 N 
ATOM     60  N   UNL A   1      40.073  31.952  32.446  1.00  0.00    -0.248 NA
ATOM     61  C   UNL A   1      40.031  33.577  30.767  1.00  0.00     0.031 C 
ATOM     62  C   UNL A   1      44.954  31.169  32.278  1.00  0.00     0.029 A 
ATOM     63  C   UNL A   1      43.743  31.820  32.065  1.00  0.00     0.049 A 
ATOM     64  H   UNL A   1      43.250  33.142  30.527  1.00  0.00     0.167 HD
ATOM     65  C   UNL A   1      41.352  32.449  32.294  1.00  0.00     0.074 A 
ATOM     66  C   UNL A   1      41.227  33.564  31.363  1.00  0.00     0.031 C 
ATOM     67  C   UNL A   1      42.433  31.705  32.667  1.00  0.00     0.037 A 
BRANCH  54  68
ATOM     68  C   UNL A   1      45.193  33.871  28.350  1.00  0.00     0.064 A 
ATOM     69  C   UNL A   1      46.458  34.498  28.288  1.00  0.00     0.173 A 
ATOM     70  C   UNL A   1      44.088  34.738  28.206  1.00  0.00     0.173 A 
ATOM     71  F   UNL A   1      47.583  33.780  28.427  1.00  0.00    -0.203 F 
ATOM     72  C   UNL A   1      46.596  35.885  28.167  1.00  0.00     0.198 A 
ATOM     73  C   UNL A   1      44.230  36.115  28.037  1.00  0.00     0.198 A 
ATOM     74  F   UNL A   1      42.826  34.316  28.335  1.00  0.00    -0.203 F 
ATOM     75  F   UNL A   1      47.812  36.442  28.232  1.00  0.00    -0.200 F 
ATOM     76  C   UNL A   1      45.481  36.692  28.047  1.00  0.00     0.200 A 
ATOM     77  F   UNL A   1      43.135  36.882  27.946  1.00  0.00    -0.200 F 
ATOM     78  F   UNL A   1      45.605  38.025  27.989  1.00  0.00    -0.200 F 
ENDBRANCH  54  68
BRANCH  55  79
ATOM     79  C   UNL A   1      37.008  32.208  30.504  1.00  0.00     0.064 A 
ATOM     80  C   UNL A   1      36.014  32.091  31.489  1.00  0.00     0.173 A 
ATOM     81  C   UNL A   1      36.758  33.120  29.463  1.00  0.00     0.173 A 
ATOM     82  F   UNL A   1      36.196  31.275  32.537  1.00  0.00    -0.203 F 
ATOM     83  C   UNL A   1      34.850  32.869  31.451  1.00  0.00     0.198 A 
ATOM     84  C   UNL A   1      35.599  33.900  29.429  1.00  0.00     0.198 A 
ATOM     85  F   UNL A   1      37.685  33.345  28.520  1.00  0.00    -0.203 F 
ATOM     86  F   UNL A   1      33.951  32.779  32.442  1.00  0.00    -0.200 F 
ATOM     87  C   UNL A   1      34.651  33.784  30.430  1.00  0.00     0.200 A 
ATOM     88  F   UNL A   1      35.442  34.814  28.462  1.00  0.00    -0.200 F 
ATOM     89  F   UNL A   1      33.574  34.582  30.433  1.00  0.00    -0.200 F 
ENDBRANCH  55  79
BRANCH  67  90
ATOM     90  C   UNL A   1      42.207  30.612  33.665  1.00  0.00     0.064 A 
ATOM     91  C   UNL A   1      41.926  29.275  33.343  1.00  0.00     0.173 A 
ATOM     92  C   UNL A   1      42.359  30.934  35.020  1.00  0.00     0.173 A 
ATOM     93  F   UNL A   1      41.837  28.875  32.069  1.00  0.00    -0.203 F 
ATOM     94  C   UNL A   1      41.771  28.311  34.341  1.00  0.00     0.198 A 
ATOM     95  C   UNL A   1      42.239  29.966  36.010  1.00  0.00     0.198 A 
ATOM     96  F   UNL A   1      42.666  32.190  35.379  1.00  0.00    -0.203 F 
ATOM     97  F   UNL A   1      41.488  27.042  34.013  1.00  0.00    -0.200 F 
ATOM     98  C   UNL A   1      41.935  28.659  35.673  1.00  0.00     0.200 A 
ATOM     99  F   UNL A   1      42.439  30.301  37.292  1.00  0.00    -0.200 F 
ATOM    100  F   UNL A   1      41.818  27.728  36.630  1.00  0.00    -0.200 F 
ENDBRANCH  67  90
ENDBRANCH  41  42
ENDBRANCH  33  36
ENDBRANCH   1  32
TORSDOF 12
ENDMDL
MODEL 3
REMARK VINA RESULT:     -13.3      3.611      8.639
REMARK SMILES Cn1cc([C@@H]2CC(NCCCNC(=O)c3ccc(-c4c5nc(c(-c6c(F)c(F)c(F)c(F)c6F)c6ccc([nH]6)c(-c6c(F)c(F)c(F)c(F)c6F)c6nc(c(-c7c(F)c(F)c(F)c(F)c7F)c7ccc4[nH]7)C=C6)C=C5)cc3)=[NH+]c3c2sc(C(=O)[O-])c3-c2ccc(Cl)cc2)cn1
REMARK SMILES IDX 11 1 10 2 9 3 8 4 5 5 6 6 80 7 7 8 79 9 81 10 78 11 86 12
REMARK SMILES IDX 82 13 4 16 1 17 2 18 3 19 95 20 94 21 87 22 88 23 93 24
REMARK SMILES IDX 89 25 92 26 90 27 91 28 83 29 84 30 85 31 12 32 13 33 14 35
REMARK SMILES IDX 15 36 16 37 77 38 17 39 76 40 18 41 19 42 20 43 70 44 21 45
REMARK SMILES IDX 75 46 69 47 71 48 22 49 74 50 68 51 67 52 23 54 55 55 35 56
REMARK SMILES IDX 54 57 36 58 39 59 53 60 72 61 37 62 38 63 52 65 73 66 40 67
REMARK SMILES IDX 24 68 25 69 33 70 26 71 27 72 31 73 34 74 28 75 29 76 32 77
REMARK SMILES IDX 30 78 56 79 57 80 65 81 58 82 59 83 63 84 66 85 60 86 61 87
REMARK SMILES IDX 64 88 62 89 41 90 42 91 50 92 43 93 44 94 48 95 51 96 45 97
REMARK SMILES IDX 46 98 49 99 47 100
REMARK H PARENT 8 14 78 15 12 34 71 53 39 64
REMARK Flexibility Score: inf
ROOT
ATOM      1  C   UNL A   1      38.947  22.363  26.129  1.00  0.00     0.120 C 
ENDROOT
BRANCH   1   2
ATOM      2  C   UNL A   1      37.996  21.459  25.369  1.00  0.00     0.067 C 
BRANCH   2   3
ATOM      3  C   UNL A   1      37.331  22.176  24.194  1.00  0.00     0.235 C 
BRANCH   3   4
ATOM      4  N   UNL A   1      37.004  23.566  24.507  1.00  0.00    -0.278 N 
ATOM      5  C   UNL A   1      34.253  25.832  26.003  1.00  0.00     0.079 C 
ATOM      6  C   UNL A   1      35.625  25.409  25.442  1.00  0.00     0.142 C 
ATOM      7  C   UNL A   1      33.309  24.678  26.015  1.00  0.00     0.061 A 
ATOM      8  C   UNL A   1      35.758  23.958  24.961  1.00  0.00     0.248 C 
ATOM      9  C   UNL A   1      33.584  23.439  25.524  1.00  0.00     0.147 A 
ATOM     10  S   UNL A   1      31.740  24.740  26.668  1.00  0.00    -0.133 S 
ATOM     11  N   UNL A   1      34.805  23.074  24.972  1.00  0.00    -0.243 N 
ATOM     12  C   UNL A   1      32.518  22.500  25.653  1.00  0.00     0.049 A 
ATOM     13  C   UNL A   1      31.412  23.088  26.261  1.00  0.00     0.062 A 
ATOM     14  H   UNL A   1      37.701  24.251  24.391  1.00  0.00     0.304 HD
ATOM     15  H   UNL A   1      34.944  22.174  24.600  1.00  0.00     0.312 HD
BRANCH   5  16
ATOM     16  C   UNL A   1      33.667  27.009  25.270  1.00  0.00    -0.001 A 
ATOM     17  C   UNL A   1      31.782  28.794  22.768  1.00  0.00     0.173 C 
ATOM     18  N   UNL A   1      32.587  28.305  23.861  1.00  0.00    -0.276 N 
ATOM     19  C   UNL A   1      33.062  27.039  24.027  1.00  0.00     0.112 A 
ATOM     20  N   UNL A   1      32.901  29.130  24.875  1.00  0.00    -0.182 NA
ATOM     21  C   UNL A   1      33.533  28.337  25.742  1.00  0.00     0.139 A 
ENDBRANCH   5  16
BRANCH  12  22
ATOM     22  C   UNL A   1      32.599  21.096  25.259  1.00  0.00    -0.012 A 
ATOM     23  C   UNL A   1      32.888  20.092  26.191  1.00  0.00     0.010 A 
ATOM     24  C   UNL A   1      32.343  20.743  23.925  1.00  0.00     0.010 A 
ATOM     25  C   UNL A   1      32.983  18.759  25.778  1.00  0.00     0.021 A 
ATOM     26  C   UNL A   1      32.423  19.411  23.516  1.00  0.00     0.021 A 
ATOM     27  C   UNL A   1      32.759  18.428  24.442  1.00  0.00     0.041 A 
ATOM     28  Cl  UNL A   1      32.903  16.790  23.932  1.00  0.00    -0.084 Cl
ENDBRANCH  12  22
BRANCH  13  29
ATOM     29  C   UNL A   1      30.105  22.584  26.624  1.00  0.00     0.082 C 
ATOM     30  O   UNL A   1      29.492  21.637  26.134  1.00  0.00    -0.544 OA
ATOM     31  O   UNL A   1      29.523  23.274  27.624  1.00  0.00    -0.544 OA
ENDBRANCH  13  29
ENDBRANCH   3   4
ENDBRANCH   2   3
ENDBRANCH   1   2
BRANCH   1  32
ATOM     32  N   UNL A   1      40.369  22.073  25.882  1.00  0.00    -0.352 N 
ATOM     33  C   UNL A   1      41.455  22.925  26.018  1.00  0.00     0.251 C 
ATOM     34  H   UNL A   1      40.575  21.158  25.582  1.00  0.00     0.163 HD
ATOM     35  O   UNL A   1      42.530  22.682  25.487  1.00  0.00    -0.269 OA
BRANCH  33  36
ATOM     36  C   UNL A   1      41.284  24.135  26.841  1.00  0.00     0.039 A 
ATOM     37  C   UNL A   1      41.827  24.274  28.121  1.00  0.00     0.014 A 
ATOM     38  C   UNL A   1      40.603  25.184  26.240  1.00  0.00     0.014 A 
ATOM     39  C   UNL A   1      41.722  25.514  28.750  1.00  0.00     0.010 A 
ATOM     40  C   UNL A   1      40.767  26.445  26.721  1.00  0.00     0.010 A 
ATOM     41  C   UNL A   1      41.198  26.598  28.026  1.00  0.00    -0.014 A 
BRANCH  41  42
ATOM     42  C   UNL A   1      41.154  27.954  28.548  1.00  0.00     0.031 A 
ATOM     43  C   UNL A   1      42.245  28.808  28.026  1.00  0.00     0.074 A 
ATOM     44  C   UNL A   1      40.077  28.431  29.218  1.00  0.00     0.049 A 
ATOM     45  N   UNL A   1      43.276  29.237  28.670  1.00  0.00    -0.248 NA
ATOM     46  C   UNL A   1      42.305  29.068  26.577  1.00  0.00     0.031 C 
ATOM     47  C   UNL A   1      38.792  27.753  29.463  1.00  0.00     0.029 A 
ATOM     48  N   UNL A   1      39.857  29.669  29.747  1.00  0.00    -0.354 N 
ATOM     49  C   UNL A   1      43.972  30.041  27.771  1.00  0.00     0.074 A 
ATOM     50  C   UNL A   1      43.472  29.707  26.468  1.00  0.00     0.031 C 
ATOM     51  C   UNL A   1      37.866  28.648  29.874  1.00  0.00     0.029 A 
ATOM     52  C   UNL A   1      38.532  29.914  30.110  1.00  0.00     0.049 A 
ATOM     53  H   UNL A   1      40.574  30.334  29.861  1.00  0.00     0.167 HD
ATOM     54  C   UNL A   1      44.645  31.135  28.224  1.00  0.00     0.037 A 
ATOM     55  C   UNL A   1      38.026  31.077  30.587  1.00  0.00     0.037 A 
ATOM     56  C   UNL A   1      44.732  31.096  29.664  1.00  0.00     0.049 A 
ATOM     57  C   UNL A   1      39.166  31.859  31.114  1.00  0.00     0.074 A 
ATOM     58  C   UNL A   1      45.476  30.419  30.604  1.00  0.00     0.029 A 
ATOM     59  N   UNL A   1      43.602  31.559  30.287  1.00  0.00    -0.354 N 
ATOM     60  N   UNL A   1      39.866  31.488  32.149  1.00  0.00    -0.248 NA
ATOM     61  C   UNL A   1      39.793  32.859  30.257  1.00  0.00     0.031 C 
ATOM     62  C   UNL A   1      44.668  30.360  31.780  1.00  0.00     0.029 A 
ATOM     63  C   UNL A   1      43.483  31.055  31.553  1.00  0.00     0.049 A 
ATOM     64  H   UNL A   1      42.956  32.176  29.875  1.00  0.00     0.167 HD
ATOM     65  C   UNL A   1      41.157  31.871  31.843  1.00  0.00     0.074 A 
ATOM     66  C   UNL A   1      41.028  32.849  30.770  1.00  0.00     0.031 C 
ATOM     67  C   UNL A   1      42.217  31.116  32.250  1.00  0.00     0.037 A 
BRANCH  54  68
ATOM     68  C   UNL A   1      44.771  32.457  27.493  1.00  0.00     0.064 A 
ATOM     69  C   UNL A   1      45.945  32.711  26.750  1.00  0.00     0.173 A 
ATOM     70  C   UNL A   1      43.960  33.586  27.735  1.00  0.00     0.173 A 
ATOM     71  F   UNL A   1      46.803  31.718  26.469  1.00  0.00    -0.203 F 
ATOM     72  C   UNL A   1      46.308  34.001  26.350  1.00  0.00     0.198 A 
ATOM     73  C   UNL A   1      44.301  34.865  27.293  1.00  0.00     0.198 A 
ATOM     74  F   UNL A   1      42.866  33.532  28.502  1.00  0.00    -0.203 F 
ATOM     75  F   UNL A   1      47.490  34.206  25.752  1.00  0.00    -0.200 F 
ATOM     76  C   UNL A   1      45.489  35.078  26.628  1.00  0.00     0.200 A 
ATOM     77  F   UNL A   1      43.503  35.899  27.594  1.00  0.00    -0.200 F 
ATOM     78  F   UNL A   1      45.860  36.322  26.299  1.00  0.00    -0.200 F 
ENDBRANCH  54  68
BRANCH  55  79
ATOM     79  C   UNL A   1      36.686  31.675  30.395  1.00  0.00     0.064 A 
ATOM     80  C   UNL A   1      35.861  32.001  31.484  1.00  0.00     0.173 A 
ATOM     81  C   UNL A   1      36.326  32.221  29.149  1.00  0.00     0.173 A 
ATOM     82  F   UNL A   1      36.160  31.555  32.712  1.00  0.00    -0.203 F 
ATOM     83  C   UNL A   1      34.759  32.853  31.340  1.00  0.00     0.198 A 
ATOM     84  C   UNL A   1      35.230  33.076  29.007  1.00  0.00     0.198 A 
ATOM     85  F   UNL A   1      37.098  32.019  28.071  1.00  0.00    -0.203 F 
ATOM     86  F   UNL A   1      34.031  33.194  32.413  1.00  0.00    -0.200 F 
ATOM     87  C   UNL A   1      34.454  33.402  30.106  1.00  0.00     0.200 A 
ATOM     88  F   UNL A   1      34.974  33.637  27.817  1.00  0.00    -0.200 F 
ATOM     89  F   UNL A   1      33.445  34.276  29.981  1.00  0.00    -0.200 F 
ENDBRANCH  55  79
BRANCH  67  90
ATOM     90  C   UNL A   1      42.003  30.193  33.409  1.00  0.00     0.064 A 
ATOM     91  C   UNL A   1      41.664  28.834  33.304  1.00  0.00     0.173 A 
ATOM     92  C   UNL A   1      42.229  30.706  34.693  1.00  0.00     0.173 A 
ATOM     93  F   UNL A   1      41.502  28.254  32.109  1.00  0.00    -0.203 F 
ATOM     94  C   UNL A   1      41.525  28.037  34.440  1.00  0.00     0.198 A 
ATOM     95  C   UNL A   1      42.125  29.901  35.821  1.00  0.00     0.198 A 
ATOM     96  F   UNL A   1      42.594  31.988  34.847  1.00  0.00    -0.203 F 
ATOM     97  F   UNL A   1      41.184  26.745  34.318  1.00  0.00    -0.200 F 
ATOM     98  C   UNL A   1      41.762  28.571  35.697  1.00  0.00     0.200 A 
ATOM     99  F   UNL A   1      42.396  30.414  37.029  1.00  0.00    -0.200 F 
ATOM    100  F   UNL A   1      41.661  27.798  36.787  1.00  0.00    -0.200 F 
ENDBRANCH  67  90
ENDBRANCH  41  42
ENDBRANCH  33  36
ENDBRANCH   1  32
TORSDOF 12
ENDMDL
