MODEL 1
REMARK VINA RESULT:     -12.1      0.000      0.000
REMARK SMILES CC[C@H](c1ccc(OC)cc1)[N@H+]1CC[C@H](C(=O)NCCCNC(=O)c2ccc(-c3c4nc(c(-c5c(F)c(F)c(F)c(F)c5F)c5ccc([nH]5)c(-c5c(F)c(F)c(F)c(F)c5F)c5nc(c(-c6c(F)c(F)c(F)c(F)c6F)c6ccc3[nH]6)C=C5)C=C4)cc2)[C@@H]1C
REMARK SMILES IDX 19 1 18 2 16 3 17 4 15 6 12 7 13 8 88 9 14 11 89 12 3 13
REMARK SMILES IDX 2 14 1 15 4 16 5 17 11 18 6 19 10 20 7 21 8 22 9 23 20 24
REMARK SMILES IDX 21 25 22 26 23 27 24 29 25 30 26 31 87 32 27 33 86 34 28 35
REMARK SMILES IDX 29 36 30 37 80 38 31 39 85 40 79 41 81 42 32 43 84 44 78 45
REMARK SMILES IDX 77 46 33 48 65 49 45 50 64 51 46 52 49 53 63 54 82 55 47 56
REMARK SMILES IDX 48 57 62 59 83 60 50 61 34 62 35 63 43 64 36 65 37 66 41 67
REMARK SMILES IDX 44 68 38 69 39 70 42 71 40 72 66 73 67 74 75 75 68 76 69 77
REMARK SMILES IDX 73 78 76 79 70 80 71 81 74 82 72 83 51 84 52 85 60 86 53 87
REMARK SMILES IDX 54 88 58 89 61 90 55 91 56 92 59 93 57 94
REMARK H PARENT 18 5 12 10 22 28 81 47 49 58
REMARK Flexibility Score: inf
ROOT
ATOM      1  C   UNL A   1      37.053  20.532  24.702  1.00  0.00     0.117 C 
ENDROOT
BRANCH   1   2
ATOM      2  N   UNL A   1      35.735  20.011  25.001  1.00  0.00    -0.356 N 
ATOM      3  C   UNL A   1      34.517  20.617  25.082  1.00  0.00     0.229 C 
ATOM      4  O   UNL A   1      33.669  19.986  25.721  1.00  0.00    -0.275 OA
ATOM      5  H   UNL A   1      35.715  19.043  25.176  1.00  0.00     0.163 HD
BRANCH   3   6
ATOM      6  C   UNL A   1      34.151  21.873  24.272  1.00  0.00     0.142 C 
ATOM      7  N   UNL A   1      33.028  23.845  25.232  1.00  0.00    -0.326 N 
ATOM      8  C   UNL A   1      32.061  22.754  25.061  1.00  0.00     0.264 C 
ATOM      9  C   UNL A   1      34.335  23.323  24.768  1.00  0.00     0.194 C 
ATOM     10  H   UNL A   1      33.086  24.116  26.214  1.00  0.00     0.348 HD
ATOM     11  C   UNL A   1      32.642  21.875  23.967  1.00  0.00     0.081 C 
ATOM     12  C   UNL A   1      35.326  23.647  25.865  1.00  0.00     0.076 C 
BRANCH   7  13
ATOM     13  C   UNL A   1      32.619  25.126  24.595  1.00  0.00     0.215 C 
BRANCH  13  14
ATOM     14  C   UNL A   1      33.535  25.535  23.391  1.00  0.00     0.067 C 
ATOM     15  C   UNL A   1      32.900  25.375  22.013  1.00  0.00     0.010 C 
ENDBRANCH  13  14
BRANCH  13  16
ATOM     16  C   UNL A   1      32.660  26.303  25.575  1.00  0.00     0.010 A 
ATOM     17  C   UNL A   1      33.729  27.214  25.572  1.00  0.00     0.014 A 
ATOM     18  C   UNL A   1      31.523  26.599  26.344  1.00  0.00     0.014 A 
ATOM     19  C   UNL A   1      33.612  28.442  26.227  1.00  0.00     0.047 A 
ATOM     20  C   UNL A   1      31.403  27.833  26.984  1.00  0.00     0.047 A 
ATOM     21  C   UNL A   1      32.424  28.776  26.873  1.00  0.00     0.118 A 
BRANCH  21  22
ATOM     22  O   UNL A   1      32.335  30.050  27.367  1.00  0.00    -0.497 OA
ATOM     23  C   UNL A   1      33.556  30.783  27.251  1.00  0.00     0.278 C 
ENDBRANCH  21  22
ENDBRANCH  13  16
ENDBRANCH   7  13
ENDBRANCH   3   6
ENDBRANCH   1   2
BRANCH   1  24
ATOM     24  C   UNL A   1      38.101  19.454  25.002  1.00  0.00     0.042 C 
BRANCH  24  25
ATOM     25  C   UNL A   1      39.118  19.851  26.061  1.00  0.00     0.118 C 
BRANCH  25  26
ATOM     26  N   UNL A   1      40.279  18.979  26.045  1.00  0.00    -0.352 N 
ATOM     27  C   UNL A   1      41.614  19.295  26.051  1.00  0.00     0.251 C 
ATOM     28  H   UNL A   1      40.077  18.015  26.027  1.00  0.00     0.163 HD
ATOM     29  O   UNL A   1      42.440  18.421  25.778  1.00  0.00    -0.269 OA
BRANCH  27  30
ATOM     30  C   UNL A   1      42.085  20.664  26.369  1.00  0.00     0.039 A 
ATOM     31  C   UNL A   1      42.315  21.007  27.707  1.00  0.00     0.014 A 
ATOM     32  C   UNL A   1      42.244  21.634  25.376  1.00  0.00     0.014 A 
ATOM     33  C   UNL A   1      42.751  22.294  28.040  1.00  0.00     0.010 A 
ATOM     34  C   UNL A   1      42.755  22.890  25.697  1.00  0.00     0.010 A 
ATOM     35  C   UNL A   1      43.001  23.240  27.033  1.00  0.00    -0.014 A 
BRANCH  35  36
ATOM     36  C   UNL A   1      43.493  24.607  27.348  1.00  0.00     0.031 A 
ATOM     37  C   UNL A   1      42.544  25.634  27.905  1.00  0.00     0.074 A 
ATOM     38  C   UNL A   1      44.762  24.949  27.058  1.00  0.00     0.049 A 
ATOM     39  N   UNL A   1      42.734  26.912  28.117  1.00  0.00    -0.248 NA
ATOM     40  C   UNL A   1      41.190  25.166  28.242  1.00  0.00     0.031 C 
ATOM     41  C   UNL A   1      45.768  24.056  26.482  1.00  0.00     0.029 A 
ATOM     42  N   UNL A   1      45.417  26.149  27.185  1.00  0.00    -0.354 N 
ATOM     43  C   UNL A   1      41.521  27.403  28.581  1.00  0.00     0.074 A 
ATOM     44  C   UNL A   1      40.589  26.297  28.582  1.00  0.00     0.031 C 
ATOM     45  C   UNL A   1      46.914  24.735  26.315  1.00  0.00     0.029 A 
ATOM     46  C   UNL A   1      46.713  26.119  26.731  1.00  0.00     0.049 A 
ATOM     47  H   UNL A   1      44.998  26.955  27.568  1.00  0.00     0.167 HD
ATOM     48  C   UNL A   1      41.217  28.658  28.987  1.00  0.00     0.037 A 
ATOM     49  C   UNL A   1      47.629  27.105  26.639  1.00  0.00     0.037 A 
ATOM     50  C   UNL A   1      42.158  29.746  29.026  1.00  0.00     0.049 A 
ATOM     51  C   UNL A   1      47.265  28.492  27.092  1.00  0.00     0.074 A 
ATOM     52  C   UNL A   1      41.971  31.033  29.500  1.00  0.00     0.029 A 
ATOM     53  N   UNL A   1      43.466  29.671  28.572  1.00  0.00    -0.354 N 
ATOM     54  N   UNL A   1      46.133  28.929  27.586  1.00  0.00    -0.248 NA
ATOM     55  C   UNL A   1      48.305  29.524  26.970  1.00  0.00     0.031 C 
ATOM     56  C   UNL A   1      43.155  31.749  29.294  1.00  0.00     0.029 A 
ATOM     57  C   UNL A   1      44.092  30.897  28.730  1.00  0.00     0.049 A 
ATOM     58  H   UNL A   1      43.888  28.866  28.193  1.00  0.00     0.167 HD
ATOM     59  C   UNL A   1      46.327  30.279  27.850  1.00  0.00     0.074 A 
ATOM     60  C   UNL A   1      47.692  30.585  27.476  1.00  0.00     0.031 C 
ATOM     61  C   UNL A   1      45.452  31.183  28.354  1.00  0.00     0.037 A 
BRANCH  48  62
ATOM     62  C   UNL A   1      39.807  28.927  29.429  1.00  0.00     0.064 A 
ATOM     63  C   UNL A   1      38.828  29.377  28.530  1.00  0.00     0.173 A 
ATOM     64  C   UNL A   1      39.421  28.696  30.757  1.00  0.00     0.173 A 
ATOM     65  F   UNL A   1      39.148  29.623  27.250  1.00  0.00    -0.203 F 
ATOM     66  C   UNL A   1      37.522  29.614  28.952  1.00  0.00     0.198 A 
ATOM     67  C   UNL A   1      38.108  28.906  31.170  1.00  0.00     0.198 A 
ATOM     68  F   UNL A   1      40.316  28.258  31.656  1.00  0.00    -0.203 F 
ATOM     69  F   UNL A   1      36.616  30.088  28.086  1.00  0.00    -0.200 F 
ATOM     70  C   UNL A   1      37.162  29.372  30.270  1.00  0.00     0.200 A 
ATOM     71  F   UNL A   1      37.757  28.661  32.439  1.00  0.00    -0.200 F 
ATOM     72  F   UNL A   1      35.903  29.594  30.671  1.00  0.00    -0.200 F 
ENDBRANCH  48  62
BRANCH  49  73
ATOM     73  C   UNL A   1      48.983  26.808  26.105  1.00  0.00     0.064 A 
ATOM     74  C   UNL A   1      49.994  26.317  26.942  1.00  0.00     0.173 A 
ATOM     75  C   UNL A   1      49.293  27.002  24.751  1.00  0.00     0.173 A 
ATOM     76  F   UNL A   1      49.751  26.137  28.249  1.00  0.00    -0.203 F 
ATOM     77  C   UNL A   1      51.268  26.044  26.449  1.00  0.00     0.198 A 
ATOM     78  C   UNL A   1      50.560  26.704  24.253  1.00  0.00     0.198 A 
ATOM     79  F   UNL A   1      48.360  27.468  23.908  1.00  0.00    -0.203 F 
ATOM     80  F   UNL A   1      52.227  25.612  27.279  1.00  0.00    -0.200 F 
ATOM     81  C   UNL A   1      51.548  26.230  25.103  1.00  0.00     0.200 A 
ATOM     82  F   UNL A   1      50.824  26.875  22.950  1.00  0.00    -0.200 F 
ATOM     83  F   UNL A   1      52.772  25.962  24.628  1.00  0.00    -0.200 F 
ENDBRANCH  49  73
BRANCH  61  84
ATOM     84  C   UNL A   1      45.946  32.585  28.548  1.00  0.00     0.064 A 
ATOM     85  C   UNL A   1      46.612  32.969  29.721  1.00  0.00     0.173 A 
ATOM     86  C   UNL A   1      45.806  33.537  27.528  1.00  0.00     0.173 A 
ATOM     87  F   UNL A   1      46.756  32.097  30.731  1.00  0.00    -0.203 F 
ATOM     88  C   UNL A   1      47.108  34.260  29.870  1.00  0.00     0.198 A 
ATOM     89  C   UNL A   1      46.325  34.819  27.669  1.00  0.00     0.198 A 
ATOM     90  F   UNL A   1      45.180  33.215  26.385  1.00  0.00    -0.203 F 
ATOM     91  F   UNL A   1      47.713  34.616  31.011  1.00  0.00    -0.200 F 
ATOM     92  C   UNL A   1      46.972  35.181  28.841  1.00  0.00     0.200 A 
ATOM     93  F   UNL A   1      46.203  35.704  26.670  1.00  0.00    -0.200 F 
ATOM     94  F   UNL A   1      47.463  36.422  28.982  1.00  0.00    -0.200 F 
ENDBRANCH  61  84
ENDBRANCH  35  36
ENDBRANCH  27  30
ENDBRANCH  25  26
ENDBRANCH  24  25
ENDBRANCH   1  24
TORSDOF 14
ENDMDL
MODEL 2
REMARK VINA RESULT:     -12.1      5.450     11.256
REMARK SMILES CC[C@H](c1ccc(OC)cc1)[N@H+]1CC[C@H](C(=O)NCCCNC(=O)c2ccc(-c3c4nc(c(-c5c(F)c(F)c(F)c(F)c5F)c5ccc([nH]5)c(-c5c(F)c(F)c(F)c(F)c5F)c5nc(c(-c6c(F)c(F)c(F)c(F)c6F)c6ccc3[nH]6)C=C5)C=C4)cc2)[C@@H]1C
REMARK SMILES IDX 19 1 18 2 16 3 17 4 15 6 12 7 13 8 88 9 14 11 89 12 3 13
REMARK SMILES IDX 2 14 1 15 4 16 5 17 11 18 6 19 10 20 7 21 8 22 9 23 20 24
REMARK SMILES IDX 21 25 22 26 23 27 24 29 25 30 26 31 87 32 27 33 86 34 28 35
REMARK SMILES IDX 29 36 30 37 80 38 31 39 85 40 79 41 81 42 32 43 84 44 78 45
REMARK SMILES IDX 77 46 33 48 65 49 45 50 64 51 46 52 49 53 63 54 82 55 47 56
REMARK SMILES IDX 48 57 62 59 83 60 50 61 34 62 35 63 43 64 36 65 37 66 41 67
REMARK SMILES IDX 44 68 38 69 39 70 42 71 40 72 66 73 67 74 75 75 68 76 69 77
REMARK SMILES IDX 73 78 76 79 70 80 71 81 74 82 72 83 51 84 52 85 60 86 53 87
REMARK SMILES IDX 54 88 58 89 61 90 55 91 56 92 59 93 57 94
REMARK H PARENT 18 5 12 10 22 28 81 47 49 58
REMARK Flexibility Score: inf
ROOT
ATOM      1  C   UNL A   1      31.469  30.754  26.307  1.00  0.00     0.117 C 
ENDROOT
BRANCH   1   2
ATOM      2  N   UNL A   1      30.936  30.444  24.995  1.00  0.00    -0.356 N 
ATOM      3  C   UNL A   1      30.971  29.304  24.250  1.00  0.00     0.229 C 
ATOM      4  O   UNL A   1      30.769  29.472  23.043  1.00  0.00    -0.275 OA
ATOM      5  H   UNL A   1      30.462  31.191  24.566  1.00  0.00     0.163 HD
BRANCH   3   6
ATOM      6  C   UNL A   1      31.039  27.897  24.871  1.00  0.00     0.142 C 
ATOM      7  N   UNL A   1      32.589  26.137  24.115  1.00  0.00    -0.326 N 
ATOM      8  C   UNL A   1      31.490  26.283  23.152  1.00  0.00     0.264 C 
ATOM      9  C   UNL A   1      32.344  27.137  25.182  1.00  0.00     0.194 C 
ATOM     10  H   UNL A   1      33.484  26.319  23.661  1.00  0.00     0.348 HD
ATOM     11  C   UNL A   1      30.342  26.884  23.944  1.00  0.00     0.081 C 
ATOM     12  C   UNL A   1      33.651  27.880  25.363  1.00  0.00     0.076 C 
BRANCH   7  13
ATOM     13  C   UNL A   1      32.783  24.747  24.610  1.00  0.00     0.215 C 
BRANCH  13  14
ATOM     14  C   UNL A   1      32.408  24.574  26.122  1.00  0.00     0.067 C 
ATOM     15  C   UNL A   1      31.268  23.599  26.397  1.00  0.00     0.010 C 
ENDBRANCH  13  14
BRANCH  13  16
ATOM     16  C   UNL A   1      34.237  24.281  24.479  1.00  0.00     0.010 A 
ATOM     17  C   UNL A   1      35.140  24.410  25.548  1.00  0.00     0.014 A 
ATOM     18  C   UNL A   1      34.621  23.530  23.358  1.00  0.00     0.014 A 
ATOM     19  C   UNL A   1      36.346  23.706  25.541  1.00  0.00     0.047 A 
ATOM     20  C   UNL A   1      35.819  22.814  23.361  1.00  0.00     0.047 A 
ATOM     21  C   UNL A   1      36.651  22.857  24.479  1.00  0.00     0.118 A 
BRANCH  21  22
ATOM     22  O   UNL A   1      37.780  22.094  24.613  1.00  0.00    -0.497 OA
ATOM     23  C   UNL A   1      38.319  22.117  25.936  1.00  0.00     0.278 C 
ENDBRANCH  21  22
ENDBRANCH  13  16
ENDBRANCH   7  13
ENDBRANCH   3   6
ENDBRANCH   1   2
BRANCH   1  24
ATOM     24  C   UNL A   1      31.414  32.270  26.526  1.00  0.00     0.042 C 
BRANCH  24  25
ATOM     25  C   UNL A   1      32.697  32.866  27.086  1.00  0.00     0.118 C 
BRANCH  25  26
ATOM     26  N   UNL A   1      32.484  34.203  27.610  1.00  0.00    -0.352 N 
ATOM     27  C   UNL A   1      33.038  34.814  28.708  1.00  0.00     0.251 C 
ATOM     28  H   UNL A   1      31.847  34.755  27.101  1.00  0.00     0.163 HD
ATOM     29  O   UNL A   1      32.538  35.859  29.129  1.00  0.00    -0.269 OA
BRANCH  27  30
ATOM     30  C   UNL A   1      34.216  34.240  29.401  1.00  0.00     0.039 A 
ATOM     31  C   UNL A   1      34.020  33.535  30.595  1.00  0.00     0.014 A 
ATOM     32  C   UNL A   1      35.515  34.439  28.927  1.00  0.00     0.014 A 
ATOM     33  C   UNL A   1      35.113  32.989  31.277  1.00  0.00     0.010 A 
ATOM     34  C   UNL A   1      36.594  33.828  29.561  1.00  0.00     0.010 A 
ATOM     35  C   UNL A   1      36.409  33.108  30.751  1.00  0.00    -0.014 A 
BRANCH  35  36
ATOM     36  C   UNL A   1      37.589  32.516  31.434  1.00  0.00     0.031 A 
ATOM     37  C   UNL A   1      38.318  31.361  30.803  1.00  0.00     0.074 A 
ATOM     38  C   UNL A   1      37.953  32.958  32.652  1.00  0.00     0.049 A 
ATOM     39  N   UNL A   1      39.278  30.617  31.292  1.00  0.00    -0.248 NA
ATOM     40  C   UNL A   1      37.890  30.972  29.449  1.00  0.00     0.031 C 
ATOM     41  C   UNL A   1      37.306  34.046  33.386  1.00  0.00     0.029 A 
ATOM     42  N   UNL A   1      38.946  32.530  33.500  1.00  0.00    -0.354 N 
ATOM     43  C   UNL A   1      39.545  29.658  30.323  1.00  0.00     0.074 A 
ATOM     44  C   UNL A   1      38.620  29.888  29.234  1.00  0.00     0.031 C 
ATOM     45  C   UNL A   1      37.922  34.207  34.568  1.00  0.00     0.029 A 
ATOM     46  C   UNL A   1      38.978  33.208  34.695  1.00  0.00     0.049 A 
ATOM     47  H   UNL A   1      39.575  31.807  33.273  1.00  0.00     0.167 HD
ATOM     48  C   UNL A   1      40.488  28.687  30.332  1.00  0.00     0.037 A 
ATOM     49  C   UNL A   1      39.759  33.028  35.779  1.00  0.00     0.037 A 
ATOM     50  C   UNL A   1      41.435  28.489  31.398  1.00  0.00     0.049 A 
ATOM     51  C   UNL A   1      40.796  31.938  35.767  1.00  0.00     0.074 A 
ATOM     52  C   UNL A   1      42.483  27.588  31.466  1.00  0.00     0.029 A 
ATOM     53  N   UNL A   1      41.445  29.206  32.585  1.00  0.00    -0.354 N 
ATOM     54  N   UNL A   1      41.079  31.078  34.820  1.00  0.00    -0.248 NA
ATOM     55  C   UNL A   1      41.618  31.791  36.977  1.00  0.00     0.031 C 
ATOM     56  C   UNL A   1      43.102  27.732  32.712  1.00  0.00     0.029 A 
ATOM     57  C   UNL A   1      42.466  28.751  33.403  1.00  0.00     0.049 A 
ATOM     58  H   UNL A   1      40.820  29.933  32.812  1.00  0.00     0.167 HD
ATOM     59  C   UNL A   1      42.121  30.301  35.309  1.00  0.00     0.074 A 
ATOM     60  C   UNL A   1      42.430  30.802  36.631  1.00  0.00     0.031 C 
ATOM     61  C   UNL A   1      42.761  29.264  34.716  1.00  0.00     0.037 A 
BRANCH  48  62
ATOM     62  C   UNL A   1      40.550  27.762  29.151  1.00  0.00     0.064 A 
ATOM     63  C   UNL A   1      41.441  27.983  28.090  1.00  0.00     0.173 A 
ATOM     64  C   UNL A   1      39.734  26.622  29.097  1.00  0.00     0.173 A 
ATOM     65  F   UNL A   1      42.235  29.064  28.088  1.00  0.00    -0.203 F 
ATOM     66  C   UNL A   1      41.492  27.111  27.005  1.00  0.00     0.198 A 
ATOM     67  C   UNL A   1      39.808  25.737  28.024  1.00  0.00     0.198 A 
ATOM     68  F   UNL A   1      38.870  26.360  30.089  1.00  0.00    -0.203 F 
ATOM     69  F   UNL A   1      42.318  27.367  25.981  1.00  0.00    -0.200 F 
ATOM     70  C   UNL A   1      40.681  25.986  26.976  1.00  0.00     0.200 A 
ATOM     71  F   UNL A   1      39.034  24.644  28.003  1.00  0.00    -0.200 F 
ATOM     72  F   UNL A   1      40.738  25.146  25.934  1.00  0.00    -0.200 F 
ENDBRANCH  48  62
BRANCH  49  73
ATOM     73  C   UNL A   1      39.594  33.910  36.963  1.00  0.00     0.064 A 
ATOM     74  C   UNL A   1      38.805  33.513  38.050  1.00  0.00     0.173 A 
ATOM     75  C   UNL A   1      40.221  35.163  37.035  1.00  0.00     0.173 A 
ATOM     76  F   UNL A   1      38.165  32.333  38.017  1.00  0.00    -0.203 F 
ATOM     77  C   UNL A   1      38.639  34.338  39.160  1.00  0.00     0.198 A 
ATOM     78  C   UNL A   1      40.076  35.976  38.157  1.00  0.00     0.198 A 
ATOM     79  F   UNL A   1      40.988  35.589  36.021  1.00  0.00    -0.203 F 
ATOM     80  F   UNL A   1      37.849  33.949  40.170  1.00  0.00    -0.200 F 
ATOM     81  C   UNL A   1      39.282  35.566  39.216  1.00  0.00     0.200 A 
ATOM     82  F   UNL A   1      40.708  37.158  38.211  1.00  0.00    -0.200 F 
ATOM     83  F   UNL A   1      39.127  36.358  40.287  1.00  0.00    -0.200 F 
ENDBRANCH  49  73
BRANCH  61  84
ATOM     84  C   UNL A   1      43.871  28.611  35.483  1.00  0.00     0.064 A 
ATOM     85  C   UNL A   1      45.202  29.029  35.340  1.00  0.00     0.173 A 
ATOM     86  C   UNL A   1      43.594  27.599  36.414  1.00  0.00     0.173 A 
ATOM     87  F   UNL A   1      45.517  29.983  34.450  1.00  0.00    -0.203 F 
ATOM     88  C   UNL A   1      46.217  28.447  36.093  1.00  0.00     0.198 A 
ATOM     89  C   UNL A   1      44.608  27.037  37.183  1.00  0.00     0.198 A 
ATOM     90  F   UNL A   1      42.335  27.169  36.589  1.00  0.00    -0.203 F 
ATOM     91  F   UNL A   1      47.487  28.839  35.917  1.00  0.00    -0.200 F 
ATOM     92  C   UNL A   1      45.918  27.459  37.020  1.00  0.00     0.200 A 
ATOM     93  F   UNL A   1      44.316  26.091  38.086  1.00  0.00    -0.200 F 
ATOM     94  F   UNL A   1      46.897  26.909  37.753  1.00  0.00    -0.200 F 
ENDBRANCH  61  84
ENDBRANCH  35  36
ENDBRANCH  27  30
ENDBRANCH  25  26
ENDBRANCH  24  25
ENDBRANCH   1  24
TORSDOF 14
ENDMDL
MODEL 3
REMARK VINA RESULT:     -12.0      5.381     11.207
REMARK SMILES CC[C@H](c1ccc(OC)cc1)[N@H+]1CC[C@H](C(=O)NCCCNC(=O)c2ccc(-c3c4nc(c(-c5c(F)c(F)c(F)c(F)c5F)c5ccc([nH]5)c(-c5c(F)c(F)c(F)c(F)c5F)c5nc(c(-c6c(F)c(F)c(F)c(F)c6F)c6ccc3[nH]6)C=C5)C=C4)cc2)[C@@H]1C
REMARK SMILES IDX 19 1 18 2 16 3 17 4 15 6 12 7 13 8 88 9 14 11 89 12 3 13
REMARK SMILES IDX 2 14 1 15 4 16 5 17 11 18 6 19 10 20 7 21 8 22 9 23 20 24
REMARK SMILES IDX 21 25 22 26 23 27 24 29 25 30 26 31 87 32 27 33 86 34 28 35
REMARK SMILES IDX 29 36 30 37 80 38 31 39 85 40 79 41 81 42 32 43 84 44 78 45
REMARK SMILES IDX 77 46 33 48 65 49 45 50 64 51 46 52 49 53 63 54 82 55 47 56
REMARK SMILES IDX 48 57 62 59 83 60 50 61 34 62 35 63 43 64 36 65 37 66 41 67
REMARK SMILES IDX 44 68 38 69 39 70 42 71 40 72 66 73 67 74 75 75 68 76 69 77
REMARK SMILES IDX 73 78 76 79 70 80 71 81 74 82 72 83 51 84 52 85 60 86 53 87
REMARK SMILES IDX 54 88 58 89 61 90 55 91 56 92 59 93 57 94
REMARK H PARENT 18 5 12 10 22 28 81 47 49 58
REMARK Flexibility Score: inf
ROOT
ATOM      1  C   UNL A   1      31.513  30.746  26.306  1.00  0.00     0.117 C 
ENDROOT
BRANCH   1   2
ATOM      2  N   UNL A   1      30.982  30.462  24.988  1.00  0.00    -0.356 N 
ATOM      3  C   UNL A   1      31.003  29.332  24.226  1.00  0.00     0.229 C 
ATOM      4  O   UNL A   1      30.809  29.521  23.021  1.00  0.00    -0.275 OA
ATOM      5  H   UNL A   1      30.522  31.223  24.567  1.00  0.00     0.163 HD
BRANCH   3   6
ATOM      6  C   UNL A   1      31.046  27.916  24.828  1.00  0.00     0.142 C 
ATOM      7  N   UNL A   1      32.585  26.149  24.065  1.00  0.00    -0.326 N 
ATOM      8  C   UNL A   1      31.501  26.322  23.091  1.00  0.00     0.264 C 
ATOM      9  C   UNL A   1      32.339  27.136  25.144  1.00  0.00     0.194 C 
ATOM     10  H   UNL A   1      33.488  26.327  23.625  1.00  0.00     0.348 HD
ATOM     11  C   UNL A   1      30.350  26.925  23.877  1.00  0.00     0.081 C 
ATOM     12  C   UNL A   1      33.651  27.860  25.352  1.00  0.00     0.076 C 
BRANCH   7  13
ATOM     13  C   UNL A   1      32.756  24.750  24.543  1.00  0.00     0.215 C 
BRANCH  13  14
ATOM     14  C   UNL A   1      32.277  24.540  26.020  1.00  0.00     0.067 C 
ATOM     15  C   UNL A   1      30.913  23.871  26.168  1.00  0.00     0.010 C 
ENDBRANCH  13  14
BRANCH  13  16
ATOM     16  C   UNL A   1      34.220  24.298  24.505  1.00  0.00     0.010 A 
ATOM     17  C   UNL A   1      35.012  24.303  25.666  1.00  0.00     0.014 A 
ATOM     18  C   UNL A   1      34.719  23.675  23.350  1.00  0.00     0.014 A 
ATOM     19  C   UNL A   1      36.219  23.602  25.699  1.00  0.00     0.047 A 
ATOM     20  C   UNL A   1      35.917  22.961  23.392  1.00  0.00     0.047 A 
ATOM     21  C   UNL A   1      36.634  22.876  24.585  1.00  0.00     0.118 A 
BRANCH  21  22
ATOM     22  O   UNL A   1      37.752  22.101  24.744  1.00  0.00    -0.497 OA
ATOM     23  C   UNL A   1      37.450  20.731  25.015  1.00  0.00     0.278 C 
ENDBRANCH  21  22
ENDBRANCH  13  16
ENDBRANCH   7  13
ENDBRANCH   3   6
ENDBRANCH   1   2
BRANCH   1  24
ATOM     24  C   UNL A   1      31.417  32.252  26.573  1.00  0.00     0.042 C 
BRANCH  24  25
ATOM     25  C   UNL A   1      32.714  32.882  27.059  1.00  0.00     0.118 C 
BRANCH  25  26
ATOM     26  N   UNL A   1      32.491  34.201  27.625  1.00  0.00    -0.352 N 
ATOM     27  C   UNL A   1      33.042  34.782  28.739  1.00  0.00     0.251 C 
ATOM     28  H   UNL A   1      31.847  34.763  27.135  1.00  0.00     0.163 HD
ATOM     29  O   UNL A   1      32.534  35.810  29.194  1.00  0.00    -0.269 OA
BRANCH  27  30
ATOM     30  C   UNL A   1      34.227  34.198  29.412  1.00  0.00     0.039 A 
ATOM     31  C   UNL A   1      34.032  33.346  30.506  1.00  0.00     0.014 A 
ATOM     32  C   UNL A   1      35.528  34.525  29.020  1.00  0.00     0.014 A 
ATOM     33  C   UNL A   1      35.130  32.785  31.166  1.00  0.00     0.010 A 
ATOM     34  C   UNL A   1      36.619  33.905  29.626  1.00  0.00     0.010 A 
ATOM     35  C   UNL A   1      36.435  33.039  30.714  1.00  0.00    -0.014 A 
BRANCH  35  36
ATOM     36  C   UNL A   1      37.624  32.438  31.374  1.00  0.00     0.031 A 
ATOM     37  C   UNL A   1      38.341  31.287  30.721  1.00  0.00     0.074 A 
ATOM     38  C   UNL A   1      38.008  32.868  32.590  1.00  0.00     0.049 A 
ATOM     39  N   UNL A   1      39.305  30.536  31.190  1.00  0.00    -0.248 NA
ATOM     40  C   UNL A   1      37.891  30.912  29.371  1.00  0.00     0.031 C 
ATOM     41  C   UNL A   1      37.374  33.951  33.343  1.00  0.00     0.029 A 
ATOM     42  N   UNL A   1      39.011  32.430  33.419  1.00  0.00    -0.354 N 
ATOM     43  C   UNL A   1      39.556  29.586  30.208  1.00  0.00     0.074 A 
ATOM     44  C   UNL A   1      38.615  29.827  29.135  1.00  0.00     0.031 C 
ATOM     45  C   UNL A   1      38.008  34.100  34.517  1.00  0.00     0.029 A 
ATOM     46  C   UNL A   1      39.063  33.097  34.620  1.00  0.00     0.049 A 
ATOM     47  H   UNL A   1      39.635  31.708  33.176  1.00  0.00     0.167 HD
ATOM     48  C   UNL A   1      40.496  28.612  30.195  1.00  0.00     0.037 A 
ATOM     49  C   UNL A   1      39.860  32.906  35.690  1.00  0.00     0.037 A 
ATOM     50  C   UNL A   1      41.458  28.402  31.244  1.00  0.00     0.049 A 
ATOM     51  C   UNL A   1      40.893  31.813  35.653  1.00  0.00     0.074 A 
ATOM     52  C   UNL A   1      42.504  27.498  31.288  1.00  0.00     0.029 A 
ATOM     53  N   UNL A   1      41.488  29.109  32.437  1.00  0.00    -0.354 N 
ATOM     54  N   UNL A   1      41.160  30.961  34.694  1.00  0.00    -0.248 NA
ATOM     55  C   UNL A   1      41.733  31.654  36.849  1.00  0.00     0.031 C 
ATOM     56  C   UNL A   1      43.143  27.630  32.526  1.00  0.00     0.029 A 
ATOM     57  C   UNL A   1      42.520  28.644  33.236  1.00  0.00     0.049 A 
ATOM     58  H   UNL A   1      40.868  29.835  32.680  1.00  0.00     0.167 HD
ATOM     59  C   UNL A   1      42.207  30.177  35.161  1.00  0.00     0.074 A 
ATOM     60  C   UNL A   1      42.538  30.665  36.483  1.00  0.00     0.031 C 
ATOM     61  C   UNL A   1      42.835  29.144  34.548  1.00  0.00     0.037 A 
BRANCH  48  62
ATOM     62  C   UNL A   1      40.537  27.698  29.004  1.00  0.00     0.064 A 
ATOM     63  C   UNL A   1      39.737  26.548  28.932  1.00  0.00     0.173 A 
ATOM     64  C   UNL A   1      41.359  27.995  27.907  1.00  0.00     0.173 A 
ATOM     65  F   UNL A   1      38.942  26.213  29.960  1.00  0.00    -0.203 F 
ATOM     66  C   UNL A   1      39.780  25.713  27.818  1.00  0.00     0.198 A 
ATOM     67  C   UNL A   1      41.378  27.175  26.782  1.00  0.00     0.198 A 
ATOM     68  F   UNL A   1      42.138  29.087  27.921  1.00  0.00    -0.203 F 
ATOM     69  F   UNL A   1      39.042  24.596  27.791  1.00  0.00    -0.200 F 
ATOM     70  C   UNL A   1      40.595  26.031  26.741  1.00  0.00     0.200 A 
ATOM     71  F   UNL A   1      42.156  27.489  25.737  1.00  0.00    -0.200 F 
ATOM     72  F   UNL A   1      40.629  25.231  25.667  1.00  0.00    -0.200 F 
ENDBRANCH  48  62
BRANCH  49  73
ATOM     73  C   UNL A   1      39.715  33.778  36.884  1.00  0.00     0.064 A 
ATOM     74  C   UNL A   1      40.400  34.996  36.972  1.00  0.00     0.173 A 
ATOM     75  C   UNL A   1      38.887  33.415  37.958  1.00  0.00     0.173 A 
ATOM     76  F   UNL A   1      41.221  35.374  35.980  1.00  0.00    -0.203 F 
ATOM     77  C   UNL A   1      40.275  35.815  38.092  1.00  0.00     0.198 A 
ATOM     78  C   UNL A   1      38.742  34.247  39.066  1.00  0.00     0.198 A 
ATOM     79  F   UNL A   1      38.208  32.260  37.923  1.00  0.00    -0.203 F 
ATOM     80  F   UNL A   1      40.971  36.957  38.166  1.00  0.00    -0.200 F 
ATOM     81  C   UNL A   1      39.440  35.443  39.135  1.00  0.00     0.200 A 
ATOM     82  F   UNL A   1      37.925  33.890  40.068  1.00  0.00    -0.200 F 
ATOM     83  F   UNL A   1      39.314  36.234  40.210  1.00  0.00    -0.200 F 
ENDBRANCH  49  73
BRANCH  61  84
ATOM     84  C   UNL A   1      43.955  28.481  35.293  1.00  0.00     0.064 A 
ATOM     85  C   UNL A   1      43.732  27.348  36.090  1.00  0.00     0.173 A 
ATOM     86  C   UNL A   1      45.271  28.946  35.161  1.00  0.00     0.173 A 
ATOM     87  F   UNL A   1      42.488  26.876  36.258  1.00  0.00    -0.203 F 
ATOM     88  C   UNL A   1      44.788  26.713  36.738  1.00  0.00     0.198 A 
ATOM     89  C   UNL A   1      46.327  28.294  35.790  1.00  0.00     0.198 A 
ATOM     90  F   UNL A   1      45.535  30.024  34.406  1.00  0.00    -0.203 F 
ATOM     91  F   UNL A   1      44.549  25.652  37.520  1.00  0.00    -0.200 F 
ATOM     92  C   UNL A   1      46.085  27.181  36.580  1.00  0.00     0.200 A 
ATOM     93  F   UNL A   1      47.581  28.740  35.628  1.00  0.00    -0.200 F 
ATOM     94  F   UNL A   1      47.101  26.559  37.196  1.00  0.00    -0.200 F 
ENDBRANCH  61  84
ENDBRANCH  35  36
ENDBRANCH  27  30
ENDBRANCH  25  26
ENDBRANCH  24  25
ENDBRANCH   1  24
TORSDOF 14
ENDMDL
