MODEL 1
REMARK VINA RESULT:     -10.4      0.000      0.000
REMARK SMILES O=C(NCCCNC(=O)[C@H](CO)NC(=O)[C@H]1CC(=O)N(CC(F)(F)F)C1)c1ccc(-c2c3nc(c(-c4c(F)c(F)c(F)c(F)c4F)c4ccc([nH]4)c(-c4c(F)c(F)c(F)c(F)c4F)c4nc(c(-c5c(F)c(F)c(F)c(F)c5F)c5ccc2[nH]5)C=C4)C=C3)cc1
REMARK SMILES IDX 6 1 5 2 4 3 3 4 1 5 2 6 27 8 28 9 89 10 29 11 88 12 30 13
REMARK SMILES IDX 31 14 32 15 82 16 33 17 87 18 81 19 83 20 34 21 86 22 80 23
REMARK SMILES IDX 79 24 35 26 67 27 47 28 66 29 48 30 51 31 65 32 84 33 49 34
REMARK SMILES IDX 50 35 64 37 85 38 52 39 36 40 37 41 45 42 38 43 39 44 43 45
REMARK SMILES IDX 46 46 40 47 41 48 44 49 42 50 68 51 69 52 77 53 70 54 71 55
REMARK SMILES IDX 75 56 78 57 72 58 73 59 76 60 74 61 53 62 54 63 62 64 55 65
REMARK SMILES IDX 56 66 60 67 63 68 57 69 58 70 61 71 59 72 7 73 8 74 9 76
REMARK SMILES IDX 10 77 13 78 14 79 15 81 16 82 17 83 26 84 18 85 20 86 19 87
REMARK SMILES IDX 21 88 22 89 23 90 24 91 25 92 11 93 12 94
REMARK H PARENT 3 7 83 25 51 36 7 75 13 80 12 95
REMARK Flexibility Score: inf
ROOT
ATOM      1  C   UNL A   1      42.166  21.247  25.751  1.00  0.00     0.117 C 
ENDROOT
BRANCH   1   2
ATOM      2  C   UNL A   1      42.072  21.519  27.247  1.00  0.00     0.042 C 
BRANCH   2   3
ATOM      3  C   UNL A   1      40.633  21.533  27.751  1.00  0.00     0.118 C 
BRANCH   3   4
ATOM      4  N   UNL A   1      39.673  21.734  26.671  1.00  0.00    -0.352 N 
ATOM      5  O   UNL A   1      38.046  22.785  25.521  1.00  0.00    -0.269 OA
ATOM      6  C   UNL A   1      38.973  22.860  26.321  1.00  0.00     0.251 C 
ATOM      7  H   UNL A   1      39.504  20.943  26.109  1.00  0.00     0.163 HD
BRANCH   6   8
ATOM      8  C   UNL A   1      39.341  24.166  26.906  1.00  0.00     0.039 A 
ATOM      9  C   UNL A   1      39.020  24.455  28.233  1.00  0.00     0.014 A 
ATOM     10  C   UNL A   1      40.054  25.089  26.136  1.00  0.00     0.014 A 
ATOM     11  C   UNL A   1      39.301  25.710  28.754  1.00  0.00     0.010 A 
ATOM     12  C   UNL A   1      40.423  26.315  26.693  1.00  0.00     0.010 A 
ATOM     13  C   UNL A   1      40.041  26.638  28.004  1.00  0.00    -0.014 A 
BRANCH  13  14
ATOM     14  C   UNL A   1      40.508  27.880  28.667  1.00  0.00     0.031 A 
ATOM     15  C   UNL A   1      41.933  28.049  29.101  1.00  0.00     0.074 A 
ATOM     16  C   UNL A   1      39.610  28.868  28.853  1.00  0.00     0.049 A 
ATOM     17  N   UNL A   1      42.494  29.075  29.690  1.00  0.00    -0.248 NA
ATOM     18  C   UNL A   1      42.849  26.925  28.853  1.00  0.00     0.031 C 
ATOM     19  C   UNL A   1      38.193  28.799  28.482  1.00  0.00     0.029 A 
ATOM     20  N   UNL A   1      39.749  30.124  29.387  1.00  0.00    -0.354 N 
ATOM     21  C   UNL A   1      43.820  28.718  29.896  1.00  0.00     0.074 A 
ATOM     22  C   UNL A   1      43.979  27.372  29.389  1.00  0.00     0.031 C 
ATOM     23  C   UNL A   1      37.606  29.970  28.761  1.00  0.00     0.029 A 
ATOM     24  C   UNL A   1      38.580  30.844  29.400  1.00  0.00     0.049 A 
ATOM     25  H   UNL A   1      40.604  30.474  29.727  1.00  0.00     0.167 HD
ATOM     26  C   UNL A   1      44.808  29.457  30.456  1.00  0.00     0.037 A 
ATOM     27  C   UNL A   1      38.310  32.063  29.903  1.00  0.00     0.037 A 
ATOM     28  C   UNL A   1      44.636  30.803  30.942  1.00  0.00     0.049 A 
ATOM     29  C   UNL A   1      39.425  32.835  30.550  1.00  0.00     0.074 A 
ATOM     30  C   UNL A   1      45.590  31.653  31.475  1.00  0.00     0.029 A 
ATOM     31  N   UNL A   1      43.431  31.491  30.967  1.00  0.00    -0.354 N 
ATOM     32  N   UNL A   1      40.688  32.510  30.684  1.00  0.00    -0.248 NA
ATOM     33  C   UNL A   1      39.076  34.142  31.119  1.00  0.00     0.031 C 
ATOM     34  C   UNL A   1      44.952  32.828  31.883  1.00  0.00     0.029 A 
ATOM     35  C   UNL A   1      43.612  32.740  31.543  1.00  0.00     0.049 A 
ATOM     36  H   UNL A   1      42.576  31.144  30.625  1.00  0.00     0.167 HD
ATOM     37  C   UNL A   1      41.288  33.578  31.334  1.00  0.00     0.074 A 
ATOM     38  C   UNL A   1      40.256  34.575  31.538  1.00  0.00     0.031 C 
ATOM     39  C   UNL A   1      42.574  33.719  31.735  1.00  0.00     0.037 A 
BRANCH  26  40
ATOM     40  C   UNL A   1      46.169  28.836  30.598  1.00  0.00     0.064 A 
ATOM     41  C   UNL A   1      46.470  27.943  31.636  1.00  0.00     0.173 A 
ATOM     42  C   UNL A   1      47.152  29.063  29.621  1.00  0.00     0.173 A 
ATOM     43  F   UNL A   1      45.568  27.698  32.600  1.00  0.00    -0.203 F 
ATOM     44  C   UNL A   1      47.707  27.304  31.694  1.00  0.00     0.198 A 
ATOM     45  C   UNL A   1      48.375  28.400  29.667  1.00  0.00     0.198 A 
ATOM     46  F   UNL A   1      46.913  29.902  28.603  1.00  0.00    -0.203 F 
ATOM     47  F   UNL A   1      47.981  26.470  32.707  1.00  0.00    -0.200 F 
ATOM     48  C   UNL A   1      48.653  27.523  30.704  1.00  0.00     0.200 A 
ATOM     49  F   UNL A   1      49.281  28.602  28.700  1.00  0.00    -0.200 F 
ATOM     50  F   UNL A   1      49.832  26.889  30.748  1.00  0.00    -0.200 F 
ENDBRANCH  26  40
BRANCH  27  51
ATOM     51  C   UNL A   1      36.928  32.607  29.850  1.00  0.00     0.064 A 
ATOM     52  C   UNL A   1      36.453  33.276  28.714  1.00  0.00     0.173 A 
ATOM     53  C   UNL A   1      36.063  32.495  30.950  1.00  0.00     0.173 A 
ATOM     54  F   UNL A   1      37.245  33.423  27.642  1.00  0.00    -0.203 F 
ATOM     55  C   UNL A   1      35.182  33.845  28.695  1.00  0.00     0.198 A 
ATOM     56  C   UNL A   1      34.777  33.030  30.914  1.00  0.00     0.198 A 
ATOM     57  F   UNL A   1      36.463  31.857  32.060  1.00  0.00    -0.203 F 
ATOM     58  F   UNL A   1      34.779  34.539  27.622  1.00  0.00    -0.200 F 
ATOM     59  C   UNL A   1      34.343  33.718  29.793  1.00  0.00     0.200 A 
ATOM     60  F   UNL A   1      33.965  32.884  31.969  1.00  0.00    -0.200 F 
ATOM     61  F   UNL A   1      33.122  34.269  29.774  1.00  0.00    -0.200 F 
ENDBRANCH  27  51
BRANCH  39  62
ATOM     62  C   UNL A   1      42.939  35.011  32.407  1.00  0.00     0.064 A 
ATOM     63  C   UNL A   1      43.470  36.091  31.688  1.00  0.00     0.173 A 
ATOM     64  C   UNL A   1      42.735  35.178  33.786  1.00  0.00     0.173 A 
ATOM     65  F   UNL A   1      43.703  35.977  30.371  1.00  0.00    -0.203 F 
ATOM     66  C   UNL A   1      43.816  37.278  32.328  1.00  0.00     0.198 A 
ATOM     67  C   UNL A   1      43.046  36.378  34.416  1.00  0.00     0.198 A 
ATOM     68  F   UNL A   1      42.224  34.178  34.520  1.00  0.00    -0.203 F 
ATOM     69  F   UNL A   1      44.379  38.273  31.631  1.00  0.00    -0.200 F 
ATOM     70  C   UNL A   1      43.596  37.424  33.689  1.00  0.00     0.200 A 
ATOM     71  F   UNL A   1      42.818  36.522  35.729  1.00  0.00    -0.200 F 
ATOM     72  F   UNL A   1      43.923  38.568  34.303  1.00  0.00    -0.200 F 
ENDBRANCH  39  62
ENDBRANCH  13  14
ENDBRANCH   6   8
ENDBRANCH   3   4
ENDBRANCH   2   3
ENDBRANCH   1   2
BRANCH   1  73
ATOM     73  N   UNL A   1      42.802  19.968  25.493  1.00  0.00    -0.354 N 
ATOM     74  C   UNL A   1      44.059  19.667  25.066  1.00  0.00     0.244 C 
ATOM     75  H   UNL A   1      42.227  19.186  25.655  1.00  0.00     0.163 HD
ATOM     76  O   UNL A   1      44.339  18.469  24.956  1.00  0.00    -0.273 OA
BRANCH  74  77
ATOM     77  C   UNL A   1      45.161  20.733  24.905  1.00  0.00     0.197 C 
BRANCH  77  78
ATOM     78  N   UNL A   1      45.513  21.448  26.138  1.00  0.00    -0.342 N 
ATOM     79  C   UNL A   1      45.376  22.755  26.477  1.00  0.00     0.226 C 
ATOM     80  H   UNL A   1      45.915  20.883  26.837  1.00  0.00     0.164 HD
ATOM     81  O   UNL A   1      45.597  23.070  27.645  1.00  0.00    -0.275 OA
BRANCH  79  82
ATOM     82  C   UNL A   1      45.070  23.776  25.410  1.00  0.00     0.107 C 
ATOM     83  C   UNL A   1      43.737  24.497  25.623  1.00  0.00     0.115 C 
ATOM     84  C   UNL A   1      46.095  24.901  25.500  1.00  0.00     0.133 C 
ATOM     85  C   UNL A   1      44.006  25.884  25.095  1.00  0.00     0.223 C 
ATOM     86  N   UNL A   1      45.378  26.046  25.000  1.00  0.00    -0.333 N 
ATOM     87  O   UNL A   1      43.164  26.719  24.826  1.00  0.00    -0.275 OA
BRANCH  86  88
ATOM     88  C   UNL A   1      46.028  27.318  24.670  1.00  0.00     0.234 C 
BRANCH  88  89
ATOM     89  C   UNL A   1      46.406  28.192  25.865  1.00  0.00     0.406 C 
ATOM     90  F   UNL A   1      46.713  29.449  25.461  1.00  0.00    -0.169 F 
ATOM     91  F   UNL A   1      45.370  28.293  26.730  1.00  0.00    -0.169 F 
ATOM     92  F   UNL A   1      47.466  27.706  26.543  1.00  0.00    -0.169 F 
ENDBRANCH  88  89
ENDBRANCH  86  88
ENDBRANCH  79  82
ENDBRANCH  77  78
BRANCH  77  93
ATOM     93  C   UNL A   1      46.393  20.079  24.251  1.00  0.00     0.191 C 
BRANCH  93  94
ATOM     94  O   UNL A   1      47.153  19.319  25.194  1.00  0.00    -0.394 OA
ATOM     95  H   UNL A   1      47.592  19.920  25.817  1.00  0.00     0.210 HD
ENDBRANCH  93  94
ENDBRANCH  77  93
ENDBRANCH  74  77
ENDBRANCH   1  73
TORSDOF 16
ENDMDL
MODEL 2
REMARK VINA RESULT:     -10.3      5.396     10.857
REMARK SMILES O=C(NCCCNC(=O)[C@H](CO)NC(=O)[C@H]1CC(=O)N(CC(F)(F)F)C1)c1ccc(-c2c3nc(c(-c4c(F)c(F)c(F)c(F)c4F)c4ccc([nH]4)c(-c4c(F)c(F)c(F)c(F)c4F)c4nc(c(-c5c(F)c(F)c(F)c(F)c5F)c5ccc2[nH]5)C=C4)C=C3)cc1
REMARK SMILES IDX 6 1 5 2 4 3 3 4 1 5 2 6 27 8 28 9 89 10 29 11 88 12 30 13
REMARK SMILES IDX 31 14 32 15 82 16 33 17 87 18 81 19 83 20 34 21 86 22 80 23
REMARK SMILES IDX 79 24 35 26 67 27 47 28 66 29 48 30 51 31 65 32 84 33 49 34
REMARK SMILES IDX 50 35 64 37 85 38 52 39 36 40 37 41 45 42 38 43 39 44 43 45
REMARK SMILES IDX 46 46 40 47 41 48 44 49 42 50 68 51 69 52 77 53 70 54 71 55
REMARK SMILES IDX 75 56 78 57 72 58 73 59 76 60 74 61 53 62 54 63 62 64 55 65
REMARK SMILES IDX 56 66 60 67 63 68 57 69 58 70 61 71 59 72 7 73 8 74 9 76
REMARK SMILES IDX 10 77 13 78 14 79 15 81 16 82 17 83 26 84 18 85 20 86 19 87
REMARK SMILES IDX 21 88 22 89 23 90 24 91 25 92 11 93 12 94
REMARK H PARENT 3 7 83 25 51 36 7 75 13 80 12 95
REMARK Flexibility Score: inf
ROOT
ATOM      1  C   UNL A   1      31.622  30.429  26.076  1.00  0.00     0.117 C 
ENDROOT
BRANCH   1   2
ATOM      2  C   UNL A   1      31.398  31.854  26.568  1.00  0.00     0.042 C 
BRANCH   2   3
ATOM      3  C   UNL A   1      32.684  32.516  27.051  1.00  0.00     0.118 C 
BRANCH   3   4
ATOM      4  N   UNL A   1      32.466  33.894  27.478  1.00  0.00    -0.352 N 
ATOM      5  O   UNL A   1      32.569  35.669  28.861  1.00  0.00    -0.269 OA
ATOM      6  C   UNL A   1      33.034  34.588  28.517  1.00  0.00     0.251 C 
ATOM      7  H   UNL A   1      31.816  34.401  26.940  1.00  0.00     0.163 HD
BRANCH   6   8
ATOM      8  C   UNL A   1      34.210  34.032  29.216  1.00  0.00     0.039 A 
ATOM      9  C   UNL A   1      34.042  33.077  30.220  1.00  0.00     0.014 A 
ATOM     10  C   UNL A   1      35.492  34.434  28.833  1.00  0.00     0.014 A 
ATOM     11  C   UNL A   1      35.145  32.614  30.924  1.00  0.00     0.010 A 
ATOM     12  C   UNL A   1      36.608  33.894  29.477  1.00  0.00     0.010 A 
ATOM     13  C   UNL A   1      36.441  32.986  30.534  1.00  0.00    -0.014 A 
BRANCH  13  14
ATOM     14  C   UNL A   1      37.598  32.308  31.166  1.00  0.00     0.031 A 
ATOM     15  C   UNL A   1      38.074  32.685  32.538  1.00  0.00     0.074 A 
ATOM     16  C   UNL A   1      38.205  31.322  30.475  1.00  0.00     0.049 A 
ATOM     17  N   UNL A   1      39.068  32.182  33.227  1.00  0.00    -0.248 NA
ATOM     18  C   UNL A   1      37.352  33.765  33.227  1.00  0.00     0.031 C 
ATOM     19  C   UNL A   1      37.830  30.889  29.125  1.00  0.00     0.029 A 
ATOM     20  N   UNL A   1      39.249  30.499  30.806  1.00  0.00    -0.354 N 
ATOM     21  C   UNL A   1      39.101  32.893  34.420  1.00  0.00     0.074 A 
ATOM     22  C   UNL A   1      38.041  33.876  34.356  1.00  0.00     0.031 C 
ATOM     23  C   UNL A   1      38.604  29.858  28.761  1.00  0.00     0.029 A 
ATOM     24  C   UNL A   1      39.578  29.607  29.815  1.00  0.00     0.049 A 
ATOM     25  H   UNL A   1      39.719  30.544  31.671  1.00  0.00     0.167 HD
ATOM     26  C   UNL A   1      39.942  32.727  35.468  1.00  0.00     0.037 A 
ATOM     27  C   UNL A   1      40.575  28.707  29.746  1.00  0.00     0.037 A 
ATOM     28  C   UNL A   1      40.985  31.732  35.522  1.00  0.00     0.049 A 
ATOM     29  C   UNL A   1      41.511  28.580  30.914  1.00  0.00     0.074 A 
ATOM     30  C   UNL A   1      41.852  31.450  36.563  1.00  0.00     0.029 A 
ATOM     31  N   UNL A   1      41.308  30.864  34.488  1.00  0.00    -0.354 N 
ATOM     32  N   UNL A   1      41.494  29.216  32.060  1.00  0.00    -0.248 NA
ATOM     33  C   UNL A   1      42.608  27.614  30.778  1.00  0.00     0.031 C 
ATOM     34  C   UNL A   1      42.742  30.461  36.136  1.00  0.00     0.029 A 
ATOM     35  C   UNL A   1      42.388  30.075  34.854  1.00  0.00     0.049 A 
ATOM     36  H   UNL A   1      40.839  30.816  33.624  1.00  0.00     0.167 HD
ATOM     37  C   UNL A   1      42.562  28.714  32.789  1.00  0.00     0.074 A 
ATOM     38  C   UNL A   1      43.186  27.697  31.967  1.00  0.00     0.031 C 
ATOM     39  C   UNL A   1      42.995  29.067  34.023  1.00  0.00     0.037 A 
BRANCH  26  40
ATOM     40  C   UNL A   1      39.800  33.646  36.648  1.00  0.00     0.064 A 
ATOM     41  C   UNL A   1      40.406  34.910  36.680  1.00  0.00     0.173 A 
ATOM     42  C   UNL A   1      38.960  33.294  37.717  1.00  0.00     0.173 A 
ATOM     43  F   UNL A   1      41.225  35.291  35.688  1.00  0.00    -0.203 F 
ATOM     44  C   UNL A   1      40.182  35.784  37.741  1.00  0.00     0.198 A 
ATOM     45  C   UNL A   1      38.716  34.182  38.761  1.00  0.00     0.198 A 
ATOM     46  F   UNL A   1      38.350  32.100  37.733  1.00  0.00    -0.203 F 
ATOM     47  F   UNL A   1      40.790  36.979  37.762  1.00  0.00    -0.200 F 
ATOM     48  C   UNL A   1      39.329  35.426  38.773  1.00  0.00     0.200 A 
ATOM     49  F   UNL A   1      37.878  33.839  39.749  1.00  0.00    -0.200 F 
ATOM     50  F   UNL A   1      39.094  36.279  39.780  1.00  0.00    -0.200 F 
ENDBRANCH  26  40
BRANCH  27  51
ATOM     51  C   UNL A   1      40.763  27.889  28.519  1.00  0.00     0.064 A 
ATOM     52  C   UNL A   1      41.528  28.358  27.442  1.00  0.00     0.173 A 
ATOM     53  C   UNL A   1      40.155  26.631  28.386  1.00  0.00     0.173 A 
ATOM     54  F   UNL A   1      42.118  29.561  27.513  1.00  0.00    -0.203 F 
ATOM     55  C   UNL A   1      41.644  27.619  26.267  1.00  0.00     0.198 A 
ATOM     56  C   UNL A   1      40.305  25.875  27.225  1.00  0.00     0.198 A 
ATOM     57  F   UNL A   1      39.418  26.130  29.388  1.00  0.00    -0.203 F 
ATOM     58  F   UNL A   1      42.324  28.123  25.227  1.00  0.00    -0.200 F 
ATOM     59  C   UNL A   1      41.037  26.377  26.161  1.00  0.00     0.200 A 
ATOM     60  F   UNL A   1      39.734  24.667  27.138  1.00  0.00    -0.200 F 
ATOM     61  F   UNL A   1      41.146  25.669  25.029  1.00  0.00    -0.200 F 
ENDBRANCH  27  51
BRANCH  39  62
ATOM     62  C   UNL A   1      44.181  28.326  34.566  1.00  0.00     0.064 A 
ATOM     63  C   UNL A   1      45.489  28.808  34.405  1.00  0.00     0.173 A 
ATOM     64  C   UNL A   1      44.007  27.128  35.277  1.00  0.00     0.173 A 
ATOM     65  F   UNL A   1      45.711  29.939  33.717  1.00  0.00    -0.203 F 
ATOM     66  C   UNL A   1      46.579  28.102  34.903  1.00  0.00     0.198 A 
ATOM     67  C   UNL A   1      45.097  26.444  35.806  1.00  0.00     0.198 A 
ATOM     68  F   UNL A   1      42.778  26.626  35.465  1.00  0.00    -0.203 F 
ATOM     69  F   UNL A   1      47.822  28.550  34.683  1.00  0.00    -0.200 F 
ATOM     70  C   UNL A   1      46.382  26.926  35.610  1.00  0.00     0.200 A 
ATOM     71  F   UNL A   1      44.903  25.316  36.504  1.00  0.00    -0.200 F 
ATOM     72  F   UNL A   1      47.432  26.250  36.095  1.00  0.00    -0.200 F 
ENDBRANCH  39  62
ENDBRANCH  13  14
ENDBRANCH   6   8
ENDBRANCH   3   4
ENDBRANCH   2   3
ENDBRANCH   1   2
BRANCH   1  73
ATOM     73  N   UNL A   1      31.067  30.245  24.748  1.00  0.00    -0.354 N 
ATOM     74  C   UNL A   1      31.243  29.248  23.838  1.00  0.00     0.244 C 
ATOM     75  H   UNL A   1      30.460  30.963  24.456  1.00  0.00     0.163 HD
ATOM     76  O   UNL A   1      30.615  29.341  22.779  1.00  0.00    -0.273 OA
BRANCH  74  77
ATOM     77  C   UNL A   1      32.027  27.959  24.157  1.00  0.00     0.197 C 
BRANCH  77  78
ATOM     78  N   UNL A   1      31.433  26.728  23.620  1.00  0.00    -0.342 N 
ATOM     79  C   UNL A   1      31.345  25.481  24.148  1.00  0.00     0.226 C 
ATOM     80  H   UNL A   1      31.031  26.824  22.727  1.00  0.00     0.164 HD
ATOM     81  O   UNL A   1      30.644  24.659  23.562  1.00  0.00    -0.275 OA
BRANCH  79  82
ATOM     82  C   UNL A   1      32.178  25.117  25.352  1.00  0.00     0.107 C 
ATOM     83  C   UNL A   1      31.459  24.188  26.332  1.00  0.00     0.115 C 
ATOM     84  C   UNL A   1      33.369  24.285  24.890  1.00  0.00     0.133 C 
ATOM     85  C   UNL A   1      32.574  23.332  26.877  1.00  0.00     0.223 C 
ATOM     86  N   UNL A   1      33.665  23.462  26.034  1.00  0.00    -0.333 N 
ATOM     87  O   UNL A   1      32.512  22.631  27.869  1.00  0.00    -0.275 OA
BRANCH  86  88
ATOM     88  C   UNL A   1      34.888  22.662  26.153  1.00  0.00     0.234 C 
BRANCH  88  89
ATOM     89  C   UNL A   1      35.070  21.581  25.089  1.00  0.00     0.406 C 
ATOM     90  F   UNL A   1      33.870  21.093  24.690  1.00  0.00    -0.169 F 
ATOM     91  F   UNL A   1      35.679  22.088  23.991  1.00  0.00    -0.169 F 
ATOM     92  F   UNL A   1      35.810  20.544  25.531  1.00  0.00    -0.169 F 
ENDBRANCH  88  89
ENDBRANCH  86  88
ENDBRANCH  79  82
ENDBRANCH  77  78
BRANCH  77  93
ATOM     93  C   UNL A   1      33.486  28.138  23.697  1.00  0.00     0.191 C 
BRANCH  93  94
ATOM     94  O   UNL A   1      33.731  29.461  23.212  1.00  0.00    -0.394 OA
ATOM     95  H   UNL A   1      33.027  30.054  23.520  1.00  0.00     0.210 HD
ENDBRANCH  93  94
ENDBRANCH  77  93
ENDBRANCH  74  77
ENDBRANCH   1  73
TORSDOF 16
ENDMDL
MODEL 3
REMARK VINA RESULT:     -10.3      3.717     10.233
REMARK SMILES O=C(NCCCNC(=O)[C@H](CO)NC(=O)[C@H]1CC(=O)N(CC(F)(F)F)C1)c1ccc(-c2c3nc(c(-c4c(F)c(F)c(F)c(F)c4F)c4ccc([nH]4)c(-c4c(F)c(F)c(F)c(F)c4F)c4nc(c(-c5c(F)c(F)c(F)c(F)c5F)c5ccc2[nH]5)C=C4)C=C3)cc1
REMARK SMILES IDX 6 1 5 2 4 3 3 4 1 5 2 6 27 8 28 9 89 10 29 11 88 12 30 13
REMARK SMILES IDX 31 14 32 15 82 16 33 17 87 18 81 19 83 20 34 21 86 22 80 23
REMARK SMILES IDX 79 24 35 26 67 27 47 28 66 29 48 30 51 31 65 32 84 33 49 34
REMARK SMILES IDX 50 35 64 37 85 38 52 39 36 40 37 41 45 42 38 43 39 44 43 45
REMARK SMILES IDX 46 46 40 47 41 48 44 49 42 50 68 51 69 52 77 53 70 54 71 55
REMARK SMILES IDX 75 56 78 57 72 58 73 59 76 60 74 61 53 62 54 63 62 64 55 65
REMARK SMILES IDX 56 66 60 67 63 68 57 69 58 70 61 71 59 72 7 73 8 74 9 76
REMARK SMILES IDX 10 77 13 78 14 79 15 81 16 82 17 83 26 84 18 85 20 86 19 87
REMARK SMILES IDX 21 88 22 89 23 90 24 91 25 92 11 93 12 94
REMARK H PARENT 3 7 83 25 51 36 7 75 13 80 12 95
REMARK Flexibility Score: inf
ROOT
ATOM      1  C   UNL A   1      36.523  20.709  24.971  1.00  0.00     0.117 C 
ENDROOT
BRANCH   1   2
ATOM      2  C   UNL A   1      37.673  19.710  25.008  1.00  0.00     0.042 C 
BRANCH   2   3
ATOM      3  C   UNL A   1      38.899  20.254  25.735  1.00  0.00     0.118 C 
BRANCH   3   4
ATOM      4  N   UNL A   1      39.966  19.264  25.829  1.00  0.00    -0.352 N 
ATOM      5  O   UNL A   1      42.090  18.514  25.875  1.00  0.00    -0.269 OA
ATOM      6  C   UNL A   1      41.309  19.445  26.045  1.00  0.00     0.251 C 
ATOM      7  H   UNL A   1      39.680  18.329  25.723  1.00  0.00     0.163 HD
BRANCH   6   8
ATOM      8  C   UNL A   1      41.812  20.761  26.488  1.00  0.00     0.039 A 
ATOM      9  C   UNL A   1      42.156  21.733  25.548  1.00  0.00     0.014 A 
ATOM     10  C   UNL A   1      41.896  21.041  27.855  1.00  0.00     0.014 A 
ATOM     11  C   UNL A   1      42.698  22.939  25.968  1.00  0.00     0.010 A 
ATOM     12  C   UNL A   1      42.350  22.293  28.278  1.00  0.00     0.010 A 
ATOM     13  C   UNL A   1      42.763  23.248  27.336  1.00  0.00    -0.014 A 
BRANCH  13  14
ATOM     14  C   UNL A   1      43.145  24.623  27.739  1.00  0.00     0.031 A 
ATOM     15  C   UNL A   1      42.112  25.654  28.085  1.00  0.00     0.074 A 
ATOM     16  C   UNL A   1      44.459  24.918  27.804  1.00  0.00     0.049 A 
ATOM     17  N   UNL A   1      42.287  26.897  28.459  1.00  0.00    -0.248 NA
ATOM     18  C   UNL A   1      40.700  25.248  27.996  1.00  0.00     0.031 C 
ATOM     19  C   UNL A   1      45.546  23.991  27.472  1.00  0.00     0.029 A 
ATOM     20  N   UNL A   1      45.109  26.065  28.179  1.00  0.00    -0.354 N 
ATOM     21  C   UNL A   1      41.015  27.425  28.634  1.00  0.00     0.074 A 
ATOM     22  C   UNL A   1      40.073  26.376  28.307  1.00  0.00     0.031 C 
ATOM     23  C   UNL A   1      46.722  24.591  27.695  1.00  0.00     0.029 A 
ATOM     24  C   UNL A   1      46.476  25.966  28.110  1.00  0.00     0.049 A 
ATOM     25  H   UNL A   1      44.639  26.881  28.468  1.00  0.00     0.167 HD
ATOM     26  C   UNL A   1      40.676  28.673  29.036  1.00  0.00     0.037 A 
ATOM     27  C   UNL A   1      47.431  26.890  28.324  1.00  0.00     0.037 A 
ATOM     28  C   UNL A   1      41.628  29.703  29.372  1.00  0.00     0.049 A 
ATOM     29  C   UNL A   1      47.013  28.274  28.732  1.00  0.00     0.074 A 
ATOM     30  C   UNL A   1      41.382  30.981  29.843  1.00  0.00     0.029 A 
ATOM     31  N   UNL A   1      43.006  29.576  29.264  1.00  0.00    -0.354 N 
ATOM     32  N   UNL A   1      45.808  28.743  28.952  1.00  0.00    -0.248 NA
ATOM     33  C   UNL A   1      48.085  29.258  28.916  1.00  0.00     0.031 C 
ATOM     34  C   UNL A   1      42.604  31.650  29.955  1.00  0.00     0.029 A 
ATOM     35  C   UNL A   1      43.619  30.768  29.620  1.00  0.00     0.049 A 
ATOM     36  H   UNL A   1      43.477  28.761  28.977  1.00  0.00     0.167 HD
ATOM     37  C   UNL A   1      45.979  30.069  29.321  1.00  0.00     0.074 A 
ATOM     38  C   UNL A   1      47.406  30.320  29.324  1.00  0.00     0.031 C 
ATOM     39  C   UNL A   1      45.040  30.999  29.619  1.00  0.00     0.037 A 
BRANCH  26  40
ATOM     40  C   UNL A   1      39.217  29.022  29.123  1.00  0.00     0.064 A 
ATOM     41  C   UNL A   1      38.519  28.988  30.338  1.00  0.00     0.173 A 
ATOM     42  C   UNL A   1      38.538  29.495  27.988  1.00  0.00     0.173 A 
ATOM     43  F   UNL A   1      39.120  28.537  31.450  1.00  0.00    -0.203 F 
ATOM     44  C   UNL A   1      37.193  29.409  30.413  1.00  0.00     0.198 A 
ATOM     45  C   UNL A   1      37.222  29.941  28.074  1.00  0.00     0.198 A 
ATOM     46  F   UNL A   1      39.161  29.555  26.803  1.00  0.00    -0.203 F 
ATOM     47  F   UNL A   1      36.538  29.347  31.581  1.00  0.00    -0.200 F 
ATOM     48  C   UNL A   1      36.550  29.896  29.286  1.00  0.00     0.200 A 
ATOM     49  F   UNL A   1      36.609  30.427  26.986  1.00  0.00    -0.200 F 
ATOM     50  F   UNL A   1      35.283  30.324  29.366  1.00  0.00    -0.200 F 
ENDBRANCH  26  40
BRANCH  27  51
ATOM     51  C   UNL A   1      48.863  26.549  28.120  1.00  0.00     0.064 A 
ATOM     52  C   UNL A   1      49.702  26.253  29.203  1.00  0.00     0.173 A 
ATOM     53  C   UNL A   1      49.431  26.542  26.836  1.00  0.00     0.173 A 
ATOM     54  F   UNL A   1      49.212  26.261  30.451  1.00  0.00    -0.203 F 
ATOM     55  C   UNL A   1      51.059  26.004  29.013  1.00  0.00     0.198 A 
ATOM     56  C   UNL A   1      50.780  26.252  26.644  1.00  0.00     0.198 A 
ATOM     57  F   UNL A   1      48.672  26.810  25.763  1.00  0.00    -0.203 F 
ATOM     58  F   UNL A   1      51.852  25.793  30.073  1.00  0.00    -0.200 F 
ATOM     59  C   UNL A   1      51.596  25.998  27.734  1.00  0.00     0.200 A 
ATOM     60  F   UNL A   1      51.287  26.227  25.405  1.00  0.00    -0.200 F 
ATOM     61  F   UNL A   1      52.902  25.762  27.554  1.00  0.00    -0.200 F 
ENDBRANCH  27  51
BRANCH  39  62
ATOM     62  C   UNL A   1      45.533  32.364  30.004  1.00  0.00     0.064 A 
ATOM     63  C   UNL A   1      45.859  32.683  31.330  1.00  0.00     0.173 A 
ATOM     64  C   UNL A   1      45.703  33.359  29.029  1.00  0.00     0.173 A 
ATOM     65  F   UNL A   1      45.696  31.773  32.303  1.00  0.00    -0.203 F 
ATOM     66  C   UNL A   1      46.302  33.958  31.672  1.00  0.00     0.198 A 
ATOM     67  C   UNL A   1      46.183  34.620  29.368  1.00  0.00     0.198 A 
ATOM     68  F   UNL A   1      45.413  33.105  27.744  1.00  0.00    -0.203 F 
ATOM     69  F   UNL A   1      46.547  34.257  32.954  1.00  0.00    -0.200 F 
ATOM     70  C   UNL A   1      46.472  34.922  30.690  1.00  0.00     0.200 A 
ATOM     71  F   UNL A   1      46.361  35.546  28.415  1.00  0.00    -0.200 F 
ATOM     72  F   UNL A   1      46.904  36.146  31.019  1.00  0.00    -0.200 F 
ENDBRANCH  39  62
ENDBRANCH  13  14
ENDBRANCH   6   8
ENDBRANCH   3   4
ENDBRANCH   2   3
ENDBRANCH   1   2
BRANCH   1  73
ATOM     73  N   UNL A   1      35.253  20.050  25.213  1.00  0.00    -0.354 N 
ATOM     74  C   UNL A   1      34.078  20.531  25.701  1.00  0.00     0.244 C 
ATOM     75  H   UNL A   1      35.241  19.092  24.987  1.00  0.00     0.163 HD
ATOM     76  O   UNL A   1      33.137  19.734  25.780  1.00  0.00    -0.273 OA
BRANCH  74  77
ATOM     77  C   UNL A   1      33.839  22.030  25.971  1.00  0.00     0.197 C 
BRANCH  77  78
ATOM     78  N   UNL A   1      32.655  22.594  25.309  1.00  0.00    -0.342 N 
ATOM     79  C   UNL A   1      32.439  23.820  24.769  1.00  0.00     0.226 C 
ATOM     80  H   UNL A   1      31.889  21.978  25.248  1.00  0.00     0.164 HD
ATOM     81  O   UNL A   1      31.408  23.987  24.121  1.00  0.00    -0.275 OA
BRANCH  79  82
ATOM     82  C   UNL A   1      33.396  24.947  25.065  1.00  0.00     0.107 C 
ATOM     83  C   UNL A   1      33.527  25.951  23.917  1.00  0.00     0.115 C 
ATOM     84  C   UNL A   1      32.828  25.788  26.202  1.00  0.00     0.133 C 
ATOM     85  C   UNL A   1      33.745  27.263  24.630  1.00  0.00     0.223 C 
ATOM     86  N   UNL A   1      33.370  27.098  25.952  1.00  0.00    -0.333 N 
ATOM     87  O   UNL A   1      34.152  28.290  24.121  1.00  0.00    -0.275 OA
BRANCH  86  88
ATOM     88  C   UNL A   1      33.296  28.196  26.922  1.00  0.00     0.234 C 
BRANCH  88  89
ATOM     89  C   UNL A   1      31.918  28.837  27.083  1.00  0.00     0.406 C 
ATOM     90  F   UNL A   1      32.034  30.158  27.364  1.00  0.00    -0.169 F 
ATOM     91  F   UNL A   1      31.206  28.735  25.937  1.00  0.00    -0.169 F 
ATOM     92  F   UNL A   1      31.198  28.267  28.070  1.00  0.00    -0.169 F 
ENDBRANCH  88  89
ENDBRANCH  86  88
ENDBRANCH  79  82
ENDBRANCH  77  78
BRANCH  77  93
ATOM     93  C   UNL A   1      33.810  22.264  27.492  1.00  0.00     0.191 C 
BRANCH  93  94
ATOM     94  O   UNL A   1      32.490  22.125  28.026  1.00  0.00    -0.394 OA
ATOM     95  H   UNL A   1      31.840  22.251  27.317  1.00  0.00     0.210 HD
ENDBRANCH  93  94
ENDBRANCH  77  93
ENDBRANCH  74  77
ENDBRANCH   1  73
TORSDOF 16
ENDMDL
