MODEL 1
REMARK VINA RESULT:     -12.0      0.000      0.000
REMARK SMILES N#Cc1ccccc1Cn1cccc1C(=O)NCCCNC(=O)c1ccc(-c2c3nc(c(-c4c(F)c(F)c(F)c(F)c4F)c4ccc([nH]4)c(-c4c(F)c(F)c(F)c(F)c4F)c4nc(c(-c5c(F)c(F)c(F)c(F)c5F)c5ccc2[nH]5)C=C4)C=C3)cc1
REMARK SMILES IDX 18 1 17 2 15 3 16 4 14 6 10 7 11 8 12 9 13 10 9 11 8 12 3 13
REMARK SMILES IDX 4 14 5 15 7 16 6 17 2 18 1 19 19 20 20 21 21 22 22 23 23 25
REMARK SMILES IDX 24 26 25 27 86 28 26 29 85 30 27 31 28 32 29 33 79 34 30 35
REMARK SMILES IDX 84 36 78 37 80 38 31 39 83 40 77 41 76 42 32 44 64 45 44 46
REMARK SMILES IDX 63 47 45 48 48 49 62 50 81 51 46 52 47 53 61 55 82 56 49 57
REMARK SMILES IDX 33 58 34 59 42 60 35 61 36 62 40 63 43 64 37 65 38 66 41 67
REMARK SMILES IDX 39 68 65 69 66 70 74 71 67 72 68 73 72 74 75 75 69 76 70 77
REMARK SMILES IDX 73 78 71 79 50 80 51 81 59 82 52 83 53 84 57 85 60 86 54 87
REMARK SMILES IDX 55 88 58 89 56 90
REMARK H PARENT 17 5 21 24 80 43 48 54
REMARK Flexibility Score: inf
ROOT
ATOM      1  C   UNL A   1      37.424  30.042  32.760  1.00  0.00     0.118 C 
ENDROOT
BRANCH   1   2
ATOM      2  N   UNL A   1      37.368  30.797  34.002  1.00  0.00    -0.351 N 
ATOM      3  C   UNL A   1      37.465  32.130  34.318  1.00  0.00     0.267 C 
ATOM      4  O   UNL A   1      37.270  32.391  35.508  1.00  0.00    -0.268 OA
ATOM      5  H   UNL A   1      37.228  30.226  34.791  1.00  0.00     0.163 HD
BRANCH   3   6
ATOM      6  C   UNL A   1      37.680  33.191  33.339  1.00  0.00     0.107 A 
ATOM      7  N   UNL A   1      36.794  34.025  32.654  1.00  0.00    -0.339 N 
ATOM      8  C   UNL A   1      37.499  34.949  31.927  1.00  0.00     0.086 A 
ATOM      9  C   UNL A   1      38.817  34.567  31.917  1.00  0.00     0.020 A 
ATOM     10  C   UNL A   1      38.926  33.454  32.773  1.00  0.00     0.033 A 
BRANCH   7  11
ATOM     11  C   UNL A   1      35.340  33.977  32.780  1.00  0.00     0.159 C 
BRANCH  11  12
ATOM     12  C   UNL A   1      34.439  34.508  31.684  1.00  0.00    -0.010 A 
ATOM     13  C   UNL A   1      33.805  35.775  31.796  1.00  0.00     0.057 A 
ATOM     14  C   UNL A   1      33.141  36.341  30.698  1.00  0.00     0.020 A 
ATOM     15  C   UNL A   1      33.079  35.661  29.487  1.00  0.00     0.001 A 
ATOM     16  C   UNL A   1      34.374  33.853  30.444  1.00  0.00     0.007 A 
ATOM     17  C   UNL A   1      33.687  34.416  29.365  1.00  0.00     0.000 A 
BRANCH  13  18
ATOM     18  C   UNL A   1      33.848  36.585  32.995  1.00  0.00     0.099 C 
ATOM     19  N   UNL A   1      33.916  37.246  33.932  1.00  0.00    -0.192 NA
ENDBRANCH  13  18
ENDBRANCH  11  12
ENDBRANCH   7  11
ENDBRANCH   3   6
ENDBRANCH   1   2
BRANCH   1  20
ATOM     20  C   UNL A   1      36.153  30.235  31.930  1.00  0.00     0.042 C 
BRANCH  20  21
ATOM     21  C   UNL A   1      36.351  31.010  30.655  1.00  0.00     0.118 C 
BRANCH  21  22
ATOM     22  N   UNL A   1      35.727  30.393  29.515  1.00  0.00    -0.352 N 
ATOM     23  C   UNL A   1      36.325  29.679  28.510  1.00  0.00     0.251 C 
ATOM     24  H   UNL A   1      34.751  30.496  29.450  1.00  0.00     0.163 HD
ATOM     25  O   UNL A   1      35.668  29.442  27.498  1.00  0.00    -0.269 OA
BRANCH  23  26
ATOM     26  C   UNL A   1      37.718  29.157  28.627  1.00  0.00     0.039 A 
ATOM     27  C   UNL A   1      38.620  29.520  27.617  1.00  0.00     0.014 A 
ATOM     28  C   UNL A   1      38.135  28.260  29.622  1.00  0.00     0.014 A 
ATOM     29  C   UNL A   1      39.891  28.964  27.587  1.00  0.00     0.010 A 
ATOM     30  C   UNL A   1      39.403  27.728  29.623  1.00  0.00     0.010 A 
ATOM     31  C   UNL A   1      40.260  28.060  28.587  1.00  0.00    -0.014 A 
BRANCH  31  32
ATOM     32  C   UNL A   1      41.615  27.514  28.629  1.00  0.00     0.031 A 
ATOM     33  C   UNL A   1      41.604  26.073  28.080  1.00  0.00     0.074 A 
ATOM     34  C   UNL A   1      42.550  28.370  29.152  1.00  0.00     0.049 A 
ATOM     35  N   UNL A   1      42.247  25.022  28.478  1.00  0.00    -0.248 NA
ATOM     36  C   UNL A   1      40.654  25.720  26.982  1.00  0.00     0.031 C 
ATOM     37  C   UNL A   1      42.311  29.797  29.502  1.00  0.00     0.029 A 
ATOM     38  N   UNL A   1      43.876  28.249  29.495  1.00  0.00    -0.354 N 
ATOM     39  C   UNL A   1      41.937  23.958  27.597  1.00  0.00     0.074 A 
ATOM     40  C   UNL A   1      40.851  24.412  26.786  1.00  0.00     0.031 C 
ATOM     41  C   UNL A   1      43.393  30.348  30.095  1.00  0.00     0.029 A 
ATOM     42  C   UNL A   1      44.432  29.348  30.213  1.00  0.00     0.049 A 
ATOM     43  H   UNL A   1      44.407  27.454  29.261  1.00  0.00     0.167 HD
ATOM     44  C   UNL A   1      42.712  22.833  27.504  1.00  0.00     0.037 A 
ATOM     45  C   UNL A   1      45.602  29.394  30.927  1.00  0.00     0.037 A 
ATOM     46  C   UNL A   1      43.790  22.938  28.428  1.00  0.00     0.049 A 
ATOM     47  C   UNL A   1      46.183  28.061  30.720  1.00  0.00     0.074 A 
ATOM     48  C   UNL A   1      43.834  22.846  29.794  1.00  0.00     0.029 A 
ATOM     49  N   UNL A   1      44.907  23.602  27.981  1.00  0.00    -0.354 N 
ATOM     50  N   UNL A   1      46.718  27.648  29.612  1.00  0.00    -0.248 NA
ATOM     51  C   UNL A   1      45.984  27.057  31.773  1.00  0.00     0.031 C 
ATOM     52  C   UNL A   1      44.681  23.918  30.146  1.00  0.00     0.029 A 
ATOM     53  C   UNL A   1      45.345  24.396  29.010  1.00  0.00     0.049 A 
ATOM     54  H   UNL A   1      45.317  23.523  27.089  1.00  0.00     0.167 HD
ATOM     55  C   UNL A   1      46.610  26.283  29.731  1.00  0.00     0.074 A 
ATOM     56  C   UNL A   1      46.460  25.992  31.140  1.00  0.00     0.031 C 
ATOM     57  C   UNL A   1      46.150  25.547  28.688  1.00  0.00     0.037 A 
BRANCH  44  58
ATOM     58  C   UNL A   1      42.808  21.721  26.494  1.00  0.00     0.064 A 
ATOM     59  C   UNL A   1      42.260  20.458  26.847  1.00  0.00     0.173 A 
ATOM     60  C   UNL A   1      43.699  21.722  25.416  1.00  0.00     0.173 A 
ATOM     61  F   UNL A   1      41.345  20.352  27.825  1.00  0.00    -0.203 F 
ATOM     62  C   UNL A   1      42.707  19.269  26.277  1.00  0.00     0.198 A 
ATOM     63  C   UNL A   1      44.104  20.528  24.807  1.00  0.00     0.198 A 
ATOM     64  F   UNL A   1      44.275  22.853  24.994  1.00  0.00    -0.203 F 
ATOM     65  F   UNL A   1      42.280  18.092  26.759  1.00  0.00    -0.200 F 
ATOM     66  C   UNL A   1      43.648  19.304  25.269  1.00  0.00     0.200 A 
ATOM     67  F   UNL A   1      45.008  20.565  23.819  1.00  0.00    -0.200 F 
ATOM     68  F   UNL A   1      44.139  18.163  24.765  1.00  0.00    -0.200 F 
ENDBRANCH  44  58
BRANCH  45  69
ATOM     69  C   UNL A   1      46.291  30.283  31.944  1.00  0.00     0.064 A 
ATOM     70  C   UNL A   1      47.549  30.882  31.812  1.00  0.00     0.173 A 
ATOM     71  C   UNL A   1      45.608  30.639  33.146  1.00  0.00     0.173 A 
ATOM     72  F   UNL A   1      48.374  30.533  30.818  1.00  0.00    -0.203 F 
ATOM     73  C   UNL A   1      48.012  31.854  32.726  1.00  0.00     0.198 A 
ATOM     74  C   UNL A   1      46.033  31.644  34.015  1.00  0.00     0.198 A 
ATOM     75  F   UNL A   1      44.483  30.020  33.527  1.00  0.00    -0.203 F 
ATOM     76  F   UNL A   1      49.223  32.405  32.557  1.00  0.00    -0.200 F 
ATOM     77  C   UNL A   1      47.233  32.270  33.794  1.00  0.00     0.200 A 
ATOM     78  F   UNL A   1      45.256  32.002  35.048  1.00  0.00    -0.200 F 
ATOM     79  F   UNL A   1      47.640  33.249  34.612  1.00  0.00    -0.200 F 
ENDBRANCH  45  69
BRANCH  57  80
ATOM     80  C   UNL A   1      46.264  26.228  27.335  1.00  0.00     0.064 A 
ATOM     81  C   UNL A   1      47.534  26.541  26.827  1.00  0.00     0.173 A 
ATOM     82  C   UNL A   1      45.172  26.687  26.577  1.00  0.00     0.173 A 
ATOM     83  F   UNL A   1      48.631  26.125  27.477  1.00  0.00    -0.203 F 
ATOM     84  C   UNL A   1      47.698  27.276  25.649  1.00  0.00     0.198 A 
ATOM     85  C   UNL A   1      45.331  27.421  25.397  1.00  0.00     0.198 A 
ATOM     86  F   UNL A   1      43.923  26.434  26.962  1.00  0.00    -0.203 F 
ATOM     87  F   UNL A   1      48.931  27.549  25.202  1.00  0.00    -0.200 F 
ATOM     88  C   UNL A   1      46.598  27.718  24.935  1.00  0.00     0.200 A 
ATOM     89  F   UNL A   1      44.254  27.832  24.709  1.00  0.00    -0.200 F 
ATOM     90  F   UNL A   1      46.758  28.412  23.799  1.00  0.00    -0.200 F 
ENDBRANCH  57  80
ENDBRANCH  31  32
ENDBRANCH  23  26
ENDBRANCH  21  22
ENDBRANCH  20  21
ENDBRANCH   1  20
TORSDOF 13
ENDMDL
MODEL 2
REMARK VINA RESULT:     -11.9      4.304      9.451
REMARK SMILES N#Cc1ccccc1Cn1cccc1C(=O)NCCCNC(=O)c1ccc(-c2c3nc(c(-c4c(F)c(F)c(F)c(F)c4F)c4ccc([nH]4)c(-c4c(F)c(F)c(F)c(F)c4F)c4nc(c(-c5c(F)c(F)c(F)c(F)c5F)c5ccc2[nH]5)C=C4)C=C3)cc1
REMARK SMILES IDX 18 1 17 2 15 3 16 4 14 6 10 7 11 8 12 9 13 10 9 11 8 12 3 13
REMARK SMILES IDX 4 14 5 15 7 16 6 17 2 18 1 19 19 20 20 21 21 22 22 23 23 25
REMARK SMILES IDX 24 26 25 27 86 28 26 29 85 30 27 31 28 32 29 33 79 34 30 35
REMARK SMILES IDX 84 36 78 37 80 38 31 39 83 40 77 41 76 42 32 44 64 45 44 46
REMARK SMILES IDX 63 47 45 48 48 49 62 50 81 51 46 52 47 53 61 55 82 56 49 57
REMARK SMILES IDX 33 58 34 59 42 60 35 61 36 62 40 63 43 64 37 65 38 66 41 67
REMARK SMILES IDX 39 68 65 69 66 70 74 71 67 72 68 73 72 74 75 75 69 76 70 77
REMARK SMILES IDX 73 78 71 79 50 80 51 81 59 82 52 83 53 84 57 85 60 86 54 87
REMARK SMILES IDX 55 88 58 89 56 90
REMARK H PARENT 17 5 21 24 80 43 48 54
REMARK Flexibility Score: inf
ROOT
ATOM      1  C   UNL A   1      36.616  20.471  25.041  1.00  0.00     0.118 C 
ENDROOT
BRANCH   1   2
ATOM      2  N   UNL A   1      36.859  21.905  25.019  1.00  0.00    -0.351 N 
ATOM      3  C   UNL A   1      36.146  23.003  25.431  1.00  0.00     0.267 C 
ATOM      4  O   UNL A   1      36.746  24.076  25.320  1.00  0.00    -0.268 OA
ATOM      5  H   UNL A   1      37.729  22.140  24.623  1.00  0.00     0.163 HD
BRANCH   3   6
ATOM      6  C   UNL A   1      34.823  22.940  26.045  1.00  0.00     0.107 A 
ATOM      7  N   UNL A   1      33.610  23.549  25.716  1.00  0.00    -0.339 N 
ATOM      8  C   UNL A   1      32.619  23.075  26.537  1.00  0.00     0.086 A 
ATOM      9  C   UNL A   1      33.211  22.374  27.558  1.00  0.00     0.020 A 
ATOM     10  C   UNL A   1      34.588  22.316  27.268  1.00  0.00     0.033 A 
BRANCH   7  11
ATOM     11  C   UNL A   1      33.416  24.470  24.600  1.00  0.00     0.159 C 
BRANCH  11  12
ATOM     12  C   UNL A   1      33.681  25.954  24.751  1.00  0.00    -0.010 A 
ATOM     13  C   UNL A   1      33.620  26.835  23.638  1.00  0.00     0.057 A 
ATOM     14  C   UNL A   1      33.668  28.223  23.822  1.00  0.00     0.020 A 
ATOM     15  C   UNL A   1      33.793  28.759  25.098  1.00  0.00     0.001 A 
ATOM     16  C   UNL A   1      33.790  26.525  26.029  1.00  0.00     0.007 A 
ATOM     17  C   UNL A   1      33.863  27.911  26.198  1.00  0.00     0.000 A 
BRANCH  13  18
ATOM     18  C   UNL A   1      33.445  26.383  22.274  1.00  0.00     0.099 C 
ATOM     19  N   UNL A   1      33.344  26.009  21.192  1.00  0.00    -0.192 NA
ENDBRANCH  13  18
ENDBRANCH  11  12
ENDBRANCH   7  11
ENDBRANCH   3   6
ENDBRANCH   1   2
BRANCH   1  20
ATOM     20  C   UNL A   1      37.918  19.681  24.884  1.00  0.00     0.042 C 
BRANCH  20  21
ATOM     21  C   UNL A   1      39.027  20.114  25.805  1.00  0.00     0.118 C 
BRANCH  21  22
ATOM     22  N   UNL A   1      40.063  19.126  25.946  1.00  0.00    -0.352 N 
ATOM     23  C   UNL A   1      41.413  19.331  26.060  1.00  0.00     0.251 C 
ATOM     24  H   UNL A   1      39.765  18.189  25.964  1.00  0.00     0.163 HD
ATOM     25  O   UNL A   1      42.159  18.362  25.922  1.00  0.00    -0.269 OA
BRANCH  23  26
ATOM     26  C   UNL A   1      41.990  20.669  26.378  1.00  0.00     0.039 A 
ATOM     27  C   UNL A   1      42.139  20.991  27.734  1.00  0.00     0.014 A 
ATOM     28  C   UNL A   1      42.290  21.640  25.411  1.00  0.00     0.014 A 
ATOM     29  C   UNL A   1      42.540  22.267  28.105  1.00  0.00     0.010 A 
ATOM     30  C   UNL A   1      42.722  22.897  25.765  1.00  0.00     0.010 A 
ATOM     31  C   UNL A   1      42.812  23.210  27.110  1.00  0.00    -0.014 A 
BRANCH  31  32
ATOM     32  C   UNL A   1      43.310  24.538  27.464  1.00  0.00     0.031 A 
ATOM     33  C   UNL A   1      42.116  25.474  27.741  1.00  0.00     0.074 A 
ATOM     34  C   UNL A   1      44.676  24.649  27.445  1.00  0.00     0.049 A 
ATOM     35  N   UNL A   1      41.944  26.721  27.436  1.00  0.00    -0.248 NA
ATOM     36  C   UNL A   1      40.879  24.912  28.365  1.00  0.00     0.031 C 
ATOM     37  C   UNL A   1      45.631  23.522  27.260  1.00  0.00     0.029 A 
ATOM     38  N   UNL A   1      45.555  25.699  27.576  1.00  0.00    -0.354 N 
ATOM     39  C   UNL A   1      40.702  27.136  27.974  1.00  0.00     0.074 A 
ATOM     40  C   UNL A   1      40.037  25.949  28.411  1.00  0.00     0.031 C 
ATOM     41  C   UNL A   1      46.906  23.962  27.180  1.00  0.00     0.029 A 
ATOM     42  C   UNL A   1      46.918  25.405  27.281  1.00  0.00     0.049 A 
ATOM     43  H   UNL A   1      45.261  26.596  27.855  1.00  0.00     0.167 HD
ATOM     44  C   UNL A   1      40.386  28.456  28.157  1.00  0.00     0.037 A 
ATOM     45  C   UNL A   1      47.946  26.282  27.042  1.00  0.00     0.037 A 
ATOM     46  C   UNL A   1      41.471  29.257  27.701  1.00  0.00     0.049 A 
ATOM     47  C   UNL A   1      47.323  27.599  27.229  1.00  0.00     0.074 A 
ATOM     48  C   UNL A   1      41.925  29.548  26.442  1.00  0.00     0.029 A 
ATOM     49  N   UNL A   1      42.473  29.492  28.610  1.00  0.00    -0.354 N 
ATOM     50  N   UNL A   1      46.981  28.103  28.376  1.00  0.00    -0.248 NA
ATOM     51  C   UNL A   1      46.885  28.325  26.031  1.00  0.00     0.031 C 
ATOM     52  C   UNL A   1      43.322  29.422  26.583  1.00  0.00     0.029 A 
ATOM     53  C   UNL A   1      43.665  29.378  27.939  1.00  0.00     0.049 A 
ATOM     54  H   UNL A   1      42.359  29.703  29.565  1.00  0.00     0.167 HD
ATOM     55  C   UNL A   1      46.019  29.014  28.015  1.00  0.00     0.074 A 
ATOM     56  C   UNL A   1      46.228  29.319  26.617  1.00  0.00     0.031 C 
ATOM     57  C   UNL A   1      44.848  29.070  28.700  1.00  0.00     0.037 A 
BRANCH  44  58
ATOM     58  C   UNL A   1      39.321  29.167  28.949  1.00  0.00     0.064 A 
ATOM     59  C   UNL A   1      39.348  29.031  30.364  1.00  0.00     0.173 A 
ATOM     60  C   UNL A   1      38.120  29.629  28.401  1.00  0.00     0.173 A 
ATOM     61  F   UNL A   1      40.472  28.658  30.999  1.00  0.00    -0.203 F 
ATOM     62  C   UNL A   1      38.206  29.180  31.146  1.00  0.00     0.198 A 
ATOM     63  C   UNL A   1      36.988  29.831  29.199  1.00  0.00     0.198 A 
ATOM     64  F   UNL A   1      37.979  29.796  27.082  1.00  0.00    -0.203 F 
ATOM     65  F   UNL A   1      38.246  28.881  32.453  1.00  0.00    -0.200 F 
ATOM     66  C   UNL A   1      37.018  29.560  30.558  1.00  0.00     0.200 A 
ATOM     67  F   UNL A   1      35.837  30.213  28.629  1.00  0.00    -0.200 F 
ATOM     68  F   UNL A   1      35.897  29.633  31.290  1.00  0.00    -0.200 F 
ENDBRANCH  44  58
BRANCH  45  69
ATOM     69  C   UNL A   1      49.356  26.271  26.485  1.00  0.00     0.064 A 
ATOM     70  C   UNL A   1      49.722  26.389  25.139  1.00  0.00     0.173 A 
ATOM     71  C   UNL A   1      50.467  26.209  27.380  1.00  0.00     0.173 A 
ATOM     72  F   UNL A   1      48.804  26.309  24.169  1.00  0.00    -0.203 F 
ATOM     73  C   UNL A   1      51.066  26.572  24.744  1.00  0.00     0.198 A 
ATOM     74  C   UNL A   1      51.787  26.453  27.000  1.00  0.00     0.198 A 
ATOM     75  F   UNL A   1      50.312  25.908  28.676  1.00  0.00    -0.203 F 
ATOM     76  F   UNL A   1      51.369  26.686  23.444  1.00  0.00    -0.200 F 
ATOM     77  C   UNL A   1      52.087  26.655  25.678  1.00  0.00     0.200 A 
ATOM     78  F   UNL A   1      52.747  26.505  27.934  1.00  0.00    -0.200 F 
ATOM     79  F   UNL A   1      53.349  26.910  25.307  1.00  0.00    -0.200 F 
ENDBRANCH  45  69
BRANCH  57  80
ATOM     80  C   UNL A   1      44.904  28.472  30.095  1.00  0.00     0.064 A 
ATOM     81  C   UNL A   1      45.698  29.084  31.076  1.00  0.00     0.173 A 
ATOM     82  C   UNL A   1      44.301  27.257  30.468  1.00  0.00     0.173 A 
ATOM     83  F   UNL A   1      46.297  30.255  30.810  1.00  0.00    -0.203 F 
ATOM     84  C   UNL A   1      45.887  28.512  32.337  1.00  0.00     0.198 A 
ATOM     85  C   UNL A   1      44.484  26.682  31.730  1.00  0.00     0.198 A 
ATOM     86  F   UNL A   1      43.516  26.599  29.619  1.00  0.00    -0.203 F 
ATOM     87  F   UNL A   1      46.654  29.136  33.242  1.00  0.00    -0.200 F 
ATOM     88  C   UNL A   1      45.283  27.311  32.665  1.00  0.00     0.200 A 
ATOM     89  F   UNL A   1      43.881  25.523  32.037  1.00  0.00    -0.200 F 
ATOM     90  F   UNL A   1      45.455  26.771  33.880  1.00  0.00    -0.200 F 
ENDBRANCH  57  80
ENDBRANCH  31  32
ENDBRANCH  23  26
ENDBRANCH  21  22
ENDBRANCH  20  21
ENDBRANCH   1  20
TORSDOF 13
ENDMDL
MODEL 3
REMARK VINA RESULT:     -11.8      4.343     11.232
REMARK SMILES N#Cc1ccccc1Cn1cccc1C(=O)NCCCNC(=O)c1ccc(-c2c3nc(c(-c4c(F)c(F)c(F)c(F)c4F)c4ccc([nH]4)c(-c4c(F)c(F)c(F)c(F)c4F)c4nc(c(-c5c(F)c(F)c(F)c(F)c5F)c5ccc2[nH]5)C=C4)C=C3)cc1
REMARK SMILES IDX 18 1 17 2 15 3 16 4 14 6 10 7 11 8 12 9 13 10 9 11 8 12 3 13
REMARK SMILES IDX 4 14 5 15 7 16 6 17 2 18 1 19 19 20 20 21 21 22 22 23 23 25
REMARK SMILES IDX 24 26 25 27 86 28 26 29 85 30 27 31 28 32 29 33 79 34 30 35
REMARK SMILES IDX 84 36 78 37 80 38 31 39 83 40 77 41 76 42 32 44 64 45 44 46
REMARK SMILES IDX 63 47 45 48 48 49 62 50 81 51 46 52 47 53 61 55 82 56 49 57
REMARK SMILES IDX 33 58 34 59 42 60 35 61 36 62 40 63 43 64 37 65 38 66 41 67
REMARK SMILES IDX 39 68 65 69 66 70 74 71 67 72 68 73 72 74 75 75 69 76 70 77
REMARK SMILES IDX 73 78 71 79 50 80 51 81 59 82 52 83 53 84 57 85 60 86 54 87
REMARK SMILES IDX 55 88 58 89 56 90
REMARK H PARENT 17 5 21 24 80 43 48 54
REMARK Flexibility Score: inf
ROOT
ATOM      1  C   UNL A   1      43.441  22.259  25.964  1.00  0.00     0.118 C 
ENDROOT
BRANCH   1   2
ATOM      2  N   UNL A   1      44.854  22.600  26.021  1.00  0.00    -0.351 N 
ATOM      3  C   UNL A   1      45.613  23.406  26.832  1.00  0.00     0.267 C 
ATOM      4  O   UNL A   1      46.826  23.361  26.611  1.00  0.00    -0.268 OA
ATOM      5  H   UNL A   1      45.384  22.152  25.323  1.00  0.00     0.163 HD
BRANCH   3   6
ATOM      6  C   UNL A   1      45.078  24.192  27.941  1.00  0.00     0.107 A 
ATOM      7  N   UNL A   1      44.922  25.568  28.121  1.00  0.00    -0.339 N 
ATOM      8  C   UNL A   1      44.254  25.806  29.295  1.00  0.00     0.086 A 
ATOM      9  C   UNL A   1      44.207  24.632  30.004  1.00  0.00     0.020 A 
ATOM     10  C   UNL A   1      44.748  23.631  29.172  1.00  0.00     0.033 A 
BRANCH   7  11
ATOM     11  C   UNL A   1      45.322  26.586  27.154  1.00  0.00     0.159 C 
BRANCH  11  12
ATOM     12  C   UNL A   1      44.825  28.012  27.262  1.00  0.00    -0.010 A 
ATOM     13  C   UNL A   1      43.695  28.460  26.525  1.00  0.00     0.057 A 
ATOM     14  C   UNL A   1      43.125  29.714  26.785  1.00  0.00     0.020 A 
ATOM     15  C   UNL A   1      43.668  30.546  27.757  1.00  0.00     0.001 A 
ATOM     16  C   UNL A   1      45.340  28.866  28.249  1.00  0.00     0.007 A 
ATOM     17  C   UNL A   1      44.779  30.126  28.481  1.00  0.00     0.000 A 
BRANCH  13  18
ATOM     18  C   UNL A   1      43.026  27.656  25.525  1.00  0.00     0.099 C 
ATOM     19  N   UNL A   1      42.479  27.051  24.714  1.00  0.00    -0.192 NA
ENDBRANCH  13  18
ENDBRANCH  11  12
ENDBRANCH   7  11
ENDBRANCH   3   6
ENDBRANCH   1   2
BRANCH   1  20
ATOM     20  C   UNL A   1      42.603  23.435  25.457  1.00  0.00     0.042 C 
BRANCH  20  21
ATOM     21  C   UNL A   1      41.746  24.091  26.507  1.00  0.00     0.118 C 
BRANCH  21  22
ATOM     22  N   UNL A   1      40.338  23.983  26.237  1.00  0.00    -0.352 N 
ATOM     23  C   UNL A   1      39.312  24.689  26.809  1.00  0.00     0.251 C 
ATOM     24  H   UNL A   1      40.079  23.320  25.557  1.00  0.00     0.163 HD
ATOM     25  O   UNL A   1      38.163  24.287  26.632  1.00  0.00    -0.269 OA
BRANCH  23  26
ATOM     26  C   UNL A   1      39.548  25.935  27.595  1.00  0.00     0.039 A 
ATOM     27  C   UNL A   1      39.236  25.892  28.962  1.00  0.00     0.014 A 
ATOM     28  C   UNL A   1      39.964  27.149  27.030  1.00  0.00     0.014 A 
ATOM     29  C   UNL A   1      39.301  27.050  29.726  1.00  0.00     0.010 A 
ATOM     30  C   UNL A   1      40.065  28.295  27.783  1.00  0.00     0.010 A 
ATOM     31  C   UNL A   1      39.703  28.243  29.118  1.00  0.00    -0.014 A 
BRANCH  31  32
ATOM     32  C   UNL A   1      39.855  29.462  29.909  1.00  0.00     0.031 A 
ATOM     33  C   UNL A   1      38.594  30.335  29.752  1.00  0.00     0.074 A 
ATOM     34  C   UNL A   1      41.054  29.558  30.567  1.00  0.00     0.049 A 
ATOM     35  N   UNL A   1      38.475  31.620  29.643  1.00  0.00    -0.248 NA
ATOM     36  C   UNL A   1      37.264  29.671  29.590  1.00  0.00     0.031 C 
ATOM     37  C   UNL A   1      42.079  28.482  30.653  1.00  0.00     0.029 A 
ATOM     38  N   UNL A   1      41.671  30.547  31.298  1.00  0.00    -0.354 N 
ATOM     39  C   UNL A   1      37.095  31.930  29.588  1.00  0.00     0.074 A 
ATOM     40  C   UNL A   1      36.411  30.686  29.421  1.00  0.00     0.031 C 
ATOM     41  C   UNL A   1      43.197  28.913  31.277  1.00  0.00     0.029 A 
ATOM     42  C   UNL A   1      43.032  30.304  31.641  1.00  0.00     0.049 A 
ATOM     43  H   UNL A   1      41.202  31.370  31.566  1.00  0.00     0.167 HD
ATOM     44  C   UNL A   1      36.614  33.186  29.842  1.00  0.00     0.037 A 
ATOM     45  C   UNL A   1      43.970  31.198  32.093  1.00  0.00     0.037 A 
ATOM     46  C   UNL A   1      37.710  34.052  30.121  1.00  0.00     0.049 A 
ATOM     47  C   UNL A   1      43.218  32.455  32.203  1.00  0.00     0.074 A 
ATOM     48  C   UNL A   1      38.675  34.592  29.312  1.00  0.00     0.029 A 
ATOM     49  N   UNL A   1      38.142  34.080  31.425  1.00  0.00    -0.354 N 
ATOM     50  N   UNL A   1      42.334  32.714  33.119  1.00  0.00    -0.248 NA
ATOM     51  C   UNL A   1      43.333  33.420  31.103  1.00  0.00     0.031 C 
ATOM     52  C   UNL A   1      39.847  34.422  30.078  1.00  0.00     0.029 A 
ATOM     53  C   UNL A   1      39.514  34.093  31.397  1.00  0.00     0.049 A 
ATOM     54  H   UNL A   1      37.574  34.090  32.229  1.00  0.00     0.167 HD
ATOM     55  C   UNL A   1      41.578  33.692  32.520  1.00  0.00     0.074 A 
ATOM     56  C   UNL A   1      42.392  34.278  31.478  1.00  0.00     0.031 C 
ATOM     57  C   UNL A   1      40.223  33.619  32.558  1.00  0.00     0.037 A 
BRANCH  44  58
ATOM     58  C   UNL A   1      35.243  33.730  30.147  1.00  0.00     0.064 A 
ATOM     59  C   UNL A   1      34.586  34.472  29.128  1.00  0.00     0.173 A 
ATOM     60  C   UNL A   1      34.735  33.883  31.441  1.00  0.00     0.173 A 
ATOM     61  F   UNL A   1      34.951  34.349  27.841  1.00  0.00    -0.203 F 
ATOM     62  C   UNL A   1      33.611  35.424  29.415  1.00  0.00     0.198 A 
ATOM     63  C   UNL A   1      33.715  34.801  31.717  1.00  0.00     0.198 A 
ATOM     64  F   UNL A   1      35.274  33.233  32.478  1.00  0.00    -0.203 F 
ATOM     65  F   UNL A   1      33.138  36.214  28.439  1.00  0.00    -0.200 F 
ATOM     66  C   UNL A   1      33.190  35.603  30.716  1.00  0.00     0.200 A 
ATOM     67  F   UNL A   1      33.298  34.965  32.980  1.00  0.00    -0.200 F 
ATOM     68  F   UNL A   1      32.307  36.567  31.012  1.00  0.00    -0.200 F 
ENDBRANCH  44  58
BRANCH  45  69
ATOM     69  C   UNL A   1      45.471  31.286  32.288  1.00  0.00     0.064 A 
ATOM     70  C   UNL A   1      46.388  31.907  31.431  1.00  0.00     0.173 A 
ATOM     71  C   UNL A   1      46.059  30.764  33.479  1.00  0.00     0.173 A 
ATOM     72  F   UNL A   1      46.021  32.311  30.210  1.00  0.00    -0.203 F 
ATOM     73  C   UNL A   1      47.735  32.110  31.802  1.00  0.00     0.198 A 
ATOM     74  C   UNL A   1      47.371  31.020  33.876  1.00  0.00     0.198 A 
ATOM     75  F   UNL A   1      45.372  29.978  34.318  1.00  0.00    -0.203 F 
ATOM     76  F   UNL A   1      48.577  32.714  30.952  1.00  0.00    -0.200 F 
ATOM     77  C   UNL A   1      48.210  31.714  33.043  1.00  0.00     0.200 A 
ATOM     78  F   UNL A   1      47.796  30.601  35.077  1.00  0.00    -0.200 F 
ATOM     79  F   UNL A   1      49.466  31.981  33.424  1.00  0.00    -0.200 F 
ENDBRANCH  45  69
BRANCH  57  80
ATOM     80  C   UNL A   1      39.669  32.744  33.669  1.00  0.00     0.064 A 
ATOM     81  C   UNL A   1      38.982  31.566  33.340  1.00  0.00     0.173 A 
ATOM     82  C   UNL A   1      39.688  33.079  35.035  1.00  0.00     0.173 A 
ATOM     83  F   UNL A   1      38.930  31.162  32.061  1.00  0.00    -0.203 F 
ATOM     84  C   UNL A   1      38.344  30.786  34.309  1.00  0.00     0.198 A 
ATOM     85  C   UNL A   1      39.054  32.301  36.009  1.00  0.00     0.198 A 
ATOM     86  F   UNL A   1      40.324  34.168  35.459  1.00  0.00    -0.203 F 
ATOM     87  F   UNL A   1      37.701  29.668  33.947  1.00  0.00    -0.200 F 
ATOM     88  C   UNL A   1      38.378  31.154  35.643  1.00  0.00     0.200 A 
ATOM     89  F   UNL A   1      39.107  32.664  37.301  1.00  0.00    -0.200 F 
ATOM     90  F   UNL A   1      37.777  30.397  36.573  1.00  0.00    -0.200 F 
ENDBRANCH  57  80
ENDBRANCH  31  32
ENDBRANCH  23  26
ENDBRANCH  21  22
ENDBRANCH  20  21
ENDBRANCH   1  20
TORSDOF 13
ENDMDL
