MODEL 1
REMARK VINA RESULT:     -12.5      0.000      0.000
REMARK SMILES O=C(Cc1csc(SC[C@@H]2Cc3ccccc3S2)n1)NCCCNC(=O)c1ccc(-c2c3nc(c(-c4c(F)c(F)c(F)c(F)c4F)c4ccc([nH]4)c(-c4c(F)c(F)c(F)c(F)c4F)c4nc(c(-c5c(F)c(F)c(F)c(F)c5F)c5ccc2[nH]5)C=C4)C=C3)cc1
REMARK SMILES IDX 21 1 20 2 1 3 2 4 3 6 4 7 5 8 19 9 6 10 7 11 8 12 9 13 10 14
REMARK SMILES IDX 11 15 18 16 12 17 17 18 13 19 16 20 14 21 15 22 22 23 23 24
REMARK SMILES IDX 24 25 25 26 26 28 27 29 28 30 89 31 29 32 88 33 30 34 31 35
REMARK SMILES IDX 32 36 82 37 33 38 87 39 81 40 83 41 34 42 86 43 80 44 79 45
REMARK SMILES IDX 35 47 67 48 47 49 66 50 48 51 51 52 65 53 84 54 49 55 50 56
REMARK SMILES IDX 64 58 85 59 52 60 36 61 37 62 45 63 38 64 39 65 43 66 46 67
REMARK SMILES IDX 40 68 41 69 44 70 42 71 68 72 69 73 77 74 70 75 71 76 75 77
REMARK SMILES IDX 78 78 72 79 73 80 76 81 74 82 53 83 54 84 62 85 55 86 56 87
REMARK SMILES IDX 60 88 63 89 57 90 58 91 61 92 59 93
REMARK H PARENT 20 5 24 27 83 46 51 57
REMARK Flexibility Score: inf
ROOT
ATOM      1  C   UNL A   1      31.771  30.546  26.543  1.00  0.00     0.117 C 
ENDROOT
BRANCH   1   2
ATOM      2  N   UNL A   1      31.736  30.124  25.162  1.00  0.00    -0.356 N 
ATOM      3  O   UNL A   1      33.654  28.884  25.205  1.00  0.00    -0.275 OA
ATOM      4  C   UNL A   1      32.653  29.268  24.602  1.00  0.00     0.226 C 
ATOM      5  H   UNL A   1      31.015  30.471  24.589  1.00  0.00     0.163 HD
BRANCH   4   6
ATOM      6  C   UNL A   1      32.434  28.930  23.132  1.00  0.00     0.157 C 
BRANCH   6   7
ATOM      7  C   UNL A   1      32.402  27.471  22.776  1.00  0.00     0.062 A 
ATOM      8  C   UNL A   1      33.283  26.837  21.916  1.00  0.00     0.092 A 
ATOM      9  N   UNL A   1      31.408  26.636  23.277  1.00  0.00    -0.234 NA
ATOM     10  S   UNL A   1      32.922  25.165  21.817  1.00  0.00    -0.116 S 
ATOM     11  C   UNL A   1      31.633  25.392  22.920  1.00  0.00     0.150 A 
BRANCH  11  12
ATOM     12  S   UNL A   1      30.653  24.067  23.501  1.00  0.00    -0.094 SA
BRANCH  12  13
ATOM     13  C   UNL A   1      31.212  23.893  25.231  1.00  0.00     0.092 C 
BRANCH  13  14
ATOM     14  C   UNL A   1      32.030  22.618  25.505  1.00  0.00     0.066 C 
ATOM     15  C   UNL A   1      33.213  22.909  26.458  1.00  0.00     0.052 C 
ATOM     16  S   UNL A   1      32.778  21.893  23.992  1.00  0.00    -0.121 SA
ATOM     17  C   UNL A   1      34.453  23.092  25.634  1.00  0.00    -0.033 A 
ATOM     18  C   UNL A   1      34.377  22.552  24.351  1.00  0.00     0.011 A 
ATOM     19  C   UNL A   1      35.638  23.664  26.089  1.00  0.00     0.005 A 
ATOM     20  C   UNL A   1      35.474  22.575  23.501  1.00  0.00     0.015 A 
ATOM     21  C   UNL A   1      36.744  23.703  25.236  1.00  0.00     0.000 A 
ATOM     22  C   UNL A   1      36.664  23.157  23.950  1.00  0.00     0.001 A 
ENDBRANCH  13  14
ENDBRANCH  12  13
ENDBRANCH  11  12
ENDBRANCH   6   7
ENDBRANCH   4   6
ENDBRANCH   1   2
BRANCH   1  23
ATOM     23  C   UNL A   1      31.482  32.024  26.730  1.00  0.00     0.042 C 
BRANCH  23  24
ATOM     24  C   UNL A   1      32.660  32.829  27.251  1.00  0.00     0.118 C 
BRANCH  24  25
ATOM     25  N   UNL A   1      32.327  34.202  27.621  1.00  0.00    -0.352 N 
ATOM     26  C   UNL A   1      32.904  35.053  28.535  1.00  0.00     0.251 C 
ATOM     27  H   UNL A   1      31.559  34.583  27.135  1.00  0.00     0.163 HD
ATOM     28  O   UNL A   1      32.398  36.146  28.755  1.00  0.00    -0.269 OA
BRANCH  26  29
ATOM     29  C   UNL A   1      34.105  34.633  29.294  1.00  0.00     0.039 A 
ATOM     30  C   UNL A   1      35.384  34.757  28.753  1.00  0.00     0.014 A 
ATOM     31  C   UNL A   1      33.945  34.074  30.566  1.00  0.00     0.014 A 
ATOM     32  C   UNL A   1      36.459  34.124  29.367  1.00  0.00     0.010 A 
ATOM     33  C   UNL A   1      35.047  33.535  31.238  1.00  0.00     0.010 A 
ATOM     34  C   UNL A   1      36.302  33.493  30.614  1.00  0.00    -0.014 A 
BRANCH  34  35
ATOM     35  C   UNL A   1      37.459  32.778  31.218  1.00  0.00     0.031 A 
ATOM     36  C   UNL A   1      37.902  33.079  32.626  1.00  0.00     0.074 A 
ATOM     37  C   UNL A   1      38.063  31.794  30.523  1.00  0.00     0.049 A 
ATOM     38  N   UNL A   1      38.873  32.537  33.320  1.00  0.00    -0.248 NA
ATOM     39  C   UNL A   1      37.166  34.126  33.352  1.00  0.00     0.031 C 
ATOM     40  C   UNL A   1      37.718  31.394  29.158  1.00  0.00     0.029 A 
ATOM     41  N   UNL A   1      39.067  30.928  30.879  1.00  0.00    -0.354 N 
ATOM     42  C   UNL A   1      38.878  33.191  34.547  1.00  0.00     0.074 A 
ATOM     43  C   UNL A   1      37.832  34.188  34.497  1.00  0.00     0.031 C 
ATOM     44  C   UNL A   1      38.443  30.318  28.819  1.00  0.00     0.029 A 
ATOM     45  C   UNL A   1      39.354  29.996  29.912  1.00  0.00     0.049 A 
ATOM     46  H   UNL A   1      39.536  30.971  31.744  1.00  0.00     0.167 HD
ATOM     47  C   UNL A   1      39.673  32.969  35.621  1.00  0.00     0.037 A 
ATOM     48  C   UNL A   1      40.254  28.995  29.901  1.00  0.00     0.037 A 
ATOM     49  C   UNL A   1      40.687  31.950  35.687  1.00  0.00     0.049 A 
ATOM     50  C   UNL A   1      41.144  28.792  31.094  1.00  0.00     0.074 A 
ATOM     51  C   UNL A   1      41.528  31.638  36.742  1.00  0.00     0.029 A 
ATOM     52  N   UNL A   1      40.992  31.070  34.661  1.00  0.00    -0.354 N 
ATOM     53  N   UNL A   1      41.147  29.430  32.238  1.00  0.00    -0.248 NA
ATOM     54  C   UNL A   1      42.167  27.742  30.986  1.00  0.00     0.031 C 
ATOM     55  C   UNL A   1      42.365  30.592  36.341  1.00  0.00     0.029 A 
ATOM     56  C   UNL A   1      42.019  30.226  35.051  1.00  0.00     0.049 A 
ATOM     57  H   UNL A   1      40.545  31.047  33.784  1.00  0.00     0.167 HD
ATOM     58  C   UNL A   1      42.166  28.860  32.988  1.00  0.00     0.074 A 
ATOM     59  C   UNL A   1      42.744  27.807  32.178  1.00  0.00     0.031 C 
ATOM     60  C   UNL A   1      42.588  29.187  34.232  1.00  0.00     0.037 A 
BRANCH  47  61
ATOM     61  C   UNL A   1      39.487  33.847  36.824  1.00  0.00     0.064 A 
ATOM     62  C   UNL A   1      38.713  33.437  37.919  1.00  0.00     0.173 A 
ATOM     63  C   UNL A   1      40.151  35.080  36.912  1.00  0.00     0.173 A 
ATOM     64  F   UNL A   1      38.052  32.271  37.879  1.00  0.00    -0.203 F 
ATOM     65  C   UNL A   1      38.600  34.237  39.054  1.00  0.00     0.198 A 
ATOM     66  C   UNL A   1      40.054  35.866  38.057  1.00  0.00     0.198 A 
ATOM     67  F   UNL A   1      40.909  35.514  35.894  1.00  0.00    -0.203 F 
ATOM     68  F   UNL A   1      37.833  33.839  40.078  1.00  0.00    -0.200 F 
ATOM     69  C   UNL A   1      39.278  35.445  39.125  1.00  0.00     0.200 A 
ATOM     70  F   UNL A   1      40.719  37.027  38.129  1.00  0.00    -0.200 F 
ATOM     71  F   UNL A   1      39.179  36.206  40.224  1.00  0.00    -0.200 F 
ENDBRANCH  47  61
BRANCH  48  72
ATOM     72  C   UNL A   1      40.349  28.110  28.713  1.00  0.00     0.064 A 
ATOM     73  C   UNL A   1      41.146  28.464  27.616  1.00  0.00     0.173 A 
ATOM     74  C   UNL A   1      39.676  26.880  28.665  1.00  0.00     0.173 A 
ATOM     75  F   UNL A   1      41.792  29.640  27.608  1.00  0.00    -0.203 F 
ATOM     76  C   UNL A   1      41.267  27.619  26.515  1.00  0.00     0.198 A 
ATOM     77  C   UNL A   1      39.819  26.026  27.575  1.00  0.00     0.198 A 
ATOM     78  F   UNL A   1      38.903  26.498  29.692  1.00  0.00    -0.203 F 
ATOM     79  F   UNL A   1      42.015  27.991  25.467  1.00  0.00    -0.200 F 
ATOM     80  C   UNL A   1      40.611  26.397  26.500  1.00  0.00     0.200 A 
ATOM     81  F   UNL A   1      39.195  24.839  27.572  1.00  0.00    -0.200 F 
ATOM     82  F   UNL A   1      40.740  25.578  25.447  1.00  0.00    -0.200 F 
ENDBRANCH  48  72
BRANCH  60  83
ATOM     83  C   UNL A   1      43.729  28.401  34.801  1.00  0.00     0.064 A 
ATOM     84  C   UNL A   1      45.053  28.846  34.674  1.00  0.00     0.173 A 
ATOM     85  C   UNL A   1      43.494  27.227  35.532  1.00  0.00     0.173 A 
ATOM     86  F   UNL A   1      45.327  29.956  33.972  1.00  0.00    -0.203 F 
ATOM     87  C   UNL A   1      46.103  28.136  35.250  1.00  0.00     0.198 A 
ATOM     88  C   UNL A   1      44.545  26.532  36.126  1.00  0.00     0.198 A 
ATOM     89  F   UNL A   1      42.245  26.765  35.686  1.00  0.00    -0.203 F 
ATOM     90  F   UNL A   1      47.364  28.563  35.090  1.00  0.00    -0.200 F 
ATOM     91  C   UNL A   1      45.848  26.986  35.981  1.00  0.00     0.200 A 
ATOM     92  F   UNL A   1      44.296  25.427  36.841  1.00  0.00    -0.200 F 
ATOM     93  F   UNL A   1      46.859  26.311  36.544  1.00  0.00    -0.200 F 
ENDBRANCH  60  83
ENDBRANCH  34  35
ENDBRANCH  26  29
ENDBRANCH  24  25
ENDBRANCH  23  24
ENDBRANCH   1  23
TORSDOF 14
ENDMDL
MODEL 2
REMARK VINA RESULT:     -12.4      1.305      2.298
REMARK SMILES O=C(Cc1csc(SC[C@@H]2Cc3ccccc3S2)n1)NCCCNC(=O)c1ccc(-c2c3nc(c(-c4c(F)c(F)c(F)c(F)c4F)c4ccc([nH]4)c(-c4c(F)c(F)c(F)c(F)c4F)c4nc(c(-c5c(F)c(F)c(F)c(F)c5F)c5ccc2[nH]5)C=C4)C=C3)cc1
REMARK SMILES IDX 21 1 20 2 1 3 2 4 3 6 4 7 5 8 19 9 6 10 7 11 8 12 9 13 10 14
REMARK SMILES IDX 11 15 18 16 12 17 17 18 13 19 16 20 14 21 15 22 22 23 23 24
REMARK SMILES IDX 24 25 25 26 26 28 27 29 28 30 89 31 29 32 88 33 30 34 31 35
REMARK SMILES IDX 32 36 82 37 33 38 87 39 81 40 83 41 34 42 86 43 80 44 79 45
REMARK SMILES IDX 35 47 67 48 47 49 66 50 48 51 51 52 65 53 84 54 49 55 50 56
REMARK SMILES IDX 64 58 85 59 52 60 36 61 37 62 45 63 38 64 39 65 43 66 46 67
REMARK SMILES IDX 40 68 41 69 44 70 42 71 68 72 69 73 77 74 70 75 71 76 75 77
REMARK SMILES IDX 78 78 72 79 73 80 76 81 74 82 53 83 54 84 62 85 55 86 56 87
REMARK SMILES IDX 60 88 63 89 57 90 58 91 61 92 59 93
REMARK H PARENT 20 5 24 27 83 46 51 57
REMARK Flexibility Score: inf
ROOT
ATOM      1  C   UNL A   1      31.829  30.349  26.707  1.00  0.00     0.117 C 
ENDROOT
BRANCH   1   2
ATOM      2  N   UNL A   1      32.297  29.742  25.483  1.00  0.00    -0.356 N 
ATOM      3  O   UNL A   1      33.967  28.493  26.417  1.00  0.00    -0.275 OA
ATOM      4  C   UNL A   1      33.300  28.804  25.431  1.00  0.00     0.226 C 
ATOM      5  H   UNL A   1      31.874  30.017  24.638  1.00  0.00     0.163 HD
BRANCH   4   6
ATOM      6  C   UNL A   1      33.637  28.269  24.044  1.00  0.00     0.157 C 
BRANCH   6   7
ATOM      7  C   UNL A   1      32.976  26.982  23.641  1.00  0.00     0.062 A 
ATOM      8  C   UNL A   1      31.612  26.793  23.497  1.00  0.00     0.092 A 
ATOM      9  N   UNL A   1      33.729  25.832  23.420  1.00  0.00    -0.234 NA
ATOM     10  S   UNL A   1      31.282  25.192  22.983  1.00  0.00    -0.116 S 
ATOM     11  C   UNL A   1      32.961  24.861  22.981  1.00  0.00     0.150 A 
BRANCH  11  12
ATOM     12  S   UNL A   1      33.612  23.322  22.469  1.00  0.00    -0.094 SA
BRANCH  12  13
ATOM     13  C   UNL A   1      34.551  22.783  23.939  1.00  0.00     0.092 C 
BRANCH  13  14
ATOM     14  C   UNL A   1      33.738  21.927  24.928  1.00  0.00     0.066 C 
ATOM     15  C   UNL A   1      34.559  20.709  25.415  1.00  0.00     0.052 C 
ATOM     16  S   UNL A   1      32.202  21.233  24.199  1.00  0.00    -0.121 SA
ATOM     17  C   UNL A   1      34.154  19.511  24.609  1.00  0.00    -0.033 A 
ATOM     18  C   UNL A   1      32.917  19.633  23.976  1.00  0.00     0.011 A 
ATOM     19  C   UNL A   1      34.870  18.319  24.533  1.00  0.00     0.005 A 
ATOM     20  C   UNL A   1      32.376  18.575  23.259  1.00  0.00     0.015 A 
ATOM     21  C   UNL A   1      34.338  17.254  23.803  1.00  0.00     0.000 A 
ATOM     22  C   UNL A   1      33.094  17.379  23.172  1.00  0.00     0.001 A 
ENDBRANCH  13  14
ENDBRANCH  12  13
ENDBRANCH  11  12
ENDBRANCH   6   7
ENDBRANCH   4   6
ENDBRANCH   1   2
BRANCH   1  23
ATOM     23  C   UNL A   1      31.681  31.856  26.615  1.00  0.00     0.042 C 
BRANCH  23  24
ATOM     24  C   UNL A   1      32.807  32.636  27.272  1.00  0.00     0.118 C 
BRANCH  24  25
ATOM     25  N   UNL A   1      32.450  34.004  27.640  1.00  0.00    -0.352 N 
ATOM     26  C   UNL A   1      33.004  34.861  28.562  1.00  0.00     0.251 C 
ATOM     27  H   UNL A   1      31.683  34.374  27.145  1.00  0.00     0.163 HD
ATOM     28  O   UNL A   1      32.480  35.946  28.777  1.00  0.00    -0.269 OA
BRANCH  26  29
ATOM     29  C   UNL A   1      34.202  34.457  29.336  1.00  0.00     0.039 A 
ATOM     30  C   UNL A   1      35.488  34.732  28.875  1.00  0.00     0.014 A 
ATOM     31  C   UNL A   1      34.033  33.759  30.535  1.00  0.00     0.014 A 
ATOM     32  C   UNL A   1      36.583  34.122  29.476  1.00  0.00     0.010 A 
ATOM     33  C   UNL A   1      35.144  33.238  31.205  1.00  0.00     0.010 A 
ATOM     34  C   UNL A   1      36.424  33.356  30.644  1.00  0.00    -0.014 A 
BRANCH  34  35
ATOM     35  C   UNL A   1      37.609  32.672  31.232  1.00  0.00     0.031 A 
ATOM     36  C   UNL A   1      38.065  32.988  32.632  1.00  0.00     0.074 A 
ATOM     37  C   UNL A   1      38.227  31.702  30.529  1.00  0.00     0.049 A 
ATOM     38  N   UNL A   1      39.060  32.472  33.313  1.00  0.00    -0.248 NA
ATOM     39  C   UNL A   1      37.314  34.017  33.368  1.00  0.00     0.031 C 
ATOM     40  C   UNL A   1      37.871  31.290  29.171  1.00  0.00     0.029 A 
ATOM     41  N   UNL A   1      39.257  30.862  30.872  1.00  0.00    -0.354 N 
ATOM     42  C   UNL A   1      39.067  33.128  34.537  1.00  0.00     0.074 A 
ATOM     43  C   UNL A   1      37.996  34.099  34.502  1.00  0.00     0.031 C 
ATOM     44  C   UNL A   1      38.617  30.232  28.823  1.00  0.00     0.029 A 
ATOM     45  C   UNL A   1      39.553  29.935  29.903  1.00  0.00     0.049 A 
ATOM     46  H   UNL A   1      39.738  30.920  31.729  1.00  0.00     0.167 HD
ATOM     47  C   UNL A   1      39.884  32.929  35.600  1.00  0.00     0.037 A 
ATOM     48  C   UNL A   1      40.478  28.958  29.880  1.00  0.00     0.037 A 
ATOM     49  C   UNL A   1      40.925  31.936  35.653  1.00  0.00     0.049 A 
ATOM     50  C   UNL A   1      41.391  28.780  31.058  1.00  0.00     0.074 A 
ATOM     51  C   UNL A   1      41.789  31.649  36.695  1.00  0.00     0.029 A 
ATOM     52  N   UNL A   1      41.236  31.062  34.623  1.00  0.00    -0.354 N 
ATOM     53  N   UNL A   1      41.395  29.420  32.202  1.00  0.00    -0.248 NA
ATOM     54  C   UNL A   1      42.438  27.756  30.937  1.00  0.00     0.031 C 
ATOM     55  C   UNL A   1      42.646  30.623  36.283  1.00  0.00     0.029 A 
ATOM     56  C   UNL A   1      42.290  30.245  34.999  1.00  0.00     0.049 A 
ATOM     57  H   UNL A   1      40.776  31.026  33.753  1.00  0.00     0.167 HD
ATOM     58  C   UNL A   1      42.440  28.878  32.937  1.00  0.00     0.074 A 
ATOM     59  C   UNL A   1      43.032  27.839  32.120  1.00  0.00     0.031 C 
ATOM     60  C   UNL A   1      42.872  29.219  34.174  1.00  0.00     0.037 A 
BRANCH  47  61
ATOM     61  C   UNL A   1      39.695  33.805  36.804  1.00  0.00     0.064 A 
ATOM     62  C   UNL A   1      40.277  35.078  36.884  1.00  0.00     0.173 A 
ATOM     63  C   UNL A   1      38.861  33.395  37.856  1.00  0.00     0.173 A 
ATOM     64  F   UNL A   1      41.089  35.511  35.908  1.00  0.00    -0.203 F 
ATOM     65  C   UNL A   1      40.041  35.904  37.981  1.00  0.00     0.198 A 
ATOM     66  C   UNL A   1      38.610  34.233  38.939  1.00  0.00     0.198 A 
ATOM     67  F   UNL A   1      38.275  32.189  37.823  1.00  0.00    -0.203 F 
ATOM     68  F   UNL A   1      40.631  37.106  38.050  1.00  0.00    -0.200 F 
ATOM     69  C   UNL A   1      39.202  35.485  39.001  1.00  0.00     0.200 A 
ATOM     70  F   UNL A   1      37.788  33.831  39.918  1.00  0.00    -0.200 F 
ATOM     71  F   UNL A   1      38.965  36.287  40.049  1.00  0.00    -0.200 F 
ENDBRANCH  47  61
BRANCH  48  72
ATOM     72  C   UNL A   1      40.577  28.073  28.692  1.00  0.00     0.064 A 
ATOM     73  C   UNL A   1      39.882  26.858  28.642  1.00  0.00     0.173 A 
ATOM     74  C   UNL A   1      41.339  28.439  27.572  1.00  0.00     0.173 A 
ATOM     75  F   UNL A   1      39.157  26.457  29.697  1.00  0.00    -0.203 F 
ATOM     76  C   UNL A   1      39.943  26.041  27.515  1.00  0.00     0.198 A 
ATOM     77  C   UNL A   1      41.379  27.634  26.436  1.00  0.00     0.198 A 
ATOM     78  F   UNL A   1      42.021  29.593  27.573  1.00  0.00    -0.203 F 
ATOM     79  F   UNL A   1      39.289  24.872  27.501  1.00  0.00    -0.200 F 
ATOM     80  C   UNL A   1      40.684  26.435  26.409  1.00  0.00     0.200 A 
ATOM     81  F   UNL A   1      42.083  28.026  25.365  1.00  0.00    -0.200 F 
ATOM     82  F   UNL A   1      40.730  25.657  25.320  1.00  0.00    -0.200 F 
ENDBRANCH  48  72
BRANCH  60  83
ATOM     83  C   UNL A   1      44.042  28.463  34.726  1.00  0.00     0.064 A 
ATOM     84  C   UNL A   1      45.351  28.945  34.584  1.00  0.00     0.173 A 
ATOM     85  C   UNL A   1      43.848  27.282  35.457  1.00  0.00     0.173 A 
ATOM     86  F   UNL A   1      45.586  30.064  33.881  1.00  0.00    -0.203 F 
ATOM     87  C   UNL A   1      46.428  28.263  35.145  1.00  0.00     0.198 A 
ATOM     88  C   UNL A   1      44.925  26.615  36.036  1.00  0.00     0.198 A 
ATOM     89  F   UNL A   1      42.614  26.786  35.625  1.00  0.00    -0.203 F 
ATOM     90  F   UNL A   1      47.674  28.724  34.971  1.00  0.00    -0.200 F 
ATOM     91  C   UNL A   1      46.213  27.105  35.877  1.00  0.00     0.200 A 
ATOM     92  F   UNL A   1      44.716  25.502  36.752  1.00  0.00    -0.200 F 
ATOM     93  F   UNL A   1      47.249  26.456  36.425  1.00  0.00    -0.200 F 
ENDBRANCH  60  83
ENDBRANCH  34  35
ENDBRANCH  26  29
ENDBRANCH  24  25
ENDBRANCH  23  24
ENDBRANCH   1  23
TORSDOF 14
ENDMDL
MODEL 3
REMARK VINA RESULT:     -12.3      1.378      2.060
REMARK SMILES O=C(Cc1csc(SC[C@@H]2Cc3ccccc3S2)n1)NCCCNC(=O)c1ccc(-c2c3nc(c(-c4c(F)c(F)c(F)c(F)c4F)c4ccc([nH]4)c(-c4c(F)c(F)c(F)c(F)c4F)c4nc(c(-c5c(F)c(F)c(F)c(F)c5F)c5ccc2[nH]5)C=C4)C=C3)cc1
REMARK SMILES IDX 21 1 20 2 1 3 2 4 3 6 4 7 5 8 19 9 6 10 7 11 8 12 9 13 10 14
REMARK SMILES IDX 11 15 18 16 12 17 17 18 13 19 16 20 14 21 15 22 22 23 23 24
REMARK SMILES IDX 24 25 25 26 26 28 27 29 28 30 89 31 29 32 88 33 30 34 31 35
REMARK SMILES IDX 32 36 82 37 33 38 87 39 81 40 83 41 34 42 86 43 80 44 79 45
REMARK SMILES IDX 35 47 67 48 47 49 66 50 48 51 51 52 65 53 84 54 49 55 50 56
REMARK SMILES IDX 64 58 85 59 52 60 36 61 37 62 45 63 38 64 39 65 43 66 46 67
REMARK SMILES IDX 40 68 41 69 44 70 42 71 68 72 69 73 77 74 70 75 71 76 75 77
REMARK SMILES IDX 78 78 72 79 73 80 76 81 74 82 53 83 54 84 62 85 55 86 56 87
REMARK SMILES IDX 60 88 63 89 57 90 58 91 61 92 59 93
REMARK H PARENT 20 5 24 27 83 46 51 57
REMARK Flexibility Score: inf
ROOT
ATOM      1  C   UNL A   1      31.707  30.591  26.577  1.00  0.00     0.117 C 
ENDROOT
BRANCH   1   2
ATOM      2  N   UNL A   1      32.019  30.054  25.273  1.00  0.00    -0.356 N 
ATOM      3  O   UNL A   1      31.266  27.932  25.662  1.00  0.00    -0.275 OA
ATOM      4  C   UNL A   1      31.719  28.771  24.883  1.00  0.00     0.226 C 
ATOM      5  H   UNL A   1      32.473  30.641  24.627  1.00  0.00     0.163 HD
BRANCH   4   6
ATOM      6  C   UNL A   1      32.115  28.400  23.460  1.00  0.00     0.157 C 
BRANCH   6   7
ATOM      7  C   UNL A   1      32.580  26.988  23.237  1.00  0.00     0.062 A 
ATOM      8  C   UNL A   1      32.122  26.143  22.241  1.00  0.00     0.092 A 
ATOM      9  N   UNL A   1      33.512  26.402  24.088  1.00  0.00    -0.234 NA
ATOM     10  S   UNL A   1      32.941  24.639  22.312  1.00  0.00    -0.116 S 
ATOM     11  C   UNL A   1      33.846  25.211  23.648  1.00  0.00     0.150 A 
BRANCH  11  12
ATOM     12  S   UNL A   1      35.102  24.260  24.404  1.00  0.00    -0.094 SA
BRANCH  12  13
ATOM     13  C   UNL A   1      34.705  22.567  23.845  1.00  0.00     0.092 C 
BRANCH  13  14
ATOM     14  C   UNL A   1      33.892  21.742  24.860  1.00  0.00     0.066 C 
ATOM     15  C   UNL A   1      34.688  20.501  25.334  1.00  0.00     0.052 C 
ATOM     16  S   UNL A   1      32.318  21.090  24.175  1.00  0.00    -0.121 SA
ATOM     17  C   UNL A   1      34.226  19.312  24.545  1.00  0.00    -0.033 A 
ATOM     18  C   UNL A   1      32.978  19.468  23.943  1.00  0.00     0.011 A 
ATOM     19  C   UNL A   1      34.903  18.098  24.459  1.00  0.00     0.005 A 
ATOM     20  C   UNL A   1      32.386  18.424  23.247  1.00  0.00     0.015 A 
ATOM     21  C   UNL A   1      34.321  17.046  23.749  1.00  0.00     0.000 A 
ATOM     22  C   UNL A   1      33.066  17.206  23.150  1.00  0.00     0.001 A 
ENDBRANCH  13  14
ENDBRANCH  12  13
ENDBRANCH  11  12
ENDBRANCH   6   7
ENDBRANCH   4   6
ENDBRANCH   1   2
BRANCH   1  23
ATOM     23  C   UNL A   1      31.559  32.100  26.588  1.00  0.00     0.042 C 
BRANCH  23  24
ATOM     24  C   UNL A   1      32.669  32.831  27.324  1.00  0.00     0.118 C 
BRANCH  24  25
ATOM     25  N   UNL A   1      32.337  34.204  27.694  1.00  0.00    -0.352 N 
ATOM     26  C   UNL A   1      32.922  35.059  28.598  1.00  0.00     0.251 C 
ATOM     27  H   UNL A   1      31.563  34.581  27.216  1.00  0.00     0.163 HD
ATOM     28  O   UNL A   1      32.416  36.151  28.822  1.00  0.00    -0.269 OA
BRANCH  26  29
ATOM     29  C   UNL A   1      34.134  34.645  29.345  1.00  0.00     0.039 A 
ATOM     30  C   UNL A   1      35.402  34.733  28.773  1.00  0.00     0.014 A 
ATOM     31  C   UNL A   1      33.993  34.127  30.636  1.00  0.00     0.014 A 
ATOM     32  C   UNL A   1      36.481  34.103  29.384  1.00  0.00     0.010 A 
ATOM     33  C   UNL A   1      35.101  33.593  31.302  1.00  0.00     0.010 A 
ATOM     34  C   UNL A   1      36.342  33.513  30.652  1.00  0.00    -0.014 A 
BRANCH  34  35
ATOM     35  C   UNL A   1      37.501  32.799  31.254  1.00  0.00     0.031 A 
ATOM     36  C   UNL A   1      37.971  33.128  32.647  1.00  0.00     0.074 A 
ATOM     37  C   UNL A   1      38.084  31.794  30.571  1.00  0.00     0.049 A 
ATOM     38  N   UNL A   1      38.948  32.592  33.337  1.00  0.00    -0.248 NA
ATOM     39  C   UNL A   1      37.258  34.199  33.361  1.00  0.00     0.031 C 
ATOM     40  C   UNL A   1      37.711  31.366  29.222  1.00  0.00     0.029 A 
ATOM     41  N   UNL A   1      39.084  30.925  30.931  1.00  0.00    -0.354 N 
ATOM     42  C   UNL A   1      38.980  33.273  34.548  1.00  0.00     0.074 A 
ATOM     43  C   UNL A   1      37.944  34.280  34.493  1.00  0.00     0.031 C 
ATOM     44  C   UNL A   1      38.419  30.275  28.896  1.00  0.00     0.029 A 
ATOM     45  C   UNL A   1      39.345  29.968  29.981  1.00  0.00     0.049 A 
ATOM     46  H   UNL A   1      39.568  30.983  31.787  1.00  0.00     0.167 HD
ATOM     47  C   UNL A   1      39.790  33.067  35.614  1.00  0.00     0.037 A 
ATOM     48  C   UNL A   1      40.235  28.958  29.979  1.00  0.00     0.037 A 
ATOM     49  C   UNL A   1      40.795  32.039  35.687  1.00  0.00     0.049 A 
ATOM     50  C   UNL A   1      41.142  28.772  31.160  1.00  0.00     0.074 A 
ATOM     51  C   UNL A   1      41.650  31.743  36.735  1.00  0.00     0.029 A 
ATOM     52  N   UNL A   1      41.073  31.132  34.676  1.00  0.00    -0.354 N 
ATOM     53  N   UNL A   1      41.171  29.436  32.290  1.00  0.00    -0.248 NA
ATOM     54  C   UNL A   1      42.152  27.709  31.060  1.00  0.00     0.031 C 
ATOM     55  C   UNL A   1      42.469  30.679  36.345  1.00  0.00     0.029 A 
ATOM     56  C   UNL A   1      42.098  30.286  35.069  1.00  0.00     0.049 A 
ATOM     57  H   UNL A   1      40.611  31.094  33.808  1.00  0.00     0.167 HD
ATOM     58  C   UNL A   1      42.196  28.872  33.036  1.00  0.00     0.074 A 
ATOM     59  C   UNL A   1      42.750  27.795  32.241  1.00  0.00     0.031 C 
ATOM     60  C   UNL A   1      42.642  29.224  34.265  1.00  0.00     0.037 A 
BRANCH  47  61
ATOM     61  C   UNL A   1      39.634  33.974  36.799  1.00  0.00     0.064 A 
ATOM     62  C   UNL A   1      38.855  33.607  37.906  1.00  0.00     0.173 A 
ATOM     63  C   UNL A   1      40.329  35.192  36.858  1.00  0.00     0.173 A 
ATOM     64  F   UNL A   1      38.163  32.458  37.894  1.00  0.00    -0.203 F 
ATOM     65  C   UNL A   1      38.769  34.433  39.025  1.00  0.00     0.198 A 
ATOM     66  C   UNL A   1      40.259  36.003  37.988  1.00  0.00     0.198 A 
ATOM     67  F   UNL A   1      41.093  35.584  35.828  1.00  0.00    -0.203 F 
ATOM     68  F   UNL A   1      37.996  34.076  40.060  1.00  0.00    -0.200 F 
ATOM     69  C   UNL A   1      39.478  35.624  39.068  1.00  0.00     0.200 A 
ATOM     70  F   UNL A   1      40.954  37.148  38.033  1.00  0.00    -0.200 F 
ATOM     71  F   UNL A   1      39.405  36.411  40.151  1.00  0.00    -0.200 F 
ENDBRANCH  47  61
BRANCH  48  72
ATOM     72  C   UNL A   1      40.301  28.045  28.810  1.00  0.00     0.064 A 
ATOM     73  C   UNL A   1      41.064  28.376  27.683  1.00  0.00     0.173 A 
ATOM     74  C   UNL A   1      39.633  26.811  28.810  1.00  0.00     0.173 A 
ATOM     75  F   UNL A   1      41.703  29.554  27.628  1.00  0.00    -0.203 F 
ATOM     76  C   UNL A   1      41.158  27.505  26.598  1.00  0.00     0.198 A 
ATOM     77  C   UNL A   1      39.749  25.931  27.737  1.00  0.00     0.198 A 
ATOM     78  F   UNL A   1      38.892  26.450  29.867  1.00  0.00    -0.203 F 
ATOM     79  F   UNL A   1      41.874  27.856  25.522  1.00  0.00    -0.200 F 
ATOM     80  C   UNL A   1      40.508  26.280  26.631  1.00  0.00     0.200 A 
ATOM     81  F   UNL A   1      39.132  24.742  27.780  1.00  0.00    -0.200 F 
ATOM     82  F   UNL A   1      40.612  25.437  25.595  1.00  0.00    -0.200 F 
ENDBRANCH  48  72
BRANCH  60  83
ATOM     83  C   UNL A   1      43.785  28.438  34.833  1.00  0.00     0.064 A 
ATOM     84  C   UNL A   1      43.565  27.253  35.551  1.00  0.00     0.173 A 
ATOM     85  C   UNL A   1      45.110  28.836  34.604  1.00  0.00     0.173 A 
ATOM     86  F   UNL A   1      42.315  26.841  35.807  1.00  0.00    -0.203 F 
ATOM     87  C   UNL A   1      44.635  26.502  36.031  1.00  0.00     0.198 A 
ATOM     88  C   UNL A   1      46.176  28.069  35.065  1.00  0.00     0.198 A 
ATOM     89  F   UNL A   1      45.369  29.958  33.916  1.00  0.00    -0.203 F 
ATOM     90  F   UNL A   1      44.403  25.389  36.742  1.00  0.00    -0.200 F 
ATOM     91  C   UNL A   1      45.938  26.905  35.781  1.00  0.00     0.200 A 
ATOM     92  F   UNL A   1      47.435  28.455  34.813  1.00  0.00    -0.200 F 
ATOM     93  F   UNL A   1      46.966  26.174  36.233  1.00  0.00    -0.200 F 
ENDBRANCH  60  83
ENDBRANCH  34  35
ENDBRANCH  26  29
ENDBRANCH  24  25
ENDBRANCH  23  24
ENDBRANCH   1  23
TORSDOF 14
ENDMDL
