MODEL 1
REMARK VINA RESULT:     -11.0      0.000      0.000
REMARK SMILES CC(=O)/C=C(/C)NCC(=O)NCCCNC(=O)c1ccc(-c2c3nc(c(-c4c(F)c(F)c(F)c(F)c4F)c4ccc([nH]4)c(-c4c(F)c(F)c(F)c(F)c4F)c4nc(c(-c5c(F)c(F)c(F)c(F)c5F)c5ccc2[nH]5)C=C4)C=C3)cc1
REMARK SMILES IDX 12 1 11 2 9 3 10 4 8 6 7 7 5 9 4 10 6 11 2 12 1 13 3 14
REMARK SMILES IDX 13 15 14 16 15 17 16 18 17 20 18 21 19 22 80 23 20 24 79 25
REMARK SMILES IDX 21 26 22 27 23 28 73 29 24 30 78 31 72 32 74 33 25 34 77 35
REMARK SMILES IDX 71 36 70 37 26 39 58 40 38 41 57 42 39 43 42 44 56 45 75 46
REMARK SMILES IDX 40 47 41 48 55 50 76 51 43 52 27 53 28 54 36 55 29 56 30 57
REMARK SMILES IDX 34 58 37 59 31 60 32 61 35 62 33 63 59 64 60 65 68 66 61 67
REMARK SMILES IDX 62 68 66 69 69 70 63 71 64 72 67 73 65 74 44 75 45 76 53 77
REMARK SMILES IDX 46 78 47 79 51 80 54 81 48 82 49 83 52 84 50 85
REMARK H PARENT 11 5 7 8 15 19 74 38 42 49
REMARK Flexibility Score: inf
ROOT
ATOM      1  C   UNL A   1      31.754  30.093  26.367  1.00  0.00     0.117 C 
ENDROOT
BRANCH   1   2
ATOM      2  N   UNL A   1      32.666  29.798  25.283  1.00  0.00    -0.355 N 
ATOM      3  C   UNL A   1      32.437  29.269  24.049  1.00  0.00     0.239 C 
ATOM      4  O   UNL A   1      33.425  29.107  23.323  1.00  0.00    -0.273 OA
ATOM      5  H   UNL A   1      33.609  30.016  25.468  1.00  0.00     0.163 HD
BRANCH   3   6
ATOM      6  C   UNL A   1      31.031  28.953  23.515  1.00  0.00     0.213 C 
BRANCH   6   7
ATOM      7  N   UNL A   1      30.223  30.112  23.184  1.00  0.00    -0.380 N 
ATOM      8  H   UNL A   1      30.706  30.965  23.283  1.00  0.00     0.160 HD
BRANCH   7   9
ATOM      9  C   UNL A   1      28.917  30.271  22.756  1.00  0.00     0.011 C 
ATOM     10  C   UNL A   1      28.179  31.344  22.398  1.00  0.00     0.067 C 
ATOM     11  C   UNL A   1      28.149  28.946  22.802  1.00  0.00     0.064 C 
BRANCH  10  12
ATOM     12  C   UNL A   1      28.307  32.829  22.290  1.00  0.00     0.154 C 
ATOM     13  C   UNL A   1      29.136  33.653  23.223  1.00  0.00     0.093 C 
ATOM     14  O   UNL A   1      27.698  33.379  21.367  1.00  0.00    -0.295 OA
ENDBRANCH  10  12
ENDBRANCH   7   9
ENDBRANCH   6   7
ENDBRANCH   3   6
ENDBRANCH   1   2
BRANCH   1  15
ATOM     15  C   UNL A   1      31.546  31.589  26.563  1.00  0.00     0.042 C 
BRANCH  15  16
ATOM     16  C   UNL A   1      32.821  32.323  26.958  1.00  0.00     0.118 C 
BRANCH  16  17
ATOM     17  N   UNL A   1      32.565  33.679  27.422  1.00  0.00    -0.352 N 
ATOM     18  C   UNL A   1      33.144  34.394  28.439  1.00  0.00     0.251 C 
ATOM     19  H   UNL A   1      31.863  34.160  26.927  1.00  0.00     0.163 HD
ATOM     20  O   UNL A   1      32.661  35.471  28.774  1.00  0.00    -0.269 OA
BRANCH  18  21
ATOM     21  C   UNL A   1      34.327  33.867  29.152  1.00  0.00     0.039 A 
ATOM     22  C   UNL A   1      34.127  32.933  30.172  1.00  0.00     0.014 A 
ATOM     23  C   UNL A   1      35.621  34.298  28.845  1.00  0.00     0.014 A 
ATOM     24  C   UNL A   1      35.224  32.386  30.837  1.00  0.00     0.010 A 
ATOM     25  C   UNL A   1      36.718  33.691  29.450  1.00  0.00     0.010 A 
ATOM     26  C   UNL A   1      36.531  32.729  30.454  1.00  0.00    -0.014 A 
BRANCH  26  27
ATOM     27  C   UNL A   1      37.704  32.072  31.083  1.00  0.00     0.031 A 
ATOM     28  C   UNL A   1      38.168  32.477  32.454  1.00  0.00     0.074 A 
ATOM     29  C   UNL A   1      38.380  31.133  30.390  1.00  0.00     0.049 A 
ATOM     30  N   UNL A   1      39.181  32.026  33.152  1.00  0.00    -0.248 NA
ATOM     31  C   UNL A   1      37.411  33.547  33.124  1.00  0.00     0.031 C 
ATOM     32  C   UNL A   1      38.064  30.698  29.030  1.00  0.00     0.029 A 
ATOM     33  N   UNL A   1      39.476  30.381  30.732  1.00  0.00    -0.354 N 
ATOM     34  C   UNL A   1      39.188  32.760  34.330  1.00  0.00     0.074 A 
ATOM     35  C   UNL A   1      38.113  33.724  34.234  1.00  0.00     0.031 C 
ATOM     36  C   UNL A   1      38.924  29.734  28.664  1.00  0.00     0.029 A 
ATOM     37  C   UNL A   1      39.878  29.514  29.745  1.00  0.00     0.049 A 
ATOM     38  H   UNL A   1      39.931  30.455  31.602  1.00  0.00     0.167 HD
ATOM     39  C   UNL A   1      40.001  32.625  35.405  1.00  0.00     0.037 A 
ATOM     40  C   UNL A   1      40.905  28.644  29.712  1.00  0.00     0.037 A 
ATOM     41  C   UNL A   1      41.057  31.650  35.503  1.00  0.00     0.049 A 
ATOM     42  C   UNL A   1      41.793  28.518  30.921  1.00  0.00     0.074 A 
ATOM     43  C   UNL A   1      41.893  31.390  36.575  1.00  0.00     0.029 A 
ATOM     44  N   UNL A   1      41.429  30.782  34.487  1.00  0.00    -0.354 N 
ATOM     45  N   UNL A   1      41.735  29.158  32.063  1.00  0.00    -0.248 NA
ATOM     46  C   UNL A   1      42.885  27.538  30.837  1.00  0.00     0.031 C 
ATOM     47  C   UNL A   1      42.808  30.405  36.188  1.00  0.00     0.029 A 
ATOM     48  C   UNL A   1      42.503  30.005  34.897  1.00  0.00     0.049 A 
ATOM     49  H   UNL A   1      40.995  30.724  33.606  1.00  0.00     0.167 HD
ATOM     50  C   UNL A   1      42.763  28.643  32.842  1.00  0.00     0.074 A 
ATOM     51  C   UNL A   1      43.411  27.619  32.051  1.00  0.00     0.031 C 
ATOM     52  C   UNL A   1      43.140  28.991  34.098  1.00  0.00     0.037 A 
BRANCH  39  53
ATOM     53  C   UNL A   1      39.786  33.553  36.567  1.00  0.00     0.064 A 
ATOM     54  C   UNL A   1      40.391  34.817  36.626  1.00  0.00     0.173 A 
ATOM     55  C   UNL A   1      38.915  33.197  37.608  1.00  0.00     0.173 A 
ATOM     56  F   UNL A   1      41.240  35.205  35.662  1.00  0.00    -0.203 F 
ATOM     57  C   UNL A   1      40.154  35.679  37.693  1.00  0.00     0.198 A 
ATOM     58  C   UNL A   1      38.654  34.073  38.658  1.00  0.00     0.198 A 
ATOM     59  F   UNL A   1      38.304  32.001  37.601  1.00  0.00    -0.203 F 
ATOM     60  F   UNL A   1      40.779  36.862  37.750  1.00  0.00    -0.200 F 
ATOM     61  C   UNL A   1      39.278  35.310  38.704  1.00  0.00     0.200 A 
ATOM     62  F   UNL A   1      37.796  33.721  39.625  1.00  0.00    -0.200 F 
ATOM     63  F   UNL A   1      39.039  36.146  39.724  1.00  0.00    -0.200 F 
ENDBRANCH  39  53
BRANCH  40  64
ATOM     64  C   UNL A   1      41.143  27.815  28.501  1.00  0.00     0.064 A 
ATOM     65  C   UNL A   1      42.010  28.249  27.486  1.00  0.00     0.173 A 
ATOM     66  C   UNL A   1      40.497  26.584  28.322  1.00  0.00     0.173 A 
ATOM     67  F   UNL A   1      42.638  29.428  27.600  1.00  0.00    -0.203 F 
ATOM     68  C   UNL A   1      42.193  27.497  26.327  1.00  0.00     0.198 A 
ATOM     69  C   UNL A   1      40.709  25.817  27.179  1.00  0.00     0.198 A 
ATOM     70  F   UNL A   1      39.663  26.120  29.266  1.00  0.00    -0.203 F 
ATOM     71  F   UNL A   1      42.980  27.963  25.348  1.00  0.00    -0.200 F 
ATOM     72  C   UNL A   1      41.548  26.279  26.177  1.00  0.00     0.200 A 
ATOM     73  F   UNL A   1      40.096  24.632  27.046  1.00  0.00    -0.200 F 
ATOM     74  F   UNL A   1      41.726  25.556  25.062  1.00  0.00    -0.200 F 
ENDBRANCH  40  64
BRANCH  52  75
ATOM     75  C   UNL A   1      44.290  28.235  34.701  1.00  0.00     0.064 A 
ATOM     76  C   UNL A   1      45.613  28.691  34.591  1.00  0.00     0.173 A 
ATOM     77  C   UNL A   1      44.066  27.045  35.410  1.00  0.00     0.173 A 
ATOM     78  F   UNL A   1      45.884  29.816  33.911  1.00  0.00    -0.203 F 
ATOM     79  C   UNL A   1      46.670  27.965  35.133  1.00  0.00     0.198 A 
ATOM     80  C   UNL A   1      45.120  26.340  35.984  1.00  0.00     0.198 A 
ATOM     81  F   UNL A   1      42.820  26.567  35.553  1.00  0.00    -0.203 F 
ATOM     82  F   UNL A   1      47.929  28.386  34.959  1.00  0.00    -0.200 F 
ATOM     83  C   UNL A   1      46.422  26.794  35.834  1.00  0.00     0.200 A 
ATOM     84  F   UNL A   1      44.877  25.219  36.676  1.00  0.00    -0.200 F 
ATOM     85  F   UNL A   1      47.439  26.097  36.357  1.00  0.00    -0.200 F 
ENDBRANCH  52  75
ENDBRANCH  26  27
ENDBRANCH  18  21
ENDBRANCH  16  17
ENDBRANCH  15  16
ENDBRANCH   1  15
TORSDOF 13
ENDMDL
MODEL 2
REMARK VINA RESULT:     -10.7      1.879      8.081
REMARK SMILES CC(=O)/C=C(/C)NCC(=O)NCCCNC(=O)c1ccc(-c2c3nc(c(-c4c(F)c(F)c(F)c(F)c4F)c4ccc([nH]4)c(-c4c(F)c(F)c(F)c(F)c4F)c4nc(c(-c5c(F)c(F)c(F)c(F)c5F)c5ccc2[nH]5)C=C4)C=C3)cc1
REMARK SMILES IDX 12 1 11 2 9 3 10 4 8 6 7 7 5 9 4 10 6 11 2 12 1 13 3 14
REMARK SMILES IDX 13 15 14 16 15 17 16 18 17 20 18 21 19 22 80 23 20 24 79 25
REMARK SMILES IDX 21 26 22 27 23 28 73 29 24 30 78 31 72 32 74 33 25 34 77 35
REMARK SMILES IDX 71 36 70 37 26 39 58 40 38 41 57 42 39 43 42 44 56 45 75 46
REMARK SMILES IDX 40 47 41 48 55 50 76 51 43 52 27 53 28 54 36 55 29 56 30 57
REMARK SMILES IDX 34 58 37 59 31 60 32 61 35 62 33 63 59 64 60 65 68 66 61 67
REMARK SMILES IDX 62 68 66 69 69 70 63 71 64 72 67 73 65 74 44 75 45 76 53 77
REMARK SMILES IDX 46 78 47 79 51 80 54 81 48 82 49 83 52 84 50 85
REMARK H PARENT 11 5 7 8 15 19 74 38 42 49
REMARK Flexibility Score: inf
ROOT
ATOM      1  C   UNL A   1      31.543  30.789  26.250  1.00  0.00     0.117 C 
ENDROOT
BRANCH   1   2
ATOM      2  N   UNL A   1      32.726  30.228  26.868  1.00  0.00    -0.355 N 
ATOM      3  C   UNL A   1      33.526  29.196  26.479  1.00  0.00     0.239 C 
ATOM      4  O   UNL A   1      34.472  28.918  27.224  1.00  0.00    -0.273 OA
ATOM      5  H   UNL A   1      32.998  30.664  27.709  1.00  0.00     0.163 HD
BRANCH   3   6
ATOM      6  C   UNL A   1      33.347  28.445  25.150  1.00  0.00     0.213 C 
BRANCH   6   7
ATOM      7  N   UNL A   1      33.289  27.000  25.262  1.00  0.00    -0.380 N 
ATOM      8  H   UNL A   1      32.831  26.690  26.077  1.00  0.00     0.160 HD
BRANCH   7   9
ATOM      9  C   UNL A   1      33.740  25.964  24.463  1.00  0.00     0.011 C 
ATOM     10  C   UNL A   1      33.531  25.625  23.173  1.00  0.00     0.067 C 
ATOM     11  C   UNL A   1      34.569  24.959  25.268  1.00  0.00     0.064 C 
BRANCH  10  12
ATOM     12  C   UNL A   1      32.756  26.093  21.984  1.00  0.00     0.154 C 
ATOM     13  C   UNL A   1      31.416  26.749  22.082  1.00  0.00     0.093 C 
ATOM     14  O   UNL A   1      33.277  25.931  20.876  1.00  0.00    -0.295 OA
ENDBRANCH  10  12
ENDBRANCH   7   9
ENDBRANCH   6   7
ENDBRANCH   3   6
ENDBRANCH   1   2
BRANCH   1  15
ATOM     15  C   UNL A   1      31.395  32.280  26.525  1.00  0.00     0.042 C 
BRANCH  15  16
ATOM     16  C   UNL A   1      32.626  32.893  27.180  1.00  0.00     0.118 C 
BRANCH  16  17
ATOM     17  N   UNL A   1      32.400  34.260  27.627  1.00  0.00    -0.352 N 
ATOM     18  C   UNL A   1      32.992  34.974  28.638  1.00  0.00     0.251 C 
ATOM     19  H   UNL A   1      31.712  34.751  27.122  1.00  0.00     0.163 HD
ATOM     20  O   UNL A   1      32.533  36.066  28.957  1.00  0.00    -0.269 OA
BRANCH  18  21
ATOM     21  C   UNL A   1      34.159  34.428  29.362  1.00  0.00     0.039 A 
ATOM     22  C   UNL A   1      33.940  33.766  30.573  1.00  0.00     0.014 A 
ATOM     23  C   UNL A   1      35.461  34.581  28.876  1.00  0.00     0.014 A 
ATOM     24  C   UNL A   1      35.016  33.205  31.261  1.00  0.00     0.010 A 
ATOM     25  C   UNL A   1      36.522  33.948  29.519  1.00  0.00     0.010 A 
ATOM     26  C   UNL A   1      36.310  33.255  30.720  1.00  0.00    -0.014 A 
BRANCH  26  27
ATOM     27  C   UNL A   1      37.442  32.567  31.392  1.00  0.00     0.031 A 
ATOM     28  C   UNL A   1      38.137  31.409  30.732  1.00  0.00     0.074 A 
ATOM     29  C   UNL A   1      37.812  32.965  32.625  1.00  0.00     0.049 A 
ATOM     30  N   UNL A   1      39.129  30.678  31.177  1.00  0.00    -0.248 NA
ATOM     31  C   UNL A   1      37.639  30.999  29.410  1.00  0.00     0.031 C 
ATOM     32  C   UNL A   1      37.176  34.037  33.393  1.00  0.00     0.029 A 
ATOM     33  N   UNL A   1      38.809  32.512  33.453  1.00  0.00    -0.354 N 
ATOM     34  C   UNL A   1      39.365  29.723  30.198  1.00  0.00     0.074 A 
ATOM     35  C   UNL A   1      38.379  29.929  29.159  1.00  0.00     0.031 C 
ATOM     36  C   UNL A   1      37.816  34.180  34.564  1.00  0.00     0.029 A 
ATOM     37  C   UNL A   1      38.878  33.184  34.649  1.00  0.00     0.049 A 
ATOM     38  H   UNL A   1      39.416  31.775  33.212  1.00  0.00     0.167 HD
ATOM     39  C   UNL A   1      40.332  28.775  30.158  1.00  0.00     0.037 A 
ATOM     40  C   UNL A   1      39.703  33.012  35.700  1.00  0.00     0.037 A 
ATOM     41  C   UNL A   1      41.324  28.587  31.185  1.00  0.00     0.049 A 
ATOM     42  C   UNL A   1      40.766  31.950  35.627  1.00  0.00     0.074 A 
ATOM     43  C   UNL A   1      42.386  27.699  31.207  1.00  0.00     0.029 A 
ATOM     44  N   UNL A   1      41.370  29.293  32.378  1.00  0.00    -0.354 N 
ATOM     45  N   UNL A   1      41.034  31.109  34.658  1.00  0.00    -0.248 NA
ATOM     46  C   UNL A   1      41.650  31.821  36.794  1.00  0.00     0.031 C 
ATOM     47  C   UNL A   1      43.039  27.827  32.437  1.00  0.00     0.029 A 
ATOM     48  C   UNL A   1      42.424  28.839  33.157  1.00  0.00     0.049 A 
ATOM     49  H   UNL A   1      40.748  30.011  32.635  1.00  0.00     0.167 HD
ATOM     50  C   UNL A   1      42.129  30.369  35.085  1.00  0.00     0.074 A 
ATOM     51  C   UNL A   1      42.492  30.880  36.390  1.00  0.00     0.031 C 
ATOM     52  C   UNL A   1      42.773  29.355  34.456  1.00  0.00     0.037 A 
BRANCH  39  53
ATOM     53  C   UNL A   1      40.371  27.864  28.963  1.00  0.00     0.064 A 
ATOM     54  C   UNL A   1      41.153  28.156  27.836  1.00  0.00     0.173 A 
ATOM     55  C   UNL A   1      39.663  26.652  28.970  1.00  0.00     0.173 A 
ATOM     56  F   UNL A   1      41.843  29.306  27.772  1.00  0.00    -0.203 F 
ATOM     57  C   UNL A   1      41.205  27.285  26.751  1.00  0.00     0.198 A 
ATOM     58  C   UNL A   1      39.742  25.767  27.899  1.00  0.00     0.198 A 
ATOM     59  F   UNL A   1      38.903  26.318  30.025  1.00  0.00    -0.203 F 
ATOM     60  F   UNL A   1      41.923  27.608  25.667  1.00  0.00    -0.200 F 
ATOM     61  C   UNL A   1      40.507  26.086  26.787  1.00  0.00     0.200 A 
ATOM     62  F   UNL A   1      39.080  24.603  27.942  1.00  0.00    -0.200 F 
ATOM     63  F   UNL A   1      40.570  25.242  25.749  1.00  0.00    -0.200 F 
ENDBRANCH  39  53
BRANCH  40  64
ATOM     64  C   UNL A   1      39.565  33.872  36.906  1.00  0.00     0.064 A 
ATOM     65  C   UNL A   1      38.776  33.471  37.994  1.00  0.00     0.173 A 
ATOM     66  C   UNL A   1      40.200  35.118  36.988  1.00  0.00     0.173 A 
ATOM     67  F   UNL A   1      38.131  32.295  37.957  1.00  0.00    -0.203 F 
ATOM     68  C   UNL A   1      38.604  34.298  39.102  1.00  0.00     0.198 A 
ATOM     69  C   UNL A   1      40.056  35.929  38.110  1.00  0.00     0.198 A 
ATOM     70  F   UNL A   1      40.972  35.547  35.977  1.00  0.00    -0.203 F 
ATOM     71  F   UNL A   1      37.798  33.916  40.102  1.00  0.00    -0.200 F 
ATOM     72  C   UNL A   1      39.250  35.524  39.162  1.00  0.00     0.200 A 
ATOM     73  F   UNL A   1      40.696  37.106  38.172  1.00  0.00    -0.200 F 
ATOM     74  F   UNL A   1      39.085  36.319  40.229  1.00  0.00    -0.200 F 
ENDBRANCH  40  64
BRANCH  52  75
ATOM     75  C   UNL A   1      43.954  28.752  35.163  1.00  0.00     0.064 A 
ATOM     76  C   UNL A   1      45.252  29.256  34.992  1.00  0.00     0.173 A 
ATOM     77  C   UNL A   1      43.783  27.665  36.034  1.00  0.00     0.173 A 
ATOM     78  F   UNL A   1      45.473  30.285  34.160  1.00  0.00    -0.203 F 
ATOM     79  C   UNL A   1      46.339  28.669  35.635  1.00  0.00     0.198 A 
ATOM     80  C   UNL A   1      44.866  27.104  36.704  1.00  0.00     0.198 A 
ATOM     81  F   UNL A   1      42.561  27.149  36.241  1.00  0.00    -0.203 F 
ATOM     82  F   UNL A   1      47.578  29.125  35.404  1.00  0.00    -0.200 F 
ATOM     83  C   UNL A   1      46.145  27.598  36.494  1.00  0.00     0.200 A 
ATOM     84  F   UNL A   1      44.673  26.081  37.548  1.00  0.00    -0.200 F 
ATOM     85  F   UNL A   1      47.191  27.035  37.113  1.00  0.00    -0.200 F 
ENDBRANCH  52  75
ENDBRANCH  26  27
ENDBRANCH  18  21
ENDBRANCH  16  17
ENDBRANCH  15  16
ENDBRANCH   1  15
TORSDOF 13
ENDMDL
MODEL 3
REMARK VINA RESULT:     -10.7      6.342     10.346
REMARK SMILES CC(=O)/C=C(/C)NCC(=O)NCCCNC(=O)c1ccc(-c2c3nc(c(-c4c(F)c(F)c(F)c(F)c4F)c4ccc([nH]4)c(-c4c(F)c(F)c(F)c(F)c4F)c4nc(c(-c5c(F)c(F)c(F)c(F)c5F)c5ccc2[nH]5)C=C4)C=C3)cc1
REMARK SMILES IDX 12 1 11 2 9 3 10 4 8 6 7 7 5 9 4 10 6 11 2 12 1 13 3 14
REMARK SMILES IDX 13 15 14 16 15 17 16 18 17 20 18 21 19 22 80 23 20 24 79 25
REMARK SMILES IDX 21 26 22 27 23 28 73 29 24 30 78 31 72 32 74 33 25 34 77 35
REMARK SMILES IDX 71 36 70 37 26 39 58 40 38 41 57 42 39 43 42 44 56 45 75 46
REMARK SMILES IDX 40 47 41 48 55 50 76 51 43 52 27 53 28 54 36 55 29 56 30 57
REMARK SMILES IDX 34 58 37 59 31 60 32 61 35 62 33 63 59 64 60 65 68 66 61 67
REMARK SMILES IDX 62 68 66 69 69 70 63 71 64 72 67 73 65 74 44 75 45 76 53 77
REMARK SMILES IDX 46 78 47 79 51 80 54 81 48 82 49 83 52 84 50 85
REMARK H PARENT 11 5 7 8 15 19 74 38 42 49
REMARK Flexibility Score: inf
ROOT
ATOM      1  C   UNL A   1      37.385  20.996  24.693  1.00  0.00     0.117 C 
ENDROOT
BRANCH   1   2
ATOM      2  N   UNL A   1      37.921  22.209  25.273  1.00  0.00    -0.355 N 
ATOM      3  C   UNL A   1      37.291  23.268  25.855  1.00  0.00     0.239 C 
ATOM      4  O   UNL A   1      38.013  24.191  26.252  1.00  0.00    -0.273 OA
ATOM      5  H   UNL A   1      38.903  22.282  25.241  1.00  0.00     0.163 HD
BRANCH   3   6
ATOM      6  C   UNL A   1      35.776  23.316  26.102  1.00  0.00     0.213 C 
BRANCH   6   7
ATOM      7  N   UNL A   1      35.075  24.392  25.428  1.00  0.00    -0.380 N 
ATOM      8  H   UNL A   1      35.574  24.762  24.663  1.00  0.00     0.160 HD
BRANCH   7   9
ATOM      9  C   UNL A   1      33.852  25.007  25.631  1.00  0.00     0.011 C 
ATOM     10  C   UNL A   1      32.653  24.571  26.071  1.00  0.00     0.067 C 
ATOM     11  C   UNL A   1      33.874  26.462  25.155  1.00  0.00     0.064 C 
BRANCH  10  12
ATOM     12  C   UNL A   1      31.997  23.306  26.522  1.00  0.00     0.154 C 
ATOM     13  C   UNL A   1      31.991  22.048  25.713  1.00  0.00     0.093 C 
ATOM     14  O   UNL A   1      31.450  23.322  27.630  1.00  0.00    -0.295 OA
ENDBRANCH  10  12
ENDBRANCH   7   9
ENDBRANCH   6   7
ENDBRANCH   3   6
ENDBRANCH   1   2
BRANCH   1  15
ATOM     15  C   UNL A   1      38.241  19.775  25.003  1.00  0.00     0.042 C 
BRANCH  15  16
ATOM     16  C   UNL A   1      39.271  20.028  26.096  1.00  0.00     0.118 C 
BRANCH  16  17
ATOM     17  N   UNL A   1      40.362  19.065  26.073  1.00  0.00    -0.352 N 
ATOM     18  C   UNL A   1      41.719  19.257  26.126  1.00  0.00     0.251 C 
ATOM     19  H   UNL A   1      40.080  18.123  26.007  1.00  0.00     0.163 HD
ATOM     20  O   UNL A   1      42.473  18.311  25.921  1.00  0.00    -0.269 OA
BRANCH  18  21
ATOM     21  C   UNL A   1      42.280  20.596  26.400  1.00  0.00     0.039 A 
ATOM     22  C   UNL A   1      42.640  21.402  25.316  1.00  0.00     0.014 A 
ATOM     23  C   UNL A   1      42.475  21.056  27.706  1.00  0.00     0.014 A 
ATOM     24  C   UNL A   1      43.134  22.687  25.541  1.00  0.00     0.010 A 
ATOM     25  C   UNL A   1      42.889  22.368  27.927  1.00  0.00     0.010 A 
ATOM     26  C   UNL A   1      43.225  23.196  26.847  1.00  0.00    -0.014 A 
BRANCH  26  27
ATOM     27  C   UNL A   1      43.647  24.599  27.087  1.00  0.00     0.031 A 
ATOM     28  C   UNL A   1      42.663  25.624  27.578  1.00  0.00     0.074 A 
ATOM     29  C   UNL A   1      44.918  24.957  26.817  1.00  0.00     0.049 A 
ATOM     30  N   UNL A   1      42.849  26.897  27.825  1.00  0.00    -0.248 NA
ATOM     31  C   UNL A   1      41.282  25.169  27.798  1.00  0.00     0.031 C 
ATOM     32  C   UNL A   1      45.949  24.067  26.280  1.00  0.00     0.029 A 
ATOM     33  N   UNL A   1      45.559  26.163  26.950  1.00  0.00    -0.354 N 
ATOM     34  C   UNL A   1      41.613  27.392  28.218  1.00  0.00     0.074 A 
ATOM     35  C   UNL A   1      40.670  26.298  28.124  1.00  0.00     0.031 C 
ATOM     36  C   UNL A   1      47.100  24.748  26.159  1.00  0.00     0.029 A 
ATOM     37  C   UNL A   1      46.878  26.131  26.568  1.00  0.00     0.049 A 
ATOM     38  H   UNL A   1      45.115  26.975  27.287  1.00  0.00     0.167 HD
ATOM     39  C   UNL A   1      41.298  28.640  28.641  1.00  0.00     0.037 A 
ATOM     40  C   UNL A   1      47.804  27.108  26.544  1.00  0.00     0.037 A 
ATOM     41  C   UNL A   1      42.245  29.719  28.751  1.00  0.00     0.049 A 
ATOM     42  C   UNL A   1      47.425  28.485  27.019  1.00  0.00     0.074 A 
ATOM     43  C   UNL A   1      42.039  31.001  29.232  1.00  0.00     0.029 A 
ATOM     44  N   UNL A   1      43.576  29.647  28.365  1.00  0.00    -0.354 N 
ATOM     45  N   UNL A   1      46.273  28.918  27.470  1.00  0.00    -0.248 NA
ATOM     46  C   UNL A   1      48.480  29.506  26.990  1.00  0.00     0.031 C 
ATOM     47  C   UNL A   1      43.230  31.721  29.083  1.00  0.00     0.029 A 
ATOM     48  C   UNL A   1      44.196  30.872  28.569  1.00  0.00     0.049 A 
ATOM     49  H   UNL A   1      44.016  28.846  28.002  1.00  0.00     0.167 HD
ATOM     50  C   UNL A   1      46.470  30.253  27.801  1.00  0.00     0.074 A 
ATOM     51  C   UNL A   1      47.859  30.549  27.525  1.00  0.00     0.031 C 
ATOM     52  C   UNL A   1      45.580  31.153  28.286  1.00  0.00     0.037 A 
BRANCH  39  53
ATOM     53  C   UNL A   1      39.870  28.911  29.020  1.00  0.00     0.064 A 
ATOM     54  C   UNL A   1      38.926  29.348  28.079  1.00  0.00     0.173 A 
ATOM     55  C   UNL A   1      39.425  28.675  30.330  1.00  0.00     0.173 A 
ATOM     56  F   UNL A   1      39.299  29.598  26.814  1.00  0.00    -0.203 F 
ATOM     57  C   UNL A   1      37.598  29.562  28.439  1.00  0.00     0.198 A 
ATOM     58  C   UNL A   1      38.091  28.858  30.680  1.00  0.00     0.198 A 
ATOM     59  F   UNL A   1      40.284  28.251  31.270  1.00  0.00    -0.203 F 
ATOM     60  F   UNL A   1      36.725  30.022  27.533  1.00  0.00    -0.200 F 
ATOM     61  C   UNL A   1      37.179  29.308  29.737  1.00  0.00     0.200 A 
ATOM     62  F   UNL A   1      37.684  28.598  31.930  1.00  0.00    -0.200 F 
ATOM     63  F   UNL A   1      35.898  29.500  30.078  1.00  0.00    -0.200 F 
ENDBRANCH  39  53
BRANCH  40  64
ATOM     64  C   UNL A   1      49.183  26.819  26.066  1.00  0.00     0.064 A 
ATOM     65  C   UNL A   1      49.540  27.022  24.725  1.00  0.00     0.173 A 
ATOM     66  C   UNL A   1      50.164  26.317  26.932  1.00  0.00     0.173 A 
ATOM     67  F   UNL A   1      48.633  27.483  23.852  1.00  0.00    -0.203 F 
ATOM     68  C   UNL A   1      50.817  26.703  24.265  1.00  0.00     0.198 A 
ATOM     69  C   UNL A   1      51.449  26.032  26.478  1.00  0.00     0.198 A 
ATOM     70  F   UNL A   1      49.876  26.111  28.227  1.00  0.00    -0.203 F 
ATOM     71  F   UNL A   1      51.114  26.850  22.966  1.00  0.00    -0.200 F 
ATOM     72  C   UNL A   1      51.772  26.214  25.143  1.00  0.00     0.200 A 
ATOM     73  F   UNL A   1      52.374  25.576  27.335  1.00  0.00    -0.200 F 
ATOM     74  F   UNL A   1      52.999  25.908  24.699  1.00  0.00    -0.200 F 
ENDBRANCH  40  64
BRANCH  52  75
ATOM     75  C   UNL A   1      46.093  32.536  28.574  1.00  0.00     0.064 A 
ATOM     76  C   UNL A   1      46.640  32.875  29.821  1.00  0.00     0.173 A 
ATOM     77  C   UNL A   1      46.050  33.530  27.585  1.00  0.00     0.173 A 
ATOM     78  F   UNL A   1      46.692  31.965  30.806  1.00  0.00    -0.203 F 
ATOM     79  C   UNL A   1      47.088  34.168  30.079  1.00  0.00     0.198 A 
ATOM     80  C   UNL A   1      46.532  34.812  27.834  1.00  0.00     0.198 A 
ATOM     81  F   UNL A   1      45.545  33.258  26.372  1.00  0.00    -0.203 F 
ATOM     82  F   UNL A   1      47.545  34.486  31.298  1.00  0.00    -0.200 F 
ATOM     83  C   UNL A   1      47.039  35.133  29.085  1.00  0.00     0.200 A 
ATOM     84  F   UNL A   1      46.501  35.738  26.866  1.00  0.00    -0.200 F 
ATOM     85  F   UNL A   1      47.472  36.377  29.334  1.00  0.00    -0.200 F 
ENDBRANCH  52  75
ENDBRANCH  26  27
ENDBRANCH  18  21
ENDBRANCH  16  17
ENDBRANCH  15  16
ENDBRANCH   1  15
TORSDOF 13
ENDMDL
