MODEL 1
REMARK VINA RESULT:     -12.9      0.000      0.000
REMARK SMILES O=C(NCCCNC(=O)c1cccc(Oc2ncc([N+](=O)[O-])cc2Br)c1)c1ccc(-c2c3nc(c(-c4c(F)c(F)c(F)c(F)c4F)c4ccc([nH]4)c(-c4c(F)c(F)c(F)c(F)c4F)c4nc(c(-c5c(F)c(F)c(F)c(F)c5F)c5ccc2[nH]5)C=C4)C=C3)cc1
REMARK SMILES IDX 5 1 4 2 3 3 1 4 2 5 27 7 28 8 89 9 29 10 88 11 30 12 31 13
REMARK SMILES IDX 32 14 82 15 33 16 87 17 81 18 83 19 34 20 86 21 80 22 79 23
REMARK SMILES IDX 35 25 67 26 47 27 66 28 48 29 51 30 65 31 84 32 49 33 50 34
REMARK SMILES IDX 64 36 85 37 52 38 36 39 37 40 45 41 38 42 39 43 43 44 46 45
REMARK SMILES IDX 40 46 41 47 44 48 42 49 68 50 69 51 77 52 70 53 71 54 75 55
REMARK SMILES IDX 78 56 72 57 73 58 76 59 74 60 53 61 54 62 62 63 55 64 56 65
REMARK SMILES IDX 60 66 63 67 57 68 58 69 61 70 59 71 6 72 7 73 8 74 9 76
REMARK SMILES IDX 10 77 11 78 26 79 12 80 14 81 13 82 15 83 16 84 17 85 24 86
REMARK SMILES IDX 18 87 23 88 25 89 19 90 20 91 21 92 22 93
REMARK H PARENT 3 6 83 24 51 35 7 75
REMARK Flexibility Score: inf
ROOT
ATOM      1  C   UNL A   1      31.404  32.181  26.676  1.00  0.00     0.042 C 
ENDROOT
BRANCH   1   2
ATOM      2  C   UNL A   1      32.669  32.859  27.174  1.00  0.00     0.118 C 
BRANCH   2   3
ATOM      3  N   UNL A   1      32.438  34.219  27.646  1.00  0.00    -0.352 N 
ATOM      4  O   UNL A   1      32.570  35.993  29.029  1.00  0.00    -0.269 OA
ATOM      5  C   UNL A   1      33.028  34.909  28.677  1.00  0.00     0.251 C 
ATOM      6  H   UNL A   1      31.752  34.721  27.148  1.00  0.00     0.163 HD
BRANCH   5   7
ATOM      7  C   UNL A   1      34.193  34.336  29.384  1.00  0.00     0.039 A 
ATOM      8  C   UNL A   1      35.491  34.624  28.962  1.00  0.00     0.014 A 
ATOM      9  C   UNL A   1      33.986  33.497  30.482  1.00  0.00     0.014 A 
ATOM     10  C   UNL A   1      36.561  33.920  29.496  1.00  0.00     0.010 A 
ATOM     11  C   UNL A   1      35.078  32.886  31.104  1.00  0.00     0.010 A 
ATOM     12  C   UNL A   1      36.372  33.058  30.587  1.00  0.00    -0.014 A 
BRANCH  12  13
ATOM     13  C   UNL A   1      37.555  32.403  31.199  1.00  0.00     0.031 A 
ATOM     14  C   UNL A   1      38.012  32.755  32.586  1.00  0.00     0.074 A 
ATOM     15  C   UNL A   1      38.198  31.450  30.497  1.00  0.00     0.049 A 
ATOM     16  N   UNL A   1      39.013  32.263  33.275  1.00  0.00    -0.248 NA
ATOM     17  C   UNL A   1      37.259  33.802  33.291  1.00  0.00     0.031 C 
ATOM     18  C   UNL A   1      37.845  31.027  29.139  1.00  0.00     0.029 A 
ATOM     19  N   UNL A   1      39.260  30.651  30.827  1.00  0.00    -0.354 N 
ATOM     20  C   UNL A   1      39.024  32.956  34.479  1.00  0.00     0.074 A 
ATOM     21  C   UNL A   1      37.950  33.923  34.417  1.00  0.00     0.031 C 
ATOM     22  C   UNL A   1      38.635  30.007  28.777  1.00  0.00     0.029 A 
ATOM     23  C   UNL A   1      39.598  29.757  29.841  1.00  0.00     0.049 A 
ATOM     24  H   UNL A   1      39.735  30.711  31.688  1.00  0.00     0.167 HD
ATOM     25  C   UNL A   1      39.854  32.793  35.539  1.00  0.00     0.037 A 
ATOM     26  C   UNL A   1      40.587  28.847  29.790  1.00  0.00     0.037 A 
ATOM     27  C   UNL A   1      40.915  31.818  35.594  1.00  0.00     0.049 A 
ATOM     28  C   UNL A   1      41.513  28.713  30.962  1.00  0.00     0.074 A 
ATOM     29  C   UNL A   1      41.786  31.546  36.635  1.00  0.00     0.029 A 
ATOM     30  N   UNL A   1      41.257  30.959  34.557  1.00  0.00    -0.354 N 
ATOM     31  N   UNL A   1      41.494  29.349  32.108  1.00  0.00    -0.248 NA
ATOM     32  C   UNL A   1      42.600  27.736  30.832  1.00  0.00     0.031 C 
ATOM     33  C   UNL A   1      42.690  30.566  36.208  1.00  0.00     0.029 A 
ATOM     34  C   UNL A   1      42.343  30.179  34.923  1.00  0.00     0.049 A 
ATOM     35  H   UNL A   1      40.794  30.912  33.689  1.00  0.00     0.167 HD
ATOM     36  C   UNL A   1      42.550  28.836  32.845  1.00  0.00     0.074 A 
ATOM     37  C   UNL A   1      43.180  27.824  32.021  1.00  0.00     0.031 C 
ATOM     38  C   UNL A   1      42.960  29.174  34.093  1.00  0.00     0.037 A 
BRANCH  25  39
ATOM     39  C   UNL A   1      39.670  33.712  36.714  1.00  0.00     0.064 A 
ATOM     40  C   UNL A   1      38.857  33.370  37.806  1.00  0.00     0.173 A 
ATOM     41  C   UNL A   1      40.332  34.949  36.757  1.00  0.00     0.173 A 
ATOM     42  F   UNL A   1      38.191  32.205  37.815  1.00  0.00    -0.203 F 
ATOM     43  C   UNL A   1      38.684  34.247  38.875  1.00  0.00     0.198 A 
ATOM     44  C   UNL A   1      40.185  35.809  37.843  1.00  0.00     0.198 A 
ATOM     45  F   UNL A   1      41.129  35.325  35.746  1.00  0.00    -0.203 F 
ATOM     46  F   UNL A   1      37.856  33.924  39.878  1.00  0.00    -0.200 F 
ATOM     47  C   UNL A   1      39.352  35.462  38.896  1.00  0.00     0.200 A 
ATOM     48  F   UNL A   1      40.842  36.976  37.866  1.00  0.00    -0.200 F 
ATOM     49  F   UNL A   1      39.186  36.304  39.926  1.00  0.00    -0.200 F 
ENDBRANCH  25  39
BRANCH  26  50
ATOM     50  C   UNL A   1      40.735  27.994  28.583  1.00  0.00     0.064 A 
ATOM     51  C   UNL A   1      40.080  26.759  28.490  1.00  0.00     0.173 A 
ATOM     52  C   UNL A   1      41.502  28.412  27.485  1.00  0.00     0.173 A 
ATOM     53  F   UNL A   1      39.348  26.310  29.520  1.00  0.00    -0.203 F 
ATOM     54  C   UNL A   1      40.195  25.970  27.347  1.00  0.00     0.198 A 
ATOM     55  C   UNL A   1      41.591  27.637  26.332  1.00  0.00     0.198 A 
ATOM     56  F   UNL A   1      42.141  29.592  27.521  1.00  0.00    -0.203 F 
ATOM     57  F   UNL A   1      39.587  24.778  27.297  1.00  0.00    -0.200 F 
ATOM     58  C   UNL A   1      40.942  26.414  26.267  1.00  0.00     0.200 A 
ATOM     59  F   UNL A   1      42.296  28.080  25.282  1.00  0.00    -0.200 F 
ATOM     60  F   UNL A   1      41.040  25.660  25.162  1.00  0.00    -0.200 F 
ENDBRANCH  26  50
BRANCH  38  61
ATOM     61  C   UNL A   1      44.123  28.411  34.658  1.00  0.00     0.064 A 
ATOM     62  C   UNL A   1      45.440  28.886  34.555  1.00  0.00     0.173 A 
ATOM     63  C   UNL A   1      43.913  27.198  35.331  1.00  0.00     0.173 A 
ATOM     64  F   UNL A   1      45.696  30.031  33.905  1.00  0.00    -0.203 F 
ATOM     65  C   UNL A   1      46.505  28.158  35.079  1.00  0.00     0.198 A 
ATOM     66  C   UNL A   1      44.977  26.490  35.882  1.00  0.00     0.198 A 
ATOM     67  F   UNL A   1      42.673  26.702  35.460  1.00  0.00    -0.203 F 
ATOM     68  F   UNL A   1      47.759  28.603  34.920  1.00  0.00    -0.200 F 
ATOM     69  C   UNL A   1      46.272  26.966  35.748  1.00  0.00     0.200 A 
ATOM     70  F   UNL A   1      44.748  25.345  36.541  1.00  0.00    -0.200 F 
ATOM     71  F   UNL A   1      47.299  26.270  36.256  1.00  0.00    -0.200 F 
ENDBRANCH  38  61
ENDBRANCH  12  13
ENDBRANCH   5   7
ENDBRANCH   2   3
ENDBRANCH   1   2
BRANCH   1  72
ATOM     72  C   UNL A   1      31.636  30.784  26.129  1.00  0.00     0.118 C 
BRANCH  72  73
ATOM     73  N   UNL A   1      31.835  29.807  27.192  1.00  0.00    -0.352 N 
ATOM     74  C   UNL A   1      31.760  28.436  27.155  1.00  0.00     0.251 C 
ATOM     75  H   UNL A   1      32.058  30.187  28.072  1.00  0.00     0.163 HD
ATOM     76  O   UNL A   1      31.714  27.800  28.203  1.00  0.00    -0.269 OA
BRANCH  74  77
ATOM     77  C   UNL A   1      31.764  27.725  25.858  1.00  0.00     0.043 A 
ATOM     78  C   UNL A   1      32.861  26.949  25.491  1.00  0.00     0.014 A 
ATOM     79  C   UNL A   1      30.701  27.901  24.969  1.00  0.00     0.061 A 
ATOM     80  C   UNL A   1      32.858  26.299  24.255  1.00  0.00     0.005 A 
ATOM     81  C   UNL A   1      30.676  27.235  23.744  1.00  0.00     0.130 A 
ATOM     82  C   UNL A   1      31.763  26.433  23.392  1.00  0.00     0.047 A 
BRANCH  81  83
ATOM     83  O   UNL A   1      29.661  27.347  22.814  1.00  0.00    -0.438 OA
BRANCH  83  84
ATOM     84  C   UNL A   1      29.230  28.624  22.508  1.00  0.00     0.234 A 
ATOM     85  N   UNL A   1      30.137  29.413  21.875  1.00  0.00    -0.214 NA
ATOM     86  C   UNL A   1      27.937  29.048  22.829  1.00  0.00     0.087 A 
ATOM     87  C   UNL A   1      29.735  30.660  21.523  1.00  0.00     0.200 A 
ATOM     88  C   UNL A   1      27.529  30.314  22.411  1.00  0.00     0.108 A 
ATOM     89  Br  UNL A   1      26.698  27.950  23.749  1.00  0.00    -0.045 Br
ATOM     90  C   UNL A   1      28.449  31.131  21.750  1.00  0.00     0.288 A 
BRANCH  90  91
ATOM     91  N   UNL A   1      28.071  32.457  21.288  1.00  0.00     0.064 N 
ATOM     92  O   UNL A   1      28.084  33.378  22.113  1.00  0.00    -0.258 OA
ATOM     93  O   UNL A   1      27.767  32.578  20.093  1.00  0.00    -0.258 OA
ENDBRANCH  90  91
ENDBRANCH  83  84
ENDBRANCH  81  83
ENDBRANCH  74  77
ENDBRANCH  72  73
ENDBRANCH   1  72
TORSDOF 13
ENDMDL
MODEL 2
REMARK VINA RESULT:     -12.8      0.572      7.436
REMARK SMILES O=C(NCCCNC(=O)c1cccc(Oc2ncc([N+](=O)[O-])cc2Br)c1)c1ccc(-c2c3nc(c(-c4c(F)c(F)c(F)c(F)c4F)c4ccc([nH]4)c(-c4c(F)c(F)c(F)c(F)c4F)c4nc(c(-c5c(F)c(F)c(F)c(F)c5F)c5ccc2[nH]5)C=C4)C=C3)cc1
REMARK SMILES IDX 5 1 4 2 3 3 1 4 2 5 27 7 28 8 89 9 29 10 88 11 30 12 31 13
REMARK SMILES IDX 32 14 82 15 33 16 87 17 81 18 83 19 34 20 86 21 80 22 79 23
REMARK SMILES IDX 35 25 67 26 47 27 66 28 48 29 51 30 65 31 84 32 49 33 50 34
REMARK SMILES IDX 64 36 85 37 52 38 36 39 37 40 45 41 38 42 39 43 43 44 46 45
REMARK SMILES IDX 40 46 41 47 44 48 42 49 68 50 69 51 77 52 70 53 71 54 75 55
REMARK SMILES IDX 78 56 72 57 73 58 76 59 74 60 53 61 54 62 62 63 55 64 56 65
REMARK SMILES IDX 60 66 63 67 57 68 58 69 61 70 59 71 6 72 7 73 8 74 9 76
REMARK SMILES IDX 10 77 11 78 26 79 12 80 14 81 13 82 15 83 16 84 17 85 24 86
REMARK SMILES IDX 18 87 23 88 25 89 19 90 20 91 21 92 22 93
REMARK H PARENT 3 6 83 24 51 35 7 75
REMARK Flexibility Score: inf
ROOT
ATOM      1  C   UNL A   1      31.255  32.239  26.858  1.00  0.00     0.042 C 
ENDROOT
BRANCH   1   2
ATOM      2  C   UNL A   1      32.574  32.913  27.191  1.00  0.00     0.118 C 
BRANCH   2   3
ATOM      3  N   UNL A   1      32.415  34.300  27.611  1.00  0.00    -0.352 N 
ATOM      4  O   UNL A   1      32.642  36.117  28.925  1.00  0.00    -0.269 OA
ATOM      5  C   UNL A   1      33.042  34.997  28.616  1.00  0.00     0.251 C 
ATOM      6  H   UNL A   1      31.758  34.818  27.092  1.00  0.00     0.163 HD
BRANCH   5   7
ATOM      7  C   UNL A   1      34.174  34.390  29.347  1.00  0.00     0.039 A 
ATOM      8  C   UNL A   1      35.486  34.605  28.926  1.00  0.00     0.014 A 
ATOM      9  C   UNL A   1      33.921  33.595  30.467  1.00  0.00     0.014 A 
ATOM     10  C   UNL A   1      36.519  33.867  29.486  1.00  0.00     0.010 A 
ATOM     11  C   UNL A   1      34.981  32.951  31.114  1.00  0.00     0.010 A 
ATOM     12  C   UNL A   1      36.283  33.047  30.601  1.00  0.00    -0.014 A 
BRANCH  12  13
ATOM     13  C   UNL A   1      37.431  32.355  31.240  1.00  0.00     0.031 A 
ATOM     14  C   UNL A   1      38.196  31.282  30.519  1.00  0.00     0.074 A 
ATOM     15  C   UNL A   1      37.802  32.734  32.478  1.00  0.00     0.049 A 
ATOM     16  N   UNL A   1      39.233  30.593  30.925  1.00  0.00    -0.248 NA
ATOM     17  C   UNL A   1      37.732  30.925  29.171  1.00  0.00     0.031 C 
ATOM     18  C   UNL A   1      37.132  33.763  33.278  1.00  0.00     0.029 A 
ATOM     19  N   UNL A   1      38.840  32.322  33.272  1.00  0.00    -0.354 N 
ATOM     20  C   UNL A   1      39.530  29.708  29.898  1.00  0.00     0.074 A 
ATOM     21  C   UNL A   1      38.546  29.925  28.859  1.00  0.00     0.031 C 
ATOM     22  C   UNL A   1      37.809  33.944  34.419  1.00  0.00     0.029 A 
ATOM     23  C   UNL A   1      38.912  32.993  34.468  1.00  0.00     0.049 A 
ATOM     24  H   UNL A   1      39.472  31.614  33.011  1.00  0.00     0.167 HD
ATOM     25  C   UNL A   1      40.536  28.801  29.827  1.00  0.00     0.037 A 
ATOM     26  C   UNL A   1      39.761  32.848  35.501  1.00  0.00     0.037 A 
ATOM     27  C   UNL A   1      41.519  28.601  30.864  1.00  0.00     0.049 A 
ATOM     28  C   UNL A   1      40.842  31.813  35.412  1.00  0.00     0.074 A 
ATOM     29  C   UNL A   1      42.601  27.738  30.874  1.00  0.00     0.029 A 
ATOM     30  N   UNL A   1      41.534  29.269  32.082  1.00  0.00    -0.354 N 
ATOM     31  N   UNL A   1      41.135  31.005  34.422  1.00  0.00    -0.248 NA
ATOM     32  C   UNL A   1      41.710  31.667  36.586  1.00  0.00     0.031 C 
ATOM     33  C   UNL A   1      43.233  27.840  32.119  1.00  0.00     0.029 A 
ATOM     34  C   UNL A   1      42.586  28.815  32.862  1.00  0.00     0.049 A 
ATOM     35  H   UNL A   1      40.890  29.964  32.351  1.00  0.00     0.167 HD
ATOM     36  C   UNL A   1      42.233  30.270  34.843  1.00  0.00     0.074 A 
ATOM     37  C   UNL A   1      42.563  30.740  36.172  1.00  0.00     0.031 C 
ATOM     38  C   UNL A   1      42.905  29.293  34.184  1.00  0.00     0.037 A 
BRANCH  25  39
ATOM     39  C   UNL A   1      40.606  27.933  28.603  1.00  0.00     0.064 A 
ATOM     40  C   UNL A   1      39.932  26.704  28.521  1.00  0.00     0.173 A 
ATOM     41  C   UNL A   1      41.346  28.345  27.483  1.00  0.00     0.173 A 
ATOM     42  F   UNL A   1      39.219  26.255  29.565  1.00  0.00    -0.203 F 
ATOM     43  C   UNL A   1      40.028  25.906  27.383  1.00  0.00     0.198 A 
ATOM     44  C   UNL A   1      41.412  27.561  26.333  1.00  0.00     0.198 A 
ATOM     45  F   UNL A   1      42.004  29.515  27.500  1.00  0.00    -0.203 F 
ATOM     46  F   UNL A   1      39.424  24.711  27.353  1.00  0.00    -0.200 F 
ATOM     47  C   UNL A   1      40.762  26.338  26.289  1.00  0.00     0.200 A 
ATOM     48  F   UNL A   1      42.111  27.987  25.272  1.00  0.00    -0.200 F 
ATOM     49  F   UNL A   1      40.852  25.569  25.194  1.00  0.00    -0.200 F 
ENDBRANCH  25  39
BRANCH  26  50
ATOM     50  C   UNL A   1      39.614  33.716  36.697  1.00  0.00     0.064 A 
ATOM     51  C   UNL A   1      40.229  34.973  36.754  1.00  0.00     0.173 A 
ATOM     52  C   UNL A   1      38.827  33.323  37.791  1.00  0.00     0.173 A 
ATOM     53  F   UNL A   1      41.003  35.386  35.739  1.00  0.00    -0.203 F 
ATOM     54  C   UNL A   1      40.070  35.801  37.863  1.00  0.00     0.198 A 
ATOM     55  C   UNL A   1      38.644  34.163  38.885  1.00  0.00     0.198 A 
ATOM     56  F   UNL A   1      38.210  32.131  37.780  1.00  0.00    -0.203 F 
ATOM     57  F   UNL A   1      40.696  36.984  37.906  1.00  0.00    -0.200 F 
ATOM     58  C   UNL A   1      39.271  35.399  38.922  1.00  0.00     0.200 A 
ATOM     59  F   UNL A   1      37.854  33.780  39.897  1.00  0.00    -0.200 F 
ATOM     60  F   UNL A   1      39.107  36.203  39.983  1.00  0.00    -0.200 F 
ENDBRANCH  26  50
BRANCH  38  61
ATOM     61  C   UNL A   1      44.094  28.697  34.881  1.00  0.00     0.064 A 
ATOM     62  C   UNL A   1      43.982  27.556  35.691  1.00  0.00     0.173 A 
ATOM     63  C   UNL A   1      45.367  29.263  34.717  1.00  0.00     0.173 A 
ATOM     64  F   UNL A   1      42.784  26.988  35.894  1.00  0.00    -0.203 F 
ATOM     65  C   UNL A   1      45.097  27.024  36.334  1.00  0.00     0.198 A 
ATOM     66  C   UNL A   1      46.484  28.709  35.335  1.00  0.00     0.198 A 
ATOM     67  F   UNL A   1      45.529  30.353  33.950  1.00  0.00    -0.203 F 
ATOM     68  F   UNL A   1      44.957  25.968  37.147  1.00  0.00    -0.200 F 
ATOM     69  C   UNL A   1      46.347  27.596  36.149  1.00  0.00     0.200 A 
ATOM     70  F   UNL A   1      47.693  29.254  35.144  1.00  0.00    -0.200 F 
ATOM     71  F   UNL A   1      47.418  27.079  36.766  1.00  0.00    -0.200 F 
ENDBRANCH  38  61
ENDBRANCH  12  13
ENDBRANCH   5   7
ENDBRANCH   2   3
ENDBRANCH   1   2
BRANCH   1  72
ATOM     72  C   UNL A   1      31.403  31.005  25.988  1.00  0.00     0.118 C 
BRANCH  72  73
ATOM     73  N   UNL A   1      32.632  30.275  26.278  1.00  0.00    -0.352 N 
ATOM     74  C   UNL A   1      32.850  28.924  26.386  1.00  0.00     0.251 C 
ATOM     75  H   UNL A   1      33.427  30.838  26.417  1.00  0.00     0.163 HD
ATOM     76  O   UNL A   1      33.896  28.514  26.879  1.00  0.00    -0.269 OA
BRANCH  74  77
ATOM     77  C   UNL A   1      31.844  27.965  25.883  1.00  0.00     0.043 A 
ATOM     78  C   UNL A   1      31.534  26.825  26.622  1.00  0.00     0.014 A 
ATOM     79  C   UNL A   1      31.267  28.162  24.626  1.00  0.00     0.061 A 
ATOM     80  C   UNL A   1      30.594  25.920  26.125  1.00  0.00     0.005 A 
ATOM     81  C   UNL A   1      30.309  27.278  24.132  1.00  0.00     0.130 A 
ATOM     82  C   UNL A   1      29.976  26.153  24.890  1.00  0.00     0.047 A 
BRANCH  81  83
ATOM     83  O   UNL A   1      29.685  27.406  22.906  1.00  0.00    -0.438 OA
BRANCH  83  84
ATOM     84  C   UNL A   1      29.233  28.666  22.562  1.00  0.00     0.234 A 
ATOM     85  N   UNL A   1      30.132  29.455  21.915  1.00  0.00    -0.214 NA
ATOM     86  C   UNL A   1      27.930  29.073  22.859  1.00  0.00     0.087 A 
ATOM     87  C   UNL A   1      29.709  30.685  21.526  1.00  0.00     0.200 A 
ATOM     88  C   UNL A   1      27.502  30.320  22.403  1.00  0.00     0.108 A 
ATOM     89  Br  UNL A   1      26.702  27.978  23.796  1.00  0.00    -0.045 Br
ATOM     90  C   UNL A   1      28.413  31.136  21.728  1.00  0.00     0.288 A 
BRANCH  90  91
ATOM     91  N   UNL A   1      28.014  32.442  21.227  1.00  0.00     0.064 N 
ATOM     92  O   UNL A   1      27.677  32.523  20.040  1.00  0.00    -0.258 OA
ATOM     93  O   UNL A   1      28.031  33.388  22.027  1.00  0.00    -0.258 OA
ENDBRANCH  90  91
ENDBRANCH  83  84
ENDBRANCH  81  83
ENDBRANCH  74  77
ENDBRANCH  72  73
ENDBRANCH   1  72
TORSDOF 13
ENDMDL
MODEL 3
REMARK VINA RESULT:     -12.8      6.844     11.974
REMARK SMILES O=C(NCCCNC(=O)c1cccc(Oc2ncc([N+](=O)[O-])cc2Br)c1)c1ccc(-c2c3nc(c(-c4c(F)c(F)c(F)c(F)c4F)c4ccc([nH]4)c(-c4c(F)c(F)c(F)c(F)c4F)c4nc(c(-c5c(F)c(F)c(F)c(F)c5F)c5ccc2[nH]5)C=C4)C=C3)cc1
REMARK SMILES IDX 5 1 4 2 3 3 1 4 2 5 27 7 28 8 89 9 29 10 88 11 30 12 31 13
REMARK SMILES IDX 32 14 82 15 33 16 87 17 81 18 83 19 34 20 86 21 80 22 79 23
REMARK SMILES IDX 35 25 67 26 47 27 66 28 48 29 51 30 65 31 84 32 49 33 50 34
REMARK SMILES IDX 64 36 85 37 52 38 36 39 37 40 45 41 38 42 39 43 43 44 46 45
REMARK SMILES IDX 40 46 41 47 44 48 42 49 68 50 69 51 77 52 70 53 71 54 75 55
REMARK SMILES IDX 78 56 72 57 73 58 76 59 74 60 53 61 54 62 62 63 55 64 56 65
REMARK SMILES IDX 60 66 63 67 57 68 58 69 61 70 59 71 6 72 7 73 8 74 9 76
REMARK SMILES IDX 10 77 11 78 26 79 12 80 14 81 13 82 15 83 16 84 17 85 24 86
REMARK SMILES IDX 18 87 23 88 25 89 19 90 20 91 21 92 22 93
REMARK H PARENT 3 6 83 24 51 35 7 75
REMARK Flexibility Score: inf
ROOT
ATOM      1  C   UNL A   1      38.174  19.669  24.986  1.00  0.00     0.042 C 
ENDROOT
BRANCH   1   2
ATOM      2  C   UNL A   1      39.298  20.058  25.931  1.00  0.00     0.118 C 
BRANCH   2   3
ATOM      3  N   UNL A   1      40.390  19.092  25.945  1.00  0.00    -0.352 N 
ATOM      4  O   UNL A   1      42.518  18.354  25.871  1.00  0.00    -0.269 OA
ATOM      5  C   UNL A   1      41.746  19.291  26.055  1.00  0.00     0.251 C 
ATOM      6  H   UNL A   1      40.113  18.151  25.865  1.00  0.00     0.163 HD
BRANCH   5   7
ATOM      7  C   UNL A   1      42.276  20.637  26.361  1.00  0.00     0.039 A 
ATOM      8  C   UNL A   1      42.394  21.068  27.682  1.00  0.00     0.014 A 
ATOM      9  C   UNL A   1      42.659  21.479  25.315  1.00  0.00     0.014 A 
ATOM     10  C   UNL A   1      42.692  22.397  27.949  1.00  0.00     0.010 A 
ATOM     11  C   UNL A   1      43.084  22.782  25.593  1.00  0.00     0.010 A 
ATOM     12  C   UNL A   1      43.062  23.265  26.910  1.00  0.00    -0.014 A 
BRANCH  12  13
ATOM     13  C   UNL A   1      43.476  24.651  27.244  1.00  0.00     0.031 A 
ATOM     14  C   UNL A   1      44.868  25.141  26.958  1.00  0.00     0.074 A 
ATOM     15  C   UNL A   1      42.564  25.483  27.781  1.00  0.00     0.049 A 
ATOM     16  N   UNL A   1      45.385  26.326  27.169  1.00  0.00    -0.248 NA
ATOM     17  C   UNL A   1      45.806  24.175  26.369  1.00  0.00     0.031 C 
ATOM     18  C   UNL A   1      41.182  25.118  28.105  1.00  0.00     0.029 A 
ATOM     19  N   UNL A   1      42.645  26.807  28.126  1.00  0.00    -0.354 N 
ATOM     20  C   UNL A   1      46.710  26.241  26.764  1.00  0.00     0.074 A 
ATOM     21  C   UNL A   1      46.928  24.881  26.322  1.00  0.00     0.031 C 
ATOM     22  C   UNL A   1      40.531  26.203  28.544  1.00  0.00     0.029 A 
ATOM     23  C   UNL A   1      41.465  27.319  28.607  1.00  0.00     0.049 A 
ATOM     24  H   UNL A   1      43.469  27.338  28.038  1.00  0.00     0.167 HD
ATOM     25  C   UNL A   1      47.656  27.214  26.758  1.00  0.00     0.037 A 
ATOM     26  C   UNL A   1      41.170  28.548  29.066  1.00  0.00     0.037 A 
ATOM     27  C   UNL A   1      47.424  28.570  27.191  1.00  0.00     0.049 A 
ATOM     28  C   UNL A   1      42.244  29.595  29.082  1.00  0.00     0.074 A 
ATOM     29  C   UNL A   1      48.303  29.640  27.188  1.00  0.00     0.029 A 
ATOM     30  N   UNL A   1      46.227  29.041  27.715  1.00  0.00    -0.354 N 
ATOM     31  N   UNL A   1      43.485  29.514  28.666  1.00  0.00    -0.248 NA
ATOM     32  C   UNL A   1      41.878  30.903  29.636  1.00  0.00     0.031 C 
ATOM     33  C   UNL A   1      47.657  30.740  27.764  1.00  0.00     0.029 A 
ATOM     34  C   UNL A   1      46.354  30.376  28.066  1.00  0.00     0.049 A 
ATOM     35  H   UNL A   1      45.408  28.504  27.821  1.00  0.00     0.167 HD
ATOM     36  C   UNL A   1      44.042  30.764  28.885  1.00  0.00     0.074 A 
ATOM     37  C   UNL A   1      42.999  31.590  29.458  1.00  0.00     0.031 C 
ATOM     38  C   UNL A   1      45.306  31.188  28.634  1.00  0.00     0.037 A 
BRANCH  25  39
ATOM     39  C   UNL A   1      49.037  26.838  26.300  1.00  0.00     0.064 A 
ATOM     40  C   UNL A   1      49.990  26.295  27.175  1.00  0.00     0.173 A 
ATOM     41  C   UNL A   1      49.408  27.008  24.957  1.00  0.00     0.173 A 
ATOM     42  F   UNL A   1      49.695  26.121  28.472  1.00  0.00    -0.203 F 
ATOM     43  C   UNL A   1      51.272  25.973  26.732  1.00  0.00     0.198 A 
ATOM     44  C   UNL A   1      50.679  26.653  24.509  1.00  0.00     0.198 A 
ATOM     45  F   UNL A   1      48.535  27.514  24.072  1.00  0.00    -0.203 F 
ATOM     46  F   UNL A   1      52.183  25.512  27.600  1.00  0.00    -0.200 F 
ATOM     47  C   UNL A   1      51.613  26.147  25.399  1.00  0.00     0.200 A 
ATOM     48  F   UNL A   1      51.001  26.809  23.218  1.00  0.00    -0.200 F 
ATOM     49  F   UNL A   1      52.846  25.836  24.975  1.00  0.00    -0.200 F 
ENDBRANCH  25  39
BRANCH  26  50
ATOM     50  C   UNL A   1      39.793  28.842  29.537  1.00  0.00     0.064 A 
ATOM     51  C   UNL A   1      38.833  29.372  28.666  1.00  0.00     0.173 A 
ATOM     52  C   UNL A   1      39.400  28.567  30.856  1.00  0.00     0.173 A 
ATOM     53  F   UNL A   1      39.166  29.667  27.401  1.00  0.00    -0.203 F 
ATOM     54  C   UNL A   1      37.532  29.623  29.099  1.00  0.00     0.198 A 
ATOM     55  C   UNL A   1      38.092  28.789  31.278  1.00  0.00     0.198 A 
ATOM     56  F   UNL A   1      40.281  28.050  31.726  1.00  0.00    -0.203 F 
ATOM     57  F   UNL A   1      36.642  30.161  28.256  1.00  0.00    -0.200 F 
ATOM     58  C   UNL A   1      37.161  29.323  30.401  1.00  0.00     0.200 A 
ATOM     59  F   UNL A   1      37.733  28.478  32.531  1.00  0.00    -0.200 F 
ATOM     60  F   UNL A   1      35.905  29.551  30.811  1.00  0.00    -0.200 F 
ENDBRANCH  26  50
BRANCH  38  61
ATOM     61  C   UNL A   1      45.616  32.625  28.941  1.00  0.00     0.064 A 
ATOM     62  C   UNL A   1      46.154  33.018  30.176  1.00  0.00     0.173 A 
ATOM     63  C   UNL A   1      45.391  33.618  27.976  1.00  0.00     0.173 A 
ATOM     64  F   UNL A   1      46.370  32.109  31.139  1.00  0.00    -0.203 F 
ATOM     65  C   UNL A   1      46.426  34.358  30.442  1.00  0.00     0.198 A 
ATOM     66  C   UNL A   1      45.696  34.952  28.235  1.00  0.00     0.198 A 
ATOM     67  F   UNL A   1      44.881  33.294  26.778  1.00  0.00    -0.203 F 
ATOM     68  F   UNL A   1      46.887  34.717  31.648  1.00  0.00    -0.200 F 
ATOM     69  C   UNL A   1      46.205  35.321  29.470  1.00  0.00     0.200 A 
ATOM     70  F   UNL A   1      45.494  35.879  27.288  1.00  0.00    -0.200 F 
ATOM     71  F   UNL A   1      46.472  36.608  29.727  1.00  0.00    -0.200 F 
ENDBRANCH  38  61
ENDBRANCH  12  13
ENDBRANCH   5   7
ENDBRANCH   2   3
ENDBRANCH   1   2
BRANCH   1  72
ATOM     72  C   UNL A   1      36.965  20.582  25.068  1.00  0.00     0.118 C 
BRANCH  72  73
ATOM     73  N   UNL A   1      37.109  21.759  24.219  1.00  0.00    -0.352 N 
ATOM     74  C   UNL A   1      36.151  22.596  23.702  1.00  0.00     0.251 C 
ATOM     75  H   UNL A   1      38.036  21.990  23.980  1.00  0.00     0.163 HD
ATOM     76  O   UNL A   1      36.449  23.384  22.810  1.00  0.00    -0.269 OA
BRANCH  74  77
ATOM     77  C   UNL A   1      34.774  22.571  24.238  1.00  0.00     0.043 A 
ATOM     78  C   UNL A   1      34.303  23.636  25.004  1.00  0.00     0.014 A 
ATOM     79  C   UNL A   1      33.975  21.442  24.043  1.00  0.00     0.061 A 
ATOM     80  C   UNL A   1      33.006  23.590  25.518  1.00  0.00     0.005 A 
ATOM     81  C   UNL A   1      32.669  21.397  24.530  1.00  0.00     0.130 A 
ATOM     82  C   UNL A   1      32.189  22.479  25.271  1.00  0.00     0.047 A 
BRANCH  81  83
ATOM     83  O   UNL A   1      31.813  20.324  24.373  1.00  0.00    -0.438 OA
BRANCH  83  84
ATOM     84  C   UNL A   1      32.359  19.062  24.509  1.00  0.00     0.234 A 
ATOM     85  N   UNL A   1      32.649  18.683  25.782  1.00  0.00    -0.214 NA
ATOM     86  C   UNL A   1      32.578  18.244  23.397  1.00  0.00     0.087 A 
ATOM     87  C   UNL A   1      33.149  17.434  25.958  1.00  0.00     0.200 A 
ATOM     88  C   UNL A   1      33.043  16.946  23.607  1.00  0.00     0.108 A 
ATOM     89  Br  UNL A   1      32.207  18.802  21.626  1.00  0.00    -0.045 Br
ATOM     90  C   UNL A   1      33.334  16.541  24.912  1.00  0.00     0.288 A 
BRANCH  90  91
ATOM     91  N   UNL A   1      33.816  15.196  25.184  1.00  0.00     0.064 N 
ATOM     92  O   UNL A   1      32.974  14.296  25.296  1.00  0.00    -0.258 OA
ATOM     93  O   UNL A   1      35.041  15.038  25.278  1.00  0.00    -0.258 OA
ENDBRANCH  90  91
ENDBRANCH  83  84
ENDBRANCH  81  83
ENDBRANCH  74  77
ENDBRANCH  72  73
ENDBRANCH   1  72
TORSDOF 13
ENDMDL
