MODEL 1
REMARK VINA RESULT:     -12.4      0.000      0.000
REMARK SMILES O=C(NCCCNC(=O)[C@H]1CCCN(c2ccc(O)nn2)C1)c1ccc(-c2c3nc(c(-c4c(F)c(F)c(F)c(F)c4F)c4ccc([nH]4)c(-c4c(F)c(F)c(F)c(F)c4F)c4nc(c(-c5c(F)c(F)c(F)c(F)c5F)c5ccc2[nH]5)C=C4)C=C3)cc1
REMARK SMILES IDX 5 1 4 2 3 3 1 4 2 5 23 7 24 8 85 9 25 10 84 11 26 12 27 13
REMARK SMILES IDX 28 14 78 15 29 16 83 17 77 18 79 19 30 20 82 21 76 22 75 23
REMARK SMILES IDX 31 25 63 26 43 27 62 28 44 29 47 30 61 31 80 32 45 33 46 34
REMARK SMILES IDX 60 36 81 37 48 38 32 39 33 40 41 41 34 42 35 43 39 44 42 45
REMARK SMILES IDX 36 46 37 47 40 48 38 49 64 50 65 51 73 52 66 53 67 54 71 55
REMARK SMILES IDX 74 56 68 57 69 58 72 59 70 60 49 61 50 62 58 63 51 64 52 65
REMARK SMILES IDX 56 66 59 67 53 68 54 69 57 70 55 71 6 72 7 73 8 74 9 76
REMARK SMILES IDX 10 77 11 78 22 79 12 80 14 81 13 82 15 83 16 84 21 85 17 86
REMARK SMILES IDX 20 87 18 88 19 89
REMARK H PARENT 3 6 79 24 47 35 7 75 19 90
REMARK Flexibility Score: inf
ROOT
ATOM      1  C   UNL A   1      31.405  32.668  26.707  1.00  0.00     0.042 C 
ENDROOT
BRANCH   1   2
ATOM      2  C   UNL A   1      32.714  33.236  27.251  1.00  0.00     0.118 C 
BRANCH   2   3
ATOM      3  N   UNL A   1      32.533  34.572  27.807  1.00  0.00    -0.352 N 
ATOM      4  O   UNL A   1      32.550  36.159  29.403  1.00  0.00    -0.269 OA
ATOM      5  C   UNL A   1      33.029  35.121  28.962  1.00  0.00     0.251 C 
ATOM      6  H   UNL A   1      31.969  35.173  27.270  1.00  0.00     0.163 HD
BRANCH   5   7
ATOM      7  C   UNL A   1      34.143  34.465  29.675  1.00  0.00     0.039 A 
ATOM      8  C   UNL A   1      35.444  34.527  29.167  1.00  0.00     0.014 A 
ATOM      9  C   UNL A   1      33.891  33.829  30.894  1.00  0.00     0.014 A 
ATOM     10  C   UNL A   1      36.473  33.856  29.818  1.00  0.00     0.010 A 
ATOM     11  C   UNL A   1      34.934  33.200  31.575  1.00  0.00     0.010 A 
ATOM     12  C   UNL A   1      36.225  33.185  31.024  1.00  0.00    -0.014 A 
BRANCH  12  13
ATOM     13  C   UNL A   1      37.335  32.480  31.705  1.00  0.00     0.031 A 
ATOM     14  C   UNL A   1      38.029  31.333  31.033  1.00  0.00     0.074 A 
ATOM     15  C   UNL A   1      37.740  32.911  32.914  1.00  0.00     0.049 A 
ATOM     16  N   UNL A   1      39.045  30.622  31.455  1.00  0.00    -0.248 NA
ATOM     17  C   UNL A   1      37.522  30.932  29.711  1.00  0.00     0.031 C 
ATOM     18  C   UNL A   1      37.143  34.025  33.651  1.00  0.00     0.029 A 
ATOM     19  N   UNL A   1      38.754  32.475  33.726  1.00  0.00    -0.354 N 
ATOM     20  C   UNL A   1      39.300  29.698  30.452  1.00  0.00     0.074 A 
ATOM     21  C   UNL A   1      38.312  29.909  29.417  1.00  0.00     0.031 C 
ATOM     22  C   UNL A   1      37.821  34.205  34.796  1.00  0.00     0.029 A 
ATOM     23  C   UNL A   1      38.872  33.195  34.889  1.00  0.00     0.049 A 
ATOM     24  H   UNL A   1      39.342  31.719  33.498  1.00  0.00     0.167 HD
ATOM     25  C   UNL A   1      40.284  28.769  30.397  1.00  0.00     0.037 A 
ATOM     26  C   UNL A   1      39.726  33.050  35.918  1.00  0.00     0.037 A 
ATOM     27  C   UNL A   1      41.264  28.563  31.432  1.00  0.00     0.049 A 
ATOM     28  C   UNL A   1      40.762  31.964  35.861  1.00  0.00     0.074 A 
ATOM     29  C   UNL A   1      42.311  27.659  31.460  1.00  0.00     0.029 A 
ATOM     30  N   UNL A   1      41.310  29.268  32.626  1.00  0.00    -0.354 N 
ATOM     31  N   UNL A   1      41.013  31.111  34.897  1.00  0.00    -0.248 NA
ATOM     32  C   UNL A   1      41.630  31.813  37.037  1.00  0.00     0.031 C 
ATOM     33  C   UNL A   1      42.965  27.787  32.690  1.00  0.00     0.029 A 
ATOM     34  C   UNL A   1      42.352  28.800  33.410  1.00  0.00     0.049 A 
ATOM     35  H   UNL A   1      40.693  29.992  32.879  1.00  0.00     0.167 HD
ATOM     36  C   UNL A   1      42.071  30.332  35.343  1.00  0.00     0.074 A 
ATOM     37  C   UNL A   1      42.430  30.825  36.657  1.00  0.00     0.031 C 
ATOM     38  C   UNL A   1      42.688  29.298  34.720  1.00  0.00     0.037 A 
BRANCH  25  39
ATOM     39  C   UNL A   1      40.356  27.901  29.177  1.00  0.00     0.064 A 
ATOM     40  C   UNL A   1      39.624  26.708  29.086  1.00  0.00     0.173 A 
ATOM     41  C   UNL A   1      41.114  28.294  28.065  1.00  0.00     0.173 A 
ATOM     42  F   UNL A   1      38.896  26.281  30.129  1.00  0.00    -0.203 F 
ATOM     43  C   UNL A   1      39.660  25.932  27.930  1.00  0.00     0.198 A 
ATOM     44  C   UNL A   1      41.128  27.528  26.901  1.00  0.00     0.198 A 
ATOM     45  F   UNL A   1      41.829  29.428  28.099  1.00  0.00    -0.203 F 
ATOM     46  F   UNL A   1      38.977  24.780  27.877  1.00  0.00    -0.200 F 
ATOM     47  C   UNL A   1      40.404  26.347  26.836  1.00  0.00     0.200 A 
ATOM     48  F   UNL A   1      41.842  27.934  25.841  1.00  0.00    -0.200 F 
ATOM     49  F   UNL A   1      40.427  25.606  25.720  1.00  0.00    -0.200 F 
ENDBRANCH  25  39
BRANCH  26  50
ATOM     50  C   UNL A   1      39.639  33.969  37.079  1.00  0.00     0.064 A 
ATOM     51  C   UNL A   1      40.308  35.200  37.074  1.00  0.00     0.173 A 
ATOM     52  C   UNL A   1      38.867  33.649  38.205  1.00  0.00     0.173 A 
ATOM     53  F   UNL A   1      41.074  35.541  36.027  1.00  0.00    -0.203 F 
ATOM     54  C   UNL A   1      40.211  36.075  38.154  1.00  0.00     0.198 A 
ATOM     55  C   UNL A   1      38.751  34.534  39.274  1.00  0.00     0.198 A 
ATOM     56  F   UNL A   1      38.206  32.483  38.257  1.00  0.00    -0.203 F 
ATOM     57  F   UNL A   1      40.883  37.235  38.136  1.00  0.00    -0.200 F 
ATOM     58  C   UNL A   1      39.427  35.745  39.249  1.00  0.00     0.200 A 
ATOM     59  F   UNL A   1      37.982  34.218  40.324  1.00  0.00    -0.200 F 
ATOM     60  F   UNL A   1      39.324  36.593  40.282  1.00  0.00    -0.200 F 
ENDBRANCH  26  50
BRANCH  38  61
ATOM     61  C   UNL A   1      43.814  28.629  35.450  1.00  0.00     0.064 A 
ATOM     62  C   UNL A   1      43.582  27.546  36.309  1.00  0.00     0.173 A 
ATOM     63  C   UNL A   1      45.140  29.033  35.241  1.00  0.00     0.173 A 
ATOM     64  F   UNL A   1      42.328  27.133  36.551  1.00  0.00    -0.203 F 
ATOM     65  C   UNL A   1      44.637  26.900  36.945  1.00  0.00     0.198 A 
ATOM     66  C   UNL A   1      46.195  28.370  35.859  1.00  0.00     0.198 A 
ATOM     67  F   UNL A   1      45.413  30.060  34.422  1.00  0.00    -0.203 F 
ATOM     68  F   UNL A   1      44.392  25.889  37.790  1.00  0.00    -0.200 F 
ATOM     69  C   UNL A   1      45.944  27.306  36.713  1.00  0.00     0.200 A 
ATOM     70  F   UNL A   1      47.457  28.755  35.623  1.00  0.00    -0.200 F 
ATOM     71  F   UNL A   1      46.960  26.676  37.317  1.00  0.00    -0.200 F 
ENDBRANCH  38  61
ENDBRANCH  12  13
ENDBRANCH   5   7
ENDBRANCH   2   3
ENDBRANCH   1   2
BRANCH   1  72
ATOM     72  C   UNL A   1      31.510  31.196  26.332  1.00  0.00     0.117 C 
BRANCH  72  73
ATOM     73  N   UNL A   1      32.702  30.578  26.886  1.00  0.00    -0.356 N 
ATOM     74  C   UNL A   1      33.386  29.434  26.656  1.00  0.00     0.224 C 
ATOM     75  H   UNL A   1      33.109  31.123  27.598  1.00  0.00     0.163 HD
ATOM     76  O   UNL A   1      34.370  29.272  27.390  1.00  0.00    -0.275 OA
BRANCH  74  77
ATOM     77  C   UNL A   1      32.999  28.342  25.652  1.00  0.00     0.098 C 
ATOM     78  C   UNL A   1      33.859  28.197  24.389  1.00  0.00     0.017 C 
ATOM     79  C   UNL A   1      32.961  27.021  26.455  1.00  0.00     0.131 C 
ATOM     80  C   UNL A   1      33.631  26.902  23.607  1.00  0.00     0.022 C 
ATOM     81  N   UNL A   1      32.770  25.882  25.565  1.00  0.00    -0.354 N 
ATOM     82  C   UNL A   1      33.753  25.689  24.518  1.00  0.00     0.118 C 
BRANCH  81  83
ATOM     83  C   UNL A   1      31.864  24.881  25.824  1.00  0.00     0.151 A 
ATOM     84  C   UNL A   1      32.126  23.571  25.434  1.00  0.00     0.054 A 
ATOM     85  N   UNL A   1      30.748  25.148  26.546  1.00  0.00    -0.129 NA
ATOM     86  C   UNL A   1      31.252  22.551  25.788  1.00  0.00     0.074 A 
ATOM     87  N   UNL A   1      29.860  24.158  26.874  1.00  0.00    -0.110 NA
ATOM     88  C   UNL A   1      30.134  22.901  26.499  1.00  0.00     0.231 A 
BRANCH  88  89
ATOM     89  O   UNL A   1      29.227  21.964  26.876  1.00  0.00    -0.492 OA
ATOM     90  H   UNL A   1      28.501  21.763  26.319  1.00  0.00     0.295 HD
ENDBRANCH  88  89
ENDBRANCH  81  83
ENDBRANCH  74  77
ENDBRANCH  72  73
ENDBRANCH   1  72
TORSDOF 12
ENDMDL
MODEL 2
REMARK VINA RESULT:     -12.4      0.763      7.600
REMARK SMILES O=C(NCCCNC(=O)[C@H]1CCCN(c2ccc(O)nn2)C1)c1ccc(-c2c3nc(c(-c4c(F)c(F)c(F)c(F)c4F)c4ccc([nH]4)c(-c4c(F)c(F)c(F)c(F)c4F)c4nc(c(-c5c(F)c(F)c(F)c(F)c5F)c5ccc2[nH]5)C=C4)C=C3)cc1
REMARK SMILES IDX 5 1 4 2 3 3 1 4 2 5 23 7 24 8 85 9 25 10 84 11 26 12 27 13
REMARK SMILES IDX 28 14 78 15 29 16 83 17 77 18 79 19 30 20 82 21 76 22 75 23
REMARK SMILES IDX 31 25 63 26 43 27 62 28 44 29 47 30 61 31 80 32 45 33 46 34
REMARK SMILES IDX 60 36 81 37 48 38 32 39 33 40 41 41 34 42 35 43 39 44 42 45
REMARK SMILES IDX 36 46 37 47 40 48 38 49 64 50 65 51 73 52 66 53 67 54 71 55
REMARK SMILES IDX 74 56 68 57 69 58 72 59 70 60 49 61 50 62 58 63 51 64 52 65
REMARK SMILES IDX 56 66 59 67 53 68 54 69 57 70 55 71 6 72 7 73 8 74 9 76
REMARK SMILES IDX 10 77 11 78 22 79 12 80 14 81 13 82 15 83 16 84 21 85 17 86
REMARK SMILES IDX 20 87 18 88 19 89
REMARK H PARENT 3 6 79 24 47 35 7 75 19 90
REMARK Flexibility Score: inf
ROOT
ATOM      1  C   UNL A   1      31.399  32.332  26.555  1.00  0.00     0.042 C 
ENDROOT
BRANCH   1   2
ATOM      2  C   UNL A   1      32.713  32.943  27.034  1.00  0.00     0.118 C 
BRANCH   2   3
ATOM      3  N   UNL A   1      32.513  34.264  27.619  1.00  0.00    -0.352 N 
ATOM      4  O   UNL A   1      32.576  35.836  29.229  1.00  0.00    -0.269 OA
ATOM      5  C   UNL A   1      33.068  34.825  28.740  1.00  0.00     0.251 C 
ATOM      6  H   UNL A   1      31.883  34.843  27.132  1.00  0.00     0.163 HD
BRANCH   5   7
ATOM      7  C   UNL A   1      34.261  34.216  29.360  1.00  0.00     0.039 A 
ATOM      8  C   UNL A   1      35.542  34.562  28.921  1.00  0.00     0.014 A 
ATOM      9  C   UNL A   1      34.096  33.331  30.431  1.00  0.00     0.014 A 
ATOM     10  C   UNL A   1      36.655  33.937  29.474  1.00  0.00     0.010 A 
ATOM     11  C   UNL A   1      35.216  32.744  31.021  1.00  0.00     0.010 A 
ATOM     12  C   UNL A   1      36.499  33.021  30.526  1.00  0.00    -0.014 A 
BRANCH  12  13
ATOM     13  C   UNL A   1      37.697  32.370  31.105  1.00  0.00     0.031 A 
ATOM     14  C   UNL A   1      38.179  32.753  32.473  1.00  0.00     0.074 A 
ATOM     15  C   UNL A   1      38.317  31.403  30.406  1.00  0.00     0.049 A 
ATOM     16  N   UNL A   1      39.182  32.265  33.159  1.00  0.00    -0.248 NA
ATOM     17  C   UNL A   1      37.437  33.817  33.165  1.00  0.00     0.031 C 
ATOM     18  C   UNL A   1      37.924  30.946  29.073  1.00  0.00     0.029 A 
ATOM     19  N   UNL A   1      39.399  30.622  30.724  1.00  0.00    -0.354 N 
ATOM     20  C   UNL A   1      39.187  32.957  34.362  1.00  0.00     0.074 A 
ATOM     21  C   UNL A   1      38.114  33.926  34.300  1.00  0.00     0.031 C 
ATOM     22  C   UNL A   1      38.734  29.943  28.698  1.00  0.00     0.029 A 
ATOM     23  C   UNL A   1      39.726  29.716  29.746  1.00  0.00     0.049 A 
ATOM     24  H   UNL A   1      39.893  30.703  31.572  1.00  0.00     0.167 HD
ATOM     25  C   UNL A   1      40.006  32.785  35.427  1.00  0.00     0.037 A 
ATOM     26  C   UNL A   1      40.719  28.811  29.698  1.00  0.00     0.037 A 
ATOM     27  C   UNL A   1      41.073  31.820  35.481  1.00  0.00     0.049 A 
ATOM     28  C   UNL A   1      41.657  28.691  30.865  1.00  0.00     0.074 A 
ATOM     29  C   UNL A   1      41.946  31.557  36.521  1.00  0.00     0.029 A 
ATOM     30  N   UNL A   1      41.417  30.964  34.444  1.00  0.00    -0.354 N 
ATOM     31  N   UNL A   1      41.639  29.333  32.009  1.00  0.00    -0.248 NA
ATOM     32  C   UNL A   1      42.759  27.727  30.734  1.00  0.00     0.031 C 
ATOM     33  C   UNL A   1      42.845  30.572  36.099  1.00  0.00     0.029 A 
ATOM     34  C   UNL A   1      42.507  30.191  34.811  1.00  0.00     0.049 A 
ATOM     35  H   UNL A   1      40.956  30.915  33.575  1.00  0.00     0.167 HD
ATOM     36  C   UNL A   1      42.714  28.844  32.737  1.00  0.00     0.074 A 
ATOM     37  C   UNL A   1      43.354  27.838  31.914  1.00  0.00     0.031 C 
ATOM     38  C   UNL A   1      43.136  29.201  33.975  1.00  0.00     0.037 A 
BRANCH  25  39
ATOM     39  C   UNL A   1      39.783  33.656  36.625  1.00  0.00     0.064 A 
ATOM     40  C   UNL A   1      40.379  34.922  36.728  1.00  0.00     0.173 A 
ATOM     41  C   UNL A   1      38.920  33.250  37.653  1.00  0.00     0.173 A 
ATOM     42  F   UNL A   1      41.224  35.350  35.779  1.00  0.00    -0.203 F 
ATOM     43  C   UNL A   1      40.127  35.745  37.824  1.00  0.00     0.198 A 
ATOM     44  C   UNL A   1      38.652  34.084  38.736  1.00  0.00     0.198 A 
ATOM     45  F   UNL A   1      38.323  32.050  37.601  1.00  0.00    -0.203 F 
ATOM     46  F   UNL A   1      40.732  36.938  37.917  1.00  0.00    -0.200 F 
ATOM     47  C   UNL A   1      39.259  35.329  38.821  1.00  0.00     0.200 A 
ATOM     48  F   UNL A   1      37.806  33.685  39.696  1.00  0.00    -0.200 F 
ATOM     49  F   UNL A   1      39.009  36.127  39.869  1.00  0.00    -0.200 F 
ENDBRANCH  25  39
BRANCH  26  50
ATOM     50  C   UNL A   1      40.863  27.941  28.504  1.00  0.00     0.064 A 
ATOM     51  C   UNL A   1      40.185  26.718  28.419  1.00  0.00     0.173 A 
ATOM     52  C   UNL A   1      41.657  28.326  27.415  1.00  0.00     0.173 A 
ATOM     53  F   UNL A   1      39.430  26.299  29.445  1.00  0.00    -0.203 F 
ATOM     54  C   UNL A   1      40.302  25.909  27.291  1.00  0.00     0.198 A 
ATOM     55  C   UNL A   1      41.754  27.529  26.277  1.00  0.00     0.198 A 
ATOM     56  F   UNL A   1      42.324  29.489  27.447  1.00  0.00    -0.203 F 
ATOM     57  F   UNL A   1      39.665  24.731  27.246  1.00  0.00    -0.200 F 
ATOM     58  C   UNL A   1      41.079  26.319  26.218  1.00  0.00     0.200 A 
ATOM     59  F   UNL A   1      42.495  27.934  25.237  1.00  0.00    -0.200 F 
ATOM     60  F   UNL A   1      41.180  25.546  25.127  1.00  0.00    -0.200 F 
ENDBRANCH  26  50
BRANCH  38  61
ATOM     61  C   UNL A   1      44.345  28.501  34.517  1.00  0.00     0.064 A 
ATOM     62  C   UNL A   1      44.236  27.278  35.193  1.00  0.00     0.173 A 
ATOM     63  C   UNL A   1      45.628  29.027  34.307  1.00  0.00     0.173 A 
ATOM     64  F   UNL A   1      43.028  26.744  35.431  1.00  0.00    -0.203 F 
ATOM     65  C   UNL A   1      45.368  26.612  35.651  1.00  0.00     0.198 A 
ATOM     66  C   UNL A   1      46.760  28.346  34.745  1.00  0.00     0.198 A 
ATOM     67  F   UNL A   1      45.785  30.191  33.660  1.00  0.00    -0.203 F 
ATOM     68  F   UNL A   1      45.240  25.460  36.325  1.00  0.00    -0.200 F 
ATOM     69  C   UNL A   1      46.630  27.141  35.419  1.00  0.00     0.200 A 
ATOM     70  F   UNL A   1      47.978  28.852  34.508  1.00  0.00    -0.200 F 
ATOM     71  F   UNL A   1      47.719  26.492  35.850  1.00  0.00    -0.200 F 
ENDBRANCH  38  61
ENDBRANCH  12  13
ENDBRANCH   5   7
ENDBRANCH   2   3
ENDBRANCH   1   2
BRANCH   1  72
ATOM     72  C   UNL A   1      31.539  30.869  26.154  1.00  0.00     0.117 C 
BRANCH  72  73
ATOM     73  N   UNL A   1      32.813  30.311  26.574  1.00  0.00    -0.356 N 
ATOM     74  C   UNL A   1      33.507  29.186  26.290  1.00  0.00     0.224 C 
ATOM     75  H   UNL A   1      33.281  30.890  27.217  1.00  0.00     0.163 HD
ATOM     76  O   UNL A   1      34.579  29.080  26.902  1.00  0.00    -0.275 OA
BRANCH  74  77
ATOM     77  C   UNL A   1      33.045  28.052  25.368  1.00  0.00     0.098 C 
ATOM     78  C   UNL A   1      33.864  27.786  24.098  1.00  0.00     0.017 C 
ATOM     79  C   UNL A   1      32.967  26.788  26.255  1.00  0.00     0.131 C 
ATOM     80  C   UNL A   1      33.557  26.456  23.406  1.00  0.00     0.022 C 
ATOM     81  N   UNL A   1      32.701  25.605  25.445  1.00  0.00    -0.354 N 
ATOM     82  C   UNL A   1      33.646  25.299  24.390  1.00  0.00     0.118 C 
BRANCH  81  83
ATOM     83  C   UNL A   1      31.756  24.667  25.789  1.00  0.00     0.151 A 
ATOM     84  C   UNL A   1      31.886  23.346  25.370  1.00  0.00     0.054 A 
ATOM     85  N   UNL A   1      30.738  25.003  26.619  1.00  0.00    -0.129 NA
ATOM     86  C   UNL A   1      30.982  22.385  25.806  1.00  0.00     0.074 A 
ATOM     87  N   UNL A   1      29.820  24.073  27.030  1.00  0.00    -0.110 NA
ATOM     88  C   UNL A   1      29.967  22.805  26.624  1.00  0.00     0.231 A 
BRANCH  88  89
ATOM     89  O   UNL A   1      29.038  21.928  27.087  1.00  0.00    -0.492 OA
ATOM     90  H   UNL A   1      28.153  22.208  27.213  1.00  0.00     0.295 HD
ENDBRANCH  88  89
ENDBRANCH  81  83
ENDBRANCH  74  77
ENDBRANCH  72  73
ENDBRANCH   1  72
TORSDOF 12
ENDMDL
MODEL 3
REMARK VINA RESULT:     -12.4      0.191      1.167
REMARK SMILES O=C(NCCCNC(=O)[C@H]1CCCN(c2ccc(O)nn2)C1)c1ccc(-c2c3nc(c(-c4c(F)c(F)c(F)c(F)c4F)c4ccc([nH]4)c(-c4c(F)c(F)c(F)c(F)c4F)c4nc(c(-c5c(F)c(F)c(F)c(F)c5F)c5ccc2[nH]5)C=C4)C=C3)cc1
REMARK SMILES IDX 5 1 4 2 3 3 1 4 2 5 23 7 24 8 85 9 25 10 84 11 26 12 27 13
REMARK SMILES IDX 28 14 78 15 29 16 83 17 77 18 79 19 30 20 82 21 76 22 75 23
REMARK SMILES IDX 31 25 63 26 43 27 62 28 44 29 47 30 61 31 80 32 45 33 46 34
REMARK SMILES IDX 60 36 81 37 48 38 32 39 33 40 41 41 34 42 35 43 39 44 42 45
REMARK SMILES IDX 36 46 37 47 40 48 38 49 64 50 65 51 73 52 66 53 67 54 71 55
REMARK SMILES IDX 74 56 68 57 69 58 72 59 70 60 49 61 50 62 58 63 51 64 52 65
REMARK SMILES IDX 56 66 59 67 53 68 54 69 57 70 55 71 6 72 7 73 8 74 9 76
REMARK SMILES IDX 10 77 11 78 22 79 12 80 14 81 13 82 15 83 16 84 21 85 17 86
REMARK SMILES IDX 20 87 18 88 19 89
REMARK H PARENT 3 6 79 24 47 35 7 75 19 90
REMARK Flexibility Score: inf
ROOT
ATOM      1  C   UNL A   1      31.420  32.458  26.838  1.00  0.00     0.042 C 
ENDROOT
BRANCH   1   2
ATOM      2  C   UNL A   1      32.755  33.105  27.199  1.00  0.00     0.118 C 
BRANCH   2   3
ATOM      3  N   UNL A   1      32.576  34.455  27.723  1.00  0.00    -0.352 N 
ATOM      4  O   UNL A   1      32.605  36.082  29.279  1.00  0.00    -0.269 OA
ATOM      5  C   UNL A   1      33.082  35.034  28.859  1.00  0.00     0.251 C 
ATOM      6  H   UNL A   1      32.005  35.041  27.177  1.00  0.00     0.163 HD
BRANCH   5   7
ATOM      7  C   UNL A   1      34.205  34.399  29.577  1.00  0.00     0.039 A 
ATOM      8  C   UNL A   1      35.510  34.507  29.087  1.00  0.00     0.014 A 
ATOM      9  C   UNL A   1      33.955  33.736  30.782  1.00  0.00     0.014 A 
ATOM     10  C   UNL A   1      36.550  33.856  29.742  1.00  0.00     0.010 A 
ATOM     11  C   UNL A   1      35.008  33.126  31.467  1.00  0.00     0.010 A 
ATOM     12  C   UNL A   1      36.306  33.158  30.934  1.00  0.00    -0.014 A 
BRANCH  12  13
ATOM     13  C   UNL A   1      37.427  32.475  31.619  1.00  0.00     0.031 A 
ATOM     14  C   UNL A   1      38.145  31.340  30.949  1.00  0.00     0.074 A 
ATOM     15  C   UNL A   1      37.819  32.913  32.829  1.00  0.00     0.049 A 
ATOM     16  N   UNL A   1      39.172  30.650  31.375  1.00  0.00    -0.248 NA
ATOM     17  C   UNL A   1      37.650  30.931  29.626  1.00  0.00     0.031 C 
ATOM     18  C   UNL A   1      37.198  34.015  33.564  1.00  0.00     0.029 A 
ATOM     19  N   UNL A   1      38.838  32.497  33.645  1.00  0.00    -0.354 N 
ATOM     20  C   UNL A   1      39.449  29.730  30.373  1.00  0.00     0.074 A 
ATOM     21  C   UNL A   1      38.460  29.922  29.334  1.00  0.00     0.031 C 
ATOM     22  C   UNL A   1      37.868  34.208  34.711  1.00  0.00     0.029 A 
ATOM     23  C   UNL A   1      38.938  33.219  34.808  1.00  0.00     0.049 A 
ATOM     24  H   UNL A   1      39.441  31.752  33.419  1.00  0.00     0.167 HD
ATOM     25  C   UNL A   1      40.451  28.821  30.321  1.00  0.00     0.037 A 
ATOM     26  C   UNL A   1      39.792  33.090  35.839  1.00  0.00     0.037 A 
ATOM     27  C   UNL A   1      41.431  28.633  31.359  1.00  0.00     0.049 A 
ATOM     28  C   UNL A   1      40.849  32.024  35.787  1.00  0.00     0.074 A 
ATOM     29  C   UNL A   1      42.495  27.750  31.392  1.00  0.00     0.029 A 
ATOM     30  N   UNL A   1      41.459  29.339  32.554  1.00  0.00    -0.354 N 
ATOM     31  N   UNL A   1      41.119  31.176  34.823  1.00  0.00    -0.248 NA
ATOM     32  C   UNL A   1      41.715  31.891  36.966  1.00  0.00     0.031 C 
ATOM     33  C   UNL A   1      43.142  27.891  32.623  1.00  0.00     0.029 A 
ATOM     34  C   UNL A   1      42.507  28.892  33.342  1.00  0.00     0.049 A 
ATOM     35  H   UNL A   1      40.827  30.051  32.805  1.00  0.00     0.167 HD
ATOM     36  C   UNL A   1      42.190  30.418  35.273  1.00  0.00     0.074 A 
ATOM     37  C   UNL A   1      42.535  30.919  36.588  1.00  0.00     0.031 C 
ATOM     38  C   UNL A   1      42.829  29.396  34.652  1.00  0.00     0.037 A 
BRANCH  25  39
ATOM     39  C   UNL A   1      40.543  27.954  29.101  1.00  0.00     0.064 A 
ATOM     40  C   UNL A   1      39.787  26.779  28.983  1.00  0.00     0.173 A 
ATOM     41  C   UNL A   1      41.348  28.331  28.017  1.00  0.00     0.173 A 
ATOM     42  F   UNL A   1      39.013  26.368  29.998  1.00  0.00    -0.203 F 
ATOM     43  C   UNL A   1      39.843  26.005  27.825  1.00  0.00     0.198 A 
ATOM     44  C   UNL A   1      41.384  27.568  26.852  1.00  0.00     0.198 A 
ATOM     45  F   UNL A   1      42.089  29.448  28.080  1.00  0.00    -0.203 F 
ATOM     46  F   UNL A   1      39.135  24.870  27.745  1.00  0.00    -0.200 F 
ATOM     47  C   UNL A   1      40.634  26.405  26.759  1.00  0.00     0.200 A 
ATOM     48  F   UNL A   1      42.143  27.959  25.819  1.00  0.00    -0.200 F 
ATOM     49  F   UNL A   1      40.678  25.666  25.642  1.00  0.00    -0.200 F 
ENDBRANCH  25  39
BRANCH  26  50
ATOM     50  C   UNL A   1      39.683  34.008  37.001  1.00  0.00     0.064 A 
ATOM     51  C   UNL A   1      38.889  33.679  38.106  1.00  0.00     0.173 A 
ATOM     52  C   UNL A   1      40.390  35.218  37.040  1.00  0.00     0.173 A 
ATOM     53  F   UNL A   1      38.178  32.541  38.104  1.00  0.00    -0.203 F 
ATOM     54  C   UNL A   1      38.801  34.528  39.206  1.00  0.00     0.198 A 
ATOM     55  C   UNL A   1      40.321  36.056  38.151  1.00  0.00     0.198 A 
ATOM     56  F   UNL A   1      41.166  35.578  36.007  1.00  0.00    -0.203 F 
ATOM     57  F   UNL A   1      38.011  34.203  40.240  1.00  0.00    -0.200 F 
ATOM     58  C   UNL A   1      39.523  35.712  39.231  1.00  0.00     0.200 A 
ATOM     59  F   UNL A   1      41.031  37.192  38.177  1.00  0.00    -0.200 F 
ATOM     60  F   UNL A   1      39.448  36.523  40.296  1.00  0.00    -0.200 F 
ENDBRANCH  26  50
BRANCH  38  61
ATOM     61  C   UNL A   1      43.965  28.748  35.386  1.00  0.00     0.064 A 
ATOM     62  C   UNL A   1      43.745  27.691  36.279  1.00  0.00     0.173 A 
ATOM     63  C   UNL A   1      45.288  29.148  35.149  1.00  0.00     0.173 A 
ATOM     64  F   UNL A   1      42.495  27.284  36.549  1.00  0.00    -0.203 F 
ATOM     65  C   UNL A   1      44.809  27.064  36.919  1.00  0.00     0.198 A 
ATOM     66  C   UNL A   1      46.352  28.503  35.771  1.00  0.00     0.198 A 
ATOM     67  F   UNL A   1      45.549  30.151  34.297  1.00  0.00    -0.203 F 
ATOM     68  F   UNL A   1      44.576  26.077  37.796  1.00  0.00    -0.200 F 
ATOM     69  C   UNL A   1      46.112  27.464  36.659  1.00  0.00     0.200 A 
ATOM     70  F   UNL A   1      47.610  28.882  35.508  1.00  0.00    -0.200 F 
ATOM     71  F   UNL A   1      47.137  26.852  37.267  1.00  0.00    -0.200 F 
ENDBRANCH  38  61
ENDBRANCH  12  13
ENDBRANCH   5   7
ENDBRANCH   2   3
ENDBRANCH   1   2
BRANCH   1  72
ATOM     72  C   UNL A   1      31.569  31.013  26.380  1.00  0.00     0.117 C 
BRANCH  72  73
ATOM     73  N   UNL A   1      32.858  30.456  26.752  1.00  0.00    -0.356 N 
ATOM     74  C   UNL A   1      33.564  29.355  26.406  1.00  0.00     0.224 C 
ATOM     75  H   UNL A   1      33.330  31.012  27.413  1.00  0.00     0.163 HD
ATOM     76  O   UNL A   1      34.647  29.238  26.995  1.00  0.00    -0.275 OA
BRANCH  74  77
ATOM     77  C   UNL A   1      33.101  28.257  25.442  1.00  0.00     0.098 C 
ATOM     78  C   UNL A   1      33.895  28.067  24.143  1.00  0.00     0.017 C 
ATOM     79  C   UNL A   1      33.068  26.951  26.270  1.00  0.00     0.131 C 
ATOM     80  C   UNL A   1      33.597  26.766  23.395  1.00  0.00     0.022 C 
ATOM     81  N   UNL A   1      32.805  25.803  25.411  1.00  0.00    -0.354 N 
ATOM     82  C   UNL A   1      33.730  25.566  24.321  1.00  0.00     0.118 C 
BRANCH  81  83
ATOM     83  C   UNL A   1      31.887  24.831  25.731  1.00  0.00     0.151 A 
ATOM     84  C   UNL A   1      32.044  23.529  25.265  1.00  0.00     0.054 A 
ATOM     85  N   UNL A   1      30.870  25.114  26.581  1.00  0.00    -0.129 NA
ATOM     86  C   UNL A   1      31.167  22.532  25.676  1.00  0.00     0.074 A 
ATOM     87  N   UNL A   1      29.977  24.149  26.969  1.00  0.00    -0.110 NA
ATOM     88  C   UNL A   1      30.151  22.898  26.518  1.00  0.00     0.231 A 
BRANCH  88  89
ATOM     89  O   UNL A   1      29.248  21.985  26.959  1.00  0.00    -0.492 OA
ATOM     90  H   UNL A   1      29.543  21.195  27.367  1.00  0.00     0.295 HD
ENDBRANCH  88  89
ENDBRANCH  81  83
ENDBRANCH  74  77
ENDBRANCH  72  73
ENDBRANCH   1  72
TORSDOF 12
ENDMDL
