MODEL 1
REMARK VINA RESULT:     -10.3      0.000      0.000
REMARK SMILES CN(/C=C\C(=O)NCCCNC(=O)c1ccc(-c2c3nc(c(-c4c(F)c(F)c(F)c(F)c4F)c4ccc([nH]4)c(-c4c(F)c(F)c(F)c(F)c4F)c4nc(c(-c5c(F)c(F)c(F)c(F)c5F)c5ccc2[nH]5)C=C4)C=C3)cc1)C[C@@H]1CCCO1
REMARK SMILES IDX 8 1 7 2 5 3 6 4 4 6 3 7 2 8 1 9 77 10 78 11 79 12 82 13
REMARK SMILES IDX 80 14 81 15 9 16 10 17 11 18 12 19 13 21 14 22 15 23 76 24
REMARK SMILES IDX 16 25 75 26 17 27 18 28 19 29 69 30 20 31 74 32 68 33 70 34
REMARK SMILES IDX 21 35 73 36 67 37 66 38 22 40 54 41 34 42 53 43 35 44 38 45
REMARK SMILES IDX 52 46 71 47 36 48 37 49 51 51 72 52 39 53 23 54 24 55 32 56
REMARK SMILES IDX 25 57 26 58 30 59 33 60 27 61 28 62 31 63 29 64 55 65 56 66
REMARK SMILES IDX 64 67 57 68 58 69 62 70 65 71 59 72 60 73 63 74 61 75 40 76
REMARK SMILES IDX 41 77 49 78 42 79 43 80 47 81 50 82 44 83 45 84 48 85 46 86
REMARK H PARENT 7 5 11 20 70 39 38 50
REMARK Flexibility Score: inf
ROOT
ATOM      1  C   UNL A   1      42.598  19.914  26.221  1.00  0.00     0.118 C 
ENDROOT
BRANCH   1   2
ATOM      2  N   UNL A   1      43.133  19.357  24.989  1.00  0.00    -0.352 N 
ATOM      3  C   UNL A   1      44.433  19.296  24.585  1.00  0.00     0.245 C 
ATOM      4  O   UNL A   1      44.717  18.758  23.519  1.00  0.00    -0.270 OA
ATOM      5  H   UNL A   1      42.472  18.975  24.367  1.00  0.00     0.163 HD
BRANCH   3   6
ATOM      6  C   UNL A   1      45.473  19.984  25.371  1.00  0.00     0.088 C 
ATOM      7  C   UNL A   1      45.659  21.304  25.505  1.00  0.00     0.086 C 
BRANCH   7   8
ATOM      8  N   UNL A   1      44.931  22.405  25.070  1.00  0.00    -0.378 N 
ATOM      9  C   UNL A   1      44.861  22.712  23.639  1.00  0.00     0.143 C 
BRANCH   8  10
ATOM     10  C   UNL A   1      44.492  23.461  26.013  1.00  0.00     0.147 C 
BRANCH  10  11
ATOM     11  C   UNL A   1      44.229  23.075  27.488  1.00  0.00     0.137 C 
ATOM     12  C   UNL A   1      42.943  23.669  28.041  1.00  0.00     0.036 C 
ATOM     13  O   UNL A   1      45.224  23.474  28.445  1.00  0.00    -0.376 OA
ATOM     14  C   UNL A   1      43.101  23.427  29.523  1.00  0.00     0.031 C 
ATOM     15  C   UNL A   1      44.601  23.504  29.739  1.00  0.00     0.160 C 
ENDBRANCH  10  11
ENDBRANCH   8  10
ENDBRANCH   7   8
ENDBRANCH   3   6
ENDBRANCH   1   2
BRANCH   1  16
ATOM     16  C   UNL A   1      41.116  20.235  26.154  1.00  0.00     0.042 C 
BRANCH  16  17
ATOM     17  C   UNL A   1      40.774  21.689  26.437  1.00  0.00     0.118 C 
BRANCH  17  18
ATOM     18  N   UNL A   1      39.445  22.097  25.996  1.00  0.00    -0.352 N 
ATOM     19  C   UNL A   1      38.788  23.304  26.109  1.00  0.00     0.251 C 
ATOM     20  H   UNL A   1      38.930  21.392  25.540  1.00  0.00     0.163 HD
ATOM     21  O   UNL A   1      37.646  23.449  25.700  1.00  0.00    -0.269 OA
BRANCH  19  22
ATOM     22  C   UNL A   1      39.459  24.424  26.785  1.00  0.00     0.039 A 
ATOM     23  C   UNL A   1      40.188  25.343  26.025  1.00  0.00     0.014 A 
ATOM     24  C   UNL A   1      39.307  24.595  28.158  1.00  0.00     0.014 A 
ATOM     25  C   UNL A   1      40.667  26.502  26.633  1.00  0.00     0.010 A 
ATOM     26  C   UNL A   1      39.661  25.804  28.726  1.00  0.00     0.010 A 
ATOM     27  C   UNL A   1      40.351  26.768  27.972  1.00  0.00    -0.014 A 
BRANCH  27  28
ATOM     28  C   UNL A   1      40.745  28.024  28.651  1.00  0.00     0.031 A 
ATOM     29  C   UNL A   1      42.148  28.151  29.171  1.00  0.00     0.074 A 
ATOM     30  C   UNL A   1      39.820  28.966  28.917  1.00  0.00     0.049 A 
ATOM     31  N   UNL A   1      42.650  29.020  30.009  1.00  0.00    -0.248 NA
ATOM     32  C   UNL A   1      43.100  27.110  28.744  1.00  0.00     0.031 C 
ATOM     33  C   UNL A   1      38.413  28.917  28.513  1.00  0.00     0.029 A 
ATOM     34  N   UNL A   1      39.922  30.140  29.617  1.00  0.00    -0.354 N 
ATOM     35  C   UNL A   1      43.948  28.591  30.255  1.00  0.00     0.074 A 
ATOM     36  C   UNL A   1      44.138  27.358  29.526  1.00  0.00     0.031 C 
ATOM     37  C   UNL A   1      37.792  30.025  28.948  1.00  0.00     0.029 A 
ATOM     38  C   UNL A   1      38.740  30.834  29.703  1.00  0.00     0.049 A 
ATOM     39  H   UNL A   1      40.763  30.455  30.020  1.00  0.00     0.167 HD
ATOM     40  C   UNL A   1      44.902  29.190  31.006  1.00  0.00     0.037 A 
ATOM     41  C   UNL A   1      38.461  31.991  30.332  1.00  0.00     0.037 A 
ATOM     42  C   UNL A   1      44.717  30.459  31.655  1.00  0.00     0.049 A 
ATOM     43  C   UNL A   1      39.561  32.682  31.089  1.00  0.00     0.074 A 
ATOM     44  C   UNL A   1      45.633  31.209  32.368  1.00  0.00     0.029 A 
ATOM     45  N   UNL A   1      43.529  31.177  31.645  1.00  0.00    -0.354 N 
ATOM     46  N   UNL A   1      40.799  32.293  31.288  1.00  0.00    -0.248 NA
ATOM     47  C   UNL A   1      39.231  33.973  31.709  1.00  0.00     0.031 C 
ATOM     48  C   UNL A   1      44.994  32.372  32.806  1.00  0.00     0.029 A 
ATOM     49  C   UNL A   1      43.689  32.364  32.337  1.00  0.00     0.049 A 
ATOM     50  H   UNL A   1      42.695  30.884  31.209  1.00  0.00     0.167 HD
ATOM     51  C   UNL A   1      41.401  33.297  32.031  1.00  0.00     0.074 A 
ATOM     52  C   UNL A   1      40.396  34.321  32.237  1.00  0.00     0.031 C 
ATOM     53  C   UNL A   1      42.669  33.367  32.507  1.00  0.00     0.037 A 
BRANCH  40  54
ATOM     54  C   UNL A   1      46.219  28.483  31.143  1.00  0.00     0.064 A 
ATOM     55  C   UNL A   1      46.468  27.580  32.189  1.00  0.00     0.173 A 
ATOM     56  C   UNL A   1      47.253  28.718  30.224  1.00  0.00     0.173 A 
ATOM     57  F   UNL A   1      45.520  27.332  33.106  1.00  0.00    -0.203 F 
ATOM     58  C   UNL A   1      47.714  26.975  32.336  1.00  0.00     0.198 A 
ATOM     59  C   UNL A   1      48.486  28.084  30.354  1.00  0.00     0.198 A 
ATOM     60  F   UNL A   1      47.071  29.569  29.203  1.00  0.00    -0.203 F 
ATOM     61  F   UNL A   1      47.946  26.173  33.384  1.00  0.00    -0.200 F 
ATOM     62  C   UNL A   1      48.720  27.223  31.416  1.00  0.00     0.200 A 
ATOM     63  F   UNL A   1      49.455  28.316  29.457  1.00  0.00    -0.200 F 
ATOM     64  F   UNL A   1      49.918  26.643  31.559  1.00  0.00    -0.200 F 
ENDBRANCH  40  54
BRANCH  41  65
ATOM     65  C   UNL A   1      37.101  32.582  30.234  1.00  0.00     0.064 A 
ATOM     66  C   UNL A   1      36.153  32.357  31.241  1.00  0.00     0.173 A 
ATOM     67  C   UNL A   1      36.726  33.394  29.155  1.00  0.00     0.173 A 
ATOM     68  F   UNL A   1      36.460  31.574  32.286  1.00  0.00    -0.203 F 
ATOM     69  C   UNL A   1      34.875  32.906  31.165  1.00  0.00     0.198 A 
ATOM     70  C   UNL A   1      35.455  33.964  29.091  1.00  0.00     0.198 A 
ATOM     71  F   UNL A   1      37.598  33.649  28.169  1.00  0.00    -0.203 F 
ATOM     72  F   UNL A   1      33.976  32.644  32.124  1.00  0.00    -0.200 F 
ATOM     73  C   UNL A   1      34.528  33.715  30.093  1.00  0.00     0.200 A 
ATOM     74  F   UNL A   1      35.128  34.756  28.062  1.00  0.00    -0.200 F 
ATOM     75  F   UNL A   1      33.301  34.249  30.023  1.00  0.00    -0.200 F 
ENDBRANCH  41  65
BRANCH  53  76
ATOM     76  C   UNL A   1      43.045  34.605  33.262  1.00  0.00     0.064 A 
ATOM     77  C   UNL A   1      43.461  35.767  32.598  1.00  0.00     0.173 A 
ATOM     78  C   UNL A   1      42.934  34.642  34.659  1.00  0.00     0.173 A 
ATOM     79  F   UNL A   1      43.596  35.773  31.264  1.00  0.00    -0.203 F 
ATOM     80  C   UNL A   1      43.772  36.921  33.312  1.00  0.00     0.198 A 
ATOM     81  C   UNL A   1      43.220  35.804  35.367  1.00  0.00     0.198 A 
ATOM     82  F   UNL A   1      42.533  33.554  35.335  1.00  0.00    -0.203 F 
ATOM     83  F   UNL A   1      44.205  38.011  32.663  1.00  0.00    -0.200 F 
ATOM     84  C   UNL A   1      43.643  36.941  34.694  1.00  0.00     0.200 A 
ATOM     85  F   UNL A   1      43.084  35.826  36.700  1.00  0.00    -0.200 F 
ATOM     86  F   UNL A   1      43.934  38.056  35.378  1.00  0.00    -0.200 F 
ENDBRANCH  53  76
ENDBRANCH  27  28
ENDBRANCH  19  22
ENDBRANCH  17  18
ENDBRANCH  16  17
ENDBRANCH   1  16
TORSDOF 13
ENDMDL
MODEL 2
REMARK VINA RESULT:     -10.2      5.249     10.114
REMARK SMILES CN(/C=C\C(=O)NCCCNC(=O)c1ccc(-c2c3nc(c(-c4c(F)c(F)c(F)c(F)c4F)c4ccc([nH]4)c(-c4c(F)c(F)c(F)c(F)c4F)c4nc(c(-c5c(F)c(F)c(F)c(F)c5F)c5ccc2[nH]5)C=C4)C=C3)cc1)C[C@@H]1CCCO1
REMARK SMILES IDX 8 1 7 2 5 3 6 4 4 6 3 7 2 8 1 9 77 10 78 11 79 12 82 13
REMARK SMILES IDX 80 14 81 15 9 16 10 17 11 18 12 19 13 21 14 22 15 23 76 24
REMARK SMILES IDX 16 25 75 26 17 27 18 28 19 29 69 30 20 31 74 32 68 33 70 34
REMARK SMILES IDX 21 35 73 36 67 37 66 38 22 40 54 41 34 42 53 43 35 44 38 45
REMARK SMILES IDX 52 46 71 47 36 48 37 49 51 51 72 52 39 53 23 54 24 55 32 56
REMARK SMILES IDX 25 57 26 58 30 59 33 60 27 61 28 62 31 63 29 64 55 65 56 66
REMARK SMILES IDX 64 67 57 68 58 69 62 70 65 71 59 72 60 73 63 74 61 75 40 76
REMARK SMILES IDX 41 77 49 78 42 79 43 80 47 81 50 82 44 83 45 84 48 85 46 86
REMARK H PARENT 7 5 11 20 70 39 38 50
REMARK Flexibility Score: inf
ROOT
ATOM      1  C   UNL A   1      32.445  30.034  26.492  1.00  0.00     0.118 C 
ENDROOT
BRANCH   1   2
ATOM      2  N   UNL A   1      33.057  29.978  25.174  1.00  0.00    -0.352 N 
ATOM      3  C   UNL A   1      33.299  28.882  24.402  1.00  0.00     0.245 C 
ATOM      4  O   UNL A   1      33.800  29.016  23.289  1.00  0.00    -0.270 OA
ATOM      5  H   UNL A   1      33.331  30.843  24.790  1.00  0.00     0.163 HD
BRANCH   3   6
ATOM      6  C   UNL A   1      33.073  27.535  24.958  1.00  0.00     0.088 C 
ATOM      7  C   UNL A   1      32.136  26.648  24.597  1.00  0.00     0.086 C 
BRANCH   7   8
ATOM      8  N   UNL A   1      31.186  26.642  23.582  1.00  0.00    -0.378 N 
ATOM      9  C   UNL A   1      31.610  26.475  22.189  1.00  0.00     0.143 C 
BRANCH   8  10
ATOM     10  C   UNL A   1      29.803  27.118  23.818  1.00  0.00     0.147 C 
BRANCH  10  11
ATOM     11  C   UNL A   1      29.286  28.330  23.008  1.00  0.00     0.137 C 
ATOM     12  C   UNL A   1      29.880  29.653  23.467  1.00  0.00     0.036 C 
ATOM     13  O   UNL A   1      27.870  28.567  23.035  1.00  0.00    -0.376 OA
ATOM     14  C   UNL A   1      28.989  30.652  22.768  1.00  0.00     0.031 C 
ATOM     15  C   UNL A   1      27.648  29.945  22.694  1.00  0.00     0.160 C 
ENDBRANCH  10  11
ENDBRANCH   8  10
ENDBRANCH   7   8
ENDBRANCH   3   6
ENDBRANCH   1   2
BRANCH   1  16
ATOM     16  C   UNL A   1      31.943  31.414  26.874  1.00  0.00     0.042 C 
BRANCH  16  17
ATOM     17  C   UNL A   1      33.029  32.375  27.329  1.00  0.00     0.118 C 
BRANCH  17  18
ATOM     18  N   UNL A   1      32.562  33.726  27.620  1.00  0.00    -0.352 N 
ATOM     19  C   UNL A   1      33.040  34.676  28.497  1.00  0.00     0.251 C 
ATOM     20  H   UNL A   1      31.774  34.008  27.102  1.00  0.00     0.163 HD
ATOM     21  O   UNL A   1      32.488  35.759  28.627  1.00  0.00    -0.269 OA
BRANCH  19  22
ATOM     22  C   UNL A   1      34.208  34.358  29.332  1.00  0.00     0.039 A 
ATOM     23  C   UNL A   1      34.014  33.735  30.568  1.00  0.00     0.014 A 
ATOM     24  C   UNL A   1      35.490  34.617  28.857  1.00  0.00     0.014 A 
ATOM     25  C   UNL A   1      35.120  33.267  31.276  1.00  0.00     0.010 A 
ATOM     26  C   UNL A   1      36.570  34.032  29.489  1.00  0.00     0.010 A 
ATOM     27  C   UNL A   1      36.399  33.357  30.709  1.00  0.00    -0.014 A 
BRANCH  27  28
ATOM     28  C   UNL A   1      37.602  32.792  31.362  1.00  0.00     0.031 A 
ATOM     29  C   UNL A   1      38.344  31.685  30.668  1.00  0.00     0.074 A 
ATOM     30  C   UNL A   1      37.932  33.168  32.612  1.00  0.00     0.049 A 
ATOM     31  N   UNL A   1      39.248  30.867  31.137  1.00  0.00    -0.248 NA
ATOM     32  C   UNL A   1      37.960  31.418  29.270  1.00  0.00     0.031 C 
ATOM     33  C   UNL A   1      37.243  34.189  33.405  1.00  0.00     0.029 A 
ATOM     34  N   UNL A   1      38.919  32.712  33.447  1.00  0.00    -0.354 N 
ATOM     35  C   UNL A   1      39.488  29.954  30.118  1.00  0.00     0.074 A 
ATOM     36  C   UNL A   1      38.598  30.284  29.029  1.00  0.00     0.031 C 
ATOM     37  C   UNL A   1      37.847  34.301  34.598  1.00  0.00     0.029 A 
ATOM     38  C   UNL A   1      38.929  33.327  34.675  1.00  0.00     0.049 A 
ATOM     39  H   UNL A   1      39.560  32.010  33.190  1.00  0.00     0.167 HD
ATOM     40  C   UNL A   1      40.392  28.947  30.089  1.00  0.00     0.037 A 
ATOM     41  C   UNL A   1      39.721  33.114  35.742  1.00  0.00     0.037 A 
ATOM     42  C   UNL A   1      41.325  28.690  31.150  1.00  0.00     0.049 A 
ATOM     43  C   UNL A   1      40.775  32.045  35.654  1.00  0.00     0.074 A 
ATOM     44  C   UNL A   1      42.345  27.758  31.201  1.00  0.00     0.029 A 
ATOM     45  N   UNL A   1      41.363  29.394  32.346  1.00  0.00    -0.354 N 
ATOM     46  N   UNL A   1      41.025  31.210  34.673  1.00  0.00    -0.248 NA
ATOM     47  C   UNL A   1      41.659  31.887  36.817  1.00  0.00     0.031 C 
ATOM     48  C   UNL A   1      42.987  27.884  32.437  1.00  0.00     0.029 A 
ATOM     49  C   UNL A   1      42.390  28.919  33.141  1.00  0.00     0.049 A 
ATOM     50  H   UNL A   1      40.748  30.124  32.592  1.00  0.00     0.167 HD
ATOM     51  C   UNL A   1      42.106  30.446  35.087  1.00  0.00     0.074 A 
ATOM     52  C   UNL A   1      42.474  30.927  36.404  1.00  0.00     0.031 C 
ATOM     53  C   UNL A   1      42.737  29.434  34.441  1.00  0.00     0.037 A 
BRANCH  40  54
ATOM     54  C   UNL A   1      40.413  28.073  28.868  1.00  0.00     0.064 A 
ATOM     55  C   UNL A   1      39.693  26.868  28.809  1.00  0.00     0.173 A 
ATOM     56  C   UNL A   1      41.171  28.436  27.745  1.00  0.00     0.173 A 
ATOM     57  F   UNL A   1      38.965  26.465  29.861  1.00  0.00    -0.203 F 
ATOM     58  C   UNL A   1      39.768  26.040  27.691  1.00  0.00     0.198 A 
ATOM     59  C   UNL A   1      41.215  27.622  26.615  1.00  0.00     0.198 A 
ATOM     60  F   UNL A   1      41.877  29.577  27.744  1.00  0.00    -0.203 F 
ATOM     61  F   UNL A   1      39.129  24.863  27.690  1.00  0.00    -0.200 F 
ATOM     62  C   UNL A   1      40.524  26.420  26.594  1.00  0.00     0.200 A 
ATOM     63  F   UNL A   1      41.938  27.995  25.550  1.00  0.00    -0.200 F 
ATOM     64  F   UNL A   1      40.598  25.621  25.521  1.00  0.00    -0.200 F 
ENDBRANCH  40  54
BRANCH  41  65
ATOM     65  C   UNL A   1      39.575  33.956  36.958  1.00  0.00     0.064 A 
ATOM     66  C   UNL A   1      40.194  35.212  37.032  1.00  0.00     0.173 A 
ATOM     67  C   UNL A   1      38.806  33.543  38.054  1.00  0.00     0.173 A 
ATOM     68  F   UNL A   1      40.954  35.644  36.014  1.00  0.00    -0.203 F 
ATOM     69  C   UNL A   1      40.066  36.014  38.163  1.00  0.00     0.198 A 
ATOM     70  C   UNL A   1      38.656  34.358  39.176  1.00  0.00     0.198 A 
ATOM     71  F   UNL A   1      38.184  32.356  38.031  1.00  0.00    -0.203 F 
ATOM     72  F   UNL A   1      40.699  37.194  38.221  1.00  0.00    -0.200 F 
ATOM     73  C   UNL A   1      39.291  35.590  39.232  1.00  0.00     0.200 A 
ATOM     74  F   UNL A   1      37.895  33.952  40.201  1.00  0.00    -0.200 F 
ATOM     75  F   UNL A   1      39.162  36.365  40.318  1.00  0.00    -0.200 F 
ENDBRANCH  41  65
BRANCH  53  76
ATOM     76  C   UNL A   1      43.908  28.809  35.136  1.00  0.00     0.064 A 
ATOM     77  C   UNL A   1      43.749  27.710  35.990  1.00  0.00     0.173 A 
ATOM     78  C   UNL A   1      45.206  29.284  34.899  1.00  0.00     0.173 A 
ATOM     79  F   UNL A   1      42.524  27.232  36.258  1.00  0.00    -0.203 F 
ATOM     80  C   UNL A   1      44.850  27.117  36.600  1.00  0.00     0.198 A 
ATOM     81  C   UNL A   1      46.307  28.672  35.488  1.00  0.00     0.198 A 
ATOM     82  F   UNL A   1      45.405  30.330  34.083  1.00  0.00    -0.203 F 
ATOM     83  F   UNL A   1      44.676  26.090  37.443  1.00  0.00    -0.200 F 
ATOM     84  C   UNL A   1      46.129  27.593  36.341  1.00  0.00     0.200 A 
ATOM     85  F   UNL A   1      47.541  29.125  35.230  1.00  0.00    -0.200 F 
ATOM     86  F   UNL A   1      47.189  27.015  36.922  1.00  0.00    -0.200 F 
ENDBRANCH  53  76
ENDBRANCH  27  28
ENDBRANCH  19  22
ENDBRANCH  17  18
ENDBRANCH  16  17
ENDBRANCH   1  16
TORSDOF 13
ENDMDL
MODEL 3
REMARK VINA RESULT:     -10.2      5.302     10.219
REMARK SMILES CN(/C=C\C(=O)NCCCNC(=O)c1ccc(-c2c3nc(c(-c4c(F)c(F)c(F)c(F)c4F)c4ccc([nH]4)c(-c4c(F)c(F)c(F)c(F)c4F)c4nc(c(-c5c(F)c(F)c(F)c(F)c5F)c5ccc2[nH]5)C=C4)C=C3)cc1)C[C@@H]1CCCO1
REMARK SMILES IDX 8 1 7 2 5 3 6 4 4 6 3 7 2 8 1 9 77 10 78 11 79 12 82 13
REMARK SMILES IDX 80 14 81 15 9 16 10 17 11 18 12 19 13 21 14 22 15 23 76 24
REMARK SMILES IDX 16 25 75 26 17 27 18 28 19 29 69 30 20 31 74 32 68 33 70 34
REMARK SMILES IDX 21 35 73 36 67 37 66 38 22 40 54 41 34 42 53 43 35 44 38 45
REMARK SMILES IDX 52 46 71 47 36 48 37 49 51 51 72 52 39 53 23 54 24 55 32 56
REMARK SMILES IDX 25 57 26 58 30 59 33 60 27 61 28 62 31 63 29 64 55 65 56 66
REMARK SMILES IDX 64 67 57 68 58 69 62 70 65 71 59 72 60 73 63 74 61 75 40 76
REMARK SMILES IDX 41 77 49 78 42 79 43 80 47 81 50 82 44 83 45 84 48 85 46 86
REMARK H PARENT 7 5 11 20 70 39 38 50
REMARK Flexibility Score: inf
ROOT
ATOM      1  C   UNL A   1      32.583  29.951  26.688  1.00  0.00     0.118 C 
ENDROOT
BRANCH   1   2
ATOM      2  N   UNL A   1      33.321  29.716  25.457  1.00  0.00    -0.352 N 
ATOM      3  C   UNL A   1      33.263  28.632  24.634  1.00  0.00     0.245 C 
ATOM      4  O   UNL A   1      33.937  28.608  23.607  1.00  0.00    -0.270 OA
ATOM      5  H   UNL A   1      33.940  30.431  25.184  1.00  0.00     0.163 HD
BRANCH   3   6
ATOM      6  C   UNL A   1      32.490  27.446  25.043  1.00  0.00     0.088 C 
ATOM      7  C   UNL A   1      31.373  26.964  24.482  1.00  0.00     0.086 C 
BRANCH   7   8
ATOM      8  N   UNL A   1      30.661  27.324  23.343  1.00  0.00    -0.378 N 
ATOM      9  C   UNL A   1      31.239  27.086  22.018  1.00  0.00     0.143 C 
BRANCH   8  10
ATOM     10  C   UNL A   1      29.488  28.226  23.420  1.00  0.00     0.147 C 
BRANCH  10  11
ATOM     11  C   UNL A   1      29.525  29.560  22.637  1.00  0.00     0.137 C 
ATOM     12  C   UNL A   1      29.049  30.748  23.458  1.00  0.00     0.036 C 
ATOM     13  O   UNL A   1      28.727  29.630  21.445  1.00  0.00    -0.376 OA
ATOM     14  C   UNL A   1      28.874  31.808  22.397  1.00  0.00     0.031 C 
ATOM     15  C   UNL A   1      28.480  31.017  21.163  1.00  0.00     0.160 C 
ENDBRANCH  10  11
ENDBRANCH   8  10
ENDBRANCH   7   8
ENDBRANCH   3   6
ENDBRANCH   1   2
BRANCH   1  16
ATOM     16  C   UNL A   1      32.102  31.382  26.848  1.00  0.00     0.042 C 
BRANCH  16  17
ATOM     17  C   UNL A   1      33.164  32.350  27.344  1.00  0.00     0.118 C 
BRANCH  17  18
ATOM     18  N   UNL A   1      32.669  33.688  27.651  1.00  0.00    -0.352 N 
ATOM     19  C   UNL A   1      33.116  34.629  28.555  1.00  0.00     0.251 C 
ATOM     20  H   UNL A   1      31.886  33.966  27.124  1.00  0.00     0.163 HD
ATOM     21  O   UNL A   1      32.543  35.700  28.695  1.00  0.00    -0.269 OA
BRANCH  19  22
ATOM     22  C   UNL A   1      34.274  34.314  29.405  1.00  0.00     0.039 A 
ATOM     23  C   UNL A   1      34.069  33.661  30.623  1.00  0.00     0.014 A 
ATOM     24  C   UNL A   1      35.559  34.606  28.960  1.00  0.00     0.014 A 
ATOM     25  C   UNL A   1      35.169  33.198  31.341  1.00  0.00     0.010 A 
ATOM     26  C   UNL A   1      36.638  34.028  29.599  1.00  0.00     0.010 A 
ATOM     27  C   UNL A   1      36.457  33.323  30.801  1.00  0.00    -0.014 A 
BRANCH  27  28
ATOM     28  C   UNL A   1      37.658  32.767  31.464  1.00  0.00     0.031 A 
ATOM     29  C   UNL A   1      38.400  31.649  30.788  1.00  0.00     0.074 A 
ATOM     30  C   UNL A   1      37.986  33.161  32.709  1.00  0.00     0.049 A 
ATOM     31  N   UNL A   1      39.302  30.836  31.271  1.00  0.00    -0.248 NA
ATOM     32  C   UNL A   1      38.018  31.361  29.394  1.00  0.00     0.031 C 
ATOM     33  C   UNL A   1      37.298  34.195  33.485  1.00  0.00     0.029 A 
ATOM     34  N   UNL A   1      38.972  32.717  33.552  1.00  0.00    -0.354 N 
ATOM     35  C   UNL A   1      39.542  29.909  30.266  1.00  0.00     0.074 A 
ATOM     36  C   UNL A   1      38.654  30.223  29.170  1.00  0.00     0.031 C 
ATOM     37  C   UNL A   1      37.899  34.324  34.678  1.00  0.00     0.029 A 
ATOM     38  C   UNL A   1      38.980  33.350  34.771  1.00  0.00     0.049 A 
ATOM     39  H   UNL A   1      39.612  32.010  33.307  1.00  0.00     0.167 HD
ATOM     40  C   UNL A   1      40.445  28.900  30.253  1.00  0.00     0.037 A 
ATOM     41  C   UNL A   1      39.770  33.152  35.843  1.00  0.00     0.037 A 
ATOM     42  C   UNL A   1      41.376  28.657  31.320  1.00  0.00     0.049 A 
ATOM     43  C   UNL A   1      40.823  32.080  35.772  1.00  0.00     0.074 A 
ATOM     44  C   UNL A   1      42.394  27.724  31.386  1.00  0.00     0.029 A 
ATOM     45  N   UNL A   1      41.412  29.379  32.505  1.00  0.00    -0.354 N 
ATOM     46  N   UNL A   1      41.073  31.230  34.804  1.00  0.00    -0.248 NA
ATOM     47  C   UNL A   1      41.705  31.938  36.938  1.00  0.00     0.031 C 
ATOM     48  C   UNL A   1      43.034  27.868  32.621  1.00  0.00     0.029 A 
ATOM     49  C   UNL A   1      42.438  28.914  33.309  1.00  0.00     0.049 A 
ATOM     50  H   UNL A   1      40.799  30.113  32.739  1.00  0.00     0.167 HD
ATOM     51  C   UNL A   1      42.152  30.471  35.231  1.00  0.00     0.074 A 
ATOM     52  C   UNL A   1      42.519  30.971  36.541  1.00  0.00     0.031 C 
ATOM     53  C   UNL A   1      42.783  29.449  34.602  1.00  0.00     0.037 A 
BRANCH  40  54
ATOM     54  C   UNL A   1      40.467  28.007  29.046  1.00  0.00     0.064 A 
ATOM     55  C   UNL A   1      41.242  28.312  27.915  1.00  0.00     0.173 A 
ATOM     56  C   UNL A   1      39.695  26.837  29.011  1.00  0.00     0.173 A 
ATOM     57  F   UNL A   1      41.986  29.428  27.888  1.00  0.00    -0.203 F 
ATOM     58  C   UNL A   1      41.208  27.504  26.781  1.00  0.00     0.198 A 
ATOM     59  C   UNL A   1      39.691  26.012  27.888  1.00  0.00     0.198 A 
ATOM     60  F   UNL A   1      38.936  26.494  30.063  1.00  0.00    -0.203 F 
ATOM     61  F   UNL A   1      41.902  27.857  25.690  1.00  0.00    -0.200 F 
ATOM     62  C   UNL A   1      40.438  26.352  26.770  1.00  0.00     0.200 A 
ATOM     63  F   UNL A   1      38.953  24.893  27.883  1.00  0.00    -0.200 F 
ATOM     64  F   UNL A   1      40.404  25.578  25.678  1.00  0.00    -0.200 F 
ENDBRANCH  40  54
BRANCH  41  65
ATOM     65  C   UNL A   1      39.623  34.012  37.045  1.00  0.00     0.064 A 
ATOM     66  C   UNL A   1      38.876  33.573  38.147  1.00  0.00     0.173 A 
ATOM     67  C   UNL A   1      40.234  35.271  37.132  1.00  0.00     0.173 A 
ATOM     68  F   UNL A   1      38.260  32.383  38.106  1.00  0.00    -0.203 F 
ATOM     69  C   UNL A   1      38.731  34.367  39.283  1.00  0.00     0.198 A 
ATOM     70  C   UNL A   1      40.109  36.054  38.278  1.00  0.00     0.198 A 
ATOM     71  F   UNL A   1      40.968  35.734  36.109  1.00  0.00    -0.203 F 
ATOM     72  F   UNL A   1      37.981  33.937  40.307  1.00  0.00    -0.200 F 
ATOM     73  C   UNL A   1      39.352  35.604  39.351  1.00  0.00     0.200 A 
ATOM     74  F   UNL A   1      40.723  37.243  38.346  1.00  0.00    -0.200 F 
ATOM     75  F   UNL A   1      39.218  36.365  40.446  1.00  0.00    -0.200 F 
ENDBRANCH  41  65
BRANCH  53  76
ATOM     76  C   UNL A   1      43.952  28.832  35.308  1.00  0.00     0.064 A 
ATOM     77  C   UNL A   1      43.787  27.761  36.197  1.00  0.00     0.173 A 
ATOM     78  C   UNL A   1      45.254  29.285  35.048  1.00  0.00     0.173 A 
ATOM     79  F   UNL A   1      42.559  27.306  36.487  1.00  0.00    -0.203 F 
ATOM     80  C   UNL A   1      44.887  27.176  36.816  1.00  0.00     0.198 A 
ATOM     81  C   UNL A   1      46.352  28.680  35.648  1.00  0.00     0.198 A 
ATOM     82  F   UNL A   1      45.458  30.303  34.199  1.00  0.00    -0.203 F 
ATOM     83  F   UNL A   1      44.707  26.177  37.692  1.00  0.00    -0.200 F 
ATOM     84  C   UNL A   1      46.168  27.630  36.535  1.00  0.00     0.200 A 
ATOM     85  F   UNL A   1      47.590  29.111  35.368  1.00  0.00    -0.200 F 
ATOM     86  F   UNL A   1      47.226  27.058  37.126  1.00  0.00    -0.200 F 
ENDBRANCH  53  76
ENDBRANCH  27  28
ENDBRANCH  19  22
ENDBRANCH  17  18
ENDBRANCH  16  17
ENDBRANCH   1  16
TORSDOF 13
ENDMDL
